MODEL 1
REMARK VINA RESULT:      -8.1      0.000      0.000
REMARK  10 active torsions:
REMARK  status: ('A' for Active; 'I' for Inactive)
REMARK    1  A    between atoms: C_2  and  O_22 
REMARK    2  A    between atoms: C_8  and  O_19 
REMARK    3  A    between atoms: C_17  and  C_21 
REMARK    4  A    between atoms: C_21  and  C_24 
REMARK    5  A    between atoms: C_24  and  C_25 
REMARK    6  A    between atoms: C_25  and  C_26 
REMARK       I    between atoms: C_26  and  N_27 
REMARK    7  A    between atoms: N_27  and  C_28 
REMARK    8  A    between atoms: C_28  and  C_29 
REMARK    9  A    between atoms: C_29  and  S_30 
REMARK   10  A    between atoms: S_30  and  O_32 
ROOT
HETATM    1  C   UNK N   1      32.943  15.290   9.614  0.00  0.00     0.032 C 
HETATM    2  C   UNK N   1      34.395  15.764   9.513  0.00  0.00     0.118 C 
HETATM    3  C   UNK N   1      34.936  15.803   8.076  0.00  0.00     0.037 C 
HETATM    4  C   UNK N   1      34.001  16.401   7.001  0.00  0.00    -0.001 C 
HETATM    5  C   UNK N   1      32.620  16.849   7.569  0.00  0.00    -0.036 C 
HETATM    6  C   UNK N   1      32.047  15.725   8.453  0.00  0.00     0.012 C 
HETATM    7  C   UNK N   1      33.857  15.325   5.910  0.00  0.00     0.037 C 
HETATM    8  C   UNK N   1      32.900  15.741   4.788  0.00  0.00     0.123 C 
HETATM    9  C   UNK N   1      31.524  16.022   5.400  0.00  0.00     0.024 C 
HETATM   10  C   UNK N   1      31.607  17.168   6.445  0.00  0.00     0.001 C 
HETATM   11  C   UNK N   1      30.447  16.438   4.381  0.00  0.00     0.001 C 
HETATM   12  C   UNK N   1      29.078  16.441   5.056  0.00  0.00    -0.036 C 
HETATM   13  C   UNK N   1      29.046  17.525   6.129  0.00  0.00     0.010 C 
HETATM   14  C   UNK N   1      30.218  17.420   7.100  0.00  0.00     0.007 C 
HETATM   15  C   UNK N   1      30.221  15.596   3.143  0.00  0.00     0.006 C 
HETATM   16  C   UNK N   1      28.809  16.010   2.700  0.00  0.00     0.006 C 
HETATM   17  C   UNK N   1      28.206  16.795   3.874  0.00  0.00    -0.002 C 
HETATM   18  C   UNK N   1      32.781  18.131   8.395  0.00  0.00     0.016 C 
HETATM   19  C   UNK N   1      28.702  15.052   5.615  0.00  0.00     0.016 C 
ENDROOT
BRANCH  17  20
HETATM   20  C   UNK N   1      26.668  16.782   4.044  0.00  0.00    -0.013 C 
HETATM   21  C   UNK N   1      25.947  16.314   2.791  0.00  0.00     0.010 C 
BRANCH  20  22
HETATM   22  C   UNK N   1      26.022  18.073   4.563  0.00  0.00     0.014 C 
BRANCH  22  23
HETATM   23  C   UNK N   1      26.580  19.329   3.892  0.00  0.00     0.103 C 
BRANCH  23  24
HETATM   24  C   UNK N   1      25.495  20.105   3.215  0.00  0.00     0.217 C 
HETATM   25  N   UNK N   1      24.207  19.785   3.464  0.00  0.00    -0.360 N 
HETATM   26  H   UNK N   1      24.009  19.135   4.177  0.00  0.00     0.162 HD
HETATM   27  O   UNK N   1      25.778  20.953   2.375  0.00  0.00    -0.274 OA
BRANCH  25  28
HETATM   28  C   UNK N   1      23.114  20.356   2.726  0.00  0.00     0.139 C 
BRANCH  28  29
HETATM   29  C   UNK N   1      21.799  19.715   3.140  0.00  0.00     0.175 C 
BRANCH  29  30
HETATM   30  S   UNK N   1      20.385  20.492   2.293  0.00  0.00     0.095 S 
HETATM   31  O   UNK N   1      21.620  21.373   2.045  0.00  0.00    -0.601 OA
HETATM   32  O   UNK N   1      20.790  19.238   1.502  0.00  0.00    -0.601 OA
BRANCH  30  33
HETATM   33  O   UNK N   1      20.181  21.019   0.674  0.00  0.00    -0.296 OA
HETATM   34  H   UNK N   1      20.936  21.368   0.174  0.00  0.00     0.232 HD
ENDBRANCH  30  33
ENDBRANCH  29  30
ENDBRANCH  28  29
ENDBRANCH  25  28
ENDBRANCH  23  24
ENDBRANCH  22  23
ENDBRANCH  20  22
ENDBRANCH  17  20
BRANCH   8  35
HETATM   35  O   UNK N   1      33.404  16.841   4.088  0.00  0.00    -0.395 OA
HETATM   36  H   UNK N   1      34.133  17.430   3.838  0.00  0.00     0.210 HD
ENDBRANCH   8  35
BRANCH   2  37
HETATM   37  O   UNK N   1      34.561  16.997  10.146  0.00  0.00    -0.396 OA
HETATM   38  H   UNK N   1      34.648  17.954  10.022  0.00  0.00     0.210 HD
ENDBRANCH   2  37
TORSDOF 10
ENDMDL
MODEL 2
REMARK VINA RESULT:      -7.9      1.679      2.081
REMARK  10 active torsions:
REMARK  status: ('A' for Active; 'I' for Inactive)
REMARK    1  A    between atoms: C_2  and  O_22 
REMARK    2  A    between atoms: C_8  and  O_19 
REMARK    3  A    between atoms: C_17  and  C_21 
REMARK    4  A    between atoms: C_21  and  C_24 
REMARK    5  A    between atoms: C_24  and  C_25 
REMARK    6  A    between atoms: C_25  and  C_26 
REMARK       I    between atoms: C_26  and  N_27 
REMARK    7  A    between atoms: N_27  and  C_28 
REMARK    8  A    between atoms: C_28  and  C_29 
REMARK    9  A    between atoms: C_29  and  S_30 
REMARK   10  A    between atoms: S_30  and  O_32 
ROOT
HETATM    1  C   UNK N   1      32.974  15.399   8.656  0.00  0.00     0.032 C 
HETATM    2  C   UNK N   1      34.051  16.482   8.585  0.00  0.00     0.118 C 
HETATM    3  C   UNK N   1      34.227  17.090   7.185  0.00  0.00     0.037 C 
HETATM    4  C   UNK N   1      32.933  17.435   6.413  0.00  0.00    -0.001 C 
HETATM    5  C   UNK N   1      31.635  17.071   7.197  0.00  0.00    -0.036 C 
HETATM    6  C   UNK N   1      31.764  15.640   7.751  0.00  0.00     0.012 C 
HETATM    7  C   UNK N   1      33.024  16.692   5.068  0.00  0.00     0.037 C 
HETATM    8  C   UNK N   1      31.776  16.881   4.199  0.00  0.00     0.123 C 
HETATM    9  C   UNK N   1      30.560  16.365   4.975  0.00  0.00     0.024 C 
HETATM   10  C   UNK N   1      30.376  17.151   6.303  0.00  0.00     0.001 C 
HETATM   11  C   UNK N   1      29.226  16.476   4.215  0.00  0.00     0.001 C 
HETATM   12  C   UNK N   1      28.143  15.708   4.968  0.00  0.00    -0.036 C 
HETATM   13  C   UNK N   1      27.887  16.382   6.313  0.00  0.00     0.010 C 
HETATM   14  C   UNK N   1      29.169  16.594   7.112  0.00  0.00     0.007 C 
HETATM   15  C   UNK N   1      29.119  15.932   2.805  0.00  0.00     0.006 C 
HETATM   16  C   UNK N   1      27.604  15.759   2.619  0.00  0.00     0.006 C 
HETATM   17  C   UNK N   1      26.983  15.895   4.017  0.00  0.00    -0.002 C 
HETATM   18  C   UNK N   1      31.421  18.059   8.349  0.00  0.00     0.016 C 
HETATM   19  C   UNK N   1      28.488  14.211   5.119  0.00  0.00     0.016 C 
ENDROOT
BRANCH  17  20
HETATM   20  C   UNK N   1      25.653  15.154   4.298  0.00  0.00    -0.013 C 
HETATM   21  C   UNK N   1      24.971  14.680   3.027  0.00  0.00     0.010 C 
BRANCH  20  22
HETATM   22  C   UNK N   1      24.639  15.876   5.195  0.00  0.00     0.014 C 
BRANCH  22  23
HETATM   23  C   UNK N   1      24.400  17.327   4.771  0.00  0.00     0.103 C 
BRANCH  23  24
HETATM   24  C   UNK N   1      22.946  17.674   4.836  0.00  0.00     0.217 C 
HETATM   25  N   UNK N   1      22.353  18.217   3.751  0.00  0.00    -0.360 N 
HETATM   26  H   UNK N   1      22.856  18.255   2.905  0.00  0.00     0.162 HD
HETATM   27  O   UNK N   1      22.333  17.556   5.891  0.00  0.00    -0.274 OA
BRANCH  25  28
HETATM   28  C   UNK N   1      21.015  18.742   3.785  0.00  0.00     0.139 C 
BRANCH  28  29
HETATM   29  C   UNK N   1      20.567  19.146   2.389  0.00  0.00     0.175 C 
BRANCH  29  30
HETATM   30  S   UNK N   1      20.806  20.931   2.108  0.00  0.00     0.095 S 
HETATM   31  O   UNK N   1      20.743  20.703   3.626  0.00  0.00    -0.601 OA
HETATM   32  O   UNK N   1      22.125  20.213   1.785  0.00  0.00    -0.601 OA
BRANCH  30  33
HETATM   33  O   UNK N   1      21.965  22.034   2.726  0.00  0.00    -0.296 OA
HETATM   34  H   UNK N   1      22.910  21.815   2.702  0.00  0.00     0.232 HD
ENDBRANCH  30  33
ENDBRANCH  29  30
ENDBRANCH  28  29
ENDBRANCH  25  28
ENDBRANCH  23  24
ENDBRANCH  22  23
ENDBRANCH  20  22
ENDBRANCH  17  20
BRANCH   8  35
HETATM   35  O   UNK N   1      31.633  18.218   3.819  0.00  0.00    -0.395 OA
HETATM   36  H   UNK N   1      31.084  18.983   3.586  0.00  0.00     0.210 HD
ENDBRANCH   8  35
BRANCH   2  37
HETATM   37  O   UNK N   1      33.823  17.475   9.538  0.00  0.00    -0.396 OA
HETATM   38  H   UNK N   1      33.850  18.426   9.726  0.00  0.00     0.210 HD
ENDBRANCH   2  37
TORSDOF 10
ENDMDL
MODEL 3
REMARK VINA RESULT:      -7.8     11.479     14.976
REMARK  10 active torsions:
REMARK  status: ('A' for Active; 'I' for Inactive)
REMARK    1  A    between atoms: C_2  and  O_22 
REMARK    2  A    between atoms: C_8  and  O_19 
REMARK    3  A    between atoms: C_17  and  C_21 
REMARK    4  A    between atoms: C_21  and  C_24 
REMARK    5  A    between atoms: C_24  and  C_25 
REMARK    6  A    between atoms: C_25  and  C_26 
REMARK       I    between atoms: C_26  and  N_27 
REMARK    7  A    between atoms: N_27  and  C_28 
REMARK    8  A    between atoms: C_28  and  C_29 
REMARK    9  A    between atoms: C_29  and  S_30 
REMARK   10  A    between atoms: S_30  and  O_32 
ROOT
HETATM    1  C   UNK N   1      27.818  29.180  -6.179  0.00  0.00     0.032 C 
HETATM    2  C   UNK N   1      27.318  29.588  -4.791  0.00  0.00     0.118 C 
HETATM    3  C   UNK N   1      26.289  28.616  -4.194  0.00  0.00     0.037 C 
HETATM    4  C   UNK N   1      26.597  27.108  -4.335  0.00  0.00    -0.001 C 
HETATM    5  C   UNK N   1      27.921  26.822  -5.107  0.00  0.00    -0.036 C 
HETATM    6  C   UNK N   1      27.951  27.671  -6.392  0.00  0.00     0.012 C 
HETATM    7  C   UNK N   1      25.375  26.484  -5.032  0.00  0.00     0.037 C 
HETATM    8  C   UNK N   1      25.549  24.986  -5.307  0.00  0.00     0.123 C 
HETATM    9  C   UNK N   1      26.784  24.794  -6.193  0.00  0.00     0.024 C 
HETATM   10  C   UNK N   1      28.059  25.330  -5.488  0.00  0.00     0.001 C 
HETATM   11  C   UNK N   1      27.076  23.330  -6.568  0.00  0.00     0.001 C 
HETATM   12  C   UNK N   1      28.156  23.283  -7.645  0.00  0.00    -0.036 C 
HETATM   13  C   UNK N   1      29.467  23.812  -7.069  0.00  0.00     0.010 C 
HETATM   14  C   UNK N   1      29.305  25.177  -6.409  0.00  0.00     0.007 C 
HETATM   15  C   UNK N   1      25.972  22.469  -7.148  0.00  0.00     0.006 C 
HETATM   16  C   UNK N   1      26.747  21.337  -7.839  0.00  0.00     0.006 C 
HETATM   17  C   UNK N   1      28.212  21.794  -7.893  0.00  0.00    -0.002 C 
HETATM   18  C   UNK N   1      29.129  27.166  -4.227  0.00  0.00     0.016 C 
HETATM   19  C   UNK N   1      27.734  24.034  -8.926  0.00  0.00     0.016 C 
ENDROOT
BRANCH  17  20
HETATM   20  C   UNK N   1      29.101  21.255  -9.041  0.00  0.00    -0.013 C 
HETATM   21  C   UNK N   1      28.286  20.733 -10.212  0.00  0.00     0.010 C 
BRANCH  20  22
HETATM   22  C   UNK N   1      30.175  20.230  -8.657  0.00  0.00     0.014 C 
BRANCH  22  23
HETATM   23  C   UNK N   1      30.115  19.831  -7.181  0.00  0.00     0.103 C 
BRANCH  23  24
HETATM   24  C   UNK N   1      31.285  20.381  -6.427  0.00  0.00     0.217 C 
HETATM   25  N   UNK N   1      31.073  20.984  -5.237  0.00  0.00    -0.360 N 
HETATM   26  H   UNK N   1      30.175  20.939  -4.836  0.00  0.00     0.162 HD
HETATM   27  O   UNK N   1      32.402  20.366  -6.931  0.00  0.00    -0.274 OA
BRANCH  25  28
HETATM   28  C   UNK N   1      32.108  21.692  -4.536  0.00  0.00     0.139 C 
BRANCH  28  29
HETATM   29  C   UNK N   1      31.593  23.033  -4.038  0.00  0.00     0.175 C 
BRANCH  29  30
HETATM   30  S   UNK N   1      30.262  22.817  -2.811  0.00  0.00     0.095 S 
HETATM   31  O   UNK N   1      31.500  22.066  -2.295  0.00  0.00    -0.601 OA
HETATM   32  O   UNK N   1      30.772  24.264  -2.718  0.00  0.00    -0.601 OA
BRANCH  30  33
HETATM   33  O   UNK N   1      30.222  23.095  -1.119  0.00  0.00    -0.296 OA
HETATM   34  H   UNK N   1      30.929  22.753  -0.549  0.00  0.00     0.232 HD
ENDBRANCH  30  33
ENDBRANCH  29  30
ENDBRANCH  28  29
ENDBRANCH  25  28
ENDBRANCH  23  24
ENDBRANCH  22  23
ENDBRANCH  20  22
ENDBRANCH  17  20
BRANCH   8  35
HETATM   35  O   UNK N   1      25.638  24.269  -4.111  0.00  0.00    -0.395 OA
HETATM   36  H   UNK N   1      25.354  24.094  -3.200  0.00  0.00     0.210 HD
ENDBRANCH   8  35
BRANCH   2  37
HETATM   37  O   UNK N   1      28.386  29.788  -3.916  0.00  0.00    -0.396 OA
HETATM   38  H   UNK N   1      29.095  30.391  -3.644  0.00  0.00     0.210 HD
ENDBRANCH   2  37
TORSDOF 10
ENDMDL
MODEL 4
REMARK VINA RESULT:      -7.5      2.025      2.506
REMARK  10 active torsions:
REMARK  status: ('A' for Active; 'I' for Inactive)
REMARK    1  A    between atoms: C_2  and  O_22 
REMARK    2  A    between atoms: C_8  and  O_19 
REMARK    3  A    between atoms: C_17  and  C_21 
REMARK    4  A    between atoms: C_21  and  C_24 
REMARK    5  A    between atoms: C_24  and  C_25 
REMARK    6  A    between atoms: C_25  and  C_26 
REMARK       I    between atoms: C_26  and  N_27 
REMARK    7  A    between atoms: N_27  and  C_28 
REMARK    8  A    between atoms: C_28  and  C_29 
REMARK    9  A    between atoms: C_29  and  S_30 
REMARK   10  A    between atoms: S_30  and  O_32 
ROOT
HETATM    1  C   UNK N   1      32.846  15.377   8.796  0.00  0.00     0.032 C 
HETATM    2  C   UNK N   1      34.075  16.275   8.636  0.00  0.00     0.118 C 
HETATM    3  C   UNK N   1      34.271  16.807   7.208  0.00  0.00     0.037 C 
HETATM    4  C   UNK N   1      33.009  17.331   6.485  0.00  0.00    -0.001 C 
HETATM    5  C   UNK N   1      31.712  17.198   7.341  0.00  0.00    -0.036 C 
HETATM    6  C   UNK N   1      31.644  15.781   7.940  0.00  0.00     0.012 C 
HETATM    7  C   UNK N   1      32.914  16.545   5.165  0.00  0.00     0.037 C 
HETATM    8  C   UNK N   1      31.667  16.903   4.349  0.00  0.00     0.123 C 
HETATM    9  C   UNK N   1      30.427  16.609   5.199  0.00  0.00     0.024 C 
HETATM   10  C   UNK N   1      30.437  17.451   6.504  0.00  0.00     0.001 C 
HETATM   11  C   UNK N   1      29.090  16.907   4.498  0.00  0.00     0.001 C 
HETATM   12  C   UNK N   1      27.940  16.343   5.327  0.00  0.00    -0.036 C 
HETATM   13  C   UNK N   1      27.862  17.086   6.657  0.00  0.00     0.010 C 
HETATM   14  C   UNK N   1      29.201  17.115   7.388  0.00  0.00     0.007 C 
HETATM   15  C   UNK N   1      28.826  16.348   3.114  0.00  0.00     0.006 C 
HETATM   16  C   UNK N   1      27.295  16.411   3.005  0.00  0.00     0.006 C 
HETATM   17  C   UNK N   1      26.776  16.683   4.425  0.00  0.00    -0.002 C 
HETATM   18  C   UNK N   1      31.715  18.240   8.466  0.00  0.00     0.016 C 
HETATM   19  C   UNK N   1      28.054  14.814   5.516  0.00  0.00     0.016 C 
ENDROOT
BRANCH  17  20
HETATM   20  C   UNK N   1      25.363  16.170   4.794  0.00  0.00    -0.013 C 
HETATM   21  C   UNK N   1      24.763  15.287   3.713  0.00  0.00     0.010 C 
BRANCH  20  22
HETATM   22  C   UNK N   1      24.339  17.226   5.230  0.00  0.00     0.014 C 
BRANCH  22  23
HETATM   23  C   UNK N   1      24.287  18.428   4.284  0.00  0.00     0.103 C 
BRANCH  23  24
HETATM   24  C   UNK N   1      22.885  18.699   3.836  0.00  0.00     0.217 C 
HETATM   25  N   UNK N   1      22.069  17.657   3.569  0.00  0.00    -0.360 N 
HETATM   26  H   UNK N   1      22.372  16.748   3.795  0.00  0.00     0.162 HD
HETATM   27  O   UNK N   1      22.520  19.850   3.624  0.00  0.00    -0.274 OA
BRANCH  25  28
HETATM   28  C   UNK N   1      20.775  17.825   2.967  0.00  0.00     0.139 C 
BRANCH  28  29
HETATM   29  C   UNK N   1      19.940  16.567   3.140  0.00  0.00     0.175 C 
BRANCH  29  30
HETATM   30  S   UNK N   1      20.115  15.452   1.709  0.00  0.00     0.095 S 
HETATM   31  O   UNK N   1      20.564  16.854   1.267  0.00  0.00    -0.601 OA
HETATM   32  O   UNK N   1      21.228  15.121   2.715  0.00  0.00    -0.601 OA
BRANCH  30  33
HETATM   33  O   UNK N   1      21.443  15.138   0.670  0.00  0.00    -0.296 OA
HETATM   34  H   UNK N   1      22.318  14.942   1.040  0.00  0.00     0.232 HD
ENDBRANCH  30  33
ENDBRANCH  29  30
ENDBRANCH  28  29
ENDBRANCH  25  28
ENDBRANCH  23  24
ENDBRANCH  22  23
ENDBRANCH  20  22
ENDBRANCH  17  20
BRANCH   8  35
HETATM   35  O   UNK N   1      31.716  18.235   3.927  0.00  0.00    -0.395 OA
HETATM   36  H   UNK N   1      31.282  19.070   3.693  0.00  0.00     0.210 HD
ENDBRANCH   8  35
BRANCH   2  37
HETATM   37  O   UNK N   1      34.054  17.318   9.562  0.00  0.00    -0.396 OA
HETATM   38  H   UNK N   1      34.239  18.257   9.714  0.00  0.00     0.210 HD
ENDBRANCH   2  37
TORSDOF 10
ENDMDL
MODEL 5
REMARK VINA RESULT:      -7.4     11.355     15.478
REMARK  10 active torsions:
REMARK  status: ('A' for Active; 'I' for Inactive)
REMARK    1  A    between atoms: C_2  and  O_22 
REMARK    2  A    between atoms: C_8  and  O_19 
REMARK    3  A    between atoms: C_17  and  C_21 
REMARK    4  A    between atoms: C_21  and  C_24 
REMARK    5  A    between atoms: C_24  and  C_25 
REMARK    6  A    between atoms: C_25  and  C_26 
REMARK       I    between atoms: C_26  and  N_27 
REMARK    7  A    between atoms: N_27  and  C_28 
REMARK    8  A    between atoms: C_28  and  C_29 
REMARK    9  A    between atoms: C_29  and  S_30 
REMARK   10  A    between atoms: S_30  and  O_32 
ROOT
HETATM    1  C   UNK N   1      27.380  28.144  -4.972  0.00  0.00     0.032 C 
HETATM    2  C   UNK N   1      25.878  28.344  -4.764  0.00  0.00     0.118 C 
HETATM    3  C   UNK N   1      25.008  27.313  -5.498  0.00  0.00     0.037 C 
HETATM    4  C   UNK N   1      25.464  25.839  -5.417  0.00  0.00    -0.001 C 
HETATM    5  C   UNK N   1      26.782  25.649  -4.605  0.00  0.00    -0.036 C 
HETATM    6  C   UNK N   1      27.821  26.683  -5.078  0.00  0.00     0.012 C 
HETATM    7  C   UNK N   1      25.605  25.352  -6.870  0.00  0.00     0.037 C 
HETATM    8  C   UNK N   1      26.117  23.911  -6.967  0.00  0.00     0.123 C 
HETATM    9  C   UNK N   1      27.483  23.832  -6.278  0.00  0.00     0.024 C 
HETATM   10  C   UNK N   1      27.371  24.230  -4.781  0.00  0.00     0.001 C 
HETATM   11  C   UNK N   1      28.133  22.438  -6.311  0.00  0.00     0.001 C 
HETATM   12  C   UNK N   1      29.579  22.535  -5.832  0.00  0.00    -0.036 C 
HETATM   13  C   UNK N   1      29.598  22.944  -4.362  0.00  0.00     0.010 C 
HETATM   14  C   UNK N   1      28.767  24.196  -4.094  0.00  0.00     0.007 C 
HETATM   15  C   UNK N   1      28.254  21.697  -7.628  0.00  0.00     0.006 C 
HETATM   16  C   UNK N   1      29.359  20.669  -7.342  0.00  0.00     0.006 C 
HETATM   17  C   UNK N   1      30.013  21.100  -6.021  0.00  0.00    -0.002 C 
HETATM   18  C   UNK N   1      26.509  25.831  -3.108  0.00  0.00     0.016 C 
HETATM   19  C   UNK N   1      30.422  23.480  -6.714  0.00  0.00     0.016 C 
ENDROOT
BRANCH  17  20
HETATM   20  C   UNK N   1      31.497  20.726  -5.787  0.00  0.00    -0.013 C 
HETATM   21  C   UNK N   1      32.097  19.964  -6.956  0.00  0.00     0.010 C 
BRANCH  20  22
HETATM   22  C   UNK N   1      31.827  20.006  -4.474  0.00  0.00     0.014 C 
BRANCH  22  23
HETATM   23  C   UNK N   1      33.222  19.378  -4.474  0.00  0.00     0.103 C 
BRANCH  23  24
HETATM   24  C   UNK N   1      34.256  20.362  -4.025  0.00  0.00     0.217 C 
HETATM   25  N   UNK N   1      35.372  20.525  -4.767  0.00  0.00    -0.360 N 
HETATM   26  H   UNK N   1      35.424  20.087  -5.647  0.00  0.00     0.162 HD
HETATM   27  O   UNK N   1      34.129  20.938  -2.950  0.00  0.00    -0.274 OA
BRANCH  25  28
HETATM   28  C   UNK N   1      36.489  21.311  -4.318  0.00  0.00     0.139 C 
BRANCH  28  29
HETATM   29  C   UNK N   1      37.777  20.820  -4.958  0.00  0.00     0.175 C 
BRANCH  29  30
HETATM   30  S   UNK N   1      39.182  20.946  -3.804  0.00  0.00     0.095 S 
HETATM   31  O   UNK N   1      37.908  21.328  -3.033  0.00  0.00    -0.601 OA
HETATM   32  O   UNK N   1      38.902  19.457  -4.059  0.00  0.00    -0.601 OA
BRANCH  30  33
HETATM   33  O   UNK N   1      39.438  20.270  -2.249  0.00  0.00    -0.296 OA
HETATM   34  H   UNK N   1      39.504  19.309  -2.137  0.00  0.00     0.232 HD
ENDBRANCH  30  33
ENDBRANCH  29  30
ENDBRANCH  28  29
ENDBRANCH  25  28
ENDBRANCH  23  24
ENDBRANCH  22  23
ENDBRANCH  20  22
ENDBRANCH  17  20
BRANCH   8  35
HETATM   35  O   UNK N   1      25.193  23.018  -6.417  0.00  0.00    -0.395 OA
HETATM   36  H   UNK N   1      24.957  22.319  -5.788  0.00  0.00     0.210 HD
ENDBRANCH   8  35
BRANCH   2  37
HETATM   37  O   UNK N   1      25.565  28.389  -3.405  0.00  0.00    -0.396 OA
HETATM   38  H   UNK N   1      25.634  28.900  -2.584  0.00  0.00     0.210 HD
ENDBRANCH   2  37
TORSDOF 10
ENDMDL
MODEL 6
REMARK VINA RESULT:      -7.4     11.101     15.314
REMARK  10 active torsions:
REMARK  status: ('A' for Active; 'I' for Inactive)
REMARK    1  A    between atoms: C_2  and  O_22 
REMARK    2  A    between atoms: C_8  and  O_19 
REMARK    3  A    between atoms: C_17  and  C_21 
REMARK    4  A    between atoms: C_21  and  C_24 
REMARK    5  A    between atoms: C_24  and  C_25 
REMARK    6  A    between atoms: C_25  and  C_26 
REMARK       I    between atoms: C_26  and  N_27 
REMARK    7  A    between atoms: N_27  and  C_28 
REMARK    8  A    between atoms: C_28  and  C_29 
REMARK    9  A    between atoms: C_29  and  S_30 
REMARK   10  A    between atoms: S_30  and  O_32 
ROOT
HETATM    1  C   UNK N   1      27.370  28.150  -4.925  0.00  0.00     0.032 C 
HETATM    2  C   UNK N   1      25.866  28.361  -4.739  0.00  0.00     0.118 C 
HETATM    3  C   UNK N   1      24.999  27.366  -5.525  0.00  0.00     0.037 C 
HETATM    4  C   UNK N   1      25.438  25.884  -5.487  0.00  0.00    -0.001 C 
HETATM    5  C   UNK N   1      26.738  25.651  -4.658  0.00  0.00    -0.036 C 
HETATM    6  C   UNK N   1      27.797  26.689  -5.074  0.00  0.00     0.012 C 
HETATM    7  C   UNK N   1      25.601  25.447  -6.953  0.00  0.00     0.037 C 
HETATM    8  C   UNK N   1      26.099  24.005  -7.091  0.00  0.00     0.123 C 
HETATM    9  C   UNK N   1      27.451  23.886  -6.380  0.00  0.00     0.024 C 
HETATM   10  C   UNK N   1      27.315  24.233  -4.872  0.00  0.00     0.001 C 
HETATM   11  C   UNK N   1      28.086  22.486  -6.450  0.00  0.00     0.001 C 
HETATM   12  C   UNK N   1      29.524  22.550  -5.940  0.00  0.00    -0.036 C 
HETATM   13  C   UNK N   1      29.519  22.907  -4.457  0.00  0.00     0.010 C 
HETATM   14  C   UNK N   1      28.697  24.158  -4.161  0.00  0.00     0.007 C 
HETATM   15  C   UNK N   1      28.225  21.790  -7.788  0.00  0.00     0.006 C 
HETATM   16  C   UNK N   1      29.313  20.740  -7.519  0.00  0.00     0.006 C 
HETATM   17  C   UNK N   1      29.946  21.118  -6.171  0.00  0.00    -0.002 C 
HETATM   18  C   UNK N   1      26.438  25.784  -3.160  0.00  0.00     0.016 C 
HETATM   19  C   UNK N   1      30.394  23.516  -6.773  0.00  0.00     0.016 C 
ENDROOT
BRANCH  17  20
HETATM   20  C   UNK N   1      31.421  20.719  -5.923  0.00  0.00    -0.013 C 
HETATM   21  C   UNK N   1      31.995  19.880  -7.052  0.00  0.00     0.010 C 
BRANCH  20  22
HETATM   22  C   UNK N   1      31.739  20.063  -4.574  0.00  0.00     0.014 C 
BRANCH  22  23
HETATM   23  C   UNK N   1      33.021  20.604  -3.938  0.00  0.00     0.103 C 
BRANCH  23  24
HETATM   24  C   UNK N   1      34.143  19.624  -4.068  0.00  0.00     0.217 C 
HETATM   25  N   UNK N   1      33.861  18.303  -4.077  0.00  0.00    -0.360 N 
HETATM   26  H   UNK N   1      32.920  18.019  -4.123  0.00  0.00     0.162 HD
HETATM   27  O   UNK N   1      35.305  20.016  -4.069  0.00  0.00    -0.274 OA
BRANCH  25  28
HETATM   28  C   UNK N   1      34.885  17.295  -4.019  0.00  0.00     0.139 C 
BRANCH  28  29
HETATM   29  C   UNK N   1      35.066  16.642  -5.380  0.00  0.00     0.175 C 
BRANCH  29  30
HETATM   30  S   UNK N   1      36.481  17.360  -6.277  0.00  0.00     0.095 S 
HETATM   31  O   UNK N   1      36.370  15.882  -6.685  0.00  0.00    -0.601 OA
HETATM   32  O   UNK N   1      35.189  17.906  -6.902  0.00  0.00    -0.601 OA
BRANCH  30  33
HETATM   33  O   UNK N   1      36.879  17.374  -7.945  0.00  0.00    -0.296 OA
HETATM   34  H   UNK N   1      37.753  17.677  -8.238  0.00  0.00     0.232 HD
ENDBRANCH  30  33
ENDBRANCH  29  30
ENDBRANCH  28  29
ENDBRANCH  25  28
ENDBRANCH  23  24
ENDBRANCH  22  23
ENDBRANCH  20  22
ENDBRANCH  17  20
BRANCH   8  35
HETATM   35  O   UNK N   1      25.156  23.103  -6.590  0.00  0.00    -0.395 OA
HETATM   36  H   UNK N   1      24.421  22.483  -6.715  0.00  0.00     0.210 HD
ENDBRANCH   8  35
BRANCH   2  37
HETATM   37  O   UNK N   1      25.527  28.361  -3.385  0.00  0.00    -0.396 OA
HETATM   38  H   UNK N   1      24.953  28.744  -2.703  0.00  0.00     0.210 HD
ENDBRANCH   2  37
TORSDOF 10
ENDMDL
MODEL 7
REMARK VINA RESULT:      -7.3      4.377     10.457
REMARK  10 active torsions:
REMARK  status: ('A' for Active; 'I' for Inactive)
REMARK    1  A    between atoms: C_2  and  O_22 
REMARK    2  A    between atoms: C_8  and  O_19 
REMARK    3  A    between atoms: C_17  and  C_21 
REMARK    4  A    between atoms: C_21  and  C_24 
REMARK    5  A    between atoms: C_24  and  C_25 
REMARK    6  A    between atoms: C_25  and  C_26 
REMARK       I    between atoms: C_26  and  N_27 
REMARK    7  A    between atoms: N_27  and  C_28 
REMARK    8  A    between atoms: C_28  and  C_29 
REMARK    9  A    between atoms: C_29  and  S_30 
REMARK   10  A    between atoms: S_30  and  O_32 
ROOT
HETATM    1  C   UNK N   1      20.092  16.165   1.841  0.00  0.00     0.032 C 
HETATM    2  C   UNK N   1      19.578  14.799   1.382  0.00  0.00     0.118 C 
HETATM    3  C   UNK N   1      20.682  13.865   0.863  0.00  0.00     0.037 C 
HETATM    4  C   UNK N   1      21.984  13.802   1.693  0.00  0.00    -0.001 C 
HETATM    5  C   UNK N   1      21.966  14.746   2.934  0.00  0.00    -0.036 C 
HETATM    6  C   UNK N   1      21.471  16.140   2.503  0.00  0.00     0.012 C 
HETATM    7  C   UNK N   1      23.128  14.145   0.723  0.00  0.00     0.037 C 
HETATM    8  C   UNK N   1      24.497  14.189   1.410  0.00  0.00     0.123 C 
HETATM    9  C   UNK N   1      24.450  15.242   2.522  0.00  0.00     0.024 C 
HETATM   10  C   UNK N   1      23.365  14.887   3.575  0.00  0.00     0.001 C 
HETATM   11  C   UNK N   1      25.770  15.410   3.295  0.00  0.00     0.001 C 
HETATM   12  C   UNK N   1      25.686  16.644   4.189  0.00  0.00    -0.036 C 
HETATM   13  C   UNK N   1      24.626  16.420   5.263  0.00  0.00     0.010 C 
HETATM   14  C   UNK N   1      23.286  15.982   4.678  0.00  0.00     0.007 C 
HETATM   15  C   UNK N   1      27.064  15.621   2.535  0.00  0.00     0.006 C 
HETATM   16  C   UNK N   1      27.987  16.241   3.595  0.00  0.00     0.006 C 
HETATM   17  C   UNK N   1      27.082  16.642   4.768  0.00  0.00    -0.002 C 
HETATM   18  C   UNK N   1      21.040  14.176   4.016  0.00  0.00     0.016 C 
HETATM   19  C   UNK N   1      25.435  17.934   3.378  0.00  0.00     0.016 C 
ENDROOT
BRANCH  17  20
HETATM   20  C   UNK N   1      27.528  17.826   5.660  0.00  0.00    -0.013 C 
HETATM   21  C   UNK N   1      28.598  18.680   5.002  0.00  0.00     0.010 C 
BRANCH  20  22
HETATM   22  C   UNK N   1      27.945  17.486   7.097  0.00  0.00     0.014 C 
BRANCH  22  23
HETATM   23  C   UNK N   1      28.409  18.712   7.886  0.00  0.00     0.103 C 
BRANCH  23  24
HETATM   24  C   UNK N   1      29.661  18.419   8.650  0.00  0.00     0.217 C 
HETATM   25  N   UNK N   1      30.642  17.707   8.052  0.00  0.00    -0.360 N 
HETATM   26  H   UNK N   1      30.564  17.507   7.091  0.00  0.00     0.162 HD
HETATM   27  O   UNK N   1      29.751  18.738   9.830  0.00  0.00    -0.274 OA
BRANCH  25  28
HETATM   28  C   UNK N   1      31.794  17.231   8.767  0.00  0.00     0.139 C 
BRANCH  28  29
HETATM   29  C   UNK N   1      33.059  17.884   8.232  0.00  0.00     0.175 C 
BRANCH  29  30
HETATM   30  S   UNK N   1      33.357  17.428   6.493  0.00  0.00     0.095 S 
HETATM   31  O   UNK N   1      34.636  18.093   7.027  0.00  0.00    -0.601 OA
HETATM   32  O   UNK N   1      33.355  16.142   7.334  0.00  0.00    -0.601 OA
BRANCH  30  33
HETATM   33  O   UNK N   1      34.615  16.526   5.755  0.00  0.00    -0.296 OA
HETATM   34  H   UNK N   1      34.421  15.683   5.316  0.00  0.00     0.232 HD
ENDBRANCH  30  33
ENDBRANCH  29  30
ENDBRANCH  28  29
ENDBRANCH  25  28
ENDBRANCH  23  24
ENDBRANCH  22  23
ENDBRANCH  20  22
ENDBRANCH  17  20
BRANCH   8  35
HETATM   35  O   UNK N   1      24.851  12.925   1.892  0.00  0.00    -0.395 OA
HETATM   36  H   UNK N   1      25.168  12.342   2.600  0.00  0.00     0.210 HD
ENDBRANCH   8  35
BRANCH   2  37
HETATM   37  O   UNK N   1      18.832  14.184   2.389  0.00  0.00    -0.396 OA
HETATM   38  H   UNK N   1      18.403  14.299   3.250  0.00  0.00     0.210 HD
ENDBRANCH   2  37
TORSDOF 10
ENDMDL
MODEL 8
REMARK VINA RESULT:      -7.3      2.275      3.966
REMARK  10 active torsions:
REMARK  status: ('A' for Active; 'I' for Inactive)
REMARK    1  A    between atoms: C_2  and  O_22 
REMARK    2  A    between atoms: C_8  and  O_19 
REMARK    3  A    between atoms: C_17  and  C_21 
REMARK    4  A    between atoms: C_21  and  C_24 
REMARK    5  A    between atoms: C_24  and  C_25 
REMARK    6  A    between atoms: C_25  and  C_26 
REMARK       I    between atoms: C_26  and  N_27 
REMARK    7  A    between atoms: N_27  and  C_28 
REMARK    8  A    between atoms: C_28  and  C_29 
REMARK    9  A    between atoms: C_29  and  S_30 
REMARK   10  A    between atoms: S_30  and  O_32 
ROOT
HETATM    1  C   UNK N   1      33.546  16.849   5.941  0.00  0.00     0.032 C 
HETATM    2  C   UNK N   1      33.914  16.108   7.228  0.00  0.00     0.118 C 
HETATM    3  C   UNK N   1      33.077  16.529   8.446  0.00  0.00     0.037 C 
HETATM    4  C   UNK N   1      31.556  16.684   8.221  0.00  0.00    -0.001 C 
HETATM    5  C   UNK N   1      31.122  16.408   6.749  0.00  0.00    -0.036 C 
HETATM    6  C   UNK N   1      32.058  17.173   5.794  0.00  0.00     0.012 C 
HETATM    7  C   UNK N   1      31.200  18.112   8.671  0.00  0.00     0.037 C 
HETATM    8  C   UNK N   1      29.722  18.453   8.452  0.00  0.00     0.123 C 
HETATM    9  C   UNK N   1      29.404  18.303   6.960  0.00  0.00     0.024 C 
HETATM   10  C   UNK N   1      29.665  16.848   6.482  0.00  0.00     0.001 C 
HETATM   11  C   UNK N   1      27.948  18.631   6.584  0.00  0.00     0.001 C 
HETATM   12  C   UNK N   1      27.814  18.697   5.065  0.00  0.00    -0.036 C 
HETATM   13  C   UNK N   1      28.072  17.314   4.474  0.00  0.00     0.010 C 
HETATM   14  C   UNK N   1      29.387  16.710   4.957  0.00  0.00     0.007 C 
HETATM   15  C   UNK N   1      27.330  19.936   7.043  0.00  0.00     0.006 C 
HETATM   16  C   UNK N   1      26.147  20.113   6.079  0.00  0.00     0.006 C 
HETATM   17  C   UNK N   1      26.361  19.095   4.949  0.00  0.00    -0.002 C 
HETATM   18  C   UNK N   1      31.191  14.905   6.453  0.00  0.00     0.016 C 
HETATM   19  C   UNK N   1      28.727  19.778   4.447  0.00  0.00     0.016 C 
ENDROOT
BRANCH  17  20
HETATM   20  C   UNK N   1      25.781  19.426   3.552  0.00  0.00    -0.013 C 
HETATM   21  C   UNK N   1      26.195  20.803   3.061  0.00  0.00     0.010 C 
BRANCH  20  22
HETATM   22  C   UNK N   1      24.268  19.244   3.374  0.00  0.00     0.014 C 
BRANCH  22  23
HETATM   23  C   UNK N   1      23.553  20.545   3.005  0.00  0.00     0.103 C 
BRANCH  23  24
HETATM   24  C   UNK N   1      22.145  20.281   2.573  0.00  0.00     0.217 C 
HETATM   25  N   UNK N   1      21.403  19.389   3.265  0.00  0.00    -0.360 N 
HETATM   26  H   UNK N   1      21.761  19.027   4.108  0.00  0.00     0.162 HD
HETATM   27  O   UNK N   1      21.709  20.797   1.550  0.00  0.00    -0.274 OA
BRANCH  25  28
HETATM   28  C   UNK N   1      20.112  18.946   2.815  0.00  0.00     0.139 C 
BRANCH  28  29
HETATM   29  C   UNK N   1      20.247  17.703   1.950  0.00  0.00     0.175 C 
BRANCH  29  30
HETATM   30  S   UNK N   1      20.107  16.183   2.945  0.00  0.00     0.095 S 
HETATM   31  O   UNK N   1      21.586  16.602   2.937  0.00  0.00    -0.601 OA
HETATM   32  O   UNK N   1      19.506  17.344   3.753  0.00  0.00    -0.601 OA
BRANCH  30  33
HETATM   33  O   UNK N   1      20.636  15.814   4.534  0.00  0.00    -0.296 OA
HETATM   34  H   UNK N   1      20.089  15.265   5.118  0.00  0.00     0.232 HD
ENDBRANCH  30  33
ENDBRANCH  29  30
ENDBRANCH  28  29
ENDBRANCH  25  28
ENDBRANCH  23  24
ENDBRANCH  22  23
ENDBRANCH  20  22
ENDBRANCH  17  20
BRANCH   8  35
HETATM   35  O   UNK N   1      28.903  17.650   9.251  0.00  0.00    -0.395 OA
HETATM   36  H   UNK N   1      28.487  17.439  10.101  0.00  0.00     0.210 HD
ENDBRANCH   8  35
BRANCH   2  37
HETATM   37  O   UNK N   1      33.865  14.726   7.038  0.00  0.00    -0.396 OA
HETATM   38  H   UNK N   1      34.359  13.938   6.766  0.00  0.00     0.210 HD
ENDBRANCH   2  37
TORSDOF 10
ENDMDL
MODEL 9
REMARK VINA RESULT:      -7.3      4.874      5.725
REMARK  10 active torsions:
REMARK  status: ('A' for Active; 'I' for Inactive)
REMARK    1  A    between atoms: C_2  and  O_22 
REMARK    2  A    between atoms: C_8  and  O_19 
REMARK    3  A    between atoms: C_17  and  C_21 
REMARK    4  A    between atoms: C_21  and  C_24 
REMARK    5  A    between atoms: C_24  and  C_25 
REMARK    6  A    between atoms: C_25  and  C_26 
REMARK       I    between atoms: C_26  and  N_27 
REMARK    7  A    between atoms: N_27  and  C_28 
REMARK    8  A    between atoms: C_28  and  C_29 
REMARK    9  A    between atoms: C_29  and  S_30 
REMARK   10  A    between atoms: S_30  and  O_32 
ROOT
HETATM    1  C   UNK N   1      33.027  15.442   8.638  0.00  0.00     0.032 C 
HETATM    2  C   UNK N   1      34.143  16.484   8.536  0.00  0.00     0.118 C 
HETATM    3  C   UNK N   1      34.298  17.089   7.133  0.00  0.00     0.037 C 
HETATM    4  C   UNK N   1      32.996  17.486   6.402  0.00  0.00    -0.001 C 
HETATM    5  C   UNK N   1      31.710  17.169   7.224  0.00  0.00    -0.036 C 
HETATM    6  C   UNK N   1      31.801  15.732   7.771  0.00  0.00     0.012 C 
HETATM    7  C   UNK N   1      33.018  16.745   5.053  0.00  0.00     0.037 C 
HETATM    8  C   UNK N   1      31.752  16.984   4.224  0.00  0.00     0.123 C 
HETATM    9  C   UNK N   1      30.541  16.512   5.035  0.00  0.00     0.024 C 
HETATM   10  C   UNK N   1      30.428  17.300   6.369  0.00  0.00     0.001 C 
HETATM   11  C   UNK N   1      29.190  16.676   4.317  0.00  0.00     0.001 C 
HETATM   12  C   UNK N   1      28.101  15.949   5.101  0.00  0.00    -0.036 C 
HETATM   13  C   UNK N   1      27.913  16.627   6.455  0.00  0.00     0.010 C 
HETATM   14  C   UNK N   1      29.226  16.787   7.215  0.00  0.00     0.007 C 
HETATM   15  C   UNK N   1      29.018  16.142   2.909  0.00  0.00     0.006 C 
HETATM   16  C   UNK N   1      27.493  16.028   2.770  0.00  0.00     0.006 C 
HETATM   17  C   UNK N   1      26.921  16.182   4.187  0.00  0.00    -0.002 C 
HETATM   18  C   UNK N   1      31.569  18.161   8.385  0.00  0.00     0.016 C 
HETATM   19  C   UNK N   1      28.394  14.439   5.238  0.00  0.00     0.016 C 
ENDROOT
BRANCH  17  20
HETATM   20  C   UNK N   1      25.573  15.492   4.507  0.00  0.00    -0.013 C 
HETATM   21  C   UNK N   1      24.685  15.352   3.282  0.00  0.00     0.010 C 
BRANCH  20  22
HETATM   22  C   UNK N   1      24.762  16.072   5.673  0.00  0.00     0.014 C 
BRANCH  22  23
HETATM   23  C   UNK N   1      23.345  15.502   5.753  0.00  0.00     0.103 C 
BRANCH  23  24
HETATM   24  C   UNK N   1      23.262  14.404   6.766  0.00  0.00     0.217 C 
HETATM   25  N   UNK N   1      24.396  13.774   7.143  0.00  0.00    -0.360 N 
HETATM   26  H   UNK N   1      25.261  14.132   6.840  0.00  0.00     0.162 HD
HETATM   27  O   UNK N   1      22.170  14.023   7.171  0.00  0.00    -0.274 OA
BRANCH  25  28
HETATM   28  C   UNK N   1      24.386  12.598   7.971  0.00  0.00     0.139 C 
BRANCH  28  29
HETATM   29  C   UNK N   1      24.731  12.956   9.407  0.00  0.00     0.175 C 
BRANCH  29  30
HETATM   30  S   UNK N   1      23.337  12.611  10.530  0.00  0.00     0.095 S 
HETATM   31  O   UNK N   1      23.264  11.604   9.371  0.00  0.00    -0.601 OA
HETATM   32  O   UNK N   1      24.632  12.139  11.211  0.00  0.00    -0.601 OA
BRANCH  30  33
HETATM   33  O   UNK N   1      22.824  11.162  11.291  0.00  0.00    -0.296 OA
HETATM   34  H   UNK N   1      23.461  10.609  11.770  0.00  0.00     0.232 HD
ENDBRANCH  30  33
ENDBRANCH  29  30
ENDBRANCH  28  29
ENDBRANCH  25  28
ENDBRANCH  23  24
ENDBRANCH  22  23
ENDBRANCH  20  22
ENDBRANCH  17  20
BRANCH   8  35
HETATM   35  O   UNK N   1      31.648  18.327   3.851  0.00  0.00    -0.395 OA
HETATM   36  H   UNK N   1      31.122  19.113   3.637  0.00  0.00     0.210 HD
ENDBRANCH   8  35
BRANCH   2  37
HETATM   37  O   UNK N   1      33.982  17.481   9.498  0.00  0.00    -0.396 OA
HETATM   38  H   UNK N   1      34.416  18.193   9.994  0.00  0.00     0.210 HD
ENDBRANCH   2  37
TORSDOF 10
ENDMDL
