MODEL 1
REMARK VINA RESULT:      -5.2      0.000      0.000
REMARK  3 active torsions:
REMARK  status: ('A' for Active; 'I' for Inactive)
REMARK       I    between atoms: N_2  and  C_1 
REMARK    1  A    between atoms: C_3  and  C_1 
REMARK    2  A    between atoms: C_4  and  N_2 
REMARK    3  A    between atoms: O_14  and  C_10 
ROOT
HETATM    1  C   UNK N   1      22.326  12.773   8.629  0.00  0.00     0.036 A 
HETATM    2  C   UNK N   1      23.703  12.998   8.435  0.00  0.00     0.032 A 
HETATM    3  C   UNK N   1      21.904  12.341   9.899  0.00  0.00     0.032 A 
HETATM    4  C   UNK N   1      24.163  12.406  10.739  0.00  0.00     0.065 A 
HETATM    5  C   UNK N   1      22.807  12.162  10.945  0.00  0.00     0.039 A 
HETATM    6  C   UNK N   1      24.614  12.821   9.484  0.00  0.00     0.039 A 
ENDROOT
BRANCH   1   7
HETATM    7  N   UNK N   1      21.401  12.953   7.533  0.00  0.00    -0.320 N 
HETATM    8  C   UNK N   1      20.718  14.125   7.273  0.00  0.00     0.257 C 
HETATM    9  O   UNK N   1      19.901  14.157   6.362  0.00  0.00    -0.270 OA
HETATM   10  C   UNK N   1      21.151  11.820   6.661  0.00  0.00     0.159 C 
BRANCH   8  11
HETATM   11  C   UNK N   1      20.952  15.398   8.060  0.00  0.00     0.270 C 
HETATM   12 Cl   UNK N   1      19.535  15.928   9.006  0.00  0.00    -0.098 Cl
HETATM   13 Cl   UNK N   1      21.448  16.718   6.963  0.00  0.00    -0.098 Cl
ENDBRANCH   8  11
ENDBRANCH   1   7
BRANCH   4  14
HETATM   14  O   UNK N   1      25.031  12.240  11.749  0.00  0.00    -0.361 OA
HETATM   15  H   UNK N   1      25.036  11.440  12.236  0.00  0.00     0.217 HD
ENDBRANCH   4  14
TORSDOF 3
ENDMDL
MODEL 2
REMARK VINA RESULT:      -5.1     16.763     17.928
REMARK  3 active torsions:
REMARK  status: ('A' for Active; 'I' for Inactive)
REMARK       I    between atoms: N_2  and  C_1 
REMARK    1  A    between atoms: C_3  and  C_1 
REMARK    2  A    between atoms: C_4  and  N_2 
REMARK    3  A    between atoms: O_14  and  C_10 
ROOT
HETATM    1  C   UNK N   1      27.594  24.003  -4.256  0.00  0.00     0.036 A 
HETATM    2  C   UNK N   1      28.913  23.851  -4.727  0.00  0.00     0.032 A 
HETATM    3  C   UNK N   1      27.352  23.760  -2.892  0.00  0.00     0.032 A 
HETATM    4  C   UNK N   1      29.680  23.272  -2.504  0.00  0.00     0.065 A 
HETATM    5  C   UNK N   1      28.380  23.403  -2.023  0.00  0.00     0.039 A 
HETATM    6  C   UNK N   1      29.949  23.492  -3.857  0.00  0.00     0.039 A 
ENDROOT
BRANCH   1   7
HETATM    7  N   UNK N   1      26.534  24.366  -5.171  0.00  0.00    -0.320 N 
HETATM    8  C   UNK N   1      26.074  25.654  -5.360  0.00  0.00     0.257 C 
HETATM    9  O   UNK N   1      25.123  25.849  -6.105  0.00  0.00    -0.270 OA
HETATM   10  C   UNK N   1      25.894  23.303  -5.924  0.00  0.00     0.159 C 
BRANCH   8  11
HETATM   11  C   UNK N   1      26.712  26.855  -4.694  0.00  0.00     0.270 C 
HETATM   12 Cl   UNK N   1      25.908  27.349  -3.180  0.00  0.00    -0.098 Cl
HETATM   13 Cl   UNK N   1      26.737  28.242  -5.821  0.00  0.00    -0.098 Cl
ENDBRANCH   8  11
ENDBRANCH   1   7
BRANCH   4  14
HETATM   14  O   UNK N   1      30.672  22.935  -1.664  0.00  0.00    -0.361 OA
HETATM   15  H   UNK N   1      30.832  22.033  -1.466  0.00  0.00     0.217 HD
ENDBRANCH   4  14
TORSDOF 3
ENDMDL
MODEL 3
REMARK VINA RESULT:      -5.0      6.863      8.485
REMARK  3 active torsions:
REMARK  status: ('A' for Active; 'I' for Inactive)
REMARK       I    between atoms: N_2  and  C_1 
REMARK    1  A    between atoms: C_3  and  C_1 
REMARK    2  A    between atoms: C_4  and  N_2 
REMARK    3  A    between atoms: O_14  and  C_10 
ROOT
HETATM    1  C   UNK N   1      20.393  17.769   3.326  0.00  0.00     0.036 A 
HETATM    2  C   UNK N   1      21.714  18.078   3.706  0.00  0.00     0.032 A 
HETATM    3  C   UNK N   1      19.616  18.796   2.761  0.00  0.00     0.032 A 
HETATM    4  C   UNK N   1      21.448  20.355   2.923  0.00  0.00     0.065 A 
HETATM    5  C   UNK N   1      20.134  20.073   2.556  0.00  0.00     0.039 A 
HETATM    6  C   UNK N   1      22.239  19.359   3.501  0.00  0.00     0.039 A 
ENDROOT
BRANCH   1   7
HETATM    7  N   UNK N   1      19.864  16.442   3.552  0.00  0.00    -0.320 N 
HETATM    8  C   UNK N   1      19.883  15.426   2.618  0.00  0.00     0.257 C 
HETATM    9  O   UNK N   1      19.345  14.358   2.880  0.00  0.00    -0.270 OA
HETATM   10  C   UNK N   1      19.250  16.166   4.838  0.00  0.00     0.159 C 
BRANCH   8  11
HETATM   11  C   UNK N   1      20.564  15.566   1.273  0.00  0.00     0.270 C 
HETATM   12 Cl   UNK N   1      19.560  16.375   0.040  0.00  0.00    -0.098 Cl
HETATM   13 Cl   UNK N   1      21.056  13.960   0.663  0.00  0.00    -0.098 Cl
ENDBRANCH   8  11
ENDBRANCH   1   7
BRANCH   4  14
HETATM   14  O   UNK N   1      21.948  21.583   2.719  0.00  0.00    -0.361 OA
HETATM   15  H   UNK N   1      22.056  22.171   3.441  0.00  0.00     0.217 HD
ENDBRANCH   4  14
TORSDOF 3
ENDMDL
MODEL 4
REMARK VINA RESULT:      -4.9      8.115      9.643
REMARK  3 active torsions:
REMARK  status: ('A' for Active; 'I' for Inactive)
REMARK       I    between atoms: N_2  and  C_1 
REMARK    1  A    between atoms: C_3  and  C_1 
REMARK    2  A    between atoms: C_4  and  N_2 
REMARK    3  A    between atoms: O_14  and  C_10 
ROOT
HETATM    1  C   UNK N   1      26.228  18.983   4.007  0.00  0.00     0.036 A 
HETATM    2  C   UNK N   1      24.950  18.481   4.324  0.00  0.00     0.032 A 
HETATM    3  C   UNK N   1      26.299  20.155   3.233  0.00  0.00     0.032 A 
HETATM    4  C   UNK N   1      23.895  20.316   3.146  0.00  0.00     0.065 A 
HETATM    5  C   UNK N   1      25.149  20.819   2.809  0.00  0.00     0.039 A 
HETATM    6  C   UNK N   1      23.792  19.145   3.900  0.00  0.00     0.039 A 
ENDROOT
BRANCH   1   7
HETATM    7  N   UNK N   1      27.412  18.280   4.446  0.00  0.00    -0.320 N 
HETATM    8  C   UNK N   1      28.055  18.508   5.647  0.00  0.00     0.257 C 
HETATM    9  O   UNK N   1      29.093  17.911   5.896  0.00  0.00    -0.270 OA
HETATM   10  C   UNK N   1      27.980  17.285   3.554  0.00  0.00     0.159 C 
BRANCH   8  11
HETATM   11  C   UNK N   1      27.515  19.460   6.693  0.00  0.00     0.270 C 
HETATM   12 Cl   UNK N   1      27.816  21.179   6.323  0.00  0.00    -0.098 Cl
HETATM   13 Cl   UNK N   1      28.215  19.077   8.292  0.00  0.00    -0.098 Cl
ENDBRANCH   8  11
ENDBRANCH   1   7
BRANCH   4  14
HETATM   14  O   UNK N   1      22.788  20.960   2.743  0.00  0.00    -0.361 OA
HETATM   15  H   UNK N   1      22.640  21.847   3.008  0.00  0.00     0.217 HD
ENDBRANCH   4  14
TORSDOF 3
ENDMDL
MODEL 5
REMARK VINA RESULT:      -4.9      9.607     11.233
REMARK  3 active torsions:
REMARK  status: ('A' for Active; 'I' for Inactive)
REMARK       I    between atoms: N_2  and  C_1 
REMARK    1  A    between atoms: C_3  and  C_1 
REMARK    2  A    between atoms: C_4  and  N_2 
REMARK    3  A    between atoms: O_14  and  C_10 
ROOT
HETATM    1  C   UNK N   1      31.191  17.469   7.588  0.00  0.00     0.036 A 
HETATM    2  C   UNK N   1      30.012  16.904   7.064  0.00  0.00     0.032 A 
HETATM    3  C   UNK N   1      31.073  18.307   8.712  0.00  0.00     0.032 A 
HETATM    4  C   UNK N   1      28.687  17.974   8.786  0.00  0.00     0.065 A 
HETATM    5  C   UNK N   1      29.839  18.555   9.309  0.00  0.00     0.039 A 
HETATM    6  C   UNK N   1      28.770  17.151   7.661  0.00  0.00     0.039 A 
ENDROOT
BRANCH   1   7
HETATM    7  N   UNK N   1      32.464  17.210   6.954  0.00  0.00    -0.320 N 
HETATM    8  C   UNK N   1      33.600  16.801   7.623  0.00  0.00     0.257 C 
HETATM    9  O   UNK N   1      34.650  16.677   7.007  0.00  0.00    -0.270 OA
HETATM   10  C   UNK N   1      32.563  17.419   5.521  0.00  0.00     0.159 C 
BRANCH   8  11
HETATM   11  C   UNK N   1      33.603  16.473   9.102  0.00  0.00     0.270 C 
HETATM   12 Cl   UNK N   1      35.216  16.570   9.856  0.00  0.00    -0.098 Cl
HETATM   13 Cl   UNK N   1      32.930  14.839   9.371  0.00  0.00    -0.098 Cl
ENDBRANCH   8  11
ENDBRANCH   1   7
BRANCH   4  14
HETATM   14  O   UNK N   1      27.499  18.208   9.367  0.00  0.00    -0.361 OA
HETATM   15  H   UNK N   1      27.059  19.022   9.219  0.00  0.00     0.217 HD
ENDBRANCH   4  14
TORSDOF 3
ENDMDL
MODEL 6
REMARK VINA RESULT:      -4.9      9.240     10.458
REMARK  3 active torsions:
REMARK  status: ('A' for Active; 'I' for Inactive)
REMARK       I    between atoms: N_2  and  C_1 
REMARK    1  A    between atoms: C_3  and  C_1 
REMARK    2  A    between atoms: C_4  and  N_2 
REMARK    3  A    between atoms: O_14  and  C_10 
ROOT
HETATM    1  C   UNK N   1      32.276  16.755   7.717  0.00  0.00     0.036 A 
HETATM    2  C   UNK N   1      33.094  17.881   7.496  0.00  0.00     0.032 A 
HETATM    3  C   UNK N   1      32.651  15.862   8.736  0.00  0.00     0.032 A 
HETATM    4  C   UNK N   1      34.564  17.214   9.302  0.00  0.00     0.065 A 
HETATM    5  C   UNK N   1      33.778  16.087   9.524  0.00  0.00     0.039 A 
HETATM    6  C   UNK N   1      34.226  18.111   8.286  0.00  0.00     0.039 A 
ENDROOT
BRANCH   1   7
HETATM    7  N   UNK N   1      31.115  16.528   6.886  0.00  0.00    -0.320 N 
HETATM    8  C   UNK N   1      29.863  17.055   7.136  0.00  0.00     0.257 C 
HETATM    9  O   UNK N   1      28.925  16.746   6.413  0.00  0.00    -0.270 OA
HETATM   10  C   UNK N   1      31.267  15.670   5.726  0.00  0.00     0.159 C 
BRANCH   8  11
HETATM   11  C   UNK N   1      29.596  18.026   8.267  0.00  0.00     0.270 C 
HETATM   12 Cl   UNK N   1      29.348  17.237   9.848  0.00  0.00    -0.098 Cl
HETATM   13 Cl   UNK N   1      28.171  19.035   7.888  0.00  0.00    -0.098 Cl
ENDBRANCH   8  11
ENDBRANCH   1   7
BRANCH   4  14
HETATM   14  O   UNK N   1      35.646  17.434  10.066  0.00  0.00    -0.361 OA
HETATM   15  H   UNK N   1      35.699  17.058  10.923  0.00  0.00     0.217 HD
ENDBRANCH   4  14
TORSDOF 3
ENDMDL
MODEL 7
REMARK VINA RESULT:      -4.8     16.731     17.974
REMARK  3 active torsions:
REMARK  status: ('A' for Active; 'I' for Inactive)
REMARK       I    between atoms: N_2  and  C_1 
REMARK    1  A    between atoms: C_3  and  C_1 
REMARK    2  A    between atoms: C_4  and  N_2 
REMARK    3  A    between atoms: O_14  and  C_10 
ROOT
HETATM    1  C   UNK N   1      27.812  24.479  -3.913  0.00  0.00     0.036 A 
HETATM    2  C   UNK N   1      29.151  24.711  -4.283  0.00  0.00     0.032 A 
HETATM    3  C   UNK N   1      27.573  23.655  -2.798  0.00  0.00     0.032 A 
HETATM    4  C   UNK N   1      29.937  23.356  -2.435  0.00  0.00     0.065 A 
HETATM    5  C   UNK N   1      28.620  23.102  -2.063  0.00  0.00     0.039 A 
HETATM    6  C   UNK N   1      30.206  24.158  -3.547  0.00  0.00     0.039 A 
ENDROOT
BRANCH   1   7
HETATM    7  N   UNK N   1      26.735  25.052  -4.689  0.00  0.00    -0.320 N 
HETATM    8  C   UNK N   1      26.222  24.493  -5.842  0.00  0.00     0.257 C 
HETATM    9  O   UNK N   1      25.358  25.091  -6.468  0.00  0.00    -0.270 OA
HETATM   10  C   UNK N   1      26.171  26.312  -4.241  0.00  0.00     0.159 C 
BRANCH   8  11
HETATM   11  C   UNK N   1      26.672  23.144  -6.366  0.00  0.00     0.270 C 
HETATM   12 Cl   UNK N   1      27.831  23.248  -7.718  0.00  0.00    -0.098 Cl
HETATM   13 Cl   UNK N   1      25.257  22.183  -6.883  0.00  0.00    -0.098 Cl
ENDBRANCH   8  11
ENDBRANCH   1   7
BRANCH   4  14
HETATM   14  O   UNK N   1      30.945  22.828  -1.723  0.00  0.00    -0.361 OA
HETATM   15  H   UNK N   1      31.590  23.388  -1.339  0.00  0.00     0.217 HD
ENDBRANCH   4  14
TORSDOF 3
ENDMDL
MODEL 8
REMARK VINA RESULT:      -4.8      8.735      9.695
REMARK  3 active torsions:
REMARK  status: ('A' for Active; 'I' for Inactive)
REMARK       I    between atoms: N_2  and  C_1 
REMARK    1  A    between atoms: C_3  and  C_1 
REMARK    2  A    between atoms: C_4  and  N_2 
REMARK    3  A    between atoms: O_14  and  C_10 
ROOT
HETATM    1  C   UNK N   1      30.650  16.844   5.804  0.00  0.00     0.036 A 
HETATM    2  C   UNK N   1      31.619  17.062   4.806  0.00  0.00     0.032 A 
HETATM    3  C   UNK N   1      31.041  17.009   7.145  0.00  0.00     0.032 A 
HETATM    4  C   UNK N   1      33.275  17.625   6.482  0.00  0.00     0.065 A 
HETATM    5  C   UNK N   1      32.335  17.399   7.483  0.00  0.00     0.039 A 
HETATM    6  C   UNK N   1      32.921  17.454   5.141  0.00  0.00     0.039 A 
ENDROOT
BRANCH   1   7
HETATM    7  N   UNK N   1      29.313  16.432   5.440  0.00  0.00    -0.320 N 
HETATM    8  C   UNK N   1      28.252  17.297   5.260  0.00  0.00     0.257 C 
HETATM    9  O   UNK N   1      27.141  16.844   5.023  0.00  0.00    -0.270 OA
HETATM   10  C   UNK N   1      29.062  15.012   5.276  0.00  0.00     0.159 C 
BRANCH   8  11
HETATM   11  C   UNK N   1      28.406  18.802   5.325  0.00  0.00     0.270 C 
HETATM   12 Cl   UNK N   1      27.943  19.505   6.898  0.00  0.00    -0.098 Cl
HETATM   13 Cl   UNK N   1      27.441  19.574   4.034  0.00  0.00    -0.098 Cl
ENDBRANCH   8  11
ENDBRANCH   1   7
BRANCH   4  14
HETATM   14  O   UNK N   1      34.520  18.008   6.808  0.00  0.00    -0.361 OA
HETATM   15  H   UNK N   1      34.705  18.306   7.677  0.00  0.00     0.217 HD
ENDBRANCH   4  14
TORSDOF 3
ENDMDL
MODEL 9
REMARK VINA RESULT:      -4.8      7.526      8.470
REMARK  3 active torsions:
REMARK  status: ('A' for Active; 'I' for Inactive)
REMARK       I    between atoms: N_2  and  C_1 
REMARK    1  A    between atoms: C_3  and  C_1 
REMARK    2  A    between atoms: C_4  and  N_2 
REMARK    3  A    between atoms: O_14  and  C_10 
ROOT
HETATM    1  C   UNK N   1      28.858  17.332   7.058  0.00  0.00     0.036 A 
HETATM    2  C   UNK N   1      28.962  17.967   8.311  0.00  0.00     0.032 A 
HETATM    3  C   UNK N   1      30.038  16.841   6.472  0.00  0.00     0.032 A 
HETATM    4  C   UNK N   1      31.351  17.568   8.359  0.00  0.00     0.065 A 
HETATM    5  C   UNK N   1      31.270  16.951   7.113  0.00  0.00     0.039 A 
HETATM    6  C   UNK N   1      30.197  18.080   8.959  0.00  0.00     0.039 A 
ENDROOT
BRANCH   1   7
HETATM    7  N   UNK N   1      27.575  17.231   6.400  0.00  0.00    -0.320 N 
HETATM    8  C   UNK N   1      27.031  18.214   5.596  0.00  0.00     0.257 C 
HETATM    9  O   UNK N   1      25.905  18.064   5.141  0.00  0.00    -0.270 OA
HETATM   10  C   UNK N   1      26.793  16.028   6.617  0.00  0.00     0.159 C 
BRANCH   8  11
HETATM   11  C   UNK N   1      27.782  19.477   5.231  0.00  0.00     0.270 C 
HETATM   12 Cl   UNK N   1      27.617  20.785   6.434  0.00  0.00    -0.098 Cl
HETATM   13 Cl   UNK N   1      27.237  20.078   3.639  0.00  0.00    -0.098 Cl
ENDBRANCH   8  11
ENDBRANCH   1   7
BRANCH   4  14
HETATM   14  O   UNK N   1      32.537  17.668   8.979  0.00  0.00    -0.361 OA
HETATM   15  H   UNK N   1      33.191  17.010   8.848  0.00  0.00     0.217 HD
ENDBRANCH   4  14
TORSDOF 3
ENDMDL
