MODEL 1
REMARK VINA RESULT:      -7.8      0.000      0.000
REMARK  4 active torsions:
REMARK  status: ('A' for Active; 'I' for Inactive)
REMARK    1  A    between atoms: C_4  and  C_2 
REMARK    2  A    between atoms: C_4  and  O_32 
REMARK    3  A    between atoms: C_10  and  C_22 
REMARK    4  A    between atoms: C_25  and  N_28 
ROOT
HETATM    1  C   UNK N   1      34.186  16.582   6.766  0.00  0.00     0.125 C 
HETATM    2  C   UNK N   1      35.037  15.743   5.796  0.00  0.00     0.047 C 
HETATM    3  C   UNK N   1      34.180  14.523   5.424  0.00  0.00     0.009 C 
HETATM    4  C   UNK N   1      32.822  14.809   6.050  0.00  0.00     0.005 C 
HETATM    5  C   UNK N   1      32.751  16.293   6.275  0.00  0.00    -0.001 C 
HETATM    6  C   UNK N   1      31.619  16.532   7.285  0.00  0.00     0.026 C 
HETATM    7  C   UNK N   1      30.235  16.068   6.775  0.00  0.00     0.049 C 
HETATM    8  C   UNK N   1      30.259  14.902   5.759  0.00  0.00    -0.060 C 
HETATM    9  C   UNK N   1      29.123  14.472   5.134  0.00  0.00    -0.048 C 
HETATM   10  C   UNK N   1      27.752  15.013   5.476  0.00  0.00     0.047 C 
HETATM   11  C   UNK N   1      26.967  15.340   4.211  0.00  0.00     0.087 C 
HETATM   12  C   UNK N   1      26.974  14.157   3.285  0.00  0.00     0.150 C 
HETATM   13  O   UNK N   1      26.011  13.938   2.570  0.00  0.00    -0.293 OA
HETATM   14  C   UNK N   1      28.198  13.336   3.153  0.00  0.00     0.057 C 
HETATM   15  C   UNK N   1      29.222  13.488   4.007  0.00  0.00    -0.048 C 
HETATM   16  C   UNK N   1      30.531  12.826   3.692  0.00  0.00     0.040 C 
HETATM   17  C   UNK N   1      31.662  13.823   3.929  0.00  0.00     0.014 C 
HETATM   18  C   UNK N   1      31.575  14.207   5.400  0.00  0.00     0.021 C 
HETATM   19  C   UNK N   1      32.483  17.036   4.953  0.00  0.00     0.019 C 
ENDROOT
BRANCH   7  20
HETATM   20  C   UNK N   1      29.456  17.295   6.367  0.00  0.00    -0.050 A 
HETATM   21  C   UNK N   1      28.666  17.937   7.328  0.00  0.00     0.010 A 
HETATM   22  C   UNK N   1      27.857  19.018   6.973  0.00  0.00     0.030 A 
HETATM   23  C   UNK N   1      27.819  19.473   5.644  0.00  0.00     0.029 A 
HETATM   24  C   UNK N   1      28.633  18.844   4.688  0.00  0.00     0.030 A 
HETATM   25  C   UNK N   1      29.447  17.768   5.045  0.00  0.00     0.010 A 
BRANCH  23  26
HETATM   26  N   UNK N   1      26.951  20.543   5.270  0.00  0.00    -0.390 N 
HETATM   27  C   UNK N   1      26.705  21.644   6.167  0.00  0.00     0.149 C 
HETATM   28  C   UNK N   1      26.255  20.521   4.009  0.00  0.00     0.149 C 
ENDBRANCH  23  26
ENDBRANCH   7  20
BRANCH   1  29
HETATM   29  C   UNK N   1      34.433  16.174   8.215  0.00  0.00     0.158 C 
HETATM   30  C   UNK N   1      35.254  14.975   8.572  0.00  0.00     0.094 C 
HETATM   31  O   UNK N   1      33.984  16.862   9.118  0.00  0.00    -0.295 OA
ENDBRANCH   1  29
BRANCH   1  32
HETATM   32  O   UNK N   1      34.504  17.938   6.637  0.00  0.00    -0.381 OA
HETATM   33  H   UNK N   1      35.175  18.504   7.050  0.00  0.00     0.211 HD
ENDBRANCH   1  32
TORSDOF 4
ENDMDL
MODEL 2
REMARK VINA RESULT:      -7.4      3.106      6.468
REMARK  4 active torsions:
REMARK  status: ('A' for Active; 'I' for Inactive)
REMARK    1  A    between atoms: C_4  and  C_2 
REMARK    2  A    between atoms: C_4  and  O_32 
REMARK    3  A    between atoms: C_10  and  C_22 
REMARK    4  A    between atoms: C_25  and  N_28 
ROOT
HETATM    1  C   UNK N   1      27.128  18.570   5.439  0.00  0.00     0.125 C 
HETATM    2  C   UNK N   1      25.890  17.774   4.988  0.00  0.00     0.047 C 
HETATM    3  C   UNK N   1      26.343  16.924   3.791  0.00  0.00     0.009 C 
HETATM    4  C   UNK N   1      27.851  17.134   3.726  0.00  0.00     0.005 C 
HETATM    5  C   UNK N   1      28.281  17.607   5.085  0.00  0.00    -0.001 C 
HETATM    6  C   UNK N   1      29.672  18.236   4.912  0.00  0.00     0.026 C 
HETATM    7  C   UNK N   1      30.737  17.238   4.403  0.00  0.00     0.049 C 
HETATM    8  C   UNK N   1      30.197  16.075   3.537  0.00  0.00    -0.060 C 
HETATM    9  C   UNK N   1      31.004  15.055   3.123  0.00  0.00    -0.048 C 
HETATM   10  C   UNK N   1      32.497  15.045   3.372  0.00  0.00     0.047 C 
HETATM   11  C   UNK N   1      32.953  13.686   3.888  0.00  0.00     0.087 C 
HETATM   12  C   UNK N   1      32.450  12.599   2.982  0.00  0.00     0.150 C 
HETATM   13  O   UNK N   1      33.113  11.590   2.815  0.00  0.00    -0.293 OA
HETATM   14  C   UNK N   1      31.096  12.702   2.393  0.00  0.00     0.057 C 
HETATM   15  C   UNK N   1      30.400  13.848   2.469  0.00  0.00    -0.048 C 
HETATM   16  C   UNK N   1      28.949  13.839   2.090  0.00  0.00     0.040 C 
HETATM   17  C   UNK N   1      28.155  14.607   3.143  0.00  0.00     0.014 C 
HETATM   18  C   UNK N   1      28.720  16.021   3.138  0.00  0.00     0.021 C 
HETATM   19  C   UNK N   1      28.322  16.438   6.087  0.00  0.00     0.019 C 
ENDROOT
BRANCH   7  20
HETATM   20  C   UNK N   1      31.607  16.851   5.575  0.00  0.00    -0.050 A 
HETATM   21  C   UNK N   1      32.846  17.484   5.727  0.00  0.00     0.010 A 
HETATM   22  C   UNK N   1      33.722  17.092   6.740  0.00  0.00     0.030 A 
HETATM   23  C   UNK N   1      33.376  16.051   7.618  0.00  0.00     0.029 A 
HETATM   24  C   UNK N   1      32.121  15.435   7.480  0.00  0.00     0.030 A 
HETATM   25  C   UNK N   1      31.243  15.833   6.471  0.00  0.00     0.010 A 
BRANCH  23  26
HETATM   26  N   UNK N   1      34.294  15.614   8.620  0.00  0.00    -0.390 N 
HETATM   27  C   UNK N   1      34.753  16.515   9.647  0.00  0.00     0.149 C 
HETATM   28  C   UNK N   1      34.830  14.276   8.596  0.00  0.00     0.149 C 
ENDBRANCH  23  26
ENDBRANCH   7  20
BRANCH   1  29
HETATM   29  C   UNK N   1      27.211  19.915   4.725  0.00  0.00     0.158 C 
HETATM   30  C   UNK N   1      26.503  20.172   3.431  0.00  0.00     0.094 C 
HETATM   31  O   UNK N   1      27.840  20.829   5.236  0.00  0.00    -0.295 OA
ENDBRANCH   1  29
BRANCH   1  32
HETATM   32  O   UNK N   1      27.070  18.812   6.815  0.00  0.00    -0.381 OA
HETATM   33  H   UNK N   1      26.696  19.532   7.347  0.00  0.00     0.211 HD
ENDBRANCH   1  32
TORSDOF 4
ENDMDL
MODEL 3
REMARK VINA RESULT:      -7.3      9.655     14.552
REMARK  4 active torsions:
REMARK  status: ('A' for Active; 'I' for Inactive)
REMARK    1  A    between atoms: C_4  and  C_2 
REMARK    2  A    between atoms: C_4  and  O_32 
REMARK    3  A    between atoms: C_10  and  C_22 
REMARK    4  A    between atoms: C_25  and  N_28 
ROOT
HETATM    1  C   UNK N   1      36.479  12.323  11.720  0.00  0.00     0.125 C 
HETATM    2  C   UNK N   1      36.766  13.812  11.983  0.00  0.00     0.047 C 
HETATM    3  C   UNK N   1      35.997  14.175  13.262  0.00  0.00     0.009 C 
HETATM    4  C   UNK N   1      35.456  12.844  13.769  0.00  0.00     0.005 C 
HETATM    5  C   UNK N   1      36.300  11.768  13.149  0.00  0.00    -0.001 C 
HETATM    6  C   UNK N   1      35.511  10.456  13.282  0.00  0.00     0.026 C 
HETATM    7  C   UNK N   1      35.238  10.053  14.749  0.00  0.00     0.049 C 
HETATM    8  C   UNK N   1      35.150  11.225  15.755  0.00  0.00    -0.060 C 
HETATM    9  C   UNK N   1      35.034  11.010  17.099  0.00  0.00    -0.048 C 
HETATM   10  C   UNK N   1      34.863   9.628  17.690  0.00  0.00     0.047 C 
HETATM   11  C   UNK N   1      35.788   9.429  18.885  0.00  0.00     0.087 C 
HETATM   12  C   UNK N   1      35.622  10.563  19.855  0.00  0.00     0.150 C 
HETATM   13  O   UNK N   1      35.752  10.366  21.051  0.00  0.00    -0.293 OA
HETATM   14  C   UNK N   1      35.424  11.939  19.348  0.00  0.00     0.057 C 
HETATM   15  C   UNK N   1      35.164  12.162  18.050  0.00  0.00    -0.048 C 
HETATM   16  C   UNK N   1      35.221  13.569  17.532  0.00  0.00     0.040 C 
HETATM   17  C   UNK N   1      35.992  13.583  16.215  0.00  0.00     0.014 C 
HETATM   18  C   UNK N   1      35.216  12.676  15.270  0.00  0.00     0.021 C 
HETATM   19  C   UNK N   1      37.666  11.668  13.853  0.00  0.00     0.019 C 
ENDROOT
BRANCH   7  20
HETATM   20  C   UNK N   1      36.187   8.935  15.107  0.00  0.00    -0.050 A 
HETATM   21  C   UNK N   1      35.731   7.615  15.019  0.00  0.00     0.010 A 
HETATM   22  C   UNK N   1      36.544   6.556  15.429  0.00  0.00     0.030 A 
HETATM   23  C   UNK N   1      37.829   6.801  15.942  0.00  0.00     0.029 A 
HETATM   24  C   UNK N   1      38.294   8.124  16.004  0.00  0.00     0.030 A 
HETATM   25  C   UNK N   1      37.483   9.182  15.588  0.00  0.00     0.010 A 
BRANCH  23  26
HETATM   26  N   UNK N   1      38.638   5.722  16.411  0.00  0.00    -0.390 N 
HETATM   27  C   UNK N   1      38.095   4.394  16.546  0.00  0.00     0.149 C 
HETATM   28  C   UNK N   1      40.003   5.947  16.817  0.00  0.00     0.149 C 
ENDBRANCH  23  26
ENDBRANCH   7  20
BRANCH   1  29
HETATM   29  C   UNK N   1      35.250  12.144  10.834  0.00  0.00     0.158 C 
HETATM   30  C   UNK N   1      34.553  13.307  10.200  0.00  0.00     0.094 C 
HETATM   31  O   UNK N   1      34.837  11.019  10.598  0.00  0.00    -0.295 OA
ENDBRANCH   1  29
BRANCH   1  32
HETATM   32  O   UNK N   1      37.568  11.728  11.074  0.00  0.00    -0.381 OA
HETATM   33  H   UNK N   1      37.862  10.809  10.980  0.00  0.00     0.211 HD
ENDBRANCH   1  32
TORSDOF 4
ENDMDL
MODEL 4
REMARK VINA RESULT:      -7.3      3.687      8.010
REMARK  4 active torsions:
REMARK  status: ('A' for Active; 'I' for Inactive)
REMARK    1  A    between atoms: C_4  and  C_2 
REMARK    2  A    between atoms: C_4  and  O_32 
REMARK    3  A    between atoms: C_10  and  C_22 
REMARK    4  A    between atoms: C_25  and  N_28 
ROOT
HETATM    1  C   UNK N   1      21.773  17.169   5.357  0.00  0.00     0.125 C 
HETATM    2  C   UNK N   1      21.037  15.893   4.912  0.00  0.00     0.047 C 
HETATM    3  C   UNK N   1      21.800  15.366   3.687  0.00  0.00     0.009 C 
HETATM    4  C   UNK N   1      23.034  16.254   3.599  0.00  0.00     0.005 C 
HETATM    5  C   UNK N   1      23.232  16.859   4.960  0.00  0.00    -0.001 C 
HETATM    6  C   UNK N   1      24.165  18.065   4.774  0.00  0.00     0.026 C 
HETATM    7  C   UNK N   1      25.558  17.683   4.223  0.00  0.00     0.049 C 
HETATM    8  C   UNK N   1      25.597  16.413   3.341  0.00  0.00    -0.060 C 
HETATM    9  C   UNK N   1      26.775  15.891   2.888  0.00  0.00    -0.048 C 
HETATM   10  C   UNK N   1      28.106  16.575   3.107  0.00  0.00     0.047 C 
HETATM   11  C   UNK N   1      29.157  15.579   3.584  0.00  0.00     0.087 C 
HETATM   12  C   UNK N   1      29.193  14.393   2.663  0.00  0.00     0.150 C 
HETATM   13  O   UNK N   1      30.245  13.811   2.461  0.00  0.00    -0.293 OA
HETATM   14  C   UNK N   1      27.931  13.861   2.103  0.00  0.00     0.057 C 
HETATM   15  C   UNK N   1      26.784  14.549   2.218  0.00  0.00    -0.048 C 
HETATM   16  C   UNK N   1      25.494  13.869   1.867  0.00  0.00     0.040 C 
HETATM   17  C   UNK N   1      24.463  14.167   2.952  0.00  0.00     0.014 C 
HETATM   18  C   UNK N   1      24.305  15.681   2.968  0.00  0.00     0.021 C 
HETATM   19  C   UNK N   1      23.840  15.832   5.933  0.00  0.00     0.019 C 
ENDROOT
BRANCH   7  20
HETATM   20  C   UNK N   1      26.540  17.733   5.368  0.00  0.00    -0.050 A 
HETATM   21  C   UNK N   1      27.252  18.918   5.589  0.00  0.00     0.010 A 
HETATM   22  C   UNK N   1      28.236  18.979   6.576  0.00  0.00     0.030 A 
HETATM   23  C   UNK N   1      28.532  17.850   7.359  0.00  0.00     0.029 A 
HETATM   24  C   UNK N   1      27.798  16.671   7.153  0.00  0.00     0.030 A 
HETATM   25  C   UNK N   1      26.808  16.612   6.170  0.00  0.00     0.010 A 
BRANCH  23  26
HETATM   26  N   UNK N   1      29.576  17.896   8.332  0.00  0.00    -0.390 N 
HETATM   27  C   UNK N   1      29.312  18.333   9.679  0.00  0.00     0.149 C 
HETATM   28  C   UNK N   1      30.932  17.563   7.975  0.00  0.00     0.149 C 
ENDBRANCH  23  26
ENDBRANCH   7  20
BRANCH   1  29
HETATM   29  C   UNK N   1      21.201  18.406   4.673  0.00  0.00     0.158 C 
HETATM   30  C   UNK N   1      20.755  18.388   3.244  0.00  0.00     0.094 C 
HETATM   31  O   UNK N   1      21.063  19.437   5.312  0.00  0.00    -0.295 OA
ENDBRANCH   1  29
BRANCH   1  32
HETATM   32  O   UNK N   1      21.647  17.341   6.739  0.00  0.00    -0.381 OA
HETATM   33  H   UNK N   1      22.032  17.972   7.367  0.00  0.00     0.211 HD
ENDBRANCH   1  32
TORSDOF 4
ENDMDL
MODEL 5
REMARK VINA RESULT:      -7.1     11.481     13.688
REMARK  4 active torsions:
REMARK  status: ('A' for Active; 'I' for Inactive)
REMARK    1  A    between atoms: C_4  and  C_2 
REMARK    2  A    between atoms: C_4  and  O_32 
REMARK    3  A    between atoms: C_10  and  C_22 
REMARK    4  A    between atoms: C_25  and  N_28 
ROOT
HETATM    1  C   UNK N   1      34.064  20.240  -5.389  0.00  0.00     0.125 C 
HETATM    2  C   UNK N   1      34.155  19.785  -3.922  0.00  0.00     0.047 C 
HETATM    3  C   UNK N   1      33.448  20.870  -3.095  0.00  0.00     0.009 C 
HETATM    4  C   UNK N   1      32.832  21.797  -4.134  0.00  0.00     0.005 C 
HETATM    5  C   UNK N   1      32.726  21.010  -5.409  0.00  0.00    -0.001 C 
HETATM    6  C   UNK N   1      32.538  22.030  -6.543  0.00  0.00     0.026 C 
HETATM    7  C   UNK N   1      31.249  22.871  -6.401  0.00  0.00     0.049 C 
HETATM    8  C   UNK N   1      30.748  23.082  -4.952  0.00  0.00    -0.060 C 
HETATM    9  C   UNK N   1      29.560  23.699  -4.687  0.00  0.00    -0.048 C 
HETATM   10  C   UNK N   1      28.709  24.327  -5.770  0.00  0.00     0.047 C 
HETATM   11  C   UNK N   1      27.245  23.935  -5.606  0.00  0.00     0.087 C 
HETATM   12  C   UNK N   1      26.795  24.212  -4.200  0.00  0.00     0.150 C 
HETATM   13  O   UNK N   1      25.644  24.549  -3.984  0.00  0.00    -0.293 OA
HETATM   14  C   UNK N   1      27.716  23.953  -3.071  0.00  0.00     0.057 C 
HETATM   15  C   UNK N   1      29.015  23.695  -3.290  0.00  0.00    -0.048 C 
HETATM   16  C   UNK N   1      29.855  23.193  -2.152  0.00  0.00     0.040 C 
HETATM   17  C   UNK N   1      30.703  22.022  -2.639  0.00  0.00     0.014 C 
HETATM   18  C   UNK N   1      31.568  22.575  -3.763  0.00  0.00     0.021 C 
HETATM   19  C   UNK N   1      31.545  20.023  -5.349  0.00  0.00     0.019 C 
ENDROOT
BRANCH   7  20
HETATM   20  C   UNK N   1      30.237  22.339  -7.387  0.00  0.00    -0.050 A 
HETATM   21  C   UNK N   1      30.106  22.979  -8.625  0.00  0.00     0.010 A 
HETATM   22  C   UNK N   1      29.121  22.579  -9.529  0.00  0.00     0.030 A 
HETATM   23  C   UNK N   1      28.241  21.532  -9.207  0.00  0.00     0.029 A 
HETATM   24  C   UNK N   1      28.391  20.874  -7.975  0.00  0.00     0.030 A 
HETATM   25  C   UNK N   1      29.382  21.270  -7.075  0.00  0.00     0.010 A 
BRANCH  23  26
HETATM   26  N   UNK N   1      27.198  21.159 -10.108  0.00  0.00    -0.390 N 
HETATM   27  C   UNK N   1      27.494  20.800 -11.472  0.00  0.00     0.149 C 
HETATM   28  C   UNK N   1      25.819  21.188  -9.693  0.00  0.00     0.149 C 
ENDBRANCH  23  26
ENDBRANCH   7  20
BRANCH   1  29
HETATM   29  C   UNK N   1      35.267  21.091  -5.781  0.00  0.00     0.158 C 
HETATM   30  C   UNK N   1      36.265  21.565  -4.773  0.00  0.00     0.094 C 
HETATM   31  O   UNK N   1      35.452  21.365  -6.957  0.00  0.00    -0.295 OA
ENDBRANCH   1  29
BRANCH   1  32
HETATM   32  O   UNK N   1      34.024  19.128  -6.237  0.00  0.00    -0.381 OA
HETATM   33  H   UNK N   1      33.311  18.536  -6.522  0.00  0.00     0.211 HD
ENDBRANCH   1  32
TORSDOF 4
ENDMDL
MODEL 6
REMARK VINA RESULT:      -7.0      3.285      5.689
REMARK  4 active torsions:
REMARK  status: ('A' for Active; 'I' for Inactive)
REMARK    1  A    between atoms: C_4  and  C_2 
REMARK    2  A    between atoms: C_4  and  O_32 
REMARK    3  A    between atoms: C_10  and  C_22 
REMARK    4  A    between atoms: C_25  and  N_28 
ROOT
HETATM    1  C   UNK N   1      31.267  15.613   5.386  0.00  0.00     0.125 C 
HETATM    2  C   UNK N   1      31.865  17.026   5.504  0.00  0.00     0.047 C 
HETATM    3  C   UNK N   1      30.980  17.937   4.641  0.00  0.00     0.009 C 
HETATM    4  C   UNK N   1      29.818  17.047   4.218  0.00  0.00     0.005 C 
HETATM    5  C   UNK N   1      29.764  15.910   5.199  0.00  0.00    -0.001 C 
HETATM    6  C   UNK N   1      28.921  14.804   4.545  0.00  0.00     0.026 C 
HETATM    7  C   UNK N   1      27.468  15.238   4.247  0.00  0.00     0.049 C 
HETATM    8  C   UNK N   1      27.265  16.750   3.989  0.00  0.00    -0.060 C 
HETATM    9  C   UNK N   1      26.021  17.290   3.833  0.00  0.00    -0.048 C 
HETATM   10  C   UNK N   1      24.767  16.444   3.779  0.00  0.00     0.047 C 
HETATM   11  C   UNK N   1      23.675  17.036   4.662  0.00  0.00     0.087 C 
HETATM   12  C   UNK N   1      23.480  18.488   4.332  0.00  0.00     0.150 C 
HETATM   13  O   UNK N   1      22.373  18.990   4.426  0.00  0.00    -0.293 OA
HETATM   14  C   UNK N   1      24.653  19.332   4.016  0.00  0.00     0.057 C 
HETATM   15  C   UNK N   1      25.857  18.780   3.796  0.00  0.00    -0.048 C 
HETATM   16  C   UNK N   1      27.061  19.673   3.730  0.00  0.00     0.040 C 
HETATM   17  C   UNK N   1      28.184  19.054   4.558  0.00  0.00     0.014 C 
HETATM   18  C   UNK N   1      28.465  17.698   3.926  0.00  0.00     0.021 C 
HETATM   19  C   UNK N   1      29.143  16.366   6.533  0.00  0.00     0.019 C 
ENDROOT
BRANCH   7  20
HETATM   20  C   UNK N   1      26.573  14.612   5.290  0.00  0.00    -0.050 A 
HETATM   21  C   UNK N   1      26.307  15.329   6.462  0.00  0.00     0.010 A 
HETATM   22  C   UNK N   1      25.562  14.752   7.492  0.00  0.00     0.030 A 
HETATM   23  C   UNK N   1      25.075  13.439   7.370  0.00  0.00     0.029 A 
HETATM   24  C   UNK N   1      25.322  12.731   6.182  0.00  0.00     0.030 A 
HETATM   25  C   UNK N   1      26.060  13.312   5.149  0.00  0.00     0.010 A 
BRANCH  23  26
HETATM   26  N   UNK N   1      24.361  12.829   8.445  0.00  0.00    -0.390 N 
HETATM   27  C   UNK N   1      24.744  13.063   9.814  0.00  0.00     0.149 C 
HETATM   28  C   UNK N   1      23.274  11.919   8.185  0.00  0.00     0.149 C 
ENDBRANCH  23  26
ENDBRANCH   7  20
BRANCH   1  29
HETATM   29  C   UNK N   1      31.889  14.843   4.226  0.00  0.00     0.158 C 
HETATM   30  C   UNK N   1      32.804  15.497   3.239  0.00  0.00     0.094 C 
HETATM   31  O   UNK N   1      31.670  13.646   4.112  0.00  0.00    -0.295 OA
ENDBRANCH   1  29
BRANCH   1  32
HETATM   32  O   UNK N   1      31.501  14.891   6.560  0.00  0.00    -0.381 OA
HETATM   33  H   UNK N   1      31.157  14.964   7.465  0.00  0.00     0.211 HD
ENDBRANCH   1  32
TORSDOF 4
ENDMDL
MODEL 7
REMARK VINA RESULT:      -7.0     12.268     16.102
REMARK  4 active torsions:
REMARK  status: ('A' for Active; 'I' for Inactive)
REMARK    1  A    between atoms: C_4  and  C_2 
REMARK    2  A    between atoms: C_4  and  O_32 
REMARK    3  A    between atoms: C_10  and  C_22 
REMARK    4  A    between atoms: C_25  and  N_28 
ROOT
HETATM    1  C   UNK N   1      26.382  22.958  -8.983  0.00  0.00     0.125 C 
HETATM    2  C   UNK N   1      25.830  24.187  -9.728  0.00  0.00     0.047 C 
HETATM    3  C   UNK N   1      25.679  25.293  -8.673  0.00  0.00     0.009 C 
HETATM    4  C   UNK N   1      26.316  24.710  -7.419  0.00  0.00     0.005 C 
HETATM    5  C   UNK N   1      27.232  23.607  -7.870  0.00  0.00    -0.001 C 
HETATM    6  C   UNK N   1      27.521  22.742  -6.634  0.00  0.00     0.026 C 
HETATM    7  C   UNK N   1      28.236  23.512  -5.501  0.00  0.00     0.049 C 
HETATM    8  C   UNK N   1      27.951  25.032  -5.448  0.00  0.00    -0.060 C 
HETATM    9  C   UNK N   1      28.607  25.855  -4.578  0.00  0.00    -0.048 C 
HETATM   10  C   UNK N   1      29.563  25.333  -3.527  0.00  0.00     0.047 C 
HETATM   11  C   UNK N   1      30.845  26.157  -3.502  0.00  0.00     0.087 C 
HETATM   12  C   UNK N   1      30.513  27.617  -3.394  0.00  0.00     0.150 C 
HETATM   13  O   UNK N   1      31.258  28.368  -2.787  0.00  0.00    -0.293 OA
HETATM   14  C   UNK N   1      29.349  28.162  -4.128  0.00  0.00     0.057 C 
HETATM   15  C   UNK N   1      28.456  27.342  -4.704  0.00  0.00    -0.048 C 
HETATM   16  C   UNK N   1      27.442  27.923  -5.644  0.00  0.00     0.040 C 
HETATM   17  C   UNK N   1      27.358  27.044  -6.890  0.00  0.00     0.014 C 
HETATM   18  C   UNK N   1      26.932  25.668  -6.398  0.00  0.00     0.021 C 
HETATM   19  C   UNK N   1      28.532  24.182  -8.463  0.00  0.00     0.019 C 
ENDROOT
BRANCH   7  20
HETATM   20  C   UNK N   1      29.690  23.105  -5.508  0.00  0.00    -0.050 A 
HETATM   21  C   UNK N   1      30.102  22.077  -4.652  0.00  0.00     0.010 A 
HETATM   22  C   UNK N   1      31.451  21.732  -4.559  0.00  0.00     0.030 A 
HETATM   23  C   UNK N   1      32.416  22.415  -5.317  0.00  0.00     0.029 A 
HETATM   24  C   UNK N   1      31.997  23.428  -6.195  0.00  0.00     0.030 A 
HETATM   25  C   UNK N   1      30.646  23.768  -6.294  0.00  0.00     0.010 A 
BRANCH  23  26
HETATM   26  N   UNK N   1      33.802  22.099  -5.181  0.00  0.00    -0.390 N 
HETATM   27  C   UNK N   1      34.222  20.887  -4.524  0.00  0.00     0.149 C 
HETATM   28  C   UNK N   1      34.816  23.011  -5.646  0.00  0.00     0.149 C 
ENDBRANCH  23  26
ENDBRANCH   7  20
BRANCH   1  29
HETATM   29  C   UNK N   1      25.254  22.076  -8.458  0.00  0.00     0.158 C 
HETATM   30  C   UNK N   1      25.461  20.628  -8.144  0.00  0.00     0.094 C 
HETATM   31  O   UNK N   1      24.155  22.566  -8.247  0.00  0.00    -0.295 OA
ENDBRANCH   1  29
BRANCH   1  32
HETATM   32  O   UNK N   1      27.171  22.187  -9.843  0.00  0.00    -0.381 OA
HETATM   33  H   UNK N   1      27.087  21.286 -10.192  0.00  0.00     0.211 HD
ENDBRANCH   1  32
TORSDOF 4
ENDMDL
MODEL 8
REMARK VINA RESULT:      -7.0      4.974      9.548
REMARK  4 active torsions:
REMARK  status: ('A' for Active; 'I' for Inactive)
REMARK    1  A    between atoms: C_4  and  C_2 
REMARK    2  A    between atoms: C_4  and  O_32 
REMARK    3  A    between atoms: C_10  and  C_22 
REMARK    4  A    between atoms: C_25  and  N_28 
ROOT
HETATM    1  C   UNK N   1      21.334  13.150   6.146  0.00  0.00     0.125 C 
HETATM    2  C   UNK N   1      19.968  13.301   5.454  0.00  0.00     0.047 C 
HETATM    3  C   UNK N   1      19.720  14.812   5.327  0.00  0.00     0.009 C 
HETATM    4  C   UNK N   1      21.026  15.450   5.782  0.00  0.00     0.005 C 
HETATM    5  C   UNK N   1      22.092  14.399   5.649  0.00  0.00    -0.001 C 
HETATM    6  C   UNK N   1      23.280  14.867   6.503  0.00  0.00     0.026 C 
HETATM    7  C   UNK N   1      23.882  16.210   6.031  0.00  0.00     0.049 C 
HETATM    8  C   UNK N   1      22.896  17.166   5.319  0.00  0.00    -0.060 C 
HETATM    9  C   UNK N   1      23.316  18.331   4.743  0.00  0.00    -0.048 C 
HETATM   10  C   UNK N   1      24.740  18.831   4.862  0.00  0.00     0.047 C 
HETATM   11  C   UNK N   1      25.267  19.296   3.510  0.00  0.00     0.087 C 
HETATM   12  C   UNK N   1      24.301  20.263   2.889  0.00  0.00     0.150 C 
HETATM   13  O   UNK N   1      24.714  21.170   2.187  0.00  0.00    -0.293 OA
HETATM   14  C   UNK N   1      22.845  20.038   3.029  0.00  0.00     0.057 C 
HETATM   15  C   UNK N   1      22.371  19.120   3.886  0.00  0.00    -0.048 C 
HETATM   16  C   UNK N   1      20.920  18.746   3.817  0.00  0.00     0.040 C 
HETATM   17  C   UNK N   1      20.795  17.226   3.883  0.00  0.00     0.014 C 
HETATM   18  C   UNK N   1      21.409  16.817   5.215  0.00  0.00     0.021 C 
HETATM   19  C   UNK N   1      22.503  14.219   4.176  0.00  0.00     0.019 C 
ENDROOT
BRANCH   7  20
HETATM   20  C   UNK N   1      25.168  15.910   5.299  0.00  0.00    -0.050 A 
HETATM   21  C   UNK N   1      25.111  15.636   3.928  0.00  0.00     0.010 A 
HETATM   22  C   UNK N   1      26.262  15.263   3.232  0.00  0.00     0.030 A 
HETATM   23  C   UNK N   1      27.494  15.151   3.899  0.00  0.00     0.029 A 
HETATM   24  C   UNK N   1      27.553  15.452   5.269  0.00  0.00     0.030 A 
HETATM   25  C   UNK N   1      26.403  15.832   5.964  0.00  0.00     0.010 A 
BRANCH  23  26
HETATM   26  N   UNK N   1      28.660  14.716   3.199  0.00  0.00    -0.390 N 
HETATM   27  C   UNK N   1      28.941  13.313   3.031  0.00  0.00     0.149 C 
HETATM   28  C   UNK N   1      29.614  15.670   2.693  0.00  0.00     0.149 C 
ENDBRANCH  23  26
ENDBRANCH   7  20
BRANCH   1  29
HETATM   29  C   UNK N   1      21.184  13.087   7.663  0.00  0.00     0.158 C 
HETATM   30  C   UNK N   1      22.143  12.326   8.524  0.00  0.00     0.094 C 
HETATM   31  O   UNK N   1      20.279  13.704   8.203  0.00  0.00    -0.295 OA
ENDBRANCH   1  29
BRANCH   1  32
HETATM   32  O   UNK N   1      21.961  11.973   5.724  0.00  0.00    -0.381 OA
HETATM   33  H   UNK N   1      22.001  11.511   4.872  0.00  0.00     0.211 HD
ENDBRANCH   1  32
TORSDOF 4
ENDMDL
MODEL 9
REMARK VINA RESULT:      -6.9      5.121      9.955
REMARK  4 active torsions:
REMARK  status: ('A' for Active; 'I' for Inactive)
REMARK    1  A    between atoms: C_4  and  C_2 
REMARK    2  A    between atoms: C_4  and  O_32 
REMARK    3  A    between atoms: C_10  and  C_22 
REMARK    4  A    between atoms: C_25  and  N_28 
ROOT
HETATM    1  C   UNK N   1      22.265  11.862   1.955  0.00  0.00     0.125 C 
HETATM    2  C   UNK N   1      21.375  11.888   0.700  0.00  0.00     0.047 C 
HETATM    3  C   UNK N   1      20.436  13.092   0.868  0.00  0.00     0.009 C 
HETATM    4  C   UNK N   1      20.950  13.802   2.113  0.00  0.00     0.005 C 
HETATM    5  C   UNK N   1      22.373  13.361   2.309  0.00  0.00    -0.001 C 
HETATM    6  C   UNK N   1      22.744  13.699   3.760  0.00  0.00     0.026 C 
HETATM    7  C   UNK N   1      22.673  15.211   4.074  0.00  0.00     0.049 C 
HETATM    8  C   UNK N   1      21.662  16.019   3.226  0.00  0.00    -0.060 C 
HETATM    9  C   UNK N   1      21.581  17.379   3.311  0.00  0.00    -0.048 C 
HETATM   10  C   UNK N   1      22.379  18.181   4.317  0.00  0.00     0.047 C 
HETATM   11  C   UNK N   1      23.024  19.393   3.655  0.00  0.00     0.087 C 
HETATM   12  C   UNK N   1      21.990  20.172   2.894  0.00  0.00     0.150 C 
HETATM   13  O   UNK N   1      22.084  21.384   2.805  0.00  0.00    -0.293 OA
HETATM   14  C   UNK N   1      20.932  19.454   2.150  0.00  0.00     0.057 C 
HETATM   15  C   UNK N   1      20.742  18.137   2.326  0.00  0.00    -0.048 C 
HETATM   16  C   UNK N   1      19.840  17.403   1.378  0.00  0.00     0.040 C 
HETATM   17  C   UNK N   1      20.516  16.102   0.955  0.00  0.00     0.014 C 
HETATM   18  C   UNK N   1      20.731  15.311   2.239  0.00  0.00     0.021 C 
HETATM   19  C   UNK N   1      23.309  14.074   1.315  0.00  0.00     0.019 C 
ENDROOT
BRANCH   7  20
HETATM   20  C   UNK N   1      24.086  15.742   4.116  0.00  0.00    -0.050 A 
HETATM   21  C   UNK N   1      24.693  15.933   5.362  0.00  0.00     0.010 A 
HETATM   22  C   UNK N   1      25.962  16.509   5.451  0.00  0.00     0.030 A 
HETATM   23  C   UNK N   1      26.645  16.912   4.291  0.00  0.00     0.029 A 
HETATM   24  C   UNK N   1      26.044  16.695   3.040  0.00  0.00     0.030 A 
HETATM   25  C   UNK N   1      24.779  16.112   2.952  0.00  0.00     0.010 A 
BRANCH  23  26
HETATM   26  N   UNK N   1      27.918  17.550   4.385  0.00  0.00    -0.390 N 
HETATM   27  C   UNK N   1      28.027  18.924   4.807  0.00  0.00     0.149 C 
HETATM   28  C   UNK N   1      29.122  16.854   4.006  0.00  0.00     0.149 C 
ENDBRANCH  23  26
ENDBRANCH   7  20
BRANCH   1  29
HETATM   29  C   UNK N   1      21.642  11.015   3.059  0.00  0.00     0.158 C 
HETATM   30  C   UNK N   1      22.474  10.326   4.095  0.00  0.00     0.094 C 
HETATM   31  O   UNK N   1      20.427  10.921   3.132  0.00  0.00    -0.295 OA
ENDBRANCH   1  29
BRANCH   1  32
HETATM   32  O   UNK N   1      23.517  11.320   1.647  0.00  0.00    -0.381 OA
HETATM   33  H   UNK N   1      24.072  10.648   2.072  0.00  0.00     0.211 HD
ENDBRANCH   1  32
TORSDOF 4
ENDMDL
