REMARK  12 active torsions:
REMARK  status: ('A' for Active; 'I' for Inactive)
REMARK    1  A    between atoms: C_14  and  C_5 
REMARK    2  A    between atoms: C_22  and  C_5 
REMARK       I    between atoms: C_14  and  N_15 
REMARK    3  A    between atoms: N_15  and  C_17 
REMARK    4  A    between atoms: C_17  and  C_18 
REMARK    5  A    between atoms: C_22  and  C_23 
REMARK    6  A    between atoms: C_23  and  C_24 
REMARK    7  A    between atoms: C_24  and  C_25 
REMARK    8  A    between atoms: C_25  and  N_26 
REMARK    9  A    between atoms: C_29  and  N_32 
REMARK       I    between atoms: N_32  and  C_33 
REMARK   10  A    between atoms: C_33  and  C_34 
REMARK   11  A    between atoms: C_36  and  C_41 
REMARK   12  A    between atoms: C_44  and  C_47 
ROOT
HETATM    1  N   UNK N   1      12.628 -18.379  -1.240  0.00  0.00     0.088 N 
HETATM    2  C   UNK N   1      13.458 -19.284  -0.433  0.00  0.00     0.274 C 
HETATM    3  C   UNK N   1      13.521 -18.858   1.040  0.00  0.00     0.055 C 
HETATM    4  C   UNK N   1      13.908 -17.376   1.203  0.00  0.00     0.088 C 
HETATM    5  C   UNK N   1      12.997 -16.512   0.342  0.00  0.00     0.055 C 
HETATM    6  C   UNK N   1      13.041 -16.978  -1.117  0.00  0.00     0.274 C 
ENDROOT
BRANCH   1   7
HETATM    7  C   UNK N   1      11.177 -18.559  -1.064  0.00  0.00     0.272 C 
BRANCH   7   8
HETATM    8  C   UNK N   1      10.614 -18.126   0.306  0.00  0.00     0.030 C 
BRANCH   8   9
HETATM    9  C   UNK N   1      10.695 -19.197   1.409  0.00  0.00     0.003 C 
BRANCH   9  10
HETATM   10  C   UNK N   1       9.404 -19.976   1.754  0.00  0.00     0.029 C 
BRANCH  10  11
HETATM   11  C   UNK N   1       8.693 -20.609   0.541  0.00  0.00     0.096 A 
HETATM   12  C   UNK N   1       9.676 -21.581  -0.158  0.00  0.00    -0.025 A 
HETATM   13  C   UNK N   1       9.208 -22.877  -0.157  0.00  0.00    -0.018 A 
HETATM   14  C   UNK N   1      10.970 -21.333  -0.629  0.00  0.00     0.009 A 
HETATM   15  C   UNK N   1       7.928 -22.898   0.462  0.00  0.00    -0.018 A 
HETATM   16  C   UNK N   1       9.962 -23.952  -0.629  0.00  0.00     0.013 A 
HETATM   17  C   UNK N   1       7.636 -21.635   0.935  0.00  0.00    -0.025 A 
HETATM   18  C   UNK N   1       7.059 -23.972   0.623  0.00  0.00     0.013 A 
HETATM   19  C   UNK N   1       6.437 -21.400   1.613  0.00  0.00     0.009 A 
HETATM   20  C   UNK N   1       5.535 -22.463   1.780  0.00  0.00     0.001 A 
HETATM   21  C   UNK N   1       5.842 -23.743   1.278  0.00  0.00     0.001 A 
HETATM   22  C   UNK N   1      11.258 -23.701  -1.102  0.00  0.00     0.001 A 
HETATM   23  C   UNK N   1      11.763 -22.392  -1.098  0.00  0.00     0.001 A 
BRANCH  11  24
HETATM   24  C   UNK N   1       7.918 -19.512  -0.217  0.00  0.00     0.235 C 
HETATM   25  N   UNK N   1       6.969 -19.839  -1.132  0.00  0.00    -0.351 N 
HETATM   26  H   UNK N   1       6.922 -20.754  -1.492  0.00  0.00     0.162 HD
HETATM   27  O   UNK N   1       7.977 -18.352   0.174  0.00  0.00    -0.272 OA
BRANCH  25  28
HETATM   28  C   UNK N   1       6.024 -18.831  -1.574  0.00  0.00     0.240 C 
BRANCH  28  29
HETATM   29  C   UNK N   1       4.667 -19.007  -0.878  0.00  0.00     0.403 C 
HETATM   30  F   UNK N   1       3.929 -17.845  -1.004  0.00  0.00    -0.169 F 
HETATM   31  F   UNK N   1       4.825 -19.271   0.472  0.00  0.00    -0.169 F 
HETATM   32  F   UNK N   1       3.975 -20.047  -1.466  0.00  0.00    -0.169 F 
ENDBRANCH  28  29
ENDBRANCH  25  28
ENDBRANCH  11  24
ENDBRANCH  10  11
ENDBRANCH   9  10
ENDBRANCH   8   9
ENDBRANCH   7   8
ENDBRANCH   1   7
BRANCH   4  33
HETATM   33  N   UNK N   1      15.267 -17.075   0.811  0.00  0.00    -0.352 N 
HETATM   34  C   UNK N   1      16.277 -17.957   0.674  0.00  0.00     0.252 C 
HETATM   35  O   UNK N   1      16.149 -19.115   1.064  0.00  0.00    -0.268 OA
HETATM   36  H   UNK N   1      15.475 -16.131   0.625  0.00  0.00     0.163 HD
BRANCH  34  37
HETATM   37  C   UNK N   1      17.532 -17.514   0.025  0.00  0.00     0.043 A 
HETATM   38  C   UNK N   1      18.521 -18.420  -0.432  0.00  0.00    -0.010 A 
HETATM   39  C   UNK N   1      19.694 -17.927  -1.013  0.00  0.00     0.013 A 
HETATM   40  C   UNK N   1      19.882 -16.549  -1.163  0.00  0.00     0.001 A 
HETATM   41  C   UNK N   1      18.899 -15.655  -0.738  0.00  0.00     0.001 A 
HETATM   42  C   UNK N   1      17.734 -16.134  -0.145  0.00  0.00     0.018 A 
BRANCH  38  43
HETATM   43  C   UNK N   1      18.290 -19.873  -0.373  0.00  0.00    -0.025 A 
HETATM   44  C   UNK N   1      17.265 -20.432  -1.151  0.00  0.00     0.013 A 
HETATM   45  C   UNK N   1      16.889 -21.763  -0.971  0.00  0.00     0.017 A 
HETATM   46  C   UNK N   1      17.507 -22.539   0.015  0.00  0.00     0.048 A 
HETATM   47  C   UNK N   1      18.538 -21.982   0.790  0.00  0.00     0.017 A 
HETATM   48  C   UNK N   1      18.931 -20.653   0.595  0.00  0.00     0.013 A 
BRANCH  46  49
HETATM   49  C   UNK N   1      17.052 -23.946   0.273  0.00  0.00     0.417 C 
HETATM   50  F   UNK N   1      16.053 -24.318  -0.613  0.00  0.00    -0.166 F 
HETATM   51  F   UNK N   1      18.117 -24.815   0.136  0.00  0.00    -0.166 F 
HETATM   52  F   UNK N   1      16.553 -24.035   1.560  0.00  0.00    -0.166 F 
ENDBRANCH  46  49
ENDBRANCH  38  43
ENDBRANCH  34  37
ENDBRANCH   4  33
TORSDOF 12
