REMARK  5 active torsions:
REMARK  status: ('A' for Active; 'I' for Inactive)
REMARK    1  A    between atoms: O_17  and  C_5 
REMARK    2  A    between atoms: C_10  and  C_6 
REMARK    3  A    between atoms: C_9  and  C_7 
REMARK    4  A    between atoms: O_17  and  C_8 
REMARK    5  A    between atoms: O_16  and  C_9 
ROOT
HETATM    1  C   UNK N   1       2.345  -0.276   0.112  0.00  0.00     0.017 A 
HETATM    2  C   UNK N   1       2.370   1.117   0.077  0.00  0.00     0.022 A 
HETATM    3  C   UNK N   1      -0.061  -0.232  -0.056  0.00  0.00     0.054 A 
HETATM    4  C   UNK N   1       1.129  -0.960   0.038  0.00  0.00     0.050 A 
HETATM    5  C   UNK N   1       1.180   1.857  -0.012  0.00  0.00     0.071 A 
HETATM    6  C   UNK N   1      -0.059   1.173  -0.069  0.00  0.00     0.096 A 
ENDROOT
BRANCH   4   7
HETATM    7  C   UNK N   1       1.085  -2.460   0.073  0.00  0.00     0.417 C 
HETATM    8  F   UNK N   1       0.613  -2.937  -1.136  0.00  0.00    -0.166 F 
HETATM    9  F   UNK N   1       0.237  -2.875   1.084  0.00  0.00    -0.166 F 
HETATM   10  F   UNK N   1       2.343  -2.991   0.303  0.00  0.00    -0.166 F 
ENDBRANCH   4   7
BRANCH   6  11
HETATM   11  O   UNK N   1      -1.220   1.888  -0.121  0.00  0.00    -0.278 OA
BRANCH  11  12
HETATM   12  C   UNK N   1      -2.511   1.448  -0.083  0.00  0.00     0.260 C 
HETATM   13  C   UNK N   1      -2.878   0.000   0.003  0.00  0.00     0.126 C 
HETATM   14  O   UNK N   1      -3.411   2.271  -0.103  0.00  0.00    -0.265 OA
ENDBRANCH  11  12
ENDBRANCH   6  11
BRANCH   5  15
HETATM   15  C   UNK N   1       1.268   3.342  -0.030  0.00  0.00     0.178 C 
HETATM   16  O   UNK N   1       2.357   3.891   0.012  0.00  0.00    -0.646 OA
BRANCH  15  17
HETATM   17  O   UNK N   1       0.155   4.101  -0.092  0.00  0.00    -0.773 OA
HETATM   18  H   UNK N   1       0.225   5.035  -0.135  0.00  0.00     0.167 HD
ENDBRANCH  15  17
ENDBRANCH   5  15
TORSDOF 5
