REMARK  13 active torsions:
REMARK  status: ('A' for Active; 'I' for Inactive)
REMARK    1  A    between atoms: C_10  and  C_6 
REMARK    2  A    between atoms: C_11  and  C_7 
REMARK    3  A    between atoms: C_19  and  C_8 
REMARK    4  A    between atoms: C_20  and  C_9 
REMARK    5  A    between atoms: C_12  and  C_10 
REMARK    6  A    between atoms: C_13  and  C_11 
REMARK    7  A    between atoms: C_19  and  C_12 
REMARK    8  A    between atoms: C_20  and  C_13 
REMARK    9  A    between atoms: C_19  and  C_14 
REMARK   10  A    between atoms: N_23  and  C_14 
REMARK   11  A    between atoms: C_20  and  C_15 
REMARK   12  A    between atoms: N_24  and  C_15 
REMARK   13  A    between atoms: N_22  and  C_21 
ROOT
HETATM    1  C   UNK N   1       9.635   5.312  -0.840  0.00  0.00     0.041 C 
HETATM    2  C   UNK N   1       9.849   3.008   0.132  0.00  0.00     0.306 C 
HETATM    3  C   UNK N   1       8.164   4.565   1.057  0.00  0.00     0.306 C 
HETATM    4  C   UNK N   1       7.605   3.154  -0.873  0.00  0.00     0.542 C 
HETATM    5  C   UNK N   1       9.557   4.476   0.430  0.00  0.00     0.073 C 
HETATM    6  N   UNK N   1       8.815   2.334  -0.673  0.00  0.00     0.119 N 
HETATM    7  N   UNK N   1       7.138   3.746   0.391  0.00  0.00     0.119 N 
ENDROOT
BRANCH   6   8
HETATM    8  C   UNK N   1       8.425   1.107   0.016  0.00  0.00     0.279 C 
BRANCH   8   9
HETATM    9  C   UNK N   1       9.259  -0.095  -0.430  0.00  0.00     0.014 C 
BRANCH   9  10
HETATM   10  C   UNK N   1      10.638  -0.086   0.226  0.00  0.00     0.002 C 
HETATM   11  C   UNK N   1      11.651   0.620  -0.654  0.00  0.00     0.005 C 
ENDBRANCH   9  10
BRANCH   9  12
HETATM   12  C   UNK N   1       8.519  -1.362  -0.031  0.00  0.00     0.006 C 
BRANCH  12  13
HETATM   13  C   UNK N   1       9.192  -2.585  -0.632  0.00  0.00     0.000 C 
BRANCH  13  14
HETATM   14  C   UNK N   1       9.636  -3.514   0.478  0.00  0.00    -0.005 C 
HETATM   15  C   UNK N   1      11.012  -4.057   0.156  0.00  0.00     0.005 C 
ENDBRANCH  13  14
ENDBRANCH  12  13
ENDBRANCH   9  12
ENDBRANCH   8   9
ENDBRANCH   6   8
BRANCH   5  16
HETATM   16  N   UNK N   1      10.537   4.978   1.373  0.00  0.00    -0.419 N 
HETATM   17  H   UNK N   1      11.188   4.558   2.036  0.00  0.00     0.150 HD
HETATM   18  H   UNK N   1      10.587   5.997   1.373  0.00  0.00     0.150 HD
ENDBRANCH   5  16
BRANCH   7  19
HETATM   19  C   UNK N   1       6.018   4.649   0.133  0.00  0.00     0.279 C 
BRANCH  19  20
HETATM   20  C   UNK N   1       4.732   3.945  -0.309  0.00  0.00     0.014 C 
BRANCH  20  21
HETATM   21  C   UNK N   1       4.367   2.792   0.618  0.00  0.00     0.002 C 
HETATM   22  C   UNK N   1       4.958   1.494   0.102  0.00  0.00     0.005 C 
ENDBRANCH  20  21
BRANCH  20  23
HETATM   23  C   UNK N   1       3.625   4.993  -0.297  0.00  0.00     0.006 C 
BRANCH  23  24
HETATM   24  C   UNK N   1       2.342   4.482  -0.936  0.00  0.00     0.000 C 
BRANCH  24  25
HETATM   25  C   UNK N   1       1.260   4.312   0.115  0.00  0.00    -0.005 C 
HETATM   26  C   UNK N   1       1.097   2.846   0.461  0.00  0.00     0.005 C 
ENDBRANCH  24  25
ENDBRANCH  23  24
ENDBRANCH  20  23
ENDBRANCH  19  20
ENDBRANCH   7  19
TORSDOF 13
