REMARK  4 active torsions:
REMARK  status: ('A' for Active; 'I' for Inactive)
REMARK    1  A    between atoms: O_18  and  C_7 
REMARK    2  A    between atoms: C_12  and  C_8 
REMARK    3  A    between atoms: N_17  and  C_9 
REMARK    4  A    between atoms: C_11  and  C_10 
REMARK       I    between atoms: N_17  and  C_11 
ROOT
HETATM    1  C   UNK N   1       1.502   6.680  -0.057  0.00  0.00     0.077 C 
HETATM    2  C   UNK N   1      -1.165   5.525  -0.056  0.00  0.00     0.107 C 
HETATM    3  C   UNK N   1       1.272   5.213   0.003  0.00  0.00     0.065 C 
HETATM    4  C   UNK N   1       0.010   4.692   0.007  0.00  0.00     0.141 C 
HETATM    5  N   UNK N   1      -2.141   6.143  -0.105  0.00  0.00    -0.191 NA
ENDROOT
BRANCH   4   6
HETATM    6  C   UNK N   1      -0.219   3.246   0.052  0.00  0.00     0.269 C 
HETATM    7  N   UNK N   1       0.852   2.440   0.129  0.00  0.00    -0.322 N 
HETATM    8  H   UNK N   1       1.728   2.878   0.236  0.00  0.00     0.169 HD
HETATM    9  O   UNK N   1      -1.353   2.791  -0.041  0.00  0.00    -0.266 OA
BRANCH   7  10
HETATM   10  C   UNK N   1       0.852   1.054   0.072  0.00  0.00     0.035 A 
HETATM   11  C   UNK N   1       2.071   0.433  -0.158  0.00  0.00     0.030 A 
HETATM   12  C   UNK N   1       2.122  -0.938  -0.292  0.00  0.00     0.018 A 
HETATM   13  C   UNK N   1       0.945  -1.684  -0.208  0.00  0.00     0.048 A 
HETATM   14  C   UNK N   1      -0.281  -1.057   0.030  0.00  0.00     0.018 A 
HETATM   15  C   UNK N   1      -0.329   0.315   0.158  0.00  0.00     0.030 A 
BRANCH  13  16
HETATM   16  C   UNK N   1       1.018  -3.155  -0.191  0.00  0.00     0.417 C 
HETATM   17  F   UNK N   1       0.844  -3.643  -1.471  0.00  0.00    -0.166 F 
HETATM   18  F   UNK N   1       0.029  -3.644   0.643  0.00  0.00    -0.166 F 
HETATM   19  F   UNK N   1       2.249  -3.542   0.305  0.00  0.00    -0.166 F 
ENDBRANCH  13  16
ENDBRANCH   7  10
ENDBRANCH   4   6
BRANCH   3  20
HETATM   20  O   UNK N   1       2.366   4.417   0.042  0.00  0.00    -0.364 OA
HETATM   21  H   UNK N   1       2.268   3.486   0.069  0.00  0.00     0.217 HD
ENDBRANCH   3  20
TORSDOF 4
