REMARK  9 active torsions:
REMARK  status: ('A' for Active; 'I' for Inactive)
REMARK    1  A    between atoms: C_1  and  O_11 
REMARK    2  A    between atoms: C_2  and  O_8 
REMARK    3  A    between atoms: C_3  and  O_10 
REMARK    4  A    between atoms: C_4  and  C_9 
REMARK    5  A    between atoms: C_6  and  C_7 
REMARK    6  A    between atoms: C_7  and  O_12 
REMARK    7  A    between atoms: C_16  and  C_19 
REMARK    8  A    between atoms: C_19  and  C_20 
REMARK    9  A    between atoms: C_22  and  C_25 
ROOT
HETATM    1  C   UNK N   1       9.449  -8.190   0.373  0.00  0.00    -0.026 A 
HETATM    2  C   UNK N   1      10.573  -9.005   0.519  0.00  0.00     0.010 A 
HETATM    3  C   UNK N   1      11.837  -8.471   0.356  0.00  0.00     0.008 A 
HETATM    4  C   UNK N   1      12.019  -7.119   0.090  0.00  0.00    -0.055 A 
HETATM    5  C   UNK N   1      10.881  -6.232   0.038  0.00  0.00    -0.047 A 
HETATM    6  C   UNK N   1       9.613  -6.817   0.154  0.00  0.00     0.017 A 
HETATM    7  C   UNK N   1      13.426  -6.725  -0.144  0.00  0.00     0.049 C 
ENDROOT
BRANCH   1   8
HETATM    8  C   UNK N   1       8.082  -8.821   0.385  0.00  0.00     0.186 C 
HETATM    9  C   UNK N   1       8.072 -10.131  -0.445  0.00  0.00     0.182 C 
HETATM   10  C   UNK N   1       6.658 -10.682  -0.626  0.00  0.00     0.181 C 
HETATM   11  C   UNK N   1       5.649  -9.913   0.215  0.00  0.00     0.180 C 
HETATM   12  C   UNK N   1       5.795  -8.410  -0.098  0.00  0.00     0.177 C 
HETATM   13  O   UNK N   1       7.129  -7.908  -0.138  0.00  0.00    -0.368 OA
BRANCH   9  14
HETATM   14  O   UNK N   1       8.641  -9.946  -1.708  0.00  0.00    -0.390 OA
HETATM   15  H   UNK N   1       8.950 -10.224  -2.585  0.00  0.00     0.210 HD
ENDBRANCH   9  14
BRANCH  10  16
HETATM   16  O   UNK N   1       6.635 -12.041  -0.310  0.00  0.00    -0.390 OA
HETATM   17  H   UNK N   1       5.809 -12.499  -0.090  0.00  0.00     0.210 HD
ENDBRANCH  10  16
BRANCH  11  18
HETATM   18  O   UNK N   1       4.354 -10.343  -0.076  0.00  0.00    -0.390 OA
HETATM   19  H   UNK N   1       3.645  -9.713  -0.279  0.00  0.00     0.210 HD
ENDBRANCH  11  18
BRANCH  12  20
HETATM   20  C   UNK N   1       4.958  -7.569   0.847  0.00  0.00     0.198 C 
BRANCH  20  21
HETATM   21  O   UNK N   1       4.976  -6.238   0.429  0.00  0.00    -0.398 OA
HETATM   22  H   UNK N   1       5.784  -5.786   0.139  0.00  0.00     0.209 HD
ENDBRANCH  20  21
ENDBRANCH  12  20
ENDBRANCH   1   8
BRANCH   5  23
HETATM   23  C   UNK N   1      10.881  -4.710  -0.157  0.00  0.00     0.085 C 
BRANCH  23  24
HETATM   24  C   UNK N   1      12.197  -4.052  -0.388  0.00  0.00    -0.013 A 
HETATM   25  S   UNK N   1      13.435  -3.974   0.705  0.00  0.00    -0.094 SA
HETATM   26  C   UNK N   1      14.686  -3.766  -0.363  0.00  0.00     0.015 A 
HETATM   27  C   UNK N   1      14.133  -3.645  -1.645  0.00  0.00     0.021 A 
HETATM   28  C   UNK N   1      12.723  -3.810  -1.657  0.00  0.00     0.016 A 
BRANCH  26  29
HETATM   29  C   UNK N   1      16.052  -4.254  -0.122  0.00  0.00    -0.019 A 
HETATM   30  C   UNK N   1      16.904  -4.479  -1.213  0.00  0.00     0.016 A 
HETATM   31  C   UNK N   1      18.075  -5.222  -1.052  0.00  0.00     0.043 A 
HETATM   32  C   UNK N   1      18.394  -5.760   0.197  0.00  0.00     0.116 A 
HETATM   33  C   UNK N   1      17.563  -5.522   1.295  0.00  0.00     0.043 A 
HETATM   34  F   UNK N   1      19.499  -6.529   0.339  0.00  0.00    -0.206 F 
HETATM   35  C   UNK N   1      16.390  -4.780   1.134  0.00  0.00     0.016 A 
ENDBRANCH  26  29
ENDBRANCH  23  24
ENDBRANCH   5  23
TORSDOF 9
