REMARK  8 active torsions:
REMARK  status: ('A' for Active; 'I' for Inactive)
REMARK    1  A    between atoms: C_4  and  N_13 
REMARK    2  A    between atoms: C_10  and  N_14 
REMARK    3  A    between atoms: C_11  and  O_31 
REMARK    4  A    between atoms: N_13  and  C_18 
REMARK       I    between atoms: N_14  and  C_15 
REMARK    5  A    between atoms: C_15  and  C_16 
REMARK    6  A    between atoms: C_17  and  C_27 
REMARK    7  A    between atoms: C_27  and  N_28 
REMARK    8  A    between atoms: C_32  and  O_31 
ROOT
HETATM    1  C   UNK N   1       8.671  -9.867  -0.417  0.00  0.00     0.182 A 
HETATM    2  N   UNK N   1       8.933 -11.185  -0.195  0.00  0.00    -0.338 N 
ATOM      3  HN  UNK N   1       8.168 -11.858  -0.242  1.00  0.00     0.168 HD
HETATM    4  C   UNK N   1      10.186 -11.625   0.088  0.00  0.00     0.119 A 
HETATM    5  C   UNK N   1      11.230 -10.672   0.191  0.00  0.00     0.037 A 
HETATM    6  C   UNK N   1      10.940  -9.322  -0.062  0.00  0.00     0.049 A 
HETATM    7  N   UNK N   1       9.673  -8.949  -0.362  0.00  0.00    -0.351 N 
ATOM      8  HN  UNK N   1       9.468  -7.967  -0.548  1.00  0.00     0.166 HD
HETATM    9  C   UNK N   1      12.527 -11.020   0.516  0.00  0.00     0.050 A 
HETATM   10  C   UNK N   1      13.567 -10.102   0.540  0.00  0.00     0.069 A 
HETATM   11  C   UNK N   1      13.298  -8.728   0.270  0.00  0.00     0.098 A 
HETATM   12  C   UNK N   1      11.968  -8.370  -0.018  0.00  0.00     0.069 A 
ENDROOT
BRANCH   4  13
HETATM   13  N   UNK N   1      10.385 -13.035   0.287  0.00  0.00    -0.342 N 
HETATM   14  H   UNK N   1       9.609 -13.540   0.623  0.00  0.00     0.167 HD
BRANCH  13  15
HETATM   15  C   UNK N   1      11.576 -13.789   0.054  0.00  0.00     0.035 A 
HETATM   16  C   UNK N   1      11.769 -14.993   0.742  0.00  0.00     0.056 A 
HETATM   17  C   UNK N   1      12.956 -15.720   0.580  0.00  0.00     0.074 A 
HETATM   18  C   UNK N   1      13.963 -15.239  -0.268  0.00  0.00     0.138 A 
HETATM   19 Cl   UNK N   1      13.178 -17.221   1.456  0.00  0.00    -0.081 Cl
HETATM   20  C   UNK N   1      13.755 -14.068  -0.996  0.00  0.00     0.046 A 
HETATM   21  F   UNK N   1      15.135 -15.908  -0.397  0.00  0.00    -0.204 F 
HETATM   22  C   UNK N   1      12.561 -13.362  -0.854  0.00  0.00     0.032 A 
ENDBRANCH  13  15
ENDBRANCH   4  13
BRANCH  10  23
HETATM   23  N   UNK N   1      14.856 -10.637   0.709  0.00  0.00    -0.321 N 
HETATM   24  C   UNK N   1      15.576 -11.072  -0.354  0.00  0.00     0.245 C 
HETATM   25  O   UNK N   1      15.159 -10.913  -1.495  0.00  0.00    -0.268 OA
HETATM   26  H   UNK N   1      15.242 -10.697   1.613  0.00  0.00     0.169 HD
BRANCH  24  27
HETATM   27  C   UNK N   1      16.855 -11.750  -0.122  0.00  0.00     0.072 C 
HETATM   28  C   UNK N   1      17.647 -12.115  -1.130  0.00  0.00     0.008 C 
BRANCH  28  29
HETATM   29  C   UNK N   1      18.931 -12.836  -0.861  0.00  0.00     0.299 C 
BRANCH  29  30
HETATM   30  N   UNK N   1      19.697 -12.175   0.188  0.00  0.00     0.083 N 
HETATM   31  C   UNK N   1      20.763 -13.082   0.569  0.00  0.00     0.309 C 
HETATM   32  C   UNK N   1      20.325 -10.987  -0.368  0.00  0.00     0.309 C 
ENDBRANCH  29  30
ENDBRANCH  28  29
ENDBRANCH  24  27
ENDBRANCH  10  23
BRANCH  11  33
HETATM   33  O   UNK N   1      14.211  -7.708   0.239  0.00  0.00    -0.341 OA
BRANCH  33  34
HETATM   34  C   UNK N   1      15.524  -7.467   0.639  0.00  0.00     0.154 C 
HETATM   35  C   UNK N   1      16.321  -8.531   1.325  0.00  0.00     0.061 C 
HETATM   36  C   UNK N   1      17.672  -8.436   0.635  0.00  0.00     0.170 C 
HETATM   37  O   UNK N   1      17.716  -7.225  -0.074  0.00  0.00    -0.389 OA
HETATM   38  C   UNK N   1      16.398  -7.045  -0.509  0.00  0.00     0.200 C 
ENDBRANCH  33  34
ENDBRANCH  11  33
TORSDOF 8
