MODEL 1
REMARK VINA RESULT:      -7.0      0.000      0.000
REMARK  8 active torsions:
REMARK  status: ('A' for Active; 'I' for Inactive)
REMARK    1  A    between atoms: C_2  and  C_17 
REMARK    2  A    between atoms: C_10  and  N_14 
REMARK    3  A    between atoms: C_11  and  C_18 
REMARK       I    between atoms: C_15  and  N_14 
REMARK    4  A    between atoms: C_17  and  C_15 
REMARK    5  A    between atoms: N_21  and  N_16 
REMARK    6  A    between atoms: N_19  and  N_16 
REMARK    7  A    between atoms: C_17  and  N_21 
REMARK    8  A    between atoms: O_24  and  C_18 
ROOT
HETATM    1  N   UNK N   1      34.145  16.075   8.604  0.00  0.00    -0.343 N 
HETATM    2  C   UNK N   1      33.862  17.401   8.426  0.00  0.00     0.248 C 
HETATM    3  O   UNK N   1      34.692  18.278   8.614  0.00  0.00    -0.271 OA
HETATM    4  H   UNK N   1      33.457  15.426   8.327  0.00  0.00     0.163 HD
ENDROOT
BRANCH   1   5
HETATM    5  C   UNK N   1      35.368  15.546   9.164  0.00  0.00     0.210 A 
HETATM    6  C   UNK N   1      35.207  13.950   9.436  0.00  0.00     0.183 A 
HETATM    7  N   UNK N   1      35.139  14.290  10.802  0.00  0.00    -0.318 N 
HETATM    8  S   UNK N   1      36.627  12.835   9.425  0.00  0.00    -0.129 SA
HETATM    9  C   UNK N   1      35.299  15.566  10.639  0.00  0.00     0.247 A 
HETATM   10  C   UNK N   1      35.309  13.330  11.829  0.00  0.00     0.204 C 
HETATM   11  O   UNK N   1      35.464  16.436  11.478  0.00  0.00    -0.271 OA
HETATM   12  C   UNK N   1      36.243  12.281  11.167  0.00  0.00     0.033 C 
HETATM   13  C   UNK N   1      37.572  12.098  11.873  0.00  0.00     0.029 C 
HETATM   14  C   UNK N   1      35.498  10.963  11.109  0.00  0.00     0.029 C 
BRANCH  10  15
HETATM   15  C   UNK N   1      35.588  13.890  13.213  0.00  0.00     0.165 C 
HETATM   16  O   UNK N   1      34.934  13.505  14.170  0.00  0.00    -0.648 OA
BRANCH  15  17
HETATM   17  O   UNK N   1      36.673  14.654  13.435  0.00  0.00    -0.775 OA
HETATM   18  H   UNK N   1      36.875  15.370  12.865  0.00  0.00     0.167 HD
ENDBRANCH  15  17
ENDBRANCH  10  15
ENDBRANCH   1   5
BRANCH   2  19
HETATM   19  C   UNK N   1      32.508  17.790   8.001  0.00  0.00     0.239 C 
BRANCH  19  20
HETATM   20  C   UNK N   1      32.265  17.415   6.559  0.00  0.00    -0.024 A 
HETATM   21  C   UNK N   1      30.981  17.055   6.148  0.00  0.00     0.010 A 
HETATM   22  C   UNK N   1      30.706  16.868   4.791  0.00  0.00     0.001 A 
HETATM   23  C   UNK N   1      31.706  17.065   3.834  0.00  0.00     0.000 A 
HETATM   24  C   UNK N   1      32.996  17.416   4.233  0.00  0.00     0.001 A 
HETATM   25  C   UNK N   1      33.274  17.590   5.586  0.00  0.00     0.010 A 
ENDBRANCH  19  20
BRANCH  19  26
HETATM   26  N   UNK N   1      31.571  17.238   8.952  0.00  0.00    -0.234 N 
ATOM     27  HN  UNK N   1      31.648  16.255   9.215  1.00  0.00     0.198 HD
BRANCH  26  28
HETATM   28  N   UNK N   1      30.693  17.920   9.443  0.00  0.00    -0.247 NA
BRANCH  28  29
HETATM   29  N   UNK N   1      29.833  18.621   9.944  0.00  0.00    -0.261 N 
HETATM   30  H   UNK N   1      29.330  19.293   9.431  0.00  0.00     0.193 HD
ATOM     31  HN  UNK N   1      29.626  18.507  10.936  1.00  0.00     0.193 HD
ENDBRANCH  28  29
ENDBRANCH  26  28
ENDBRANCH  19  26
ENDBRANCH   2  19
TORSDOF 8
ENDMDL
MODEL 2
REMARK VINA RESULT:      -6.7      1.905      2.269
REMARK  8 active torsions:
REMARK  status: ('A' for Active; 'I' for Inactive)
REMARK    1  A    between atoms: C_2  and  C_17 
REMARK    2  A    between atoms: C_10  and  N_14 
REMARK    3  A    between atoms: C_11  and  C_18 
REMARK       I    between atoms: C_15  and  N_14 
REMARK    4  A    between atoms: C_17  and  C_15 
REMARK    5  A    between atoms: N_21  and  N_16 
REMARK    6  A    between atoms: N_19  and  N_16 
REMARK    7  A    between atoms: C_17  and  N_21 
REMARK    8  A    between atoms: O_24  and  C_18 
ROOT
HETATM    1  N   UNK N   1      34.816  15.655   7.772  0.00  0.00    -0.343 N 
HETATM    2  C   UNK N   1      34.806  16.083   6.473  0.00  0.00     0.248 C 
HETATM    3  O   UNK N   1      35.502  15.569   5.610  0.00  0.00    -0.271 OA
HETATM    4  H   UNK N   1      34.148  16.047   8.381  0.00  0.00     0.163 HD
ENDROOT
BRANCH   1   5
HETATM    5  C   UNK N   1      35.724  14.677   8.326  0.00  0.00     0.210 A 
HETATM    6  C   UNK N   1      34.888  13.396   8.880  0.00  0.00     0.183 A 
HETATM    7  N   UNK N   1      35.183  13.886  10.168  0.00  0.00    -0.318 N 
HETATM    8  S   UNK N   1      35.617  11.747   8.960  0.00  0.00    -0.129 SA
HETATM    9  C   UNK N   1      35.888  14.902   9.776  0.00  0.00     0.247 A 
HETATM   10  C   UNK N   1      35.038  13.091  11.331  0.00  0.00     0.204 C 
HETATM   11  O   UNK N   1      36.554  15.680  10.439  0.00  0.00    -0.271 OA
HETATM   12  C   UNK N   1      35.278  11.653  10.795  0.00  0.00     0.033 C 
HETATM   13  C   UNK N   1      36.460  10.943  11.425  0.00  0.00     0.029 C 
HETATM   14  C   UNK N   1      34.010  10.854  11.019  0.00  0.00     0.029 C 
BRANCH  10  15
HETATM   15  C   UNK N   1      35.742  13.609  12.574  0.00  0.00     0.165 C 
HETATM   16  O   UNK N   1      35.133  13.691  13.629  0.00  0.00    -0.648 OA
BRANCH  15  17
HETATM   17  O   UNK N   1      37.075  13.792  12.579  0.00  0.00    -0.775 OA
HETATM   18  H   UNK N   1      37.644  13.152  12.199  0.00  0.00     0.167 HD
ENDBRANCH  15  17
ENDBRANCH  10  15
ENDBRANCH   1   5
BRANCH   2  19
HETATM   19  C   UNK N   1      33.933  17.207   6.100  0.00  0.00     0.239 C 
BRANCH  19  20
HETATM   20  C   UNK N   1      32.817  16.747   5.193  0.00  0.00    -0.024 A 
HETATM   21  C   UNK N   1      32.729  17.255   3.897  0.00  0.00     0.010 A 
HETATM   22  C   UNK N   1      31.807  16.719   2.995  0.00  0.00     0.001 A 
HETATM   23  C   UNK N   1      30.983  15.654   3.375  0.00  0.00     0.000 A 
HETATM   24  C   UNK N   1      31.056  15.145   4.672  0.00  0.00     0.001 A 
HETATM   25  C   UNK N   1      31.966  15.686   5.575  0.00  0.00     0.010 A 
ENDBRANCH  19  20
BRANCH  19  26
HETATM   26  N   UNK N   1      33.513  17.863   7.316  0.00  0.00    -0.234 N 
ATOM     27  HN  UNK N   1      32.539  17.793   7.610  1.00  0.00     0.198 HD
BRANCH  26  28
HETATM   28  N   UNK N   1      34.297  18.498   7.996  0.00  0.00    -0.247 NA
BRANCH  28  29
HETATM   29  N   UNK N   1      35.091  19.109   8.686  0.00  0.00    -0.261 N 
HETATM   30  H   UNK N   1      35.685  18.665   9.333  0.00  0.00     0.193 HD
ATOM     31  HN  UNK N   1      35.144  20.123   8.589  1.00  0.00     0.193 HD
ENDBRANCH  28  29
ENDBRANCH  26  28
ENDBRANCH  19  26
ENDBRANCH   2  19
TORSDOF 8
ENDMDL
MODEL 3
REMARK VINA RESULT:      -6.6      2.294      3.079
REMARK  8 active torsions:
REMARK  status: ('A' for Active; 'I' for Inactive)
REMARK    1  A    between atoms: C_2  and  C_17 
REMARK    2  A    between atoms: C_10  and  N_14 
REMARK    3  A    between atoms: C_11  and  C_18 
REMARK       I    between atoms: C_15  and  N_14 
REMARK    4  A    between atoms: C_17  and  C_15 
REMARK    5  A    between atoms: N_21  and  N_16 
REMARK    6  A    between atoms: N_19  and  N_16 
REMARK    7  A    between atoms: C_17  and  N_21 
REMARK    8  A    between atoms: O_24  and  C_18 
ROOT
HETATM    1  N   UNK N   1      34.094  15.530   7.104  0.00  0.00    -0.343 N 
HETATM    2  C   UNK N   1      33.741  16.680   6.452  0.00  0.00     0.248 C 
HETATM    3  O   UNK N   1      34.511  17.621   6.323  0.00  0.00    -0.271 OA
HETATM    4  H   UNK N   1      33.457  14.780   7.070  0.00  0.00     0.163 HD
ENDROOT
BRANCH   1   5
HETATM    5  C   UNK N   1      35.322  15.325   7.838  0.00  0.00     0.210 A 
HETATM    6  C   UNK N   1      35.429  13.774   8.316  0.00  0.00     0.183 A 
HETATM    7  N   UNK N   1      35.145  14.255   9.609  0.00  0.00    -0.318 N 
HETATM    8  S   UNK N   1      37.022  12.969   8.585  0.00  0.00    -0.129 SA
HETATM    9  C   UNK N   1      35.084  15.509   9.284  0.00  0.00     0.247 A 
HETATM   10  C   UNK N   1      35.371  13.479  10.771  0.00  0.00     0.204 C 
HETATM   11  O   UNK N   1      34.989  16.489  10.004  0.00  0.00    -0.271 OA
HETATM   12  C   UNK N   1      36.552  12.564  10.347  0.00  0.00     0.033 C 
HETATM   13  C   UNK N   1      37.803  12.734  11.187  0.00  0.00     0.029 C 
HETATM   14  C   UNK N   1      36.075  11.127  10.410  0.00  0.00     0.029 C 
BRANCH  10  15
HETATM   15  C   UNK N   1      35.384  14.246  12.083  0.00  0.00     0.165 C 
HETATM   16  O   UNK N   1      34.755  13.825  13.041  0.00  0.00    -0.648 OA
BRANCH  15  17
HETATM   17  O   UNK N   1      36.234  15.273  12.265  0.00  0.00    -0.775 OA
HETATM   18  H   UNK N   1      36.301  15.692  13.101  0.00  0.00     0.167 HD
ENDBRANCH  15  17
ENDBRANCH  10  15
ENDBRANCH   1   5
BRANCH   2  19
HETATM   19  C   UNK N   1      32.385  16.794   5.893  0.00  0.00     0.239 C 
BRANCH  19  20
HETATM   20  C   UNK N   1      31.380  17.115   6.972  0.00  0.00    -0.024 A 
HETATM   21  C   UNK N   1      31.777  17.856   8.086  0.00  0.00     0.010 A 
HETATM   22  C   UNK N   1      30.825  18.301   9.007  0.00  0.00     0.001 A 
HETATM   23  C   UNK N   1      29.468  18.032   8.807  0.00  0.00     0.000 A 
HETATM   24  C   UNK N   1      29.060  17.285   7.702  0.00  0.00     0.001 A 
HETATM   25  C   UNK N   1      30.008  16.829   6.790  0.00  0.00     0.010 A 
ENDBRANCH  19  20
BRANCH  19  26
HETATM   26  N   UNK N   1      32.438  17.732   4.795  0.00  0.00    -0.234 N 
ATOM     27  HN  UNK N   1      32.821  18.665   4.954  1.00  0.00     0.198 HD
BRANCH  26  28
HETATM   28  N   UNK N   1      32.035  17.434   3.688  0.00  0.00    -0.247 NA
BRANCH  28  29
HETATM   29  N   UNK N   1      31.646  17.156   2.569  0.00  0.00    -0.261 N 
HETATM   30  H   UNK N   1      30.773  17.449   2.222  0.00  0.00     0.193 HD
ATOM     31  HN  UNK N   1      32.249  16.598   1.966  1.00  0.00     0.193 HD
ENDBRANCH  28  29
ENDBRANCH  26  28
ENDBRANCH  19  26
ENDBRANCH   2  19
TORSDOF 8
ENDMDL
MODEL 4
REMARK VINA RESULT:      -6.5      3.316      8.194
REMARK  8 active torsions:
REMARK  status: ('A' for Active; 'I' for Inactive)
REMARK    1  A    between atoms: C_2  and  C_17 
REMARK    2  A    between atoms: C_10  and  N_14 
REMARK    3  A    between atoms: C_11  and  C_18 
REMARK       I    between atoms: C_15  and  N_14 
REMARK    4  A    between atoms: C_17  and  C_15 
REMARK    5  A    between atoms: N_21  and  N_16 
REMARK    6  A    between atoms: N_19  and  N_16 
REMARK    7  A    between atoms: C_17  and  N_21 
REMARK    8  A    between atoms: O_24  and  C_18 
ROOT
HETATM    1  N   UNK N   1      35.670  13.941  12.765  0.00  0.00    -0.343 N 
HETATM    2  C   UNK N   1      36.380  12.972  13.418  0.00  0.00     0.248 C 
HETATM    3  O   UNK N   1      37.415  12.503  12.966  0.00  0.00    -0.271 OA
HETATM    4  H   UNK N   1      34.910  14.343  13.245  0.00  0.00     0.163 HD
ENDROOT
BRANCH   1   5
HETATM    5  C   UNK N   1      35.941  14.424  11.430  0.00  0.00     0.210 A 
HETATM    6  C   UNK N   1      34.687  15.314  10.898  0.00  0.00     0.183 A 
HETATM    7  N   UNK N   1      34.389  14.217  10.065  0.00  0.00    -0.318 N 
HETATM    8  S   UNK N   1      34.902  16.628   9.679  0.00  0.00    -0.129 SA
HETATM    9  C   UNK N   1      35.394  13.484  10.431  0.00  0.00     0.247 A 
HETATM   10  C   UNK N   1      33.511  14.324   8.959  0.00  0.00     0.204 C 
HETATM   11  O   UNK N   1      35.784  12.424   9.968  0.00  0.00    -0.271 OA
HETATM   12  C   UNK N   1      33.674  15.809   8.535  0.00  0.00     0.033 C 
HETATM   13  C   UNK N   1      34.192  16.000   7.124  0.00  0.00     0.029 C 
HETATM   14  C   UNK N   1      32.329  16.489   8.693  0.00  0.00     0.029 C 
BRANCH  10  15
HETATM   15  C   UNK N   1      33.584  13.191   7.949  0.00  0.00     0.165 C 
HETATM   16  O   UNK N   1      32.556  12.687   7.523  0.00  0.00    -0.648 OA
BRANCH  15  17
HETATM   17  O   UNK N   1      34.754  12.868   7.368  0.00  0.00    -0.775 OA
HETATM   18  H   UNK N   1      34.771  12.494   6.509  0.00  0.00     0.167 HD
ENDBRANCH  15  17
ENDBRANCH  10  15
ENDBRANCH   1   5
BRANCH   2  19
HETATM   19  C   UNK N   1      35.881  12.468  14.706  0.00  0.00     0.239 C 
BRANCH  19  20
HETATM   20  C   UNK N   1      35.968  13.532  15.774  0.00  0.00    -0.024 A 
HETATM   21  C   UNK N   1      35.202  13.409  16.934  0.00  0.00     0.010 A 
HETATM   22  C   UNK N   1      35.395  14.293  17.998  0.00  0.00     0.001 A 
HETATM   23  C   UNK N   1      36.371  15.290  17.920  0.00  0.00     0.000 A 
HETATM   24  C   UNK N   1      37.136  15.430  16.762  0.00  0.00     0.001 A 
HETATM   25  C   UNK N   1      36.937  14.557  15.696  0.00  0.00     0.010 A 
ENDBRANCH  19  20
BRANCH  19  26
HETATM   26  N   UNK N   1      34.563  11.918  14.485  0.00  0.00    -0.234 N 
ATOM     27  HN  UNK N   1      33.865  11.983  15.226  1.00  0.00     0.198 HD
BRANCH  26  28
HETATM   28  N   UNK N   1      34.270  11.379  13.435  0.00  0.00    -0.247 NA
BRANCH  28  29
HETATM   29  N   UNK N   1      33.951  10.839  12.393  0.00  0.00    -0.261 N 
HETATM   30  H   UNK N   1      34.050  11.274  11.516  0.00  0.00     0.193 HD
ATOM     31  HN  UNK N   1      33.565   9.896  12.430  1.00  0.00     0.193 HD
ENDBRANCH  28  29
ENDBRANCH  26  28
ENDBRANCH  19  26
ENDBRANCH   2  19
TORSDOF 8
ENDMDL
MODEL 5
REMARK VINA RESULT:      -6.4     16.435     18.582
REMARK  8 active torsions:
REMARK  status: ('A' for Active; 'I' for Inactive)
REMARK    1  A    between atoms: C_2  and  C_17 
REMARK    2  A    between atoms: C_10  and  N_14 
REMARK    3  A    between atoms: C_11  and  C_18 
REMARK       I    between atoms: C_15  and  N_14 
REMARK    4  A    between atoms: C_17  and  C_15 
REMARK    5  A    between atoms: N_21  and  N_16 
REMARK    6  A    between atoms: N_19  and  N_16 
REMARK    7  A    between atoms: C_17  and  N_21 
REMARK    8  A    between atoms: O_24  and  C_18 
ROOT
HETATM    1  N   UNK N   1      27.633  24.365  -5.255  0.00  0.00    -0.343 N 
HETATM    2  C   UNK N   1      26.458  24.717  -4.650  0.00  0.00     0.248 C 
HETATM    3  O   UNK N   1      26.148  24.312  -3.539  0.00  0.00    -0.271 OA
HETATM    4  H   UNK N   1      27.858  24.819  -6.100  0.00  0.00     0.163 HD
ENDROOT
BRANCH   1   5
HETATM    5  C   UNK N   1      28.571  23.384  -4.760  0.00  0.00     0.210 A 
HETATM    6  C   UNK N   1      30.068  24.019  -4.719  0.00  0.00     0.183 A 
HETATM    7  N   UNK N   1      30.338  23.203  -5.836  0.00  0.00    -0.318 N 
HETATM    8  S   UNK N   1      31.316  23.437  -3.552  0.00  0.00    -0.129 SA
HETATM    9  C   UNK N   1      29.170  22.642  -5.888  0.00  0.00     0.247 A 
HETATM   10  C   UNK N   1      31.658  22.930  -6.270  0.00  0.00     0.204 C 
HETATM   11  O   UNK N   1      28.791  21.714  -6.583  0.00  0.00    -0.271 OA
HETATM   12  C   UNK N   1      32.479  23.025  -4.955  0.00  0.00     0.033 C 
HETATM   13  C   UNK N   1      33.193  21.744  -4.573  0.00  0.00     0.029 C 
HETATM   14  C   UNK N   1      33.479  24.153  -5.111  0.00  0.00     0.029 C 
BRANCH  10  15
HETATM   15  C   UNK N   1      31.807  21.755  -7.223  0.00  0.00     0.165 C 
HETATM   16  O   UNK N   1      32.478  21.874  -8.236  0.00  0.00    -0.648 OA
BRANCH  15  17
HETATM   17  O   UNK N   1      31.375  20.531  -6.870  0.00  0.00    -0.775 OA
HETATM   18  H   UNK N   1      31.629  20.155  -6.050  0.00  0.00     0.167 HD
ENDBRANCH  15  17
ENDBRANCH  10  15
ENDBRANCH   1   5
BRANCH   2  19
HETATM   19  C   UNK N   1      25.529  25.608  -5.361  0.00  0.00     0.239 C 
BRANCH  19  20
HETATM   20  C   UNK N   1      25.948  27.052  -5.220  0.00  0.00    -0.024 A 
HETATM   21  C   UNK N   1      25.615  27.757  -4.064  0.00  0.00     0.010 A 
HETATM   22  C   UNK N   1      26.135  29.035  -3.847  0.00  0.00     0.001 A 
HETATM   23  C   UNK N   1      27.014  29.606  -4.772  0.00  0.00     0.000 A 
HETATM   24  C   UNK N   1      27.348  28.915  -5.936  0.00  0.00     0.001 A 
HETATM   25  C   UNK N   1      26.820  27.646  -6.160  0.00  0.00     0.010 A 
ENDBRANCH  19  20
BRANCH  19  26
HETATM   26  N   UNK N   1      25.407  25.128  -6.718  0.00  0.00    -0.234 N 
ATOM     27  HN  UNK N   1      25.438  25.796  -7.488  1.00  0.00     0.198 HD
BRANCH  26  28
HETATM   28  N   UNK N   1      25.269  23.945  -6.960  0.00  0.00    -0.247 NA
BRANCH  28  29
HETATM   29  N   UNK N   1      25.146  22.763  -7.226  0.00  0.00    -0.261 N 
HETATM   30  H   UNK N   1      25.916  22.160  -7.337  0.00  0.00     0.193 HD
ATOM     31  HN  UNK N   1      24.207  22.383  -7.338  1.00  0.00     0.193 HD
ENDBRANCH  28  29
ENDBRANCH  26  28
ENDBRANCH  19  26
ENDBRANCH   2  19
TORSDOF 8
ENDMDL
MODEL 6
REMARK VINA RESULT:      -6.4      4.239      9.428
REMARK  8 active torsions:
REMARK  status: ('A' for Active; 'I' for Inactive)
REMARK    1  A    between atoms: C_2  and  C_17 
REMARK    2  A    between atoms: C_10  and  N_14 
REMARK    3  A    between atoms: C_11  and  C_18 
REMARK       I    between atoms: C_15  and  N_14 
REMARK    4  A    between atoms: C_17  and  C_15 
REMARK    5  A    between atoms: N_21  and  N_16 
REMARK    6  A    between atoms: N_19  and  N_16 
REMARK    7  A    between atoms: C_17  and  N_21 
REMARK    8  A    between atoms: O_24  and  C_18 
ROOT
HETATM    1  N   UNK N   1      36.257  11.196  13.554  0.00  0.00    -0.343 N 
HETATM    2  C   UNK N   1      35.621  10.822  14.706  0.00  0.00     0.248 C 
HETATM    3  O   UNK N   1      34.410  10.665  14.761  0.00  0.00    -0.271 OA
HETATM    4  H   UNK N   1      37.242  11.195  13.564  0.00  0.00     0.163 HD
ENDROOT
BRANCH   1   5
HETATM    5  C   UNK N   1      35.607  11.594  12.327  0.00  0.00     0.210 A 
HETATM    6  C   UNK N   1      36.722  12.014  11.220  0.00  0.00     0.183 A 
HETATM    7  N   UNK N   1      36.314  13.342  11.458  0.00  0.00    -0.318 N 
HETATM    8  S   UNK N   1      36.408  11.865   9.449  0.00  0.00    -0.129 SA
HETATM    9  C   UNK N   1      35.389  13.054  12.319  0.00  0.00     0.247 A 
HETATM   10  C   UNK N   1      36.640  14.402  10.577  0.00  0.00     0.204 C 
HETATM   11  O   UNK N   1      34.554  13.785  12.826  0.00  0.00    -0.271 OA
HETATM   12  C   UNK N   1      36.753  13.684   9.204  0.00  0.00     0.033 C 
HETATM   13  C   UNK N   1      35.772  14.181   8.160  0.00  0.00     0.029 C 
HETATM   14  C   UNK N   1      38.174  13.852   8.706  0.00  0.00     0.029 C 
BRANCH  10  15
HETATM   15  C   UNK N   1      35.828  15.675  10.750  0.00  0.00     0.165 C 
HETATM   16  O   UNK N   1      36.371  16.763  10.641  0.00  0.00    -0.648 OA
BRANCH  15  17
HETATM   17  O   UNK N   1      34.486  15.624  10.826  0.00  0.00    -0.775 OA
HETATM   18  H   UNK N   1      33.962  16.296  10.438  0.00  0.00     0.167 HD
ENDBRANCH  15  17
ENDBRANCH  10  15
ENDBRANCH   1   5
BRANCH   2  19
HETATM   19  C   UNK N   1      36.417  10.608  15.924  0.00  0.00     0.239 C 
BRANCH  19  20
HETATM   20  C   UNK N   1      35.836  11.367  17.091  0.00  0.00    -0.024 A 
HETATM   21  C   UNK N   1      35.763  10.756  18.344  0.00  0.00     0.010 A 
HETATM   22  C   UNK N   1      35.383  11.497  19.465  0.00  0.00     0.001 A 
HETATM   23  C   UNK N   1      35.099  12.861  19.347  0.00  0.00     0.000 A 
HETATM   24  C   UNK N   1      35.160  13.482  18.099  0.00  0.00     0.001 A 
HETATM   25  C   UNK N   1      35.526  12.741  16.978  0.00  0.00     0.010 A 
ENDBRANCH  19  20
BRANCH  19  26
HETATM   26  N   UNK N   1      36.555   9.183  16.117  0.00  0.00    -0.234 N 
ATOM     27  HN  UNK N   1      36.082   8.739  16.904  1.00  0.00     0.198 HD
BRANCH  26  28
HETATM   28  N   UNK N   1      37.223   8.503  15.362  0.00  0.00    -0.247 NA
BRANCH  28  29
HETATM   29  N   UNK N   1      37.913   7.830  14.621  0.00  0.00    -0.261 N 
HETATM   30  H   UNK N   1      37.724   6.883  14.431  0.00  0.00     0.193 HD
ATOM     31  HN  UNK N   1      38.722   8.265  14.177  1.00  0.00     0.193 HD
ENDBRANCH  28  29
ENDBRANCH  26  28
ENDBRANCH  19  26
ENDBRANCH   2  19
TORSDOF 8
ENDMDL
MODEL 7
REMARK VINA RESULT:      -6.3     18.377     20.434
REMARK  8 active torsions:
REMARK  status: ('A' for Active; 'I' for Inactive)
REMARK    1  A    between atoms: C_2  and  C_17 
REMARK    2  A    between atoms: C_10  and  N_14 
REMARK    3  A    between atoms: C_11  and  C_18 
REMARK       I    between atoms: C_15  and  N_14 
REMARK    4  A    between atoms: C_17  and  C_15 
REMARK    5  A    between atoms: N_21  and  N_16 
REMARK    6  A    between atoms: N_19  and  N_16 
REMARK    7  A    between atoms: C_17  and  N_21 
REMARK    8  A    between atoms: O_24  and  C_18 
ROOT
HETATM    1  N   UNK N   1      26.211  25.328  -6.765  0.00  0.00    -0.343 N 
HETATM    2  C   UNK N   1      26.675  24.461  -7.715  0.00  0.00     0.248 C 
HETATM    3  O   UNK N   1      27.323  24.836  -8.682  0.00  0.00    -0.271 OA
HETATM    4  H   UNK N   1      25.794  24.936  -5.964  0.00  0.00     0.163 HD
ENDROOT
BRANCH   1   5
HETATM    5  C   UNK N   1      26.281  26.769  -6.838  0.00  0.00     0.210 A 
HETATM    6  C   UNK N   1      27.776  27.272  -6.441  0.00  0.00     0.183 A 
HETATM    7  N   UNK N   1      27.201  27.709  -5.231  0.00  0.00    -0.318 N 
HETATM    8  S   UNK N   1      28.461  28.815  -7.079  0.00  0.00    -0.129 SA
HETATM    9  C   UNK N   1      25.986  27.358  -5.516  0.00  0.00     0.247 A 
HETATM   10  C   UNK N   1      27.859  28.617  -4.366  0.00  0.00     0.204 C 
HETATM   11  O   UNK N   1      24.954  27.585  -4.906  0.00  0.00    -0.271 OA
HETATM   12  C   UNK N   1      28.739  29.445  -5.342  0.00  0.00     0.033 C 
HETATM   13  C   UNK N   1      28.424  30.928  -5.356  0.00  0.00     0.029 C 
HETATM   14  C   UNK N   1      30.189  29.223  -4.966  0.00  0.00     0.029 C 
BRANCH  10  15
HETATM   15  C   UNK N   1      26.982  29.282  -3.319  0.00  0.00     0.165 C 
HETATM   16  O   UNK N   1      27.323  29.278  -2.146  0.00  0.00    -0.648 OA
BRANCH  15  17
HETATM   17  O   UNK N   1      25.937  30.044  -3.688  0.00  0.00    -0.775 OA
HETATM   18  H   UNK N   1      25.487  29.877  -4.493  0.00  0.00     0.167 HD
ENDBRANCH  15  17
ENDBRANCH  10  15
ENDBRANCH   1   5
BRANCH   2  19
HETATM   19  C   UNK N   1      26.380  23.026  -7.577  0.00  0.00     0.239 C 
BRANCH  19  20
HETATM   20  C   UNK N   1      27.646  22.230  -7.373  0.00  0.00    -0.024 A 
HETATM   21  C   UNK N   1      28.509  22.563  -6.329  0.00  0.00     0.010 A 
HETATM   22  C   UNK N   1      29.595  21.737  -6.026  0.00  0.00     0.001 A 
HETATM   23  C   UNK N   1      29.810  20.560  -6.749  0.00  0.00     0.000 A 
HETATM   24  C   UNK N   1      28.960  20.221  -7.801  0.00  0.00     0.001 A 
HETATM   25  C   UNK N   1      27.885  21.050  -8.112  0.00  0.00     0.010 A 
ENDBRANCH  19  20
BRANCH  19  26
HETATM   26  N   UNK N   1      25.382  22.878  -6.544  0.00  0.00    -0.234 N 
ATOM     27  HN  UNK N   1      25.378  23.528  -5.757  1.00  0.00     0.198 HD
BRANCH  26  28
HETATM   28  N   UNK N   1      24.547  21.996  -6.592  0.00  0.00    -0.247 NA
BRANCH  28  29
HETATM   29  N   UNK N   1      23.693  21.130  -6.632  0.00  0.00    -0.261 N 
HETATM   30  H   UNK N   1      23.835  20.262  -7.073  0.00  0.00     0.193 HD
ATOM     31  HN  UNK N   1      22.792  21.312  -6.190  1.00  0.00     0.193 HD
ENDBRANCH  28  29
ENDBRANCH  26  28
ENDBRANCH  19  26
ENDBRANCH   2  19
TORSDOF 8
ENDMDL
MODEL 8
REMARK VINA RESULT:      -6.2      2.019      2.889
REMARK  8 active torsions:
REMARK  status: ('A' for Active; 'I' for Inactive)
REMARK    1  A    between atoms: C_2  and  C_17 
REMARK    2  A    between atoms: C_10  and  N_14 
REMARK    3  A    between atoms: C_11  and  C_18 
REMARK       I    between atoms: C_15  and  N_14 
REMARK    4  A    between atoms: C_17  and  C_15 
REMARK    5  A    between atoms: N_21  and  N_16 
REMARK    6  A    between atoms: N_19  and  N_16 
REMARK    7  A    between atoms: C_17  and  N_21 
REMARK    8  A    between atoms: O_24  and  C_18 
ROOT
HETATM    1  N   UNK N   1      35.144  14.486  10.381  0.00  0.00    -0.343 N 
HETATM    2  C   UNK N   1      34.916  15.766   9.958  0.00  0.00     0.248 C 
HETATM    3  O   UNK N   1      35.778  16.632  10.000  0.00  0.00    -0.271 OA
HETATM    4  H   UNK N   1      34.435  13.823  10.214  0.00  0.00     0.163 HD
ENDROOT
BRANCH   1   5
HETATM    5  C   UNK N   1      36.336  14.024  11.055  0.00  0.00     0.210 A 
HETATM    6  C   UNK N   1      36.120  12.500  11.580  0.00  0.00     0.183 A 
HETATM    7  N   UNK N   1      36.031  13.062  12.870  0.00  0.00    -0.318 N 
HETATM    8  S   UNK N   1      37.505  11.361  11.792  0.00  0.00    -0.129 SA
HETATM    9  C   UNK N   1      36.235  14.289  12.504  0.00  0.00     0.247 A 
HETATM   10  C   UNK N   1      36.148  12.280  14.045  0.00  0.00     0.204 C 
HETATM   11  O   UNK N   1      36.406  15.281  13.194  0.00  0.00    -0.271 OA
HETATM   12  C   UNK N   1      37.064  11.112  13.590  0.00  0.00     0.033 C 
HETATM   13  C   UNK N   1      38.370  11.013  14.353  0.00  0.00     0.029 C 
HETATM   14  C   UNK N   1      36.280   9.823  13.728  0.00  0.00     0.029 C 
BRANCH  10  15
HETATM   15  C   UNK N   1      36.412  13.053  15.326  0.00  0.00     0.165 C 
HETATM   16  O   UNK N   1      35.809  12.765  16.347  0.00  0.00    -0.648 OA
BRANCH  15  17
HETATM   17  O   UNK N   1      37.440  13.918  15.402  0.00  0.00    -0.775 OA
HETATM   18  H   UNK N   1      37.782  14.178  16.234  0.00  0.00     0.167 HD
ENDBRANCH  15  17
ENDBRANCH  10  15
ENDBRANCH   1   5
BRANCH   2  19
HETATM   19  C   UNK N   1      33.585  16.120   9.441  0.00  0.00     0.239 C 
BRANCH  19  20
HETATM   20  C   UNK N   1      33.604  16.242   7.936  0.00  0.00    -0.024 A 
HETATM   21  C   UNK N   1      32.841  17.231   7.315  0.00  0.00     0.010 A 
HETATM   22  C   UNK N   1      32.976  17.463   5.944  0.00  0.00     0.001 A 
HETATM   23  C   UNK N   1      33.893  16.726   5.190  0.00  0.00     0.000 A 
HETATM   24  C   UNK N   1      34.655  15.728   5.797  0.00  0.00     0.001 A 
HETATM   25  C   UNK N   1      34.512  15.487   7.161  0.00  0.00     0.010 A 
ENDBRANCH  19  20
BRANCH  19  26
HETATM   26  N   UNK N   1      32.637  15.170   9.974  0.00  0.00    -0.234 N 
ATOM     27  HN  UNK N   1      32.090  15.420  10.798  1.00  0.00     0.198 HD
BRANCH  26  28
HETATM   28  N   UNK N   1      32.478  14.079   9.462  0.00  0.00    -0.247 NA
BRANCH  28  29
HETATM   29  N   UNK N   1      32.345  12.988   8.940  0.00  0.00    -0.261 N 
HETATM   30  H   UNK N   1      31.466  12.568   8.802  0.00  0.00     0.193 HD
ATOM     31  HN  UNK N   1      33.179  12.487   8.634  1.00  0.00     0.193 HD
ENDBRANCH  28  29
ENDBRANCH  26  28
ENDBRANCH  19  26
ENDBRANCH   2  19
TORSDOF 8
ENDMDL
MODEL 9
REMARK VINA RESULT:      -6.1      8.019     10.542
REMARK  8 active torsions:
REMARK  status: ('A' for Active; 'I' for Inactive)
REMARK    1  A    between atoms: C_2  and  C_17 
REMARK    2  A    between atoms: C_10  and  N_14 
REMARK    3  A    between atoms: C_11  and  C_18 
REMARK       I    between atoms: C_15  and  N_14 
REMARK    4  A    between atoms: C_17  and  C_15 
REMARK    5  A    between atoms: N_21  and  N_16 
REMARK    6  A    between atoms: N_19  and  N_16 
REMARK    7  A    between atoms: C_17  and  N_21 
REMARK    8  A    between atoms: O_24  and  C_18 
ROOT
HETATM    1  N   UNK N   1      26.063  16.084   6.760  0.00  0.00    -0.343 N 
HETATM    2  C   UNK N   1      27.407  16.217   6.544  0.00  0.00     0.248 C 
HETATM    3  O   UNK N   1      28.042  15.425   5.863  0.00  0.00    -0.271 OA
HETATM    4  H   UNK N   1      25.607  16.821   7.227  0.00  0.00     0.163 HD
ENDROOT
BRANCH   1   5
HETATM    5  C   UNK N   1      25.257  14.953   6.361  0.00  0.00     0.210 A 
HETATM    6  C   UNK N   1      23.693  15.391   6.271  0.00  0.00     0.183 A 
HETATM    7  N   UNK N   1      23.520  14.652   7.458  0.00  0.00    -0.318 N 
HETATM    8  S   UNK N   1      22.533  14.556   5.168  0.00  0.00    -0.129 SA
HETATM    9  C   UNK N   1      24.748  14.247   7.554  0.00  0.00     0.247 A 
HETATM   10  C   UNK N   1      22.241  14.258   7.923  0.00  0.00     0.204 C 
HETATM   11  O   UNK N   1      25.235  13.441   8.329  0.00  0.00    -0.271 OA
HETATM   12  C   UNK N   1      21.423  14.132   6.609  0.00  0.00     0.033 C 
HETATM   13  C   UNK N   1      20.876  12.742   6.348  0.00  0.00     0.029 C 
HETATM   14  C   UNK N   1      20.290  15.136   6.667  0.00  0.00     0.029 C 
BRANCH  10  15
HETATM   15  C   UNK N   1      22.234  13.165   8.978  0.00  0.00     0.165 C 
HETATM   16  O   UNK N   1      21.605  13.323  10.014  0.00  0.00    -0.648 OA
BRANCH  15  17
HETATM   17  O   UNK N   1      22.744  11.950   8.708  0.00  0.00    -0.775 OA
HETATM   18  H   UNK N   1      23.538  11.866   8.218  0.00  0.00     0.167 HD
ENDBRANCH  15  17
ENDBRANCH  10  15
ENDBRANCH   1   5
BRANCH   2  19
HETATM   19  C   UNK N   1      28.119  17.348   7.158  0.00  0.00     0.239 C 
BRANCH  19  20
HETATM   20  C   UNK N   1      27.887  18.621   6.380  0.00  0.00    -0.024 A 
HETATM   21  C   UNK N   1      27.846  18.578   4.986  0.00  0.00     0.010 A 
HETATM   22  C   UNK N   1      27.469  19.711   4.260  0.00  0.00     0.001 A 
HETATM   23  C   UNK N   1      27.105  20.886   4.924  0.00  0.00     0.000 A 
HETATM   24  C   UNK N   1      27.150  20.944   6.317  0.00  0.00     0.001 A 
HETATM   25  C   UNK N   1      27.538  19.819   7.041  0.00  0.00     0.010 A 
ENDBRANCH  19  20
BRANCH  19  26
HETATM   26  N   UNK N   1      27.748  17.399   8.554  0.00  0.00    -0.234 N 
ATOM     27  HN  UNK N   1      26.765  17.509   8.805  1.00  0.00     0.198 HD
BRANCH  26  28
HETATM   28  N   UNK N   1      28.582  17.314   9.434  0.00  0.00    -0.247 NA
BRANCH  28  29
HETATM   29  N   UNK N   1      29.436  17.221  10.296  0.00  0.00    -0.261 N 
HETATM   30  H   UNK N   1      29.688  16.363  10.705  0.00  0.00     0.193 HD
ATOM     31  HN  UNK N   1      29.911  18.069  10.607  1.00  0.00     0.193 HD
ENDBRANCH  28  29
ENDBRANCH  26  28
ENDBRANCH  19  26
ENDBRANCH   2  19
TORSDOF 8
ENDMDL
