MODEL 1
REMARK VINA RESULT:      -6.3      0.000      0.000
REMARK  12 active torsions:
REMARK  status: ('A' for Active; 'I' for Inactive)
REMARK    1  A    between atoms: C_2  and  C_1 
REMARK       I    between atoms: N_5  and  C_1 
REMARK    2  A    between atoms: C_3  and  C_2 
REMARK    3  A    between atoms: C_4  and  C_3 
REMARK    4  A    between atoms: C_3  and  N_6 
REMARK    5  A    between atoms: O_18  and  C_4 
REMARK    6  A    between atoms: C_8  and  N_5 
REMARK       I    between atoms: C_9  and  N_6 
REMARK    7  A    between atoms: C_7  and  C_8 
REMARK    8  A    between atoms: O_19  and  C_7 
REMARK    9  A    between atoms: C_16  and  C_8 
REMARK   10  A    between atoms: C_10  and  C_17 
REMARK   11  A    between atoms: O_20  and  C_10 
REMARK   12  A    between atoms: C_17  and  C_16 
ROOT
HETATM    1  C   UNK N   1      35.197  16.004  10.233  0.00  0.00     0.220 C 
HETATM    2  N   UNK N   1      34.190  16.864   9.916  0.00  0.00    -0.347 N 
HETATM    3  O   UNK N   1      35.686  15.267   9.391  0.00  0.00    -0.274 OA
HETATM    4  H   UNK N   1      33.803  17.391  10.652  0.00  0.00     0.163 HD
ENDROOT
BRANCH   1   5
HETATM    5  C   UNK N   1      35.720  15.965  11.636  0.00  0.00     0.138 C 
BRANCH   5   6
HETATM    6  C   UNK N   1      36.095  14.533  12.033  0.00  0.00     0.191 C 
BRANCH   6   7
HETATM    7  C   UNK N   1      36.015  14.246  13.512  0.00  0.00     0.164 C 
HETATM    8  O   UNK N   1      35.079  13.599  13.952  0.00  0.00    -0.648 OA
BRANCH   7   9
HETATM    9  O   UNK N   1      36.969  14.691  14.354  0.00  0.00    -0.775 OA
HETATM   10  H   UNK N   1      37.527  15.405  14.591  0.00  0.00     0.167 HD
ENDBRANCH   7   9
ENDBRANCH   6   7
BRANCH   6  11
HETATM   11  N   UNK N   1      37.379  14.149  11.474  0.00  0.00    -0.346 N 
HETATM   12  C   UNK N   1      37.662  12.947  10.906  0.00  0.00     0.214 C 
HETATM   13  O   UNK N   1      38.788  12.737  10.487  0.00  0.00    -0.274 OA
HETATM   14  C   UNK N   1      36.626  11.878  10.760  0.00  0.00     0.117 C 
HETATM   15  H   UNK N   1      38.103  14.815  11.511  0.00  0.00     0.163 HD
ENDBRANCH   6  11
ENDBRANCH   5   6
ENDBRANCH   1   5
BRANCH   2  16
HETATM   16  C   UNK N   1      33.635  17.074   8.587  0.00  0.00     0.182 C 
BRANCH  16  17
HETATM   17  C   UNK N   1      34.319  18.156   7.791  0.00  0.00     0.163 C 
HETATM   18  O   UNK N   1      34.293  18.116   6.571  0.00  0.00    -0.648 OA
BRANCH  17  19
HETATM   19  O   UNK N   1      35.005  19.138   8.407  0.00  0.00    -0.775 OA
HETATM   20  H   UNK N   1      35.861  19.298   8.754  0.00  0.00     0.167 HD
ENDBRANCH  17  19
ENDBRANCH  16  17
BRANCH  16  21
HETATM   21  C   UNK N   1      32.101  17.148   8.597  0.00  0.00     0.046 C 
BRANCH  21  22
HETATM   22  C   UNK N   1      31.543  18.563   8.635  0.00  0.00     0.112 C 
BRANCH  22  23
HETATM   23  C   UNK N   1      30.112  18.544   9.061  0.00  0.00     0.139 C 
HETATM   24  O   UNK N   1      29.225  18.396   8.236  0.00  0.00    -0.650 OA
BRANCH  23  25
HETATM   25  O   UNK N   1      29.799  18.701  10.361  0.00  0.00    -0.776 OA
HETATM   26  H   UNK N   1      29.609  18.004  10.956  0.00  0.00     0.167 HD
ENDBRANCH  23  25
ENDBRANCH  22  23
ENDBRANCH  21  22
ENDBRANCH  16  21
ENDBRANCH   2  16
TORSDOF 12
ENDMDL
MODEL 2
REMARK VINA RESULT:      -6.2      1.211      1.522
REMARK  12 active torsions:
REMARK  status: ('A' for Active; 'I' for Inactive)
REMARK    1  A    between atoms: C_2  and  C_1 
REMARK       I    between atoms: N_5  and  C_1 
REMARK    2  A    between atoms: C_3  and  C_2 
REMARK    3  A    between atoms: C_4  and  C_3 
REMARK    4  A    between atoms: C_3  and  N_6 
REMARK    5  A    between atoms: O_18  and  C_4 
REMARK    6  A    between atoms: C_8  and  N_5 
REMARK       I    between atoms: C_9  and  N_6 
REMARK    7  A    between atoms: C_7  and  C_8 
REMARK    8  A    between atoms: O_19  and  C_7 
REMARK    9  A    between atoms: C_16  and  C_8 
REMARK   10  A    between atoms: C_10  and  C_17 
REMARK   11  A    between atoms: O_20  and  C_10 
REMARK   12  A    between atoms: C_17  and  C_16 
ROOT
HETATM    1  C   UNK N   1      34.927  15.917  10.373  0.00  0.00     0.220 C 
HETATM    2  N   UNK N   1      34.215  17.005   9.974  0.00  0.00    -0.347 N 
HETATM    3  O   UNK N   1      35.112  14.972   9.622  0.00  0.00    -0.274 OA
HETATM    4  H   UNK N   1      34.056  17.708  10.645  0.00  0.00     0.163 HD
ENDROOT
BRANCH   1   5
HETATM    5  C   UNK N   1      35.503  15.878  11.756  0.00  0.00     0.138 C 
BRANCH   5   6
HETATM    6  C   UNK N   1      36.010  14.471  12.090  0.00  0.00     0.191 C 
BRANCH   6   7
HETATM    7  C   UNK N   1      35.994  14.126  13.559  0.00  0.00     0.164 C 
HETATM    8  O   UNK N   1      35.048  13.511  14.024  0.00  0.00    -0.648 OA
BRANCH   7   9
HETATM    9  O   UNK N   1      37.014  14.483  14.364  0.00  0.00    -0.775 OA
HETATM   10  H   UNK N   1      37.478  14.307  15.158  0.00  0.00     0.167 HD
ENDBRANCH   7   9
ENDBRANCH   6   7
BRANCH   6  11
HETATM   11  N   UNK N   1      37.308  14.221  11.489  0.00  0.00    -0.346 N 
HETATM   12  C   UNK N   1      37.709  13.042  10.943  0.00  0.00     0.214 C 
HETATM   13  O   UNK N   1      38.834  12.952  10.483  0.00  0.00    -0.274 OA
HETATM   14  C   UNK N   1      36.801  11.856  10.870  0.00  0.00     0.117 C 
HETATM   15  H   UNK N   1      37.950  14.967  11.477  0.00  0.00     0.163 HD
ENDBRANCH   6  11
ENDBRANCH   5   6
ENDBRANCH   1   5
BRANCH   2  16
HETATM   16  C   UNK N   1      33.665  17.223   8.644  0.00  0.00     0.182 C 
BRANCH  16  17
HETATM   17  C   UNK N   1      34.455  18.188   7.796  0.00  0.00     0.163 C 
HETATM   18  O   UNK N   1      34.452  18.067   6.581  0.00  0.00    -0.648 OA
BRANCH  17  19
HETATM   19  O   UNK N   1      35.207  19.152   8.363  0.00  0.00    -0.775 OA
HETATM   20  H   UNK N   1      35.457  19.448   9.216  0.00  0.00     0.167 HD
ENDBRANCH  17  19
ENDBRANCH  16  17
BRANCH  16  21
HETATM   21  C   UNK N   1      32.151  17.471   8.667  0.00  0.00     0.046 C 
BRANCH  21  22
HETATM   22  C   UNK N   1      31.340  16.467   7.860  0.00  0.00     0.112 C 
BRANCH  22  23
HETATM   23  C   UNK N   1      30.908  17.071   6.565  0.00  0.00     0.139 C 
HETATM   24  O   UNK N   1      29.732  17.334   6.369  0.00  0.00    -0.650 OA
BRANCH  23  25
HETATM   25  O   UNK N   1      31.818  17.317   5.605  0.00  0.00    -0.776 OA
HETATM   26  H   UNK N   1      31.618  17.587   4.731  0.00  0.00     0.167 HD
ENDBRANCH  23  25
ENDBRANCH  22  23
ENDBRANCH  21  22
ENDBRANCH  16  21
ENDBRANCH   2  16
TORSDOF 12
ENDMDL
MODEL 3
REMARK VINA RESULT:      -6.1      1.479      7.233
REMARK  12 active torsions:
REMARK  status: ('A' for Active; 'I' for Inactive)
REMARK    1  A    between atoms: C_2  and  C_1 
REMARK       I    between atoms: N_5  and  C_1 
REMARK    2  A    between atoms: C_3  and  C_2 
REMARK    3  A    between atoms: C_4  and  C_3 
REMARK    4  A    between atoms: C_3  and  N_6 
REMARK    5  A    between atoms: O_18  and  C_4 
REMARK    6  A    between atoms: C_8  and  N_5 
REMARK       I    between atoms: C_9  and  N_6 
REMARK    7  A    between atoms: C_7  and  C_8 
REMARK    8  A    between atoms: O_19  and  C_7 
REMARK    9  A    between atoms: C_16  and  C_8 
REMARK   10  A    between atoms: C_10  and  C_17 
REMARK   11  A    between atoms: O_20  and  C_10 
REMARK   12  A    between atoms: C_17  and  C_16 
ROOT
HETATM    1  C   UNK N   1      35.196  15.457  10.668  0.00  0.00     0.220 C 
HETATM    2  N   UNK N   1      36.148  15.054  11.554  0.00  0.00    -0.347 N 
HETATM    3  O   UNK N   1      34.381  14.668  10.215  0.00  0.00    -0.274 OA
HETATM    4  H   UNK N   1      36.807  15.726  11.839  0.00  0.00     0.163 HD
ENDROOT
BRANCH   1   5
HETATM    5  C   UNK N   1      35.139  16.894  10.248  0.00  0.00     0.138 C 
BRANCH   5   6
HETATM    6  C   UNK N   1      34.298  17.051   8.977  0.00  0.00     0.191 C 
BRANCH   6   7
HETATM    7  C   UNK N   1      34.719  18.187   8.077  0.00  0.00     0.164 C 
HETATM    8  O   UNK N   1      34.493  18.124   6.880  0.00  0.00    -0.648 OA
BRANCH   7   9
HETATM    9  O   UNK N   1      35.339  19.273   8.580  0.00  0.00    -0.775 OA
HETATM   10  H   UNK N   1      36.080  19.843   8.524  0.00  0.00     0.167 HD
ENDBRANCH   7   9
ENDBRANCH   6   7
BRANCH   6  11
HETATM   11  N   UNK N   1      32.880  17.102   9.286  0.00  0.00    -0.346 N 
HETATM   12  C   UNK N   1      31.905  16.423   8.624  0.00  0.00     0.214 C 
HETATM   13  O   UNK N   1      30.744  16.562   8.968  0.00  0.00    -0.274 OA
HETATM   14  C   UNK N   1      32.218  15.491   7.496  0.00  0.00     0.117 C 
HETATM   15  H   UNK N   1      32.602  17.676  10.037  0.00  0.00     0.163 HD
ENDBRANCH   6  11
ENDBRANCH   5   6
ENDBRANCH   1   5
BRANCH   2  16
HETATM   16  C   UNK N   1      36.278  13.717  12.116  0.00  0.00     0.182 C 
BRANCH  16  17
HETATM   17  C   UNK N   1      36.071  13.648  13.608  0.00  0.00     0.163 C 
HETATM   18  O   UNK N   1      34.940  13.551  14.056  0.00  0.00    -0.648 OA
BRANCH  17  19
HETATM   19  O   UNK N   1      37.114  13.744  14.455  0.00  0.00    -0.775 OA
HETATM   20  H   UNK N   1      38.046  13.842  14.428  0.00  0.00     0.167 HD
ENDBRANCH  17  19
ENDBRANCH  16  17
BRANCH  16  21
HETATM   21  C   UNK N   1      37.522  12.981  11.599  0.00  0.00     0.046 C 
BRANCH  21  22
HETATM   22  C   UNK N   1      37.547  12.776  10.091  0.00  0.00     0.112 C 
BRANCH  22  23
HETATM   23  C   UNK N   1      38.569  13.665   9.463  0.00  0.00     0.139 C 
HETATM   24  O   UNK N   1      39.300  13.238   8.583  0.00  0.00    -0.650 OA
BRANCH  23  25
HETATM   25  O   UNK N   1      38.693  14.939   9.878  0.00  0.00    -0.776 OA
HETATM   26  H   UNK N   1      38.010  15.444  10.274  0.00  0.00     0.167 HD
ENDBRANCH  23  25
ENDBRANCH  22  23
ENDBRANCH  21  22
ENDBRANCH  16  21
ENDBRANCH   2  16
TORSDOF 12
ENDMDL
MODEL 4
REMARK VINA RESULT:      -5.9      2.721      6.892
REMARK  12 active torsions:
REMARK  status: ('A' for Active; 'I' for Inactive)
REMARK    1  A    between atoms: C_2  and  C_1 
REMARK       I    between atoms: N_5  and  C_1 
REMARK    2  A    between atoms: C_3  and  C_2 
REMARK    3  A    between atoms: C_4  and  C_3 
REMARK    4  A    between atoms: C_3  and  N_6 
REMARK    5  A    between atoms: O_18  and  C_4 
REMARK    6  A    between atoms: C_8  and  N_5 
REMARK       I    between atoms: C_9  and  N_6 
REMARK    7  A    between atoms: C_7  and  C_8 
REMARK    8  A    between atoms: O_19  and  C_7 
REMARK    9  A    between atoms: C_16  and  C_8 
REMARK   10  A    between atoms: C_10  and  C_17 
REMARK   11  A    between atoms: O_20  and  C_10 
REMARK   12  A    between atoms: C_17  and  C_16 
ROOT
HETATM    1  C   UNK N   1      36.064  15.597  11.021  0.00  0.00     0.220 C 
HETATM    2  N   UNK N   1      35.799  15.228  12.304  0.00  0.00    -0.347 N 
HETATM    3  O   UNK N   1      36.895  15.002  10.352  0.00  0.00    -0.274 OA
HETATM    4  H   UNK N   1      35.158  15.783  12.806  0.00  0.00     0.163 HD
ENDROOT
BRANCH   1   5
HETATM    5  C   UNK N   1      35.320  16.747  10.415  0.00  0.00     0.138 C 
BRANCH   5   6
HETATM    6  C   UNK N   1      34.257  16.244   9.432  0.00  0.00     0.191 C 
BRANCH   6   7
HETATM    7  C   UNK N   1      33.493  15.028   9.896  0.00  0.00     0.164 C 
HETATM    8  O   UNK N   1      33.370  14.071   9.150  0.00  0.00    -0.648 OA
BRANCH   7   9
HETATM    9  O   UNK N   1      32.949  14.984  11.129  0.00  0.00    -0.775 OA
HETATM   10  H   UNK N   1      32.534  15.468  11.815  0.00  0.00     0.167 HD
ENDBRANCH   7   9
ENDBRANCH   6   7
BRANCH   6  11
HETATM   11  N   UNK N   1      34.812  16.061   8.103  0.00  0.00    -0.346 N 
HETATM   12  C   UNK N   1      34.350  16.653   6.969  0.00  0.00     0.214 C 
HETATM   13  O   UNK N   1      34.892  16.405   5.905  0.00  0.00    -0.274 OA
HETATM   14  C   UNK N   1      33.208  17.618   6.990  0.00  0.00     0.117 C 
HETATM   15  H   UNK N   1      35.585  15.458   8.016  0.00  0.00     0.163 HD
ENDBRANCH   6  11
ENDBRANCH   5   6
ENDBRANCH   1   5
BRANCH   2  16
HETATM   16  C   UNK N   1      36.377  14.088  13.001  0.00  0.00     0.182 C 
BRANCH  16  17
HETATM   17  C   UNK N   1      35.699  12.773  12.709  0.00  0.00     0.163 C 
HETATM   18  O   UNK N   1      36.368  11.814  12.361  0.00  0.00    -0.648 OA
BRANCH  17  19
HETATM   19  O   UNK N   1      34.358  12.656  12.778  0.00  0.00    -0.775 OA
HETATM   20  H   UNK N   1      33.673  12.699  13.415  0.00  0.00     0.167 HD
ENDBRANCH  17  19
ENDBRANCH  16  17
BRANCH  16  21
HETATM   21  C   UNK N   1      36.626  14.373  14.488  0.00  0.00     0.046 C 
BRANCH  21  22
HETATM   22  C   UNK N   1      36.488  13.156  15.391  0.00  0.00     0.112 C 
BRANCH  22  23
HETATM   23  C   UNK N   1      35.290  13.298  16.272  0.00  0.00     0.139 C 
HETATM   24  O   UNK N   1      35.419  13.634  17.438  0.00  0.00    -0.650 OA
BRANCH  23  25
HETATM   25  O   UNK N   1      34.064  13.042  15.780  0.00  0.00    -0.776 OA
HETATM   26  H   UNK N   1      33.878  12.821  14.889  0.00  0.00     0.167 HD
ENDBRANCH  23  25
ENDBRANCH  22  23
ENDBRANCH  21  22
ENDBRANCH  16  21
ENDBRANCH   2  16
TORSDOF 12
ENDMDL
MODEL 5
REMARK VINA RESULT:      -5.9      2.692      7.444
REMARK  12 active torsions:
REMARK  status: ('A' for Active; 'I' for Inactive)
REMARK    1  A    between atoms: C_2  and  C_1 
REMARK       I    between atoms: N_5  and  C_1 
REMARK    2  A    between atoms: C_3  and  C_2 
REMARK    3  A    between atoms: C_4  and  C_3 
REMARK    4  A    between atoms: C_3  and  N_6 
REMARK    5  A    between atoms: O_18  and  C_4 
REMARK    6  A    between atoms: C_8  and  N_5 
REMARK       I    between atoms: C_9  and  N_6 
REMARK    7  A    between atoms: C_7  and  C_8 
REMARK    8  A    between atoms: O_19  and  C_7 
REMARK    9  A    between atoms: C_16  and  C_8 
REMARK   10  A    between atoms: C_10  and  C_17 
REMARK   11  A    between atoms: O_20  and  C_10 
REMARK   12  A    between atoms: C_17  and  C_16 
ROOT
HETATM    1  C   UNK N   1      31.737  16.890   8.374  0.00  0.00     0.220 C 
HETATM    2  N   UNK N   1      32.740  17.185   9.246  0.00  0.00    -0.347 N 
HETATM    3  O   UNK N   1      31.972  16.642   7.201  0.00  0.00    -0.274 OA
HETATM    4  H   UNK N   1      32.479  17.428  10.163  0.00  0.00     0.163 HD
ENDROOT
BRANCH   1   5
HETATM    5  C   UNK N   1      30.321  16.861   8.861  0.00  0.00     0.138 C 
BRANCH   5   6
HETATM    6  C   UNK N   1      29.381  17.486   7.825  0.00  0.00     0.191 C 
BRANCH   6   7
HETATM    7  C   UNK N   1      28.193  18.214   8.407  0.00  0.00     0.164 C 
HETATM    8  O   UNK N   1      27.736  17.860   9.481  0.00  0.00    -0.648 OA
BRANCH   7   9
HETATM    9  O   UNK N   1      27.634  19.253   7.756  0.00  0.00    -0.775 OA
HETATM   10  H   UNK N   1      27.057  19.989   7.814  0.00  0.00     0.167 HD
ENDBRANCH   7   9
ENDBRANCH   6   7
BRANCH   6  11
HETATM   11  N   UNK N   1      28.985  16.517   6.819  0.00  0.00    -0.346 N 
HETATM   12  C   UNK N   1      28.961  16.740   5.478  0.00  0.00     0.214 C 
HETATM   13  O   UNK N   1      28.590  15.848   4.733  0.00  0.00    -0.274 OA
HETATM   14  C   UNK N   1      29.398  18.041   4.885  0.00  0.00     0.117 C 
HETATM   15  H   UNK N   1      28.709  15.627   7.136  0.00  0.00     0.163 HD
ENDBRANCH   6  11
ENDBRANCH   5   6
ENDBRANCH   1   5
BRANCH   2  16
HETATM   16  C   UNK N   1      34.164  17.172   8.943  0.00  0.00     0.182 C 
BRANCH  16  17
HETATM   17  C   UNK N   1      34.604  18.244   7.978  0.00  0.00     0.163 C 
HETATM   18  O   UNK N   1      35.091  19.279   8.406  0.00  0.00    -0.648 OA
BRANCH  17  19
HETATM   19  O   UNK N   1      34.418  18.099   6.651  0.00  0.00    -0.775 OA
HETATM   20  H   UNK N   1      33.744  17.846   6.052  0.00  0.00     0.167 HD
ENDBRANCH  17  19
ENDBRANCH  16  17
BRANCH  16  21
HETATM   21  C   UNK N   1      34.685  15.763   8.627  0.00  0.00     0.046 C 
BRANCH  21  22
HETATM   22  C   UNK N   1      35.437  15.102   9.774  0.00  0.00     0.112 C 
BRANCH  22  23
HETATM   23  C   UNK N   1      34.499  14.298  10.612  0.00  0.00     0.139 C 
HETATM   24  O   UNK N   1      34.679  13.100  10.761  0.00  0.00    -0.650 OA
BRANCH  23  25
HETATM   25  O   UNK N   1      33.445  14.896  11.197  0.00  0.00    -0.776 OA
HETATM   26  H   UNK N   1      33.417  15.183  12.088  0.00  0.00     0.167 HD
ENDBRANCH  23  25
ENDBRANCH  22  23
ENDBRANCH  21  22
ENDBRANCH  16  21
ENDBRANCH   2  16
TORSDOF 12
ENDMDL
MODEL 6
REMARK VINA RESULT:      -5.9      2.296      6.883
REMARK  12 active torsions:
REMARK  status: ('A' for Active; 'I' for Inactive)
REMARK    1  A    between atoms: C_2  and  C_1 
REMARK       I    between atoms: N_5  and  C_1 
REMARK    2  A    between atoms: C_3  and  C_2 
REMARK    3  A    between atoms: C_4  and  C_3 
REMARK    4  A    between atoms: C_3  and  N_6 
REMARK    5  A    between atoms: O_18  and  C_4 
REMARK    6  A    between atoms: C_8  and  N_5 
REMARK       I    between atoms: C_9  and  N_6 
REMARK    7  A    between atoms: C_7  and  C_8 
REMARK    8  A    between atoms: O_19  and  C_7 
REMARK    9  A    between atoms: C_16  and  C_8 
REMARK   10  A    between atoms: C_10  and  C_17 
REMARK   11  A    between atoms: O_20  and  C_10 
REMARK   12  A    between atoms: C_17  and  C_16 
ROOT
HETATM    1  C   UNK N   1      32.773  15.400   8.809  0.00  0.00     0.220 C 
HETATM    2  N   UNK N   1      34.130  15.400   8.912  0.00  0.00    -0.347 N 
HETATM    3  O   UNK N   1      32.069  15.019   9.731  0.00  0.00    -0.274 OA
HETATM    4  H   UNK N   1      34.640  15.668   8.114  0.00  0.00     0.163 HD
ENDROOT
BRANCH   1   5
HETATM    5  C   UNK N   1      32.129  15.883   7.545  0.00  0.00     0.138 C 
BRANCH   5   6
HETATM    6  C   UNK N   1      32.203  17.411   7.452  0.00  0.00     0.191 C 
BRANCH   6   7
HETATM    7  C   UNK N   1      33.567  17.958   7.110  0.00  0.00     0.164 C 
HETATM    8  O   UNK N   1      33.983  17.872   5.966  0.00  0.00    -0.648 OA
BRANCH   7   9
HETATM    9  O   UNK N   1      34.331  18.545   8.053  0.00  0.00    -0.775 OA
HETATM   10  H   UNK N   1      35.106  18.486   8.576  0.00  0.00     0.167 HD
ENDBRANCH   7   9
ENDBRANCH   6   7
BRANCH   6  11
HETATM   11  N   UNK N   1      31.648  18.039   8.638  0.00  0.00    -0.346 N 
HETATM   12  C   UNK N   1      30.337  18.349   8.824  0.00  0.00     0.214 C 
HETATM   13  O   UNK N   1      29.995  18.893   9.860  0.00  0.00    -0.274 OA
HETATM   14  C   UNK N   1      29.295  18.022   7.803  0.00  0.00     0.117 C 
HETATM   15  H   UNK N   1      32.273  18.259   9.365  0.00  0.00     0.163 HD
ENDBRANCH   6  11
ENDBRANCH   5   6
ENDBRANCH   1   5
BRANCH   2  16
HETATM   16  C   UNK N   1      34.894  15.040  10.097  0.00  0.00     0.182 C 
BRANCH  16  17
HETATM   17  C   UNK N   1      35.758  16.150  10.642  0.00  0.00     0.163 C 
HETATM   18  O   UNK N   1      35.311  17.284  10.708  0.00  0.00    -0.648 OA
BRANCH  17  19
HETATM   19  O   UNK N   1      37.034  15.918  11.006  0.00  0.00    -0.775 OA
HETATM   20  H   UNK N   1      37.514  15.400  11.622  0.00  0.00     0.167 HD
ENDBRANCH  17  19
ENDBRANCH  16  17
BRANCH  16  21
HETATM   21  C   UNK N   1      35.598  13.683   9.952  0.00  0.00     0.046 C 
BRANCH  21  22
HETATM   22  C   UNK N   1      34.810  12.506  10.508  0.00  0.00     0.112 C 
BRANCH  22  23
HETATM   23  C   UNK N   1      33.986  11.880   9.432  0.00  0.00     0.139 C 
HETATM   24  O   UNK N   1      34.517  11.214   8.558  0.00  0.00    -0.650 OA
BRANCH  23  25
HETATM   25  O   UNK N   1      32.653  12.060   9.421  0.00  0.00    -0.776 OA
HETATM   26  H   UNK N   1      32.142  12.342  10.154  0.00  0.00     0.167 HD
ENDBRANCH  23  25
ENDBRANCH  22  23
ENDBRANCH  21  22
ENDBRANCH  16  21
ENDBRANCH   2  16
TORSDOF 12
ENDMDL
MODEL 7
REMARK VINA RESULT:      -5.8      1.713      7.201
REMARK  12 active torsions:
REMARK  status: ('A' for Active; 'I' for Inactive)
REMARK    1  A    between atoms: C_2  and  C_1 
REMARK       I    between atoms: N_5  and  C_1 
REMARK    2  A    between atoms: C_3  and  C_2 
REMARK    3  A    between atoms: C_4  and  C_3 
REMARK    4  A    between atoms: C_3  and  N_6 
REMARK    5  A    between atoms: O_18  and  C_4 
REMARK    6  A    between atoms: C_8  and  N_5 
REMARK       I    between atoms: C_9  and  N_6 
REMARK    7  A    between atoms: C_7  and  C_8 
REMARK    8  A    between atoms: O_19  and  C_7 
REMARK    9  A    between atoms: C_16  and  C_8 
REMARK   10  A    between atoms: C_10  and  C_17 
REMARK   11  A    between atoms: O_20  and  C_10 
REMARK   12  A    between atoms: C_17  and  C_16 
ROOT
HETATM    1  C   UNK N   1      33.689  15.517   8.888  0.00  0.00     0.220 C 
HETATM    2  N   UNK N   1      33.683  15.661  10.241  0.00  0.00    -0.347 N 
HETATM    3  O   UNK N   1      34.700  15.179   8.293  0.00  0.00    -0.274 OA
HETATM    4  H   UNK N   1      32.851  15.988  10.653  0.00  0.00     0.163 HD
ENDROOT
BRANCH   1   5
HETATM    5  C   UNK N   1      32.432  15.769   8.113  0.00  0.00     0.138 C 
BRANCH   5   6
HETATM    6  C   UNK N   1      32.245  17.269   7.861  0.00  0.00     0.191 C 
BRANCH   6   7
HETATM    7  C   UNK N   1      33.515  18.018   7.536  0.00  0.00     0.164 C 
HETATM    8  O   UNK N   1      33.952  18.837   8.328  0.00  0.00    -0.648 OA
BRANCH   7   9
HETATM    9  O   UNK N   1      34.174  17.790   6.383  0.00  0.00    -0.775 OA
HETATM   10  H   UNK N   1      34.654  17.170   5.869  0.00  0.00     0.167 HD
ENDBRANCH   7   9
ENDBRANCH   6   7
BRANCH   6  11
HETATM   11  N   UNK N   1      31.507  17.898   8.942  0.00  0.00    -0.346 N 
HETATM   12  C   UNK N   1      30.185  18.217   8.911  0.00  0.00     0.214 C 
HETATM   13  O   UNK N   1      29.682  18.760   9.880  0.00  0.00    -0.274 OA
HETATM   14  C   UNK N   1      29.323  17.902   7.730  0.00  0.00     0.117 C 
HETATM   15  H   UNK N   1      32.005  18.111   9.764  0.00  0.00     0.163 HD
ENDBRANCH   6  11
ENDBRANCH   5   6
ENDBRANCH   1   5
BRANCH   2  16
HETATM   16  C   UNK N   1      34.796  15.374  11.134  0.00  0.00     0.182 C 
BRANCH  16  17
HETATM   17  C   UNK N   1      36.074  16.093  10.784  0.00  0.00     0.163 C 
HETATM   18  O   UNK N   1      36.077  17.311  10.694  0.00  0.00    -0.648 OA
BRANCH  17  19
HETATM   19  O   UNK N   1      37.203  15.407  10.518  0.00  0.00    -0.775 OA
HETATM   20  H   UNK N   1      37.477  14.526  10.356  0.00  0.00     0.167 HD
ENDBRANCH  17  19
ENDBRANCH  16  17
BRANCH  16  21
HETATM   21  C   UNK N   1      34.953  13.874  11.415  0.00  0.00     0.046 C 
BRANCH  21  22
HETATM   22  C   UNK N   1      35.302  13.539  12.858  0.00  0.00     0.112 C 
BRANCH  22  23
HETATM   23  C   UNK N   1      36.709  13.048  12.950  0.00  0.00     0.139 C 
HETATM   24  O   UNK N   1      37.360  12.849  11.937  0.00  0.00    -0.650 OA
BRANCH  23  25
HETATM   25  O   UNK N   1      37.258  12.814  14.157  0.00  0.00    -0.776 OA
HETATM   26  H   UNK N   1      37.077  13.305  14.934  0.00  0.00     0.167 HD
ENDBRANCH  23  25
ENDBRANCH  22  23
ENDBRANCH  21  22
ENDBRANCH  16  21
ENDBRANCH   2  16
TORSDOF 12
ENDMDL
MODEL 8
REMARK VINA RESULT:      -5.7      2.909      7.983
REMARK  12 active torsions:
REMARK  status: ('A' for Active; 'I' for Inactive)
REMARK    1  A    between atoms: C_2  and  C_1 
REMARK       I    between atoms: N_5  and  C_1 
REMARK    2  A    between atoms: C_3  and  C_2 
REMARK    3  A    between atoms: C_4  and  C_3 
REMARK    4  A    between atoms: C_3  and  N_6 
REMARK    5  A    between atoms: O_18  and  C_4 
REMARK    6  A    between atoms: C_8  and  N_5 
REMARK       I    between atoms: C_9  and  N_6 
REMARK    7  A    between atoms: C_7  and  C_8 
REMARK    8  A    between atoms: O_19  and  C_7 
REMARK    9  A    between atoms: C_16  and  C_8 
REMARK   10  A    between atoms: C_10  and  C_17 
REMARK   11  A    between atoms: O_20  and  C_10 
REMARK   12  A    between atoms: C_17  and  C_16 
ROOT
HETATM    1  C   UNK N   1      31.679  15.955   7.436  0.00  0.00     0.220 C 
HETATM    2  N   UNK N   1      33.035  15.897   7.548  0.00  0.00    -0.347 N 
HETATM    3  O   UNK N   1      30.991  16.423   8.329  0.00  0.00    -0.274 OA
HETATM    4  H   UNK N   1      33.526  15.459   6.816  0.00  0.00     0.163 HD
ENDROOT
BRANCH   1   5
HETATM    5  C   UNK N   1      31.019  15.443   6.192  0.00  0.00     0.138 C 
BRANCH   5   6
HETATM    6  C   UNK N   1      30.565  16.606   5.304  0.00  0.00     0.191 C 
BRANCH   6   7
HETATM    7  C   UNK N   1      31.662  17.240   4.483  0.00  0.00     0.164 C 
HETATM    8  O   UNK N   1      32.685  17.618   5.032  0.00  0.00    -0.648 OA
BRANCH   7   9
HETATM    9  O   UNK N   1      31.529  17.388   3.150  0.00  0.00    -0.775 OA
HETATM   10  H   UNK N   1      30.934  17.464   2.431  0.00  0.00     0.167 HD
ENDBRANCH   7   9
ENDBRANCH   6   7
BRANCH   6  11
HETATM   11  N   UNK N   1      29.820  17.592   6.066  0.00  0.00    -0.346 N 
HETATM   12  C   UNK N   1      28.679  18.206   5.655  0.00  0.00     0.214 C 
HETATM   13  O   UNK N   1      28.153  19.033   6.381  0.00  0.00    -0.274 OA
HETATM   14  C   UNK N   1      28.034  17.882   4.345  0.00  0.00     0.117 C 
HETATM   15  H   UNK N   1      30.171  17.836   6.953  0.00  0.00     0.163 HD
ENDBRANCH   6  11
ENDBRANCH   5   6
ENDBRANCH   1   5
BRANCH   2  16
HETATM   16  C   UNK N   1      33.822  16.426   8.652  0.00  0.00     0.182 C 
BRANCH  16  17
HETATM   17  C   UNK N   1      34.589  17.682   8.323  0.00  0.00     0.163 C 
HETATM   18  O   UNK N   1      35.224  18.248   9.199  0.00  0.00    -0.648 OA
BRANCH  17  19
HETATM   19  O   UNK N   1      34.542  18.217   7.088  0.00  0.00    -0.775 OA
HETATM   20  H   UNK N   1      34.766  19.014   6.650  0.00  0.00     0.167 HD
ENDBRANCH  17  19
ENDBRANCH  16  17
BRANCH  16  21
HETATM   21  C   UNK N   1      34.635  15.338   9.367  0.00  0.00     0.046 C 
BRANCH  21  22
HETATM   22  C   UNK N   1      34.503  15.351  10.883  0.00  0.00     0.112 C 
BRANCH  22  23
HETATM   23  C   UNK N   1      35.836  15.567  11.518  0.00  0.00     0.139 C 
HETATM   24  O   UNK N   1      36.056  15.155  12.646  0.00  0.00    -0.650 OA
BRANCH  23  25
HETATM   25  O   UNK N   1      36.797  16.230  10.847  0.00  0.00    -0.776 OA
HETATM   26  H   UNK N   1      37.208  15.929  10.061  0.00  0.00     0.167 HD
ENDBRANCH  23  25
ENDBRANCH  22  23
ENDBRANCH  21  22
ENDBRANCH  16  21
ENDBRANCH   2  16
TORSDOF 12
ENDMDL
MODEL 9
REMARK VINA RESULT:      -5.6     15.338     18.585
REMARK  12 active torsions:
REMARK  status: ('A' for Active; 'I' for Inactive)
REMARK    1  A    between atoms: C_2  and  C_1 
REMARK       I    between atoms: N_5  and  C_1 
REMARK    2  A    between atoms: C_3  and  C_2 
REMARK    3  A    between atoms: C_4  and  C_3 
REMARK    4  A    between atoms: C_3  and  N_6 
REMARK    5  A    between atoms: O_18  and  C_4 
REMARK    6  A    between atoms: C_8  and  N_5 
REMARK       I    between atoms: C_9  and  N_6 
REMARK    7  A    between atoms: C_7  and  C_8 
REMARK    8  A    between atoms: O_19  and  C_7 
REMARK    9  A    between atoms: C_16  and  C_8 
REMARK   10  A    between atoms: C_10  and  C_17 
REMARK   11  A    between atoms: O_20  and  C_10 
REMARK   12  A    between atoms: C_17  and  C_16 
ROOT
HETATM    1  C   UNK N   1      27.699  24.594  -3.683  0.00  0.00     0.220 C 
HETATM    2  N   UNK N   1      27.223  25.203  -4.803  0.00  0.00    -0.347 N 
HETATM    3  O   UNK N   1      26.950  24.019  -2.909  0.00  0.00    -0.274 OA
HETATM    4  H   UNK N   1      27.872  25.695  -5.356  0.00  0.00     0.163 HD
ENDROOT
BRANCH   1   5
HETATM    5  C   UNK N   1      29.170  24.622  -3.397  0.00  0.00     0.138 C 
BRANCH   5   6
HETATM    6  C   UNK N   1      29.795  23.246  -3.652  0.00  0.00     0.191 C 
BRANCH   6   7
HETATM    7  C   UNK N   1      30.515  22.650  -2.467  0.00  0.00     0.164 C 
HETATM    8  O   UNK N   1      31.346  21.774  -2.644  0.00  0.00    -0.648 OA
BRANCH   7   9
HETATM    9  O   UNK N   1      30.256  23.077  -1.215  0.00  0.00    -0.775 OA
HETATM   10  H   UNK N   1      30.606  23.459  -0.434  0.00  0.00     0.167 HD
ENDBRANCH   7   9
ENDBRANCH   6   7
BRANCH   6  11
HETATM   11  N   UNK N   1      30.625  23.256  -4.843  0.00  0.00    -0.346 N 
HETATM   12  C   UNK N   1      30.249  22.801  -6.068  0.00  0.00     0.214 C 
HETATM   13  O   UNK N   1      31.046  22.847  -6.990  0.00  0.00    -0.274 OA
HETATM   14  C   UNK N   1      28.878  22.264  -6.325  0.00  0.00     0.117 C 
HETATM   15  H   UNK N   1      31.535  23.622  -4.755  0.00  0.00     0.163 HD
ENDBRANCH   6  11
ENDBRANCH   5   6
ENDBRANCH   1   5
BRANCH   2  16
HETATM   16  C   UNK N   1      25.840  25.192  -5.257  0.00  0.00     0.182 C 
BRANCH  16  17
HETATM   17  C   UNK N   1      25.567  24.245  -6.398  0.00  0.00     0.163 C 
HETATM   18  O   UNK N   1      25.325  23.071  -6.163  0.00  0.00    -0.648 OA
BRANCH  17  19
HETATM   19  O   UNK N   1      25.639  24.664  -7.676  0.00  0.00    -0.775 OA
HETATM   20  H   UNK N   1      25.559  25.456  -8.170  0.00  0.00     0.167 HD
ENDBRANCH  17  19
ENDBRANCH  16  17
BRANCH  16  21
HETATM   21  C   UNK N   1      25.270  26.606  -5.438  0.00  0.00     0.046 C 
BRANCH  21  22
HETATM   22  C   UNK N   1      26.249  27.723  -5.108  0.00  0.00     0.112 C 
BRANCH  22  23
HETATM   23  C   UNK N   1      25.862  28.391  -3.830  0.00  0.00     0.139 C 
HETATM   24  O   UNK N   1      25.510  27.726  -2.869  0.00  0.00    -0.650 OA
BRANCH  23  25
HETATM   25  O   UNK N   1      25.890  29.734  -3.742  0.00  0.00    -0.776 OA
HETATM   26  H   UNK N   1      26.571  30.231  -3.335  0.00  0.00     0.167 HD
ENDBRANCH  23  25
ENDBRANCH  22  23
ENDBRANCH  21  22
ENDBRANCH  16  21
ENDBRANCH   2  16
TORSDOF 12
ENDMDL
