REMARK  12 active torsions:
REMARK  status: ('A' for Active; 'I' for Inactive)
REMARK    1  A    between atoms: C_2  and  C_1 
REMARK       I    between atoms: N_5  and  C_1 
REMARK    2  A    between atoms: C_3  and  C_2 
REMARK    3  A    between atoms: C_4  and  C_3 
REMARK    4  A    between atoms: C_3  and  N_6 
REMARK    5  A    between atoms: O_18  and  C_4 
REMARK    6  A    between atoms: C_8  and  N_5 
REMARK       I    between atoms: C_9  and  N_6 
REMARK    7  A    between atoms: C_7  and  C_8 
REMARK    8  A    between atoms: O_19  and  C_7 
REMARK    9  A    between atoms: C_16  and  C_8 
REMARK   10  A    between atoms: C_10  and  C_17 
REMARK   11  A    between atoms: O_20  and  C_10 
REMARK   12  A    between atoms: C_17  and  C_16 
ROOT
HETATM    1  C   UNK N   1       0.911  -0.469  -0.506  0.00  0.00     0.220 C 
HETATM    2  N   UNK N   1       1.433  -1.030   0.619  0.00  0.00    -0.347 N 
HETATM    3  O   UNK N   1       0.667  -1.144  -1.494  0.00  0.00    -0.274 OA
HETATM    4  H   UNK N   1       1.657  -0.422   1.360  0.00  0.00     0.163 HD
ENDROOT
BRANCH   1   5
HETATM    5  C   UNK N   1       0.622   1.001  -0.532  0.00  0.00     0.138 C 
BRANCH   5   6
HETATM    6  C   UNK N   1      -0.309   1.388   0.622  0.00  0.00     0.191 C 
BRANCH   6   7
HETATM    7  C   UNK N   1      -1.707   0.828   0.521  0.00  0.00     0.164 C 
HETATM    8  O   UNK N   1      -2.491   0.993   1.441  0.00  0.00    -0.648 OA
BRANCH   7   9
HETATM    9  O   UNK N   1      -2.102   0.152  -0.576  0.00  0.00    -0.775 OA
HETATM   10  H   UNK N   1      -2.647   0.154  -1.338  0.00  0.00     0.167 HD
ENDBRANCH   7   9
ENDBRANCH   6   7
BRANCH   6  11
HETATM   11  N   UNK N   1      -0.314   2.824   0.837  0.00  0.00    -0.346 N 
HETATM   12  C   UNK N   1      -0.899   3.740   0.020  0.00  0.00     0.214 C 
HETATM   13  O   UNK N   1      -0.819   4.924   0.300  0.00  0.00    -0.274 OA
HETATM   14  C   UNK N   1      -1.658   3.337  -1.204  0.00  0.00     0.117 C 
HETATM   15  H   UNK N   1       0.145   3.161   1.640  0.00  0.00     0.163 HD
ENDBRANCH   6  11
ENDBRANCH   5   6
ENDBRANCH   1   5
BRANCH   2  16
HETATM   16  C   UNK N   1       1.690  -2.448   0.824  0.00  0.00     0.182 C 
BRANCH  16  17
HETATM   17  C   UNK N   1       2.717  -3.035  -0.111  0.00  0.00     0.163 C 
HETATM   18  O   UNK N   1       3.080  -4.191   0.040  0.00  0.00    -0.648 OA
BRANCH  17  19
HETATM   19  O   UNK N   1       3.279  -2.285  -1.079  0.00  0.00    -0.775 OA
HETATM   20  H   UNK N   1       3.926  -2.362  -1.752  0.00  0.00     0.167 HD
ENDBRANCH  17  19
ENDBRANCH  16  17
BRANCH  16  21
HETATM   21  C   UNK N   1       0.398  -3.265   0.963  0.00  0.00     0.046 C 
BRANCH  21  22
HETATM   22  C   UNK N   1      -0.345  -3.490  -0.346  0.00  0.00     0.112 C 
BRANCH  22  23
HETATM   23  C   UNK N   1      -1.803  -3.681  -0.088  0.00  0.00     0.139 C 
HETATM   24  O   UNK N   1      -2.192  -4.625   0.581  0.00  0.00    -0.650 OA
BRANCH  23  25
HETATM   25  O   UNK N   1      -2.693  -2.814  -0.605  0.00  0.00    -0.776 OA
HETATM   26  H   UNK N   1      -2.480  -1.976  -0.965  0.00  0.00     0.167 HD
ENDBRANCH  23  25
ENDBRANCH  22  23
ENDBRANCH  21  22
ENDBRANCH  16  21
ENDBRANCH   2  16
TORSDOF 12
