MODEL 1
REMARK VINA RESULT:      -8.1      0.000      0.000
REMARK  4 active torsions:
REMARK  status: ('A' for Active; 'I' for Inactive)
REMARK    1  A    between atoms: C_5  and  C_8 
REMARK    2  A    between atoms: C_10  and  N_15 
REMARK       I    between atoms: N_15  and  C_16 
REMARK    3  A    between atoms: C_16  and  C_17 
REMARK    4  A    between atoms: C_21  and  S_25 
ROOT
HETATM    1  N   UNK N   1      27.726  18.712   4.785  0.00  0.00    -0.323 N 
HETATM    2  C   UNK N   1      28.478  17.616   4.547  0.00  0.00     0.257 C 
HETATM    3  O   UNK N   1      28.133  16.773   3.727  0.00  0.00    -0.267 OA
HETATM    4  H   UNK N   1      28.095  19.300   5.483  0.00  0.00     0.169 HD
ENDROOT
BRANCH   1   5
HETATM    5  C   UNK N   1      26.518  19.178   4.231  0.00  0.00     0.035 A 
HETATM    6  C   UNK N   1      25.376  18.515   4.637  0.00  0.00     0.045 A 
HETATM    7  C   UNK N   1      24.105  18.858   4.190  0.00  0.00     0.014 A 
HETATM    8  C   UNK N   1      23.990  19.945   3.283  0.00  0.00     0.046 A 
HETATM    9  C   UNK N   1      25.150  20.633   2.874  0.00  0.00     0.027 A 
HETATM   10 Cl   UNK N   1      22.448  20.489   2.637  0.00  0.00    -0.083 Cl
HETATM   11  C   UNK N   1      26.417  20.254   3.345  0.00  0.00     0.031 A 
BRANCH   7  12
HETATM   12  C   UNK N   1      22.972  18.034   4.707  0.00  0.00     0.044 A 
HETATM   13  C   UNK N   1      22.380  17.071   3.865  0.00  0.00     0.030 A 
HETATM   14  C   UNK N   1      21.314  16.303   4.323  0.00  0.00     0.004 A 
HETATM   15  C   UNK N   1      20.833  16.498   5.614  0.00  0.00     0.017 A 
HETATM   16  C   UNK N   1      21.436  17.459   6.430  0.00  0.00     0.088 A 
HETATM   17  N   UNK N   1      22.481  18.199   5.966  0.00  0.00    -0.365 N 
ATOM     18  HN  UNK N   1      22.908  18.893   6.579  1.00  0.00     0.165 HD
ENDBRANCH   7  12
ENDBRANCH   1   5
BRANCH   2  19
HETATM   19  C   UNK N   1      29.774  17.541   5.272  0.00  0.00     0.054 A 
HETATM   20  C   UNK N   1      30.925  17.606   4.467  0.00  0.00     0.020 A 
HETATM   21  C   UNK N   1      32.191  17.435   4.995  0.00  0.00     0.024 A 
HETATM   22  C   UNK N   1      32.349  17.195   6.350  0.00  0.00     0.060 A 
HETATM   23  C   UNK N   1      31.226  17.167   7.192  0.00  0.00     0.048 A 
HETATM   24  C   UNK N   1      29.934  17.351   6.666  0.00  0.00     0.051 A 
HETATM   25 Cl   UNK N   1      28.568  17.259   7.768  0.00  0.00    -0.083 Cl
BRANCH  22  26
HETATM   26  S   UNK N   1      33.975  16.747   6.943  0.00  0.00     0.171 S 
HETATM   27  C   UNK N   1      34.478  15.723   8.351  0.00  0.00     0.167 C 
HETATM   28  O   UNK N   1      34.792  16.307   5.719  0.00  0.00    -0.223 OA
HETATM   29  O   UNK N   1      34.680  18.096   7.165  0.00  0.00    -0.223 OA
ENDBRANCH  22  26
ENDBRANCH   2  19
TORSDOF 4
ENDMDL
MODEL 2
REMARK VINA RESULT:      -8.0      4.145      9.506
REMARK  4 active torsions:
REMARK  status: ('A' for Active; 'I' for Inactive)
REMARK    1  A    between atoms: C_5  and  C_8 
REMARK    2  A    between atoms: C_10  and  N_15 
REMARK       I    between atoms: N_15  and  C_16 
REMARK    3  A    between atoms: C_16  and  C_17 
REMARK    4  A    between atoms: C_21  and  S_25 
ROOT
HETATM    1  N   UNK N   1      26.936  18.481   5.768  0.00  0.00    -0.323 N 
HETATM    2  C   UNK N   1      26.180  17.839   4.852  0.00  0.00     0.257 C 
HETATM    3  O   UNK N   1      26.459  16.706   4.478  0.00  0.00    -0.267 OA
HETATM    4  H   UNK N   1      26.626  19.394   5.967  0.00  0.00     0.169 HD
ENDROOT
BRANCH   1   5
HETATM    5  C   UNK N   1      28.081  18.102   6.495  0.00  0.00     0.035 A 
HETATM    6  C   UNK N   1      29.140  17.631   5.744  0.00  0.00     0.045 A 
HETATM    7  C   UNK N   1      30.344  17.224   6.308  0.00  0.00     0.014 A 
HETATM    8  C   UNK N   1      30.480  17.310   7.719  0.00  0.00     0.046 A 
HETATM    9  C   UNK N   1      29.407  17.801   8.491  0.00  0.00     0.027 A 
HETATM   10 Cl   UNK N   1      31.943  16.833   8.568  0.00  0.00    -0.083 Cl
HETATM   11  C   UNK N   1      28.205  18.199   7.884  0.00  0.00     0.031 A 
BRANCH   7  12
HETATM   12  C   UNK N   1      31.387  16.722   5.364  0.00  0.00     0.044 A 
HETATM   13  C   UNK N   1      31.910  17.592   4.387  0.00  0.00     0.030 A 
HETATM   14  C   UNK N   1      32.872  17.139   3.490  0.00  0.00     0.004 A 
HETATM   15  C   UNK N   1      33.308  15.819   3.561  0.00  0.00     0.017 A 
HETATM   16  C   UNK N   1      32.775  14.975   4.538  0.00  0.00     0.088 A 
HETATM   17  N   UNK N   1      31.836  15.438   5.410  0.00  0.00    -0.365 N 
ATOM     18  HN  UNK N   1      31.462  14.805   6.117  1.00  0.00     0.165 HD
ENDBRANCH   7  12
ENDBRANCH   1   5
BRANCH   2  19
HETATM   19  C   UNK N   1      24.958  18.552   4.395  0.00  0.00     0.054 A 
HETATM   20  C   UNK N   1      23.737  17.944   4.734  0.00  0.00     0.020 A 
HETATM   21  C   UNK N   1      22.529  18.435   4.278  0.00  0.00     0.024 A 
HETATM   22  C   UNK N   1      22.501  19.558   3.467  0.00  0.00     0.060 A 
HETATM   23  C   UNK N   1      23.697  20.218   3.143  0.00  0.00     0.048 A 
HETATM   24  C   UNK N   1      24.931  19.731   3.612  0.00  0.00     0.051 A 
HETATM   25 Cl   UNK N   1      26.394  20.579   3.132  0.00  0.00    -0.083 Cl
BRANCH  22  26
HETATM   26  S   UNK N   1      20.946  20.014   2.712  0.00  0.00     0.171 S 
HETATM   27  C   UNK N   1      20.596  20.865   1.151  0.00  0.00     0.167 C 
HETATM   28  O   UNK N   1      20.028  18.787   2.802  0.00  0.00    -0.223 OA
HETATM   29  O   UNK N   1      20.239  20.857   3.787  0.00  0.00    -0.223 OA
ENDBRANCH  22  26
ENDBRANCH   2  19
TORSDOF 4
ENDMDL
MODEL 3
REMARK VINA RESULT:      -7.6     11.925     16.786
REMARK  4 active torsions:
REMARK  status: ('A' for Active; 'I' for Inactive)
REMARK    1  A    between atoms: C_5  and  C_8 
REMARK    2  A    between atoms: C_10  and  N_15 
REMARK       I    between atoms: N_15  and  C_16 
REMARK    3  A    between atoms: C_16  and  C_17 
REMARK    4  A    between atoms: C_21  and  S_25 
ROOT
HETATM    1  N   UNK N   1      35.370  11.151  17.257  0.00  0.00    -0.323 N 
HETATM    2  C   UNK N   1      35.144  12.435  16.902  0.00  0.00     0.257 C 
HETATM    3  O   UNK N   1      34.844  13.282  17.735  0.00  0.00    -0.267 OA
HETATM    4  H   UNK N   1      35.577  10.561  16.496  0.00  0.00     0.169 HD
ENDROOT
BRANCH   1   5
HETATM    5  C   UNK N   1      35.367  10.491  18.501  0.00  0.00     0.035 A 
HETATM    6  C   UNK N   1      34.317   9.619  18.714  0.00  0.00     0.045 A 
HETATM    7  C   UNK N   1      34.174   8.883  19.886  0.00  0.00     0.014 A 
HETATM    8  C   UNK N   1      35.161   9.040  20.895  0.00  0.00     0.046 A 
HETATM    9  C   UNK N   1      36.240   9.921  20.678  0.00  0.00     0.027 A 
HETATM   10 Cl   UNK N   1      35.108   8.176  22.424  0.00  0.00    -0.083 Cl
HETATM   11  C   UNK N   1      36.349  10.649  19.483  0.00  0.00     0.031 A 
BRANCH   7  12
HETATM   12  C   UNK N   1      32.975   7.996  19.973  0.00  0.00     0.044 A 
HETATM   13  C   UNK N   1      31.701   8.574  20.145  0.00  0.00     0.030 A 
HETATM   14  C   UNK N   1      30.574   7.763  20.244  0.00  0.00     0.004 A 
HETATM   15  C   UNK N   1      30.716   6.381  20.177  0.00  0.00     0.017 A 
HETATM   16  C   UNK N   1      31.989   5.831  20.007  0.00  0.00     0.088 A 
HETATM   17  N   UNK N   1      33.081   6.641  19.909  0.00  0.00    -0.365 N 
ATOM     18  HN  UNK N   1      34.001   6.219  19.783  1.00  0.00     0.165 HD
ENDBRANCH   7  12
ENDBRANCH   1   5
BRANCH   2  19
HETATM   19  C   UNK N   1      35.363  12.766  15.469  0.00  0.00     0.054 A 
HETATM   20  C   UNK N   1      36.260  13.819  15.219  0.00  0.00     0.020 A 
HETATM   21  C   UNK N   1      36.471  14.306  13.943  0.00  0.00     0.024 A 
HETATM   22  C   UNK N   1      35.791  13.754  12.870  0.00  0.00     0.060 A 
HETATM   23  C   UNK N   1      34.920  12.672  13.076  0.00  0.00     0.048 A 
HETATM   24  C   UNK N   1      34.707  12.162  14.370  0.00  0.00     0.051 A 
HETATM   25 Cl   UNK N   1      33.569  10.836  14.562  0.00  0.00    -0.083 Cl
BRANCH  22  26
HETATM   26  S   UNK N   1      35.915  14.568  11.283  0.00  0.00     0.171 S 
HETATM   27  C   UNK N   1      35.674  16.305  10.825  0.00  0.00     0.167 C 
HETATM   28  O   UNK N   1      37.216  14.079  10.631  0.00  0.00    -0.223 OA
HETATM   29  O   UNK N   1      34.946  13.785  10.382  0.00  0.00    -0.223 OA
ENDBRANCH  22  26
ENDBRANCH   2  19
TORSDOF 4
ENDMDL
MODEL 4
REMARK VINA RESULT:      -7.6      6.449     12.929
REMARK  4 active torsions:
REMARK  status: ('A' for Active; 'I' for Inactive)
REMARK    1  A    between atoms: C_5  and  C_8 
REMARK    2  A    between atoms: C_10  and  N_15 
REMARK       I    between atoms: N_15  and  C_16 
REMARK    3  A    between atoms: C_16  and  C_17 
REMARK    4  A    between atoms: C_21  and  S_25 
ROOT
HETATM    1  N   UNK N   1      34.673  14.601  10.577  0.00  0.00    -0.323 N 
HETATM    2  C   UNK N   1      34.839  15.826  10.033  0.00  0.00     0.257 C 
HETATM    3  O   UNK N   1      35.865  16.471  10.218  0.00  0.00    -0.267 OA
HETATM    4  H   UNK N   1      33.798  14.195  10.378  0.00  0.00     0.169 HD
ENDROOT
BRANCH   1   5
HETATM    5  C   UNK N   1      35.505  13.791  11.374  0.00  0.00     0.035 A 
HETATM    6  C   UNK N   1      35.633  14.177  12.694  0.00  0.00     0.045 A 
HETATM    7  C   UNK N   1      36.410  13.480  13.613  0.00  0.00     0.014 A 
HETATM    8  C   UNK N   1      37.089  12.317  13.162  0.00  0.00     0.046 A 
HETATM    9  C   UNK N   1      36.953  11.911  11.819  0.00  0.00     0.027 A 
HETATM   10 Cl   UNK N   1      38.104  11.338  14.212  0.00  0.00    -0.083 Cl
HETATM   11  C   UNK N   1      36.162  12.644  10.920  0.00  0.00     0.031 A 
BRANCH   7  12
HETATM   12  C   UNK N   1      36.462  14.035  14.999  0.00  0.00     0.044 A 
HETATM   13  C   UNK N   1      35.661  13.456  16.003  0.00  0.00     0.030 A 
HETATM   14  C   UNK N   1      35.685  13.967  17.297  0.00  0.00     0.004 A 
HETATM   15  C   UNK N   1      36.501  15.056  17.589  0.00  0.00     0.017 A 
HETATM   16  C   UNK N   1      37.286  15.613  16.576  0.00  0.00     0.088 A 
HETATM   17  N   UNK N   1      37.252  15.097  15.316  0.00  0.00    -0.365 N 
ATOM     18  HN  UNK N   1      37.835  15.517  14.592  1.00  0.00     0.165 HD
ENDBRANCH   7  12
ENDBRANCH   1   5
BRANCH   2  19
HETATM   19  C   UNK N   1      33.750  16.298   9.139  0.00  0.00     0.054 A 
HETATM   20  C   UNK N   1      32.673  15.410   8.972  0.00  0.00     0.020 A 
HETATM   21  C   UNK N   1      31.647  15.670   8.083  0.00  0.00     0.024 A 
HETATM   22  C   UNK N   1      31.663  16.833   7.329  0.00  0.00     0.060 A 
HETATM   23  C   UNK N   1      32.700  17.764   7.499  0.00  0.00     0.048 A 
HETATM   24  C   UNK N   1      33.743  17.513   8.411  0.00  0.00     0.051 A 
HETATM   25 Cl   UNK N   1      35.033  18.699   8.543  0.00  0.00    -0.083 Cl
BRANCH  22  26
HETATM   26  S   UNK N   1      30.449  17.011   6.029  0.00  0.00     0.171 S 
HETATM   27  C   UNK N   1      28.831  17.828   6.028  0.00  0.00     0.167 C 
HETATM   28  O   UNK N   1      31.206  17.452   4.768  0.00  0.00    -0.223 OA
HETATM   29  O   UNK N   1      30.162  15.568   5.581  0.00  0.00    -0.223 OA
ENDBRANCH  22  26
ENDBRANCH   2  19
TORSDOF 4
ENDMDL
MODEL 5
REMARK VINA RESULT:      -7.5      4.005      4.629
REMARK  4 active torsions:
REMARK  status: ('A' for Active; 'I' for Inactive)
REMARK    1  A    between atoms: C_5  and  C_8 
REMARK    2  A    between atoms: C_10  and  N_15 
REMARK       I    between atoms: N_15  and  C_16 
REMARK    3  A    between atoms: C_16  and  C_17 
REMARK    4  A    between atoms: C_21  and  S_25 
ROOT
HETATM    1  N   UNK N   1      27.444  15.756   6.495  0.00  0.00    -0.323 N 
HETATM    2  C   UNK N   1      27.883  17.026   6.363  0.00  0.00     0.257 C 
HETATM    3  O   UNK N   1      27.141  17.918   5.968  0.00  0.00    -0.267 OA
HETATM    4  H   UNK N   1      28.139  15.126   6.795  0.00  0.00     0.169 HD
ENDROOT
BRANCH   1   5
HETATM    5  C   UNK N   1      26.187  15.154   6.286  0.00  0.00     0.035 A 
HETATM    6  C   UNK N   1      25.587  14.616   7.407  0.00  0.00     0.045 A 
HETATM    7  C   UNK N   1      24.343  13.995   7.373  0.00  0.00     0.014 A 
HETATM    8  C   UNK N   1      23.668  13.927   6.124  0.00  0.00     0.046 A 
HETATM    9  C   UNK N   1      24.272  14.485   4.978  0.00  0.00     0.027 A 
HETATM   10 Cl   UNK N   1      22.092  13.173   5.931  0.00  0.00    -0.083 Cl
HETATM   11  C   UNK N   1      25.531  15.100   5.054  0.00  0.00     0.031 A 
BRANCH   7  12
HETATM   12  C   UNK N   1      23.835  13.446   8.665  0.00  0.00     0.044 A 
HETATM   13  C   UNK N   1      24.697  12.679   9.474  0.00  0.00     0.030 A 
HETATM   14  C   UNK N   1      24.238  12.147  10.676  0.00  0.00     0.004 A 
HETATM   15  C   UNK N   1      22.922  12.372  11.067  0.00  0.00     0.017 A 
HETATM   16  C   UNK N   1      22.086  13.135  10.248  0.00  0.00     0.088 A 
HETATM   17  N   UNK N   1      22.554  13.651   9.077  0.00  0.00    -0.365 N 
ATOM     18  HN  UNK N   1      21.927  14.207   8.495  1.00  0.00     0.165 HD
ENDBRANCH   7  12
ENDBRANCH   1   5
BRANCH   2  19
HETATM   19  C   UNK N   1      29.279  17.285   6.803  0.00  0.00     0.054 A 
HETATM   20  C   UNK N   1      30.264  17.149   5.810  0.00  0.00     0.020 A 
HETATM   21  C   UNK N   1      31.611  17.249   6.103  0.00  0.00     0.024 A 
HETATM   22  C   UNK N   1      32.019  17.492   7.405  0.00  0.00     0.060 A 
HETATM   23  C   UNK N   1      31.063  17.676   8.416  0.00  0.00     0.048 A 
HETATM   24  C   UNK N   1      29.689  17.587   8.124  0.00  0.00     0.051 A 
HETATM   25 Cl   UNK N   1      28.546  17.784   9.445  0.00  0.00    -0.083 Cl
BRANCH  22  26
HETATM   26  S   UNK N   1      33.764  17.376   7.776  0.00  0.00     0.171 S 
HETATM   27  C   UNK N   1      34.684  16.166   8.763  0.00  0.00     0.167 C 
HETATM   28  O   UNK N   1      34.518  17.585   6.455  0.00  0.00    -0.223 OA
HETATM   29  O   UNK N   1      34.106  18.738   8.405  0.00  0.00    -0.223 OA
ENDBRANCH  22  26
ENDBRANCH   2  19
TORSDOF 4
ENDMDL
MODEL 6
REMARK VINA RESULT:      -7.4      8.831     14.132
REMARK  4 active torsions:
REMARK  status: ('A' for Active; 'I' for Inactive)
REMARK    1  A    between atoms: C_5  and  C_8 
REMARK    2  A    between atoms: C_10  and  N_15 
REMARK       I    between atoms: N_15  and  C_16 
REMARK    3  A    between atoms: C_16  and  C_17 
REMARK    4  A    between atoms: C_21  and  S_25 
ROOT
HETATM    1  N   UNK N   1      35.387  12.697  12.325  0.00  0.00    -0.323 N 
HETATM    2  C   UNK N   1      36.371  13.280  11.607  0.00  0.00     0.257 C 
HETATM    3  O   UNK N   1      37.542  12.946  11.743  0.00  0.00    -0.267 OA
HETATM    4  H   UNK N   1      34.493  13.069  12.147  0.00  0.00     0.169 HD
ENDROOT
BRANCH   1   5
HETATM    5  C   UNK N   1      35.389  11.660  13.279  0.00  0.00     0.035 A 
HETATM    6  C   UNK N   1      35.336  12.060  14.600  0.00  0.00     0.045 A 
HETATM    7  C   UNK N   1      35.321  11.161  15.660  0.00  0.00     0.014 A 
HETATM    8  C   UNK N   1      35.354   9.773  15.357  0.00  0.00     0.046 A 
HETATM    9  C   UNK N   1      35.397   9.359  14.010  0.00  0.00     0.027 A 
HETATM   10 Cl   UNK N   1      35.340   8.525  16.594  0.00  0.00    -0.083 Cl
HETATM   11  C   UNK N   1      35.414  10.298  12.966  0.00  0.00     0.031 A 
BRANCH   7  12
HETATM   12  C   UNK N   1      35.280  11.749  17.033  0.00  0.00     0.044 A 
HETATM   13  C   UNK N   1      35.189  13.147  17.181  0.00  0.00     0.030 A 
HETATM   14  C   UNK N   1      35.164  13.715  18.451  0.00  0.00     0.004 A 
HETATM   15  C   UNK N   1      35.237  12.893  19.571  0.00  0.00     0.017 A 
HETATM   16  C   UNK N   1      35.328  11.509  19.399  0.00  0.00     0.088 A 
HETATM   17  N   UNK N   1      35.347  10.971  18.148  0.00  0.00    -0.365 N 
ATOM     18  HN  UNK N   1      35.412   9.958  18.045  1.00  0.00     0.165 HD
ENDBRANCH   7  12
ENDBRANCH   1   5
BRANCH   2  19
HETATM   19  C   UNK N   1      35.938  14.281  10.597  0.00  0.00     0.054 A 
HETATM   20  C   UNK N   1      35.594  15.546  11.103  0.00  0.00     0.020 A 
HETATM   21  C   UNK N   1      35.068  16.535  10.293  0.00  0.00     0.024 A 
HETATM   22  C   UNK N   1      34.870  16.291   8.944  0.00  0.00     0.060 A 
HETATM   23  C   UNK N   1      35.242  15.054   8.394  0.00  0.00     0.048 A 
HETATM   24  C   UNK N   1      35.789  14.046   9.209  0.00  0.00     0.051 A 
HETATM   25 Cl   UNK N   1      36.191  12.505   8.464  0.00  0.00    -0.083 Cl
BRANCH  22  26
HETATM   26  S   UNK N   1      33.972  17.508   7.990  0.00  0.00     0.171 S 
HETATM   27  C   UNK N   1      33.596  17.577   6.219  0.00  0.00     0.167 C 
HETATM   28  O   UNK N   1      32.683  17.819   8.764  0.00  0.00    -0.223 OA
HETATM   29  O   UNK N   1      34.696  18.831   8.291  0.00  0.00    -0.223 OA
ENDBRANCH  22  26
ENDBRANCH   2  19
TORSDOF 4
ENDMDL
MODEL 7
REMARK VINA RESULT:      -7.4      5.621      9.196
REMARK  4 active torsions:
REMARK  status: ('A' for Active; 'I' for Inactive)
REMARK    1  A    between atoms: C_5  and  C_8 
REMARK    2  A    between atoms: C_10  and  N_15 
REMARK       I    between atoms: N_15  and  C_16 
REMARK    3  A    between atoms: C_16  and  C_17 
REMARK    4  A    between atoms: C_21  and  S_25 
ROOT
HETATM    1  N   UNK N   1      34.698  14.915   8.740  0.00  0.00    -0.323 N 
HETATM    2  C   UNK N   1      35.432  15.335   9.793  0.00  0.00     0.257 C 
HETATM    3  O   UNK N   1      35.652  16.526   9.980  0.00  0.00    -0.267 OA
HETATM    4  H   UNK N   1      34.614  13.936   8.682  0.00  0.00     0.169 HD
ENDROOT
BRANCH   1   5
HETATM    5  C   UNK N   1      34.030  15.602   7.707  0.00  0.00     0.035 A 
HETATM    6  C   UNK N   1      32.791  16.118   8.033  0.00  0.00     0.045 A 
HETATM    7  C   UNK N   1      32.008  16.830   7.131  0.00  0.00     0.014 A 
HETATM    8  C   UNK N   1      32.521  17.034   5.822  0.00  0.00     0.046 A 
HETATM    9  C   UNK N   1      33.790  16.519   5.486  0.00  0.00     0.027 A 
HETATM   10 Cl   UNK N   1      31.643  17.913   4.580  0.00  0.00    -0.083 Cl
HETATM   11  C   UNK N   1      34.549  15.802   6.425  0.00  0.00     0.031 A 
BRANCH   7  12
HETATM   12  C   UNK N   1      30.684  17.308   7.629  0.00  0.00     0.044 A 
HETATM   13  C   UNK N   1      30.636  18.159   8.751  0.00  0.00     0.030 A 
HETATM   14  C   UNK N   1      29.411  18.603   9.239  0.00  0.00     0.004 A 
HETATM   15  C   UNK N   1      28.236  18.197   8.615  0.00  0.00     0.017 A 
HETATM   16  C   UNK N   1      28.308  17.352   7.504  0.00  0.00     0.088 A 
HETATM   17  N   UNK N   1      29.517  16.930   7.038  0.00  0.00    -0.365 N 
ATOM     18  HN  UNK N   1      29.548  16.315   6.225  1.00  0.00     0.165 HD
ENDBRANCH   7  12
ENDBRANCH   1   5
BRANCH   2  19
HETATM   19  C   UNK N   1      35.877  14.282  10.742  0.00  0.00     0.054 A 
HETATM   20  C   UNK N   1      34.955  13.939  11.746  0.00  0.00     0.020 A 
HETATM   21  C   UNK N   1      35.280  13.059  12.761  0.00  0.00     0.024 A 
HETATM   22  C   UNK N   1      36.542  12.489  12.805  0.00  0.00     0.060 A 
HETATM   23  C   UNK N   1      37.475  12.775  11.796  0.00  0.00     0.048 A 
HETATM   24  C   UNK N   1      37.150  13.660  10.752  0.00  0.00     0.051 A 
HETATM   25 Cl   UNK N   1      38.380  14.009   9.546  0.00  0.00    -0.083 Cl
BRANCH  22  26
HETATM   26  S   UNK N   1      36.992  11.549  14.258  0.00  0.00     0.171 S 
HETATM   27  C   UNK N   1      38.423  10.485  14.579  0.00  0.00     0.167 C 
HETATM   28  O   UNK N   1      36.809  12.479  15.466  0.00  0.00    -0.223 OA
HETATM   29  O   UNK N   1      35.769  10.654  14.522  0.00  0.00    -0.223 OA
ENDBRANCH  22  26
ENDBRANCH   2  19
TORSDOF 4
ENDMDL
MODEL 8
REMARK VINA RESULT:      -7.2      5.203     11.565
REMARK  4 active torsions:
REMARK  status: ('A' for Active; 'I' for Inactive)
REMARK    1  A    between atoms: C_5  and  C_8 
REMARK    2  A    between atoms: C_10  and  N_15 
REMARK       I    between atoms: N_15  and  C_16 
REMARK    3  A    between atoms: C_16  and  C_17 
REMARK    4  A    between atoms: C_21  and  S_25 
ROOT
HETATM    1  N   UNK N   1      33.712  15.365   8.818  0.00  0.00    -0.323 N 
HETATM    2  C   UNK N   1      33.399  16.677   8.750  0.00  0.00     0.257 C 
HETATM    3  O   UNK N   1      34.109  17.529   9.271  0.00  0.00    -0.267 OA
HETATM    4  H   UNK N   1      33.052  14.777   8.385  0.00  0.00     0.169 HD
ENDROOT
BRANCH   1   5
HETATM    5  C   UNK N   1      34.798  14.672   9.389  0.00  0.00     0.035 A 
HETATM    6  C   UNK N   1      34.572  14.123  10.635  0.00  0.00     0.045 A 
HETATM    7  C   UNK N   1      35.537  13.402  11.330  0.00  0.00     0.014 A 
HETATM    8  C   UNK N   1      36.804  13.223  10.713  0.00  0.00     0.046 A 
HETATM    9  C   UNK N   1      37.038  13.772   9.435  0.00  0.00     0.027 A 
HETATM   10 Cl   UNK N   1      38.118  12.335  11.472  0.00  0.00    -0.083 Cl
HETATM   11  C   UNK N   1      36.038  14.497   8.768  0.00  0.00     0.031 A 
BRANCH   7  12
HETATM   12  C   UNK N   1      35.146  12.888  12.676  0.00  0.00     0.044 A 
HETATM   13  C   UNK N   1      35.589  13.566  13.829  0.00  0.00     0.030 A 
HETATM   14  C   UNK N   1      35.247  13.094  15.092  0.00  0.00     0.004 A 
HETATM   15  C   UNK N   1      34.470  11.946  15.208  0.00  0.00     0.017 A 
HETATM   16  C   UNK N   1      34.043  11.289  14.051  0.00  0.00     0.088 A 
HETATM   17  N   UNK N   1      34.385  11.768  12.822  0.00  0.00    -0.365 N 
ATOM     18  HN  UNK N   1      34.061  11.275  11.990  1.00  0.00     0.165 HD
ENDBRANCH   7  12
ENDBRANCH   1   5
BRANCH   2  19
HETATM   19  C   UNK N   1      32.200  17.022   7.941  0.00  0.00     0.054 A 
HETATM   20  C   UNK N   1      31.002  17.166   8.662  0.00  0.00     0.020 A 
HETATM   21  C   UNK N   1      29.792  17.374   8.027  0.00  0.00     0.024 A 
HETATM   22  C   UNK N   1      29.740  17.446   6.644  0.00  0.00     0.060 A 
HETATM   23  C   UNK N   1      30.922  17.349   5.893  0.00  0.00     0.048 A 
HETATM   24  C   UNK N   1      32.160  17.150   6.531  0.00  0.00     0.051 A 
HETATM   25 Cl   UNK N   1      33.595  16.992   5.529  0.00  0.00    -0.083 Cl
BRANCH  22  26
HETATM   26  S   UNK N   1      28.133  17.477   5.861  0.00  0.00     0.171 S 
HETATM   27  C   UNK N   1      27.052  18.868   5.439  0.00  0.00     0.167 C 
HETATM   28  O   UNK N   1      28.213  16.548   4.641  0.00  0.00    -0.223 OA
HETATM   29  O   UNK N   1      27.269  16.559   6.741  0.00  0.00    -0.223 OA
ENDBRANCH  22  26
ENDBRANCH   2  19
TORSDOF 4
ENDMDL
MODEL 9
REMARK VINA RESULT:      -7.2      8.551     13.593
REMARK  4 active torsions:
REMARK  status: ('A' for Active; 'I' for Inactive)
REMARK    1  A    between atoms: C_5  and  C_8 
REMARK    2  A    between atoms: C_10  and  N_15 
REMARK       I    between atoms: N_15  and  C_16 
REMARK    3  A    between atoms: C_16  and  C_17 
REMARK    4  A    between atoms: C_21  and  S_25 
ROOT
HETATM    1  N   UNK N   1      34.549  12.585  11.768  0.00  0.00    -0.323 N 
HETATM    2  C   UNK N   1      35.394  13.441  11.154  0.00  0.00     0.257 C 
HETATM    3  O   UNK N   1      36.589  13.461  11.425  0.00  0.00    -0.267 OA
HETATM    4  H   UNK N   1      33.611  12.684  11.485  0.00  0.00     0.169 HD
ENDROOT
BRANCH   1   5
HETATM    5  C   UNK N   1      34.746  11.580  12.735  0.00  0.00     0.035 A 
HETATM    6  C   UNK N   1      34.825  12.014  14.044  0.00  0.00     0.045 A 
HETATM    7  C   UNK N   1      35.009  11.148  15.116  0.00  0.00     0.014 A 
HETATM    8  C   UNK N   1      35.109   9.758  14.839  0.00  0.00     0.046 A 
HETATM    9  C   UNK N   1      35.018   9.308  13.506  0.00  0.00     0.027 A 
HETATM   10 Cl   UNK N   1      35.342   8.549  16.094  0.00  0.00    -0.083 Cl
HETATM   11  C   UNK N   1      34.835  10.215  12.450  0.00  0.00     0.031 A 
BRANCH   7  12
HETATM   12  C   UNK N   1      35.093  11.771  16.471  0.00  0.00     0.044 A 
HETATM   13  C   UNK N   1      35.061  13.176  16.586  0.00  0.00     0.030 A 
HETATM   14  C   UNK N   1      35.152  13.776  17.838  0.00  0.00     0.004 A 
HETATM   15  C   UNK N   1      35.282  12.981  18.972  0.00  0.00     0.017 A 
HETATM   16  C   UNK N   1      35.312  11.591  18.833  0.00  0.00     0.088 A 
HETATM   17  N   UNK N   1      35.218  11.020  17.599  0.00  0.00    -0.365 N 
ATOM     18  HN  UNK N   1      35.240  10.004  17.520  1.00  0.00     0.165 HD
ENDBRANCH   7  12
ENDBRANCH   1   5
BRANCH   2  19
HETATM   19  C   UNK N   1      34.804  14.287  10.083  0.00  0.00     0.054 A 
HETATM   20  C   UNK N   1      34.236  13.592   9.002  0.00  0.00     0.020 A 
HETATM   21  C   UNK N   1      33.755  14.250   7.886  0.00  0.00     0.024 A 
HETATM   22  C   UNK N   1      33.823  15.632   7.815  0.00  0.00     0.060 A 
HETATM   23  C   UNK N   1      34.344  16.363   8.894  0.00  0.00     0.048 A 
HETATM   24  C   UNK N   1      34.826  15.703  10.039  0.00  0.00     0.051 A 
HETATM   25 Cl   UNK N   1      35.506  16.677  11.335  0.00  0.00    -0.083 Cl
BRANCH  22  26
HETATM   26  S   UNK N   1      33.409  16.418   6.264  0.00  0.00     0.171 S 
HETATM   27  C   UNK N   1      33.372  15.755   4.577  0.00  0.00     0.167 C 
HETATM   28  O   UNK N   1      32.112  17.207   6.494  0.00  0.00    -0.223 OA
HETATM   29  O   UNK N   1      34.356  17.628   6.191  0.00  0.00    -0.223 OA
ENDBRANCH  22  26
ENDBRANCH   2  19
TORSDOF 4
ENDMDL
