MODEL 1
REMARK VINA RESULT:      -6.3      0.000      0.000
REMARK  6 active torsions:
REMARK  status: ('A' for Active; 'I' for Inactive)
REMARK    1  A    between atoms: N_4  and  C_13 
REMARK    2  A    between atoms: C_5  and  C_20 
REMARK    3  A    between atoms: C_6  and  C_8 
REMARK    4  A    between atoms: C_8  and  O_9 
REMARK    5  A    between atoms: C_13  and  C_14 
REMARK    6  A    between atoms: C_14  and  C_15 
ROOT
HETATM    1  C   UNK N   1      27.672  16.767   7.168  0.00  0.00     0.039 C 
HETATM    2  C   UNK N   1      28.251  16.152   5.891  0.00  0.00     0.038 C 
HETATM    3  C   UNK N   1      30.576  17.088   5.902  0.00  0.00     0.046 C 
HETATM    4  N   UNK N   1      28.589  18.521   5.821  0.00  0.00     0.098 N 
HETATM    5  C   UNK N   1      30.541  17.033   7.441  0.00  0.00     0.036 C 
HETATM    6  C   UNK N   1      29.632  18.157   8.014  0.00  0.00     0.127 C 
HETATM    7  C   UNK N   1      28.294  18.172   7.218  0.00  0.00     0.237 C 
HETATM    8  C   UNK N   1      29.155  17.256   5.332  0.00  0.00     0.224 C 
ENDROOT
BRANCH   5   9
HETATM    9  C   UNK N   1      31.869  16.670   8.084  0.00  0.00    -0.053 A 
HETATM   10  C   UNK N   1      32.876  17.633   8.237  0.00  0.00     0.009 A 
HETATM   11  C   UNK N   1      34.026  17.353   8.979  0.00  0.00     0.019 A 
HETATM   12  C   UNK N   1      34.171  16.111   9.600  0.00  0.00     0.006 A 
HETATM   13  C   UNK N   1      33.177  15.141   9.459  0.00  0.00     0.019 A 
HETATM   14  I   UNK N   1      35.862  15.723  10.789  0.00  0.00    -0.045 I 
HETATM   15  C   UNK N   1      32.030  15.421   8.708  0.00  0.00     0.009 A 
ENDBRANCH   5   9
BRANCH   6  16
HETATM   16  C   UNK N   1      29.324  18.071   9.486  0.00  0.00     0.265 C 
HETATM   17  O   UNK N   1      29.678  18.961  10.250  0.00  0.00    -0.265 OA
BRANCH  16  18
HETATM   18  O   UNK N   1      28.758  16.936   9.965  0.00  0.00    -0.326 OA
HETATM   19  C   UNK N   1      29.313  16.203  10.986  0.00  0.00     0.213 C 
ENDBRANCH  16  18
ENDBRANCH   6  16
BRANCH   4  20
HETATM   20  C   UNK N   1      27.358  18.797   5.053  0.00  0.00     0.276 C 
BRANCH  20  21
HETATM   21  C   UNK N   1      27.304  20.215   4.502  0.00  0.00     0.061 C 
BRANCH  21  22
HETATM   22  C   UNK N   1      26.812  21.141   5.599  0.00  0.00     0.223 C 
HETATM   23  F   UNK N   1      27.885  21.666   6.290  0.00  0.00    -0.255 F 
ENDBRANCH  21  22
ENDBRANCH  20  21
ENDBRANCH   4  20
TORSDOF 6
ENDMDL
MODEL 2
REMARK VINA RESULT:      -5.9      4.596      7.703
REMARK  6 active torsions:
REMARK  status: ('A' for Active; 'I' for Inactive)
REMARK    1  A    between atoms: N_4  and  C_13 
REMARK    2  A    between atoms: C_5  and  C_20 
REMARK    3  A    between atoms: C_6  and  C_8 
REMARK    4  A    between atoms: C_8  and  O_9 
REMARK    5  A    between atoms: C_13  and  C_14 
REMARK    6  A    between atoms: C_14  and  C_15 
ROOT
HETATM    1  C   UNK N   1      35.411  15.142   8.505  0.00  0.00     0.039 C 
HETATM    2  C   UNK N   1      34.508  13.953   8.841  0.00  0.00     0.038 C 
HETATM    3  C   UNK N   1      32.394  15.113   9.523  0.00  0.00     0.046 C 
HETATM    4  N   UNK N   1      34.515  15.458  10.702  0.00  0.00     0.098 N 
HETATM    5  C   UNK N   1      32.723  16.215   8.497  0.00  0.00     0.036 C 
HETATM    6  C   UNK N   1      33.882  17.117   9.006  0.00  0.00     0.127 C 
HETATM    7  C   UNK N   1      35.025  16.207   9.545  0.00  0.00     0.237 C 
HETATM    8  C   UNK N   1      33.684  14.446  10.036  0.00  0.00     0.224 C 
ENDROOT
BRANCH   5   9
HETATM    9  C   UNK N   1      31.508  16.791   7.790  0.00  0.00    -0.053 A 
HETATM   10  C   UNK N   1      31.124  16.318   6.527  0.00  0.00     0.009 A 
HETATM   11  C   UNK N   1      29.916  16.717   5.951  0.00  0.00     0.019 A 
HETATM   12  C   UNK N   1      29.063  17.578   6.645  0.00  0.00     0.006 A 
HETATM   13  C   UNK N   1      29.429  18.057   7.904  0.00  0.00     0.019 A 
HETATM   14  I   UNK N   1      27.205  18.108   5.814  0.00  0.00    -0.045 I 
HETATM   15  C   UNK N   1      30.643  17.663   8.475  0.00  0.00     0.009 A 
ENDBRANCH   5   9
BRANCH   6  16
HETATM   16  C   UNK N   1      34.457  18.082   8.002  0.00  0.00     0.265 C 
HETATM   17  O   UNK N   1      35.158  19.018   8.369  0.00  0.00    -0.265 OA
BRANCH  16  18
HETATM   18  O   UNK N   1      34.086  17.965   6.705  0.00  0.00    -0.326 OA
HETATM   19  C   UNK N   1      34.508  16.933   5.902  0.00  0.00     0.213 C 
ENDBRANCH  16  18
ENDBRANCH   6  16
BRANCH   4  20
HETATM   20  C   UNK N   1      35.598  14.757  11.422  0.00  0.00     0.276 C 
BRANCH  20  21
HETATM   21  C   UNK N   1      35.088  13.853  12.534  0.00  0.00     0.061 C 
BRANCH  21  22
HETATM   22  C   UNK N   1      35.992  14.014  13.742  0.00  0.00     0.223 C 
HETATM   23  F   UNK N   1      36.536  15.282  13.759  0.00  0.00    -0.255 F 
ENDBRANCH  21  22
ENDBRANCH  20  21
ENDBRANCH   4  20
TORSDOF 6
ENDMDL
MODEL 3
REMARK VINA RESULT:      -5.9      3.862      6.577
REMARK  6 active torsions:
REMARK  status: ('A' for Active; 'I' for Inactive)
REMARK    1  A    between atoms: N_4  and  C_13 
REMARK    2  A    between atoms: C_5  and  C_20 
REMARK    3  A    between atoms: C_6  and  C_8 
REMARK    4  A    between atoms: C_8  and  O_9 
REMARK    5  A    between atoms: C_13  and  C_14 
REMARK    6  A    between atoms: C_14  and  C_15 
ROOT
HETATM    1  C   UNK N   1      33.246  18.097   8.063  0.00  0.00     0.039 C 
HETATM    2  C   UNK N   1      33.883  17.610   6.759  0.00  0.00     0.038 C 
HETATM    3  C   UNK N   1      32.182  15.949   5.966  0.00  0.00     0.046 C 
HETATM    4  N   UNK N   1      33.351  15.705   8.106  0.00  0.00     0.098 N 
HETATM    5  C   UNK N   1      31.091  16.834   6.601  0.00  0.00     0.036 C 
HETATM    6  C   UNK N   1      31.110  16.710   8.150  0.00  0.00     0.127 C 
HETATM    7  C   UNK N   1      32.582  16.837   8.644  0.00  0.00     0.237 C 
HETATM    8  C   UNK N   1      33.521  16.122   6.708  0.00  0.00     0.224 C 
ENDROOT
BRANCH   5   9
HETATM    9  C   UNK N   1      29.791  16.881   5.816  0.00  0.00    -0.053 A 
HETATM   10  C   UNK N   1      28.903  15.797   5.838  0.00  0.00     0.009 A 
HETATM   11  C   UNK N   1      27.633  15.902   5.263  0.00  0.00     0.019 A 
HETATM   12  C   UNK N   1      27.227  17.104   4.681  0.00  0.00     0.006 A 
HETATM   13  C   UNK N   1      28.099  18.194   4.652  0.00  0.00     0.019 A 
HETATM   14  I   UNK N   1      25.285  17.286   3.896  0.00  0.00    -0.045 I 
HETATM   15  C   UNK N   1      29.372  18.085   5.220  0.00  0.00     0.009 A 
ENDBRANCH   5   9
BRANCH   6  16
HETATM   16  C   UNK N   1      30.256  17.697   8.902  0.00  0.00     0.265 C 
HETATM   17  O   UNK N   1      30.592  18.872   8.990  0.00  0.00    -0.265 OA
BRANCH  16  18
HETATM   18  O   UNK N   1      29.175  17.236   9.577  0.00  0.00    -0.326 OA
HETATM   19  C   UNK N   1      27.894  17.343   9.091  0.00  0.00     0.213 C 
ENDBRANCH  16  18
ENDBRANCH   6  16
BRANCH   4  20
HETATM   20  C   UNK N   1      34.691  15.612   8.721  0.00  0.00     0.276 C 
BRANCH  20  21
HETATM   21  C   UNK N   1      34.646  15.242  10.196  0.00  0.00     0.061 C 
BRANCH  21  22
HETATM   22  C   UNK N   1      35.630  16.121  10.946  0.00  0.00     0.223 C 
HETATM   23  F   UNK N   1      35.631  17.393  10.409  0.00  0.00    -0.255 F 
ENDBRANCH  21  22
ENDBRANCH  20  21
ENDBRANCH   4  20
TORSDOF 6
ENDMDL
MODEL 4
REMARK VINA RESULT:      -5.8     12.937     14.394
REMARK  6 active torsions:
REMARK  status: ('A' for Active; 'I' for Inactive)
REMARK    1  A    between atoms: N_4  and  C_13 
REMARK    2  A    between atoms: C_5  and  C_20 
REMARK    3  A    between atoms: C_6  and  C_8 
REMARK    4  A    between atoms: C_8  and  O_9 
REMARK    5  A    between atoms: C_13  and  C_14 
REMARK    6  A    between atoms: C_14  and  C_15 
ROOT
HETATM    1  C   UNK N   1      27.207  24.952  -3.433  0.00  0.00     0.039 C 
HETATM    2  C   UNK N   1      26.385  24.046  -4.353  0.00  0.00     0.038 C 
HETATM    3  C   UNK N   1      28.090  23.413  -6.077  0.00  0.00     0.046 C 
HETATM    4  N   UNK N   1      27.430  25.740  -5.683  0.00  0.00     0.098 N 
HETATM    5  C   UNK N   1      29.162  23.473  -4.972  0.00  0.00     0.036 C 
HETATM    6  C   UNK N   1      29.479  24.945  -4.587  0.00  0.00     0.127 C 
HETATM    7  C   UNK N   1      28.137  25.711  -4.394  0.00  0.00     0.237 C 
HETATM    8  C   UNK N   1      26.922  24.363  -5.753  0.00  0.00     0.224 C 
ENDROOT
BRANCH   5   9
HETATM    9  C   UNK N   1      30.254  22.426  -5.105  0.00  0.00    -0.053 A 
HETATM   10  C   UNK N   1      31.373  22.658  -5.917  0.00  0.00     0.009 A 
HETATM   11  C   UNK N   1      32.459  21.779  -5.908  0.00  0.00     0.019 A 
HETATM   12  C   UNK N   1      32.449  20.667  -5.064  0.00  0.00     0.006 A 
HETATM   13  C   UNK N   1      31.344  20.421  -4.247  0.00  0.00     0.019 A 
HETATM   14  I   UNK N   1      34.121  19.394  -4.987  0.00  0.00    -0.045 I 
HETATM   15  C   UNK N   1      30.255  21.298  -4.265  0.00  0.00     0.009 A 
ENDBRANCH   5   9
BRANCH   6  16
HETATM   16  C   UNK N   1      30.332  25.138  -3.361  0.00  0.00     0.265 C 
HETATM   17  O   UNK N   1      30.468  24.231  -2.548  0.00  0.00    -0.265 OA
BRANCH  16  18
HETATM   18  O   UNK N   1      30.847  26.367  -3.115  0.00  0.00    -0.326 OA
HETATM   19  C   UNK N   1      31.611  27.049  -4.032  0.00  0.00     0.213 C 
ENDBRANCH  16  18
ENDBRANCH   6  16
BRANCH   4  20
HETATM   20  C   UNK N   1      26.269  26.654  -5.650  0.00  0.00     0.276 C 
BRANCH  20  21
HETATM   21  C   UNK N   1      26.664  28.114  -5.493  0.00  0.00     0.061 C 
BRANCH  21  22
HETATM   22  C   UNK N   1      26.010  28.660  -4.237  0.00  0.00     0.223 C 
HETATM   23  F   UNK N   1      25.253  27.675  -3.633  0.00  0.00    -0.255 F 
ENDBRANCH  21  22
ENDBRANCH  20  21
ENDBRANCH   4  20
TORSDOF 6
ENDMDL
MODEL 5
REMARK VINA RESULT:      -5.8     13.661     16.404
REMARK  6 active torsions:
REMARK  status: ('A' for Active; 'I' for Inactive)
REMARK    1  A    between atoms: N_4  and  C_13 
REMARK    2  A    between atoms: C_5  and  C_20 
REMARK    3  A    between atoms: C_6  and  C_8 
REMARK    4  A    between atoms: C_8  and  O_9 
REMARK    5  A    between atoms: C_13  and  C_14 
REMARK    6  A    between atoms: C_14  and  C_15 
ROOT
HETATM    1  C   UNK N   1      27.833  23.563  -6.814  0.00  0.00     0.039 C 
HETATM    2  C   UNK N   1      27.802  24.482  -8.038  0.00  0.00     0.038 C 
HETATM    3  C   UNK N   1      26.390  26.376  -7.199  0.00  0.00     0.046 C 
HETATM    4  N   UNK N   1      25.552  24.076  -7.329  0.00  0.00     0.098 N 
HETATM    5  C   UNK N   1      26.985  26.137  -5.798  0.00  0.00     0.036 C 
HETATM    6  C   UNK N   1      26.391  24.852  -5.156  0.00  0.00     0.127 C 
HETATM    7  C   UNK N   1      26.427  23.704  -6.208  0.00  0.00     0.237 C 
HETATM    8  C   UNK N   1      26.387  25.070  -8.017  0.00  0.00     0.224 C 
ENDROOT
BRANCH   5   9
HETATM    9  C   UNK N   1      27.213  27.405  -4.992  0.00  0.00    -0.053 A 
HETATM   10  C   UNK N   1      26.145  28.041  -4.344  0.00  0.00     0.009 A 
HETATM   11  C   UNK N   1      26.373  29.102  -3.463  0.00  0.00     0.019 A 
HETATM   12  C   UNK N   1      27.678  29.523  -3.201  0.00  0.00     0.006 A 
HETATM   13  C   UNK N   1      28.753  28.899  -3.837  0.00  0.00     0.019 A 
HETATM   14  I   UNK N   1      28.024  31.061  -1.809  0.00  0.00    -0.045 I 
HETATM   15  C   UNK N   1      28.522  27.843  -4.724  0.00  0.00     0.009 A 
ENDBRANCH   5   9
BRANCH   6  16
HETATM   16  C   UNK N   1      27.059  24.377  -3.892  0.00  0.00     0.265 C 
HETATM   17  O   UNK N   1      26.392  23.934  -2.964  0.00  0.00    -0.265 OA
BRANCH  16  18
HETATM   18  O   UNK N   1      28.394  24.560  -3.755  0.00  0.00    -0.326 OA
HETATM   19  C   UNK N   1      29.224  23.605  -3.218  0.00  0.00     0.213 C 
ENDBRANCH  16  18
ENDBRANCH   6  16
BRANCH   4  20
HETATM   20  C   UNK N   1      25.336  22.944  -8.254  0.00  0.00     0.276 C 
BRANCH  20  21
HETATM   21  C   UNK N   1      24.851  21.685  -7.551  0.00  0.00     0.061 C 
BRANCH  21  22
HETATM   22  C   UNK N   1      25.548  20.487  -8.169  0.00  0.00     0.223 C 
HETATM   23  F   UNK N   1      26.917  20.644  -8.089  0.00  0.00    -0.255 F 
ENDBRANCH  21  22
ENDBRANCH  20  21
ENDBRANCH   4  20
TORSDOF 6
ENDMDL
MODEL 6
REMARK VINA RESULT:      -5.6      9.140     10.228
REMARK  6 active torsions:
REMARK  status: ('A' for Active; 'I' for Inactive)
REMARK    1  A    between atoms: N_4  and  C_13 
REMARK    2  A    between atoms: C_5  and  C_20 
REMARK    3  A    between atoms: C_6  and  C_8 
REMARK    4  A    between atoms: C_8  and  O_9 
REMARK    5  A    between atoms: C_13  and  C_14 
REMARK    6  A    between atoms: C_14  and  C_15 
ROOT
HETATM    1  C   UNK N   1      20.819  15.995   2.939  0.00  0.00     0.039 C 
HETATM    2  C   UNK N   1      22.207  16.618   3.106  0.00  0.00     0.038 C 
HETATM    3  C   UNK N   1      22.216  17.161   5.553  0.00  0.00     0.046 C 
HETATM    4  N   UNK N   1      20.580  18.126   4.004  0.00  0.00     0.098 N 
HETATM    5  C   UNK N   1      21.341  15.913   5.784  0.00  0.00     0.036 C 
HETATM    6  C   UNK N   1      19.883  16.162   5.303  0.00  0.00     0.127 C 
HETATM    7  C   UNK N   1      19.929  16.813   3.889  0.00  0.00     0.237 C 
HETATM    8  C   UNK N   1      21.987  17.729   4.139  0.00  0.00     0.224 C 
ENDROOT
BRANCH   5   9
HETATM    9  C   UNK N   1      21.643  15.170   7.074  0.00  0.00    -0.053 A 
HETATM   10  C   UNK N   1      20.874  15.391   8.225  0.00  0.00     0.009 A 
HETATM   11  C   UNK N   1      21.034  14.588   9.357  0.00  0.00     0.019 A 
HETATM   12  C   UNK N   1      21.951  13.536   9.343  0.00  0.00     0.006 A 
HETATM   13  C   UNK N   1      22.724  13.300   8.205  0.00  0.00     0.019 A 
HETATM   14  I   UNK N   1      22.127  12.275  11.017  0.00  0.00    -0.045 I 
HETATM   15  C   UNK N   1      22.568  14.110   7.075  0.00  0.00     0.009 A 
ENDBRANCH   5   9
BRANCH   6  16
HETATM   16  C   UNK N   1      18.989  14.951   5.255  0.00  0.00     0.265 C 
HETATM   17  O   UNK N   1      17.777  15.066   5.399  0.00  0.00    -0.265 OA
BRANCH  16  18
HETATM   18  O   UNK N   1      19.560  13.725   5.171  0.00  0.00    -0.326 OA
HETATM   19  C   UNK N   1      19.063  12.728   4.368  0.00  0.00     0.213 C 
ENDBRANCH  16  18
ENDBRANCH   6  16
BRANCH   4  20
HETATM   20  C   UNK N   1      20.445  18.915   2.762  0.00  0.00     0.276 C 
BRANCH  20  21
HETATM   21  C   UNK N   1      20.668  20.405   2.974  0.00  0.00     0.061 C 
BRANCH  21  22
HETATM   22  C   UNK N   1      20.747  21.081   1.618  0.00  0.00     0.223 C 
HETATM   23  F   UNK N   1      20.865  20.131   0.623  0.00  0.00    -0.255 F 
ENDBRANCH  21  22
ENDBRANCH  20  21
ENDBRANCH   4  20
TORSDOF 6
ENDMDL
MODEL 7
REMARK VINA RESULT:      -5.6      5.774      8.647
REMARK  6 active torsions:
REMARK  status: ('A' for Active; 'I' for Inactive)
REMARK    1  A    between atoms: N_4  and  C_13 
REMARK    2  A    between atoms: C_5  and  C_20 
REMARK    3  A    between atoms: C_6  and  C_8 
REMARK    4  A    between atoms: C_8  and  O_9 
REMARK    5  A    between atoms: C_13  and  C_14 
REMARK    6  A    between atoms: C_14  and  C_15 
ROOT
HETATM    1  C   UNK N   1      37.096  14.794  10.466  0.00  0.00     0.039 C 
HETATM    2  C   UNK N   1      37.222  13.376   9.905  0.00  0.00     0.038 C 
HETATM    3  C   UNK N   1      34.923  13.002   8.980  0.00  0.00     0.046 C 
HETATM    4  N   UNK N   1      35.320  13.457  11.356  0.00  0.00     0.098 N 
HETATM    5  C   UNK N   1      34.864  14.506   8.647  0.00  0.00     0.036 C 
HETATM    6  C   UNK N   1      34.667  15.352   9.936  0.00  0.00     0.127 C 
HETATM    7  C   UNK N   1      35.663  14.847  11.022  0.00  0.00     0.237 C 
HETATM    8  C   UNK N   1      35.851  12.749  10.183  0.00  0.00     0.224 C 
ENDROOT
BRANCH   5   9
HETATM    9  C   UNK N   1      34.132  14.830   7.356  0.00  0.00    -0.053 A 
HETATM   10  C   UNK N   1      32.731  14.824   7.306  0.00  0.00     0.009 A 
HETATM   11  C   UNK N   1      32.053  15.289   6.176  0.00  0.00     0.019 A 
HETATM   12  C   UNK N   1      32.771  15.790   5.089  0.00  0.00     0.006 A 
HETATM   13  C   UNK N   1      34.167  15.805   5.122  0.00  0.00     0.019 A 
HETATM   14  I   UNK N   1      31.747  16.569   3.425  0.00  0.00    -0.045 I 
HETATM   15  C   UNK N   1      34.843  15.331   6.251  0.00  0.00     0.009 A 
ENDBRANCH   5   9
BRANCH   6  16
HETATM   16  C   UNK N   1      34.828  16.841   9.779  0.00  0.00     0.265 C 
HETATM   17  O   UNK N   1      35.751  17.429  10.331  0.00  0.00    -0.265 OA
BRANCH  16  18
HETATM   18  O   UNK N   1      33.868  17.531   9.118  0.00  0.00    -0.326 OA
HETATM   19  C   UNK N   1      34.154  18.426   8.115  0.00  0.00     0.213 C 
ENDBRANCH  16  18
ENDBRANCH   6  16
BRANCH   4  20
HETATM   20  C   UNK N   1      36.055  12.982  12.547  0.00  0.00     0.276 C 
BRANCH  20  21
HETATM   21  C   UNK N   1      35.764  13.805  13.793  0.00  0.00     0.061 C 
BRANCH  21  22
HETATM   22  C   UNK N   1      36.683  13.337  14.907  0.00  0.00     0.223 C 
HETATM   23  F   UNK N   1      36.404  14.027  16.070  0.00  0.00    -0.255 F 
ENDBRANCH  21  22
ENDBRANCH  20  21
ENDBRANCH   4  20
TORSDOF 6
ENDMDL
MODEL 8
REMARK VINA RESULT:      -5.6      9.779     12.625
REMARK  6 active torsions:
REMARK  status: ('A' for Active; 'I' for Inactive)
REMARK    1  A    between atoms: N_4  and  C_13 
REMARK    2  A    between atoms: C_5  and  C_20 
REMARK    3  A    between atoms: C_6  and  C_8 
REMARK    4  A    between atoms: C_8  and  O_9 
REMARK    5  A    between atoms: C_13  and  C_14 
REMARK    6  A    between atoms: C_14  and  C_15 
ROOT
HETATM    1  C   UNK N   1      37.347  12.164  14.526  0.00  0.00     0.039 C 
HETATM    2  C   UNK N   1      36.920  13.475  15.191  0.00  0.00     0.038 C 
HETATM    3  C   UNK N   1      34.841  12.764  16.397  0.00  0.00     0.046 C 
HETATM    4  N   UNK N   1      35.061  12.600  13.962  0.00  0.00     0.098 N 
HETATM    5  C   UNK N   1      35.491  11.381  16.604  0.00  0.00     0.036 C 
HETATM    6  C   UNK N   1      35.504  10.573  15.276  0.00  0.00     0.127 C 
HETATM    7  C   UNK N   1      36.019  11.497  14.133  0.00  0.00     0.237 C 
HETATM    8  C   UNK N   1      35.389  13.436  15.124  0.00  0.00     0.224 C 
ENDROOT
BRANCH   5   9
HETATM    9  C   UNK N   1      35.162  10.730  17.936  0.00  0.00    -0.053 A 
HETATM   10  C   UNK N   1      35.424  11.397  19.142  0.00  0.00     0.009 A 
HETATM   11  C   UNK N   1      34.966  10.881  20.357  0.00  0.00     0.019 A 
HETATM   12  C   UNK N   1      34.218   9.703  20.379  0.00  0.00     0.006 A 
HETATM   13  C   UNK N   1      33.946   9.028  19.187  0.00  0.00     0.019 A 
HETATM   14  I   UNK N   1      33.456   8.977  22.200  0.00  0.00    -0.045 I 
HETATM   15  C   UNK N   1      34.412   9.541  17.972  0.00  0.00     0.009 A 
ENDBRANCH   5   9
BRANCH   6  16
HETATM   16  C   UNK N   1      36.318   9.306  15.284  0.00  0.00     0.265 C 
HETATM   17  O   UNK N   1      35.904   8.296  14.727  0.00  0.00    -0.265 OA
BRANCH  16  18
HETATM   18  O   UNK N   1      37.456   9.270  16.018  0.00  0.00    -0.326 OA
HETATM   19  C   UNK N   1      38.195   8.124  16.189  0.00  0.00     0.213 C 
ENDBRANCH  16  18
ENDBRANCH   6  16
BRANCH   4  20
HETATM   20  C   UNK N   1      35.342  13.384  12.741  0.00  0.00     0.276 C 
BRANCH  20  21
HETATM   21  C   UNK N   1      35.253  12.557  11.468  0.00  0.00     0.061 C 
BRANCH  21  22
HETATM   22  C   UNK N   1      36.546  12.722  10.692  0.00  0.00     0.223 C 
HETATM   23  F   UNK N   1      37.460  13.432  11.444  0.00  0.00    -0.255 F 
ENDBRANCH  21  22
ENDBRANCH  20  21
ENDBRANCH   4  20
TORSDOF 6
ENDMDL
MODEL 9
REMARK VINA RESULT:      -5.5      6.875      9.687
REMARK  6 active torsions:
REMARK  status: ('A' for Active; 'I' for Inactive)
REMARK    1  A    between atoms: N_4  and  C_13 
REMARK    2  A    between atoms: C_5  and  C_20 
REMARK    3  A    between atoms: C_6  and  C_8 
REMARK    4  A    between atoms: C_8  and  O_9 
REMARK    5  A    between atoms: C_13  and  C_14 
REMARK    6  A    between atoms: C_14  and  C_15 
ROOT
HETATM    1  C   UNK N   1      36.402  12.386  11.023  0.00  0.00     0.039 C 
HETATM    2  C   UNK N   1      37.283  13.566  11.441  0.00  0.00     0.038 C 
HETATM    3  C   UNK N   1      36.174  14.283  13.571  0.00  0.00     0.046 C 
HETATM    4  N   UNK N   1      35.000  14.285  11.419  0.00  0.00     0.098 N 
HETATM    5  C   UNK N   1      35.815  12.806  13.826  0.00  0.00     0.036 C 
HETATM    6  C   UNK N   1      34.666  12.345  12.887  0.00  0.00     0.127 C 
HETATM    7  C   UNK N   1      34.985  12.815  11.437  0.00  0.00     0.237 C 
HETATM    8  C   UNK N   1      36.293  14.559  12.060  0.00  0.00     0.224 C 
ENDROOT
BRANCH   5   9
HETATM    9  C   UNK N   1      35.872  12.394  15.287  0.00  0.00    -0.053 A 
HETATM   10  C   UNK N   1      35.223  13.154  16.270  0.00  0.00     0.009 A 
HETATM   11  C   UNK N   1      35.124  12.689  17.584  0.00  0.00     0.019 A 
HETATM   12  C   UNK N   1      35.652  11.443  17.925  0.00  0.00     0.006 A 
HETATM   13  C   UNK N   1      36.300  10.672  16.959  0.00  0.00     0.019 A 
HETATM   14  I   UNK N   1      35.425  10.707  19.883  0.00  0.00    -0.045 I 
HETATM   15  C   UNK N   1      36.406  11.143  15.646  0.00  0.00     0.009 A 
ENDBRANCH   5   9
BRANCH   6  16
HETATM   16  C   UNK N   1      34.381  10.866  12.869  0.00  0.00     0.265 C 
HETATM   17  O   UNK N   1      33.330  10.428  13.322  0.00  0.00    -0.265 OA
BRANCH  16  18
HETATM   18  O   UNK N   1      35.357  10.022  12.455  0.00  0.00    -0.326 OA
HETATM   19  C   UNK N   1      35.307   8.666  12.670  0.00  0.00     0.213 C 
ENDBRANCH  16  18
ENDBRANCH   6  16
BRANCH   4  20
HETATM   20  C   UNK N   1      35.052  14.816  10.041  0.00  0.00     0.276 C 
BRANCH  20  21
HETATM   21  C   UNK N   1      35.181  16.331   9.990  0.00  0.00     0.061 C 
BRANCH  21  22
HETATM   22  C   UNK N   1      34.216  16.864   8.947  0.00  0.00     0.223 C 
HETATM   23  F   UNK N   1      34.457  18.205   8.723  0.00  0.00    -0.255 F 
ENDBRANCH  21  22
ENDBRANCH  20  21
ENDBRANCH   4  20
TORSDOF 6
ENDMDL
