REMARK  2 active torsions:
REMARK  status: ('A' for Active; 'I' for Inactive)
REMARK    1  A    between atoms: O_19  and  C_9 
REMARK    2  A    between atoms: O_20  and  C_10 
REMARK       I    between atoms: N_18  and  C_11 
ROOT
HETATM    1  C   UNK N   1       1.513  -3.267  -0.004  0.00  0.00     0.069 C 
HETATM    2  C   UNK N   1       3.194   5.063   0.006  0.00  0.00     0.070 C 
HETATM    3  C   UNK N   1      -0.251  -1.501   0.001  0.00  0.00     0.081 A 
HETATM    4  C   UNK N   1       4.472   2.852  -0.014  0.00  0.00     0.084 A 
HETATM    5  C   UNK N   1       1.102  -1.840   0.000  0.00  0.00     0.027 A 
HETATM    6  C   UNK N   1       3.304   3.582   0.003  0.00  0.00     0.027 A 
HETATM    7  C   UNK N   1      -0.598  -0.144   0.005  0.00  0.00     0.158 A 
HETATM    8  C   UNK N   1       4.046   1.536  -0.011  0.00  0.00     0.183 A 
HETATM    9  C   UNK N   1       1.700   0.449   0.008  0.00  0.00     0.708 A 
HETATM   10  N   UNK N   1       2.046  -0.862   0.003  0.00  0.00    -0.194 N 
ATOM     11  HN  UNK N   1       3.033  -1.120   0.001  1.00  0.00     0.184 HD
HETATM   12  N   UNK N   1       0.382   0.788   0.010  0.00  0.00    -0.169 N 
ATOM     13  HN  UNK N   1       0.126   1.775   0.014  1.00  0.00     0.186 HD
HETATM   14  N   UNK N   1       2.246   2.761   0.014  0.00  0.00    -0.282 N 
ATOM     15  HN  UNK N   1       1.269   3.052   0.027  1.00  0.00     0.188 HD
HETATM   16  N   UNK N   1       2.676   1.510   0.005  0.00  0.00    -0.063 N 
ENDROOT
BRANCH   7  17
HETATM   17  O   UNK N   1      -1.887   0.268   0.004  0.00  0.00    -0.340 OA
HETATM   18  C   UNK N   1      -2.959  -0.593  -0.002  0.00  0.00     0.211 C 
ENDBRANCH   7  17
BRANCH   8  19
HETATM   19  O   UNK N   1       4.935   0.508  -0.026  0.00  0.00    -0.339 OA
HETATM   20  C   UNK N   1       4.677  -0.836  -0.002  0.00  0.00     0.211 C 
ENDBRANCH   8  19
TORSDOF 2
