MODEL 1
REMARK VINA RESULT:      -6.0      0.000      0.000
REMARK  3 active torsions:
REMARK  status: ('A' for Active; 'I' for Inactive)
REMARK    1  A    between atoms: C_2  and  O_1 
REMARK    2  A    between atoms: C_3  and  O_1 
REMARK    3  A    between atoms: O_13  and  C_5 
ROOT
HETATM    1  C   UNK N   1      26.185  23.024  -6.447  0.00  0.00     0.109 A 
HETATM    2  C   UNK N   1      25.532  22.191  -7.373  0.00  0.00     0.101 A 
HETATM    3  C   UNK N   1      26.278  21.442  -8.294  0.00  0.00     0.063 A 
HETATM    4  C   UNK N   1      27.589  23.084  -6.470  0.00  0.00     0.042 A 
HETATM    5  C   UNK N   1      27.675  21.518  -8.297  0.00  0.00     0.036 A 
HETATM    6  C   UNK N   1      28.329  22.340  -7.385  0.00  0.00     0.027 A 
HETATM    7 Cl   UNK N   1      28.612  20.586  -9.443  0.00  0.00    -0.084 Cl
ENDROOT
BRANCH   1   8
HETATM    8  O   UNK N   1      25.442  23.749  -5.552  0.00  0.00    -0.306 OA
BRANCH   8   9
HETATM    9  C   UNK N   1      25.623  25.049  -5.163  0.00  0.00     0.098 A 
HETATM   10  C   UNK N   1      26.359  25.331  -3.994  0.00  0.00     0.069 A 
HETATM   11  C   UNK N   1      26.552  26.658  -3.589  0.00  0.00     0.050 A 
HETATM   12 Cl   UNK N   1      27.046  24.038  -3.028  0.00  0.00    -0.081 Cl
HETATM   13  C   UNK N   1      26.019  27.710  -4.337  0.00  0.00     0.035 A 
HETATM   14  C   UNK N   1      25.290  27.442  -5.492  0.00  0.00     0.026 A 
HETATM   15 Cl   UNK N   1      26.260  29.368  -3.835  0.00  0.00    -0.084 Cl
HETATM   16  C   UNK N   1      25.096  26.125  -5.898  0.00  0.00     0.041 A 
ENDBRANCH   8   9
ENDBRANCH   1   8
BRANCH   2  17
HETATM   17  O   UNK N   1      24.192  22.104  -7.384  0.00  0.00    -0.358 OA
HETATM   18  H   UNK N   1      23.730  21.875  -6.602  0.00  0.00     0.217 HD
ENDBRANCH   2  17
TORSDOF 3
ENDMDL
MODEL 2
REMARK VINA RESULT:      -5.9     23.554     24.874
REMARK  3 active torsions:
REMARK  status: ('A' for Active; 'I' for Inactive)
REMARK    1  A    between atoms: C_2  and  O_1 
REMARK    2  A    between atoms: C_3  and  O_1 
REMARK    3  A    between atoms: O_13  and  C_5 
ROOT
HETATM    1  C   UNK N   1      35.407  13.403  12.612  0.00  0.00     0.109 A 
HETATM    2  C   UNK N   1      34.992  14.167  11.506  0.00  0.00     0.101 A 
HETATM    3  C   UNK N   1      35.849  14.338  10.409  0.00  0.00     0.063 A 
HETATM    4  C   UNK N   1      36.686  12.823  12.588  0.00  0.00     0.042 A 
HETATM    5  C   UNK N   1      37.118  13.750  10.407  0.00  0.00     0.036 A 
HETATM    6  C   UNK N   1      37.536  12.993  11.497  0.00  0.00     0.027 A 
HETATM    7 Cl   UNK N   1      38.191  13.958   9.041  0.00  0.00    -0.084 Cl
ENDROOT
BRANCH   1   8
HETATM    8  O   UNK N   1      34.558  13.245  13.676  0.00  0.00    -0.306 OA
BRANCH   8   9
HETATM    9  C   UNK N   1      34.736  12.467  14.788  0.00  0.00     0.098 A 
HETATM   10  C   UNK N   1      34.395  11.099  14.744  0.00  0.00     0.069 A 
HETATM   11  C   UNK N   1      34.576  10.293  15.876  0.00  0.00     0.050 A 
HETATM   12 Cl   UNK N   1      33.743  10.379  13.283  0.00  0.00    -0.081 Cl
HETATM   13  C   UNK N   1      35.094  10.836  17.054  0.00  0.00     0.035 A 
HETATM   14  C   UNK N   1      35.432  12.185  17.109  0.00  0.00     0.026 A 
HETATM   15 Cl   UNK N   1      35.322   9.833  18.469  0.00  0.00    -0.084 Cl
HETATM   16  C   UNK N   1      35.254  12.988  15.986  0.00  0.00     0.041 A 
ENDBRANCH   8   9
ENDBRANCH   1   8
BRANCH   2  17
HETATM   17  O   UNK N   1      33.777  14.738  11.489  0.00  0.00    -0.358 OA
HETATM   18  H   UNK N   1      33.456  15.180  12.250  0.00  0.00     0.217 HD
ENDBRANCH   2  17
TORSDOF 3
ENDMDL
MODEL 3
REMARK VINA RESULT:      -5.9     19.081     20.667
REMARK  3 active torsions:
REMARK  status: ('A' for Active; 'I' for Inactive)
REMARK    1  A    between atoms: C_2  and  O_1 
REMARK    2  A    between atoms: C_3  and  O_1 
REMARK    3  A    between atoms: O_13  and  C_5 
ROOT
HETATM    1  C   UNK N   1      34.551  16.692   9.210  0.00  0.00     0.109 A 
HETATM    2  C   UNK N   1      34.326  17.914   8.552  0.00  0.00     0.101 A 
HETATM    3  C   UNK N   1      33.106  18.148   7.900  0.00  0.00     0.063 A 
HETATM    4  C   UNK N   1      33.533  15.724   9.199  0.00  0.00     0.042 A 
HETATM    5  C   UNK N   1      32.107  17.169   7.903  0.00  0.00     0.036 A 
HETATM    6  C   UNK N   1      32.322  15.958   8.552  0.00  0.00     0.027 A 
HETATM    7 Cl   UNK N   1      30.583  17.455   7.093  0.00  0.00    -0.084 Cl
ENDROOT
BRANCH   1   8
HETATM    8  O   UNK N   1      35.748  16.479   9.843  0.00  0.00    -0.306 OA
BRANCH   8   9
HETATM    9  C   UNK N   1      36.074  15.475  10.715  0.00  0.00     0.098 A 
HETATM   10  C   UNK N   1      36.716  14.315  10.235  0.00  0.00     0.069 A 
HETATM   11  C   UNK N   1      37.055  13.283  11.119  0.00  0.00     0.050 A 
HETATM   12 Cl   UNK N   1      37.102  14.138   8.532  0.00  0.00    -0.081 Cl
HETATM   13  C   UNK N   1      36.762  13.394  12.481  0.00  0.00     0.035 A 
HETATM   14  C   UNK N   1      36.128  14.534  12.965  0.00  0.00     0.026 A 
HETATM   15 Cl   UNK N   1      37.187  12.108  13.588  0.00  0.00    -0.084 Cl
HETATM   16  C   UNK N   1      35.789  15.562  12.089  0.00  0.00     0.041 A 
ENDBRANCH   8   9
ENDBRANCH   1   8
BRANCH   2  17
HETATM   17  O   UNK N   1      35.274  18.866   8.540  0.00  0.00    -0.358 OA
HETATM   18  H   UNK N   1      35.206  19.587   7.947  0.00  0.00     0.217 HD
ENDBRANCH   2  17
TORSDOF 3
ENDMDL
MODEL 4
REMARK VINA RESULT:      -5.9     23.226     24.525
REMARK  3 active torsions:
REMARK  status: ('A' for Active; 'I' for Inactive)
REMARK    1  A    between atoms: C_2  and  O_1 
REMARK    2  A    between atoms: C_3  and  O_1 
REMARK    3  A    between atoms: O_13  and  C_5 
ROOT
HETATM    1  C   UNK N   1      35.498  13.682  12.310  0.00  0.00     0.109 A 
HETATM    2  C   UNK N   1      34.841  14.276  11.217  0.00  0.00     0.101 A 
HETATM    3  C   UNK N   1      35.465  14.323   9.962  0.00  0.00     0.063 A 
HETATM    4  C   UNK N   1      36.781  13.143  12.111  0.00  0.00     0.042 A 
HETATM    5  C   UNK N   1      36.742  13.779   9.789  0.00  0.00     0.036 A 
HETATM    6  C   UNK N   1      37.399  13.190  10.865  0.00  0.00     0.027 A 
HETATM    7 Cl   UNK N   1      37.526  13.834   8.226  0.00  0.00    -0.084 Cl
ENDROOT
BRANCH   1   8
HETATM    8  O   UNK N   1      34.875  13.643  13.529  0.00  0.00    -0.306 OA
BRANCH   8   9
HETATM    9  C   UNK N   1      34.888  12.631  14.451  0.00  0.00     0.098 A 
HETATM   10  C   UNK N   1      35.708  12.738  15.593  0.00  0.00     0.069 A 
HETATM   11  C   UNK N   1      35.727  11.709  16.543  0.00  0.00     0.050 A 
HETATM   12 Cl   UNK N   1      36.715  14.151  15.850  0.00  0.00    -0.081 Cl
HETATM   13  C   UNK N   1      34.935  10.571  16.368  0.00  0.00     0.035 A 
HETATM   14  C   UNK N   1      34.123  10.455  15.244  0.00  0.00     0.026 A 
HETATM   15 Cl   UNK N   1      34.955   9.285  17.554  0.00  0.00    -0.084 Cl
HETATM   16  C   UNK N   1      34.102  11.475  14.298  0.00  0.00     0.041 A 
ENDBRANCH   8   9
ENDBRANCH   1   8
BRANCH   2  17
HETATM   17  O   UNK N   1      33.614  14.802  11.364  0.00  0.00    -0.358 OA
HETATM   18  H   UNK N   1      33.038  14.470  12.023  0.00  0.00     0.217 HD
ENDBRANCH   2  17
TORSDOF 3
ENDMDL
MODEL 5
REMARK VINA RESULT:      -5.9      1.482      6.216
REMARK  3 active torsions:
REMARK  status: ('A' for Active; 'I' for Inactive)
REMARK    1  A    between atoms: C_2  and  O_1 
REMARK    2  A    between atoms: C_3  and  O_1 
REMARK    3  A    between atoms: O_13  and  C_5 
ROOT
HETATM    1  C   UNK N   1      25.603  25.031  -5.211  0.00  0.00     0.109 A 
HETATM    2  C   UNK N   1      26.212  25.207  -3.955  0.00  0.00     0.101 A 
HETATM    3  C   UNK N   1      26.392  26.497  -3.436  0.00  0.00     0.063 A 
HETATM    4  C   UNK N   1      25.185  26.169  -5.921  0.00  0.00     0.042 A 
HETATM    5  C   UNK N   1      25.968  27.615  -4.161  0.00  0.00     0.036 A 
HETATM    6  C   UNK N   1      25.365  27.450  -5.404  0.00  0.00     0.027 A 
HETATM    7 Cl   UNK N   1      26.189  29.227  -3.518  0.00  0.00    -0.084 Cl
ENDROOT
BRANCH   1   8
HETATM    8  O   UNK N   1      25.433  23.764  -5.705  0.00  0.00    -0.306 OA
BRANCH   8   9
HETATM    9  C   UNK N   1      26.192  23.115  -6.641  0.00  0.00     0.098 A 
HETATM   10  C   UNK N   1      25.714  21.921  -7.219  0.00  0.00     0.069 A 
HETATM   11  C   UNK N   1      26.482  21.249  -8.179  0.00  0.00     0.050 A 
HETATM   12 Cl   UNK N   1      24.160  21.253  -6.754  0.00  0.00    -0.081 Cl
HETATM   13  C   UNK N   1      27.724  21.756  -8.571  0.00  0.00     0.035 A 
HETATM   14  C   UNK N   1      28.205  22.933  -8.006  0.00  0.00     0.026 A 
HETATM   15 Cl   UNK N   1      28.684  20.921  -9.772  0.00  0.00    -0.084 Cl
HETATM   16  C   UNK N   1      27.444  23.603  -7.052  0.00  0.00     0.041 A 
ENDBRANCH   8   9
ENDBRANCH   1   8
BRANCH   2  17
HETATM   17  O   UNK N   1      26.625  24.145  -3.244  0.00  0.00    -0.358 OA
HETATM   18  H   UNK N   1      26.239  23.960  -2.411  0.00  0.00     0.217 HD
ENDBRANCH   2  17
TORSDOF 3
ENDMDL
MODEL 6
REMARK VINA RESULT:      -5.8     12.864     14.468
REMARK  3 active torsions:
REMARK  status: ('A' for Active; 'I' for Inactive)
REMARK    1  A    between atoms: C_2  and  O_1 
REMARK    2  A    between atoms: C_3  and  O_1 
REMARK    3  A    between atoms: O_13  and  C_5 
ROOT
HETATM    1  C   UNK N   1      27.567  18.063   5.600  0.00  0.00     0.109 A 
HETATM    2  C   UNK N   1      26.254  17.727   5.225  0.00  0.00     0.101 A 
HETATM    3  C   UNK N   1      25.569  18.510   4.285  0.00  0.00     0.063 A 
HETATM    4  C   UNK N   1      28.166  19.191   5.014  0.00  0.00     0.042 A 
HETATM    5  C   UNK N   1      26.186  19.627   3.715  0.00  0.00     0.036 A 
HETATM    6  C   UNK N   1      27.484  19.967   4.080  0.00  0.00     0.027 A 
HETATM    7 Cl   UNK N   1      25.337  20.608   2.540  0.00  0.00    -0.084 Cl
ENDROOT
BRANCH   1   8
HETATM    8  O   UNK N   1      28.224  17.288   6.520  0.00  0.00    -0.306 OA
BRANCH   8   9
HETATM    9  C   UNK N   1      29.516  17.411   6.957  0.00  0.00     0.098 A 
HETATM   10  C   UNK N   1      29.770  17.944   8.237  0.00  0.00     0.069 A 
HETATM   11  C   UNK N   1      31.088  18.073   8.696  0.00  0.00     0.050 A 
HETATM   12 Cl   UNK N   1      28.454  18.456   9.279  0.00  0.00    -0.081 Cl
HETATM   13  C   UNK N   1      32.158  17.673   7.891  0.00  0.00     0.035 A 
HETATM   14  C   UNK N   1      31.917  17.146   6.626  0.00  0.00     0.026 A 
HETATM   15 Cl   UNK N   1      33.804  17.829   8.461  0.00  0.00    -0.084 Cl
HETATM   16  C   UNK N   1      30.610  17.017   6.167  0.00  0.00     0.041 A 
ENDBRANCH   8   9
ENDBRANCH   1   8
BRANCH   2  17
HETATM   17  O   UNK N   1      25.646  16.656   5.762  0.00  0.00    -0.358 OA
HETATM   18  H   UNK N   1      25.644  15.840   5.303  0.00  0.00     0.217 HD
ENDBRANCH   2  17
TORSDOF 3
ENDMDL
MODEL 7
REMARK VINA RESULT:      -5.7     12.885     14.501
REMARK  3 active torsions:
REMARK  status: ('A' for Active; 'I' for Inactive)
REMARK    1  A    between atoms: C_2  and  O_1 
REMARK    2  A    between atoms: C_3  and  O_1 
REMARK    3  A    between atoms: O_13  and  C_5 
ROOT
HETATM    1  C   UNK N   1      29.067  17.681   7.253  0.00  0.00     0.109 A 
HETATM    2  C   UNK N   1      29.405  18.197   8.517  0.00  0.00     0.101 A 
HETATM    3  C   UNK N   1      30.741  18.195   8.943  0.00  0.00     0.063 A 
HETATM    4  C   UNK N   1      30.092  17.172   6.438  0.00  0.00     0.042 A 
HETATM    5  C   UNK N   1      31.744  17.684   8.114  0.00  0.00     0.036 A 
HETATM    6  C   UNK N   1      31.418  17.172   6.862  0.00  0.00     0.027 A 
HETATM    7 Cl   UNK N   1      33.413  17.680   8.638  0.00  0.00    -0.084 Cl
ENDROOT
BRANCH   1   8
HETATM    8  O   UNK N   1      27.757  17.690   6.851  0.00  0.00    -0.306 OA
BRANCH   8   9
HETATM    9  C   UNK N   1      27.198  18.383   5.811  0.00  0.00     0.098 A 
HETATM   10  C   UNK N   1      26.540  17.682   4.780  0.00  0.00     0.069 A 
HETATM   11  C   UNK N   1      25.964  18.382   3.712  0.00  0.00     0.050 A 
HETATM   12 Cl   UNK N   1      26.428  15.932   4.809  0.00  0.00    -0.081 Cl
HETATM   13  C   UNK N   1      26.035  19.776   3.660  0.00  0.00     0.035 A 
HETATM   14  C   UNK N   1      26.683  20.477   4.672  0.00  0.00     0.026 A 
HETATM   15 Cl   UNK N   1      25.314  20.653   2.329  0.00  0.00    -0.084 Cl
HETATM   16  C   UNK N   1      27.257  19.785   5.735  0.00  0.00     0.041 A 
ENDBRANCH   8   9
ENDBRANCH   1   8
BRANCH   2  17
HETATM   17  O   UNK N   1      28.455  18.693   9.327  0.00  0.00    -0.358 OA
HETATM   18  H   UNK N   1      28.420  18.430  10.225  0.00  0.00     0.217 HD
ENDBRANCH   2  17
TORSDOF 3
ENDMDL
MODEL 8
REMARK VINA RESULT:      -5.7     21.311     22.805
REMARK  3 active torsions:
REMARK  status: ('A' for Active; 'I' for Inactive)
REMARK    1  A    between atoms: C_2  and  O_1 
REMARK    2  A    between atoms: C_3  and  O_1 
REMARK    3  A    between atoms: O_13  and  C_5 
ROOT
HETATM    1  C   UNK N   1      35.125  14.589  10.622  0.00  0.00     0.109 A 
HETATM    2  C   UNK N   1      35.714  15.851  10.423  0.00  0.00     0.101 A 
HETATM    3  C   UNK N   1      35.028  16.841   9.703  0.00  0.00     0.063 A 
HETATM    4  C   UNK N   1      33.847  14.351  10.089  0.00  0.00     0.042 A 
HETATM    5  C   UNK N   1      33.757  16.580   9.182  0.00  0.00     0.036 A 
HETATM    6  C   UNK N   1      33.168  15.335   9.375  0.00  0.00     0.027 A 
HETATM    7 Cl   UNK N   1      32.896  17.811   8.285  0.00  0.00    -0.084 Cl
ENDROOT
BRANCH   1   8
HETATM    8  O   UNK N   1      35.807  13.632  11.328  0.00  0.00    -0.306 OA
BRANCH   8   9
HETATM    9  C   UNK N   1      35.669  13.300  12.649  0.00  0.00     0.098 A 
HETATM   10  C   UNK N   1      35.007  12.107  13.002  0.00  0.00     0.069 A 
HETATM   11  C   UNK N   1      34.862  11.756  14.351  0.00  0.00     0.050 A 
HETATM   12 Cl   UNK N   1      34.354  11.040  11.772  0.00  0.00    -0.081 Cl
HETATM   13  C   UNK N   1      35.372  12.584  15.354  0.00  0.00     0.035 A 
HETATM   14  C   UNK N   1      36.026  13.765  15.016  0.00  0.00     0.026 A 
HETATM   15 Cl   UNK N   1      35.196  12.149  17.039  0.00  0.00    -0.084 Cl
HETATM   16  C   UNK N   1      36.172  14.116  13.677  0.00  0.00     0.041 A 
ENDBRANCH   8   9
ENDBRANCH   1   8
BRANCH   2  17
HETATM   17  O   UNK N   1      36.934  16.119  10.916  0.00  0.00    -0.358 OA
HETATM   18  H   UNK N   1      37.204  15.741  11.729  0.00  0.00     0.217 HD
ENDBRANCH   2  17
TORSDOF 3
ENDMDL
MODEL 9
REMARK VINA RESULT:      -5.7      3.429      6.584
REMARK  3 active torsions:
REMARK  status: ('A' for Active; 'I' for Inactive)
REMARK    1  A    between atoms: C_2  and  O_1 
REMARK    2  A    between atoms: C_3  and  O_1 
REMARK    3  A    between atoms: O_13  and  C_5 
ROOT
HETATM    1  C   UNK N   1      27.889  24.831  -4.601  0.00  0.00     0.109 A 
HETATM    2  C   UNK N   1      26.875  25.029  -3.645  0.00  0.00     0.101 A 
HETATM    3  C   UNK N   1      26.379  26.318  -3.403  0.00  0.00     0.063 A 
HETATM    4  C   UNK N   1      28.383  25.947  -5.297  0.00  0.00     0.042 A 
HETATM    5  C   UNK N   1      26.888  27.413  -4.109  0.00  0.00     0.036 A 
HETATM    6  C   UNK N   1      27.890  27.226  -5.055  0.00  0.00     0.027 A 
HETATM    7 Cl   UNK N   1      26.273  29.024  -3.811  0.00  0.00    -0.084 Cl
ENDROOT
BRANCH   1   8
HETATM    8  O   UNK N   1      28.362  23.565  -4.827  0.00  0.00    -0.306 OA
BRANCH   8   9
HETATM    9  C   UNK N   1      29.480  22.976  -4.301  0.00  0.00     0.098 A 
HETATM   10  C   UNK N   1      30.090  21.904  -4.983  0.00  0.00     0.069 A 
HETATM   11  C   UNK N   1      31.235  21.294  -4.454  0.00  0.00     0.050 A 
HETATM   12 Cl   UNK N   1      29.435  21.310  -6.499  0.00  0.00    -0.081 Cl
HETATM   13  C   UNK N   1      31.782  21.744  -3.249  0.00  0.00     0.035 A 
HETATM   14  C   UNK N   1      31.187  22.801  -2.567  0.00  0.00     0.026 A 
HETATM   15 Cl   UNK N   1      33.213  20.988  -2.587  0.00  0.00    -0.084 Cl
HETATM   16  C   UNK N   1      30.049  23.409  -3.090  0.00  0.00     0.041 A 
ENDBRANCH   8   9
ENDBRANCH   1   8
BRANCH   2  17
HETATM   17  O   UNK N   1      26.375  23.989  -2.959  0.00  0.00    -0.358 OA
HETATM   18  H   UNK N   1      26.002  24.123  -2.110  0.00  0.00     0.217 HD
ENDBRANCH   2  17
TORSDOF 3
ENDMDL
