MODEL 1
REMARK VINA RESULT:      -5.9      0.000      0.000
REMARK  5 active torsions:
REMARK  status: ('A' for Active; 'I' for Inactive)
REMARK    1  A    between atoms: O_17  and  C_5 
REMARK    2  A    between atoms: C_10  and  C_6 
REMARK    3  A    between atoms: C_9  and  C_7 
REMARK    4  A    between atoms: O_17  and  C_8 
REMARK    5  A    between atoms: O_16  and  C_9 
ROOT
HETATM    1  C   UNK N   1      30.024  17.395   7.141  0.00  0.00     0.017 A 
HETATM    2  C   UNK N   1      31.019  17.181   6.189  0.00  0.00     0.022 A 
HETATM    3  C   UNK N   1      31.712  17.932   8.778  0.00  0.00     0.054 A 
HETATM    4  C   UNK N   1      30.364  17.780   8.440  0.00  0.00     0.050 A 
HETATM    5  C   UNK N   1      32.376  17.326   6.521  0.00  0.00     0.071 A 
HETATM    6  C   UNK N   1      32.731  17.698   7.841  0.00  0.00     0.096 A 
ENDROOT
BRANCH   4   7
HETATM    7  C   UNK N   1      29.303  18.016   9.476  0.00  0.00     0.417 C 
HETATM    8  F   UNK N   1      28.137  18.427   8.859  0.00  0.00    -0.166 F 
HETATM    9  F   UNK N   1      29.722  19.001  10.352  0.00  0.00    -0.166 F 
HETATM   10  F   UNK N   1      29.045  16.862  10.197  0.00  0.00    -0.166 F 
ENDBRANCH   4   7
BRANCH   6  11
HETATM   11  O   UNK N   1      34.049  17.808   8.177  0.00  0.00    -0.278 OA
BRANCH  11  12
HETATM   12  C   UNK N   1      34.755  17.151   9.142  0.00  0.00     0.260 C 
HETATM   13  C   UNK N   1      34.790  15.659   9.255  0.00  0.00     0.126 C 
HETATM   14  O   UNK N   1      35.401  17.805   9.943  0.00  0.00    -0.265 OA
ENDBRANCH  11  12
ENDBRANCH   6  11
BRANCH   5  15
HETATM   15  C   UNK N   1      33.395  17.070   5.468  0.00  0.00     0.178 C 
HETATM   16  O   UNK N   1      33.171  17.383   4.310  0.00  0.00    -0.646 OA
BRANCH  15  17
HETATM   17  O   UNK N   1      34.574  16.490   5.771  0.00  0.00    -0.773 OA
HETATM   18  H   UNK N   1      34.609  15.576   5.978  0.00  0.00     0.167 HD
ENDBRANCH  15  17
ENDBRANCH   5  15
TORSDOF 5
ENDMDL
MODEL 2
REMARK VINA RESULT:      -5.8      9.953     11.788
REMARK  5 active torsions:
REMARK  status: ('A' for Active; 'I' for Inactive)
REMARK    1  A    between atoms: O_17  and  C_5 
REMARK    2  A    between atoms: C_10  and  C_6 
REMARK    3  A    between atoms: C_9  and  C_7 
REMARK    4  A    between atoms: O_17  and  C_8 
REMARK    5  A    between atoms: O_16  and  C_9 
ROOT
HETATM    1  C   UNK N   1      20.257  17.240   2.775  0.00  0.00     0.017 A 
HETATM    2  C   UNK N   1      20.184  18.361   1.951  0.00  0.00     0.022 A 
HETATM    3  C   UNK N   1      22.061  18.267   4.004  0.00  0.00     0.054 A 
HETATM    4  C   UNK N   1      21.192  17.189   3.813  0.00  0.00     0.050 A 
HETATM    5  C   UNK N   1      21.057  19.446   2.131  0.00  0.00     0.071 A 
HETATM    6  C   UNK N   1      22.020  19.397   3.169  0.00  0.00     0.096 A 
ENDROOT
BRANCH   4   7
HETATM    7  C   UNK N   1      21.282  15.990   4.711  0.00  0.00     0.417 C 
HETATM    8  F   UNK N   1      20.147  15.214   4.562  0.00  0.00    -0.166 F 
HETATM    9  F   UNK N   1      21.377  16.403   6.027  0.00  0.00    -0.166 F 
HETATM   10  F   UNK N   1      22.393  15.221   4.406  0.00  0.00    -0.166 F 
ENDBRANCH   4   7
BRANCH   6  11
HETATM   11  O   UNK N   1      22.892  20.434   3.327  0.00  0.00    -0.278 OA
BRANCH  11  12
HETATM   12  C   UNK N   1      24.231  20.488   3.066  0.00  0.00     0.260 C 
HETATM   13  C   UNK N   1      25.275  20.185   4.093  0.00  0.00     0.126 C 
HETATM   14  O   UNK N   1      24.597  20.780   1.940  0.00  0.00    -0.265 OA
ENDBRANCH  11  12
ENDBRANCH   6  11
BRANCH   5  15
HETATM   15  C   UNK N   1      20.942  20.609   1.210  0.00  0.00     0.178 C 
HETATM   16  O   UNK N   1      20.929  20.435   0.003  0.00  0.00    -0.646 OA
BRANCH  15  17
HETATM   17  O   UNK N   1      20.852  21.866   1.690  0.00  0.00    -0.773 OA
HETATM   18  H   UNK N   1      20.749  22.588   1.101  0.00  0.00     0.167 HD
ENDBRANCH  15  17
ENDBRANCH   5  15
TORSDOF 5
ENDMDL
MODEL 3
REMARK VINA RESULT:      -5.7     12.951     14.887
REMARK  5 active torsions:
REMARK  status: ('A' for Active; 'I' for Inactive)
REMARK    1  A    between atoms: O_17  and  C_5 
REMARK    2  A    between atoms: C_10  and  C_6 
REMARK    3  A    between atoms: C_9  and  C_7 
REMARK    4  A    between atoms: O_17  and  C_8 
REMARK    5  A    between atoms: O_16  and  C_9 
ROOT
HETATM    1  C   UNK N   1      30.228  20.758  -5.868  0.00  0.00     0.017 A 
HETATM    2  C   UNK N   1      30.744  21.044  -4.605  0.00  0.00     0.022 A 
HETATM    3  C   UNK N   1      28.804  22.700  -5.719  0.00  0.00     0.054 A 
HETATM    4  C   UNK N   1      29.260  21.589  -6.436  0.00  0.00     0.050 A 
HETATM    5  C   UNK N   1      30.290  22.154  -3.875  0.00  0.00     0.071 A 
HETATM    6  C   UNK N   1      29.295  22.992  -4.436  0.00  0.00     0.096 A 
ENDROOT
BRANCH   4   7
HETATM    7  C   UNK N   1      28.694  21.296  -7.796  0.00  0.00     0.417 C 
HETATM    8  F   UNK N   1      29.437  21.956  -8.757  0.00  0.00    -0.166 F 
HETATM    9  F   UNK N   1      27.384  21.735  -7.857  0.00  0.00    -0.166 F 
HETATM   10  F   UNK N   1      28.720  19.938  -8.065  0.00  0.00    -0.166 F 
ENDBRANCH   4   7
BRANCH   6  11
HETATM   11  O   UNK N   1      28.825  24.052  -3.716  0.00  0.00    -0.278 OA
BRANCH  11  12
HETATM   12  C   UNK N   1      27.564  24.297  -3.256  0.00  0.00     0.260 C 
HETATM   13  C   UNK N   1      26.612  25.226  -3.940  0.00  0.00     0.126 C 
HETATM   14  O   UNK N   1      27.186  23.720  -2.250  0.00  0.00    -0.265 OA
ENDBRANCH  11  12
ENDBRANCH   6  11
BRANCH   5  15
HETATM   15  C   UNK N   1      30.867  22.400  -2.526  0.00  0.00     0.178 C 
HETATM   16  O   UNK N   1      31.998  22.023  -2.266  0.00  0.00    -0.646 OA
BRANCH  15  17
HETATM   17  O   UNK N   1      30.155  23.038  -1.575  0.00  0.00    -0.773 OA
HETATM   18  H   UNK N   1      30.492  23.106  -0.702  0.00  0.00     0.167 HD
ENDBRANCH  15  17
ENDBRANCH   5  15
TORSDOF 5
ENDMDL
MODEL 4
REMARK VINA RESULT:      -5.7      3.151      4.647
REMARK  5 active torsions:
REMARK  status: ('A' for Active; 'I' for Inactive)
REMARK    1  A    between atoms: O_17  and  C_5 
REMARK    2  A    between atoms: C_10  and  C_6 
REMARK    3  A    between atoms: C_9  and  C_7 
REMARK    4  A    between atoms: O_17  and  C_8 
REMARK    5  A    between atoms: O_16  and  C_9 
ROOT
HETATM    1  C   UNK N   1      33.055  17.302   4.853  0.00  0.00     0.017 A 
HETATM    2  C   UNK N   1      33.815  17.656   5.966  0.00  0.00     0.022 A 
HETATM    3  C   UNK N   1      31.127  17.001   6.270  0.00  0.00     0.054 A 
HETATM    4  C   UNK N   1      31.703  16.980   4.997  0.00  0.00     0.050 A 
HETATM    5  C   UNK N   1      33.246  17.675   7.250  0.00  0.00     0.071 A 
HETATM    6  C   UNK N   1      31.881  17.332   7.408  0.00  0.00     0.096 A 
ENDROOT
BRANCH   4   7
HETATM    7  C   UNK N   1      30.871  16.598   3.807  0.00  0.00     0.417 C 
HETATM    8  F   UNK N   1      31.514  16.990   2.648  0.00  0.00    -0.166 F 
HETATM    9  F   UNK N   1      29.643  17.232   3.878  0.00  0.00    -0.166 F 
HETATM   10  F   UNK N   1      30.662  15.230   3.762  0.00  0.00    -0.166 F 
ENDBRANCH   4   7
BRANCH   6  11
HETATM   11  O   UNK N   1      31.332  17.316   8.658  0.00  0.00    -0.278 OA
BRANCH  11  12
HETATM   12  C   UNK N   1      30.281  18.033   9.152  0.00  0.00     0.260 C 
HETATM   13  C   UNK N   1      29.028  17.396   9.664  0.00  0.00     0.126 C 
HETATM   14  O   UNK N   1      30.370  19.249   9.195  0.00  0.00    -0.265 OA
ENDBRANCH  11  12
ENDBRANCH   6  11
BRANCH   5  15
HETATM   15  C   UNK N   1      34.110  18.046   8.403  0.00  0.00     0.178 C 
HETATM   16  O   UNK N   1      34.889  18.980   8.308  0.00  0.00    -0.646 OA
BRANCH  15  17
HETATM   17  O   UNK N   1      34.048  17.361   9.563  0.00  0.00    -0.773 OA
HETATM   18  H   UNK N   1      34.579  17.621  10.291  0.00  0.00     0.167 HD
ENDBRANCH  15  17
ENDBRANCH   5  15
TORSDOF 5
ENDMDL
MODEL 5
REMARK VINA RESULT:      -5.7      9.867     11.707
REMARK  5 active torsions:
REMARK  status: ('A' for Active; 'I' for Inactive)
REMARK    1  A    between atoms: O_17  and  C_5 
REMARK    2  A    between atoms: C_10  and  C_6 
REMARK    3  A    between atoms: C_9  and  C_7 
REMARK    4  A    between atoms: O_17  and  C_8 
REMARK    5  A    between atoms: O_16  and  C_9 
ROOT
HETATM    1  C   UNK N   1      34.896  10.371  16.499  0.00  0.00     0.017 A 
HETATM    2  C   UNK N   1      35.179  10.615  17.842  0.00  0.00     0.022 A 
HETATM    3  C   UNK N   1      34.799  12.746  16.092  0.00  0.00     0.054 A 
HETATM    4  C   UNK N   1      34.711  11.436  15.614  0.00  0.00     0.050 A 
HETATM    5  C   UNK N   1      35.265  11.928  18.333  0.00  0.00     0.071 A 
HETATM    6  C   UNK N   1      35.061  13.014  17.447  0.00  0.00     0.096 A 
ENDROOT
BRANCH   4   7
HETATM    7  C   UNK N   1      34.407  11.189  14.165  0.00  0.00     0.417 C 
HETATM    8  F   UNK N   1      33.192  10.538  14.052  0.00  0.00    -0.166 F 
HETATM    9  F   UNK N   1      35.397  10.397  13.612  0.00  0.00    -0.166 F 
HETATM   10  F   UNK N   1      34.344  12.379  13.459  0.00  0.00    -0.166 F 
ENDBRANCH   4   7
BRANCH   6  11
HETATM   11  O   UNK N   1      35.109  14.291  17.926  0.00  0.00    -0.278 OA
BRANCH  11  12
HETATM   12  C   UNK N   1      36.077  15.240  17.768  0.00  0.00     0.260 C 
HETATM   13  C   UNK N   1      37.092  15.196  16.670  0.00  0.00     0.126 C 
HETATM   14  O   UNK N   1      36.109  16.178  18.547  0.00  0.00    -0.265 OA
ENDBRANCH  11  12
ENDBRANCH   6  11
BRANCH   5  15
HETATM   15  C   UNK N   1      35.555  12.127  19.778  0.00  0.00     0.178 C 
HETATM   16  O   UNK N   1      36.309  11.366  20.361  0.00  0.00    -0.646 OA
BRANCH  15  17
HETATM   17  O   UNK N   1      34.993  13.144  20.464  0.00  0.00    -0.773 OA
HETATM   18  H   UNK N   1      34.077  13.127  20.664  0.00  0.00     0.167 HD
ENDBRANCH  15  17
ENDBRANCH   5  15
TORSDOF 5
ENDMDL
MODEL 6
REMARK VINA RESULT:      -5.7      4.221      6.145
REMARK  5 active torsions:
REMARK  status: ('A' for Active; 'I' for Inactive)
REMARK    1  A    between atoms: O_17  and  C_5 
REMARK    2  A    between atoms: C_10  and  C_6 
REMARK    3  A    between atoms: C_9  and  C_7 
REMARK    4  A    between atoms: O_17  and  C_8 
REMARK    5  A    between atoms: O_16  and  C_9 
ROOT
HETATM    1  C   UNK N   1      31.963  17.655   8.170  0.00  0.00     0.017 A 
HETATM    2  C   UNK N   1      30.766  17.813   8.866  0.00  0.00     0.022 A 
HETATM    3  C   UNK N   1      30.724  17.244   6.141  0.00  0.00     0.054 A 
HETATM    4  C   UNK N   1      31.950  17.377   6.801  0.00  0.00     0.050 A 
HETATM    5  C   UNK N   1      29.530  17.676   8.213  0.00  0.00     0.071 A 
HETATM    6  C   UNK N   1      29.506  17.375   6.829  0.00  0.00     0.096 A 
ENDROOT
BRANCH   4   7
HETATM    7  C   UNK N   1      33.231  17.206   6.036  0.00  0.00     0.417 C 
HETATM    8  F   UNK N   1      34.272  17.776   6.745  0.00  0.00    -0.166 F 
HETATM    9  F   UNK N   1      33.124  17.833   4.808  0.00  0.00    -0.166 F 
HETATM   10  F   UNK N   1      33.512  15.866   5.828  0.00  0.00    -0.166 F 
ENDBRANCH   4   7
BRANCH   6  11
HETATM   11  O   UNK N   1      28.308  17.208   6.198  0.00  0.00    -0.278 OA
BRANCH  11  12
HETATM   12  C   UNK N   1      27.627  18.069   5.389  0.00  0.00     0.260 C 
HETATM   13  C   UNK N   1      27.262  17.744   3.974  0.00  0.00     0.126 C 
HETATM   14  O   UNK N   1      27.283  19.149   5.840  0.00  0.00    -0.265 OA
ENDBRANCH  11  12
ENDBRANCH   6  11
BRANCH   5  15
HETATM   15  C   UNK N   1      28.285  17.840   9.011  0.00  0.00     0.178 C 
HETATM   16  O   UNK N   1      27.992  17.017   9.864  0.00  0.00    -0.646 OA
BRANCH  15  17
HETATM   17  O   UNK N   1      27.466  18.891   8.808  0.00  0.00    -0.773 OA
HETATM   18  H   UNK N   1      26.809  19.104   9.442  0.00  0.00     0.167 HD
ENDBRANCH  15  17
ENDBRANCH   5  15
TORSDOF 5
ENDMDL
MODEL 7
REMARK VINA RESULT:      -5.6      8.490     10.418
REMARK  5 active torsions:
REMARK  status: ('A' for Active; 'I' for Inactive)
REMARK    1  A    between atoms: O_17  and  C_5 
REMARK    2  A    between atoms: C_10  and  C_6 
REMARK    3  A    between atoms: C_9  and  C_7 
REMARK    4  A    between atoms: O_17  and  C_8 
REMARK    5  A    between atoms: O_16  and  C_9 
ROOT
HETATM    1  C   UNK N   1      25.564  20.429   3.075  0.00  0.00     0.017 A 
HETATM    2  C   UNK N   1      24.292  20.815   2.658  0.00  0.00     0.022 A 
HETATM    3  C   UNK N   1      24.607  18.541   4.231  0.00  0.00     0.054 A 
HETATM    4  C   UNK N   1      25.731  19.284   3.858  0.00  0.00     0.050 A 
HETATM    5  C   UNK N   1      23.156  20.079   3.032  0.00  0.00     0.071 A 
HETATM    6  C   UNK N   1      23.313  18.927   3.841  0.00  0.00     0.096 A 
ENDROOT
BRANCH   4   7
HETATM    7  C   UNK N   1      27.094  18.854   4.314  0.00  0.00     0.417 C 
HETATM    8  F   UNK N   1      27.990  19.893   4.140  0.00  0.00    -0.166 F 
HETATM    9  F   UNK N   1      27.512  17.768   3.565  0.00  0.00    -0.166 F 
HETATM   10  F   UNK N   1      27.083  18.492   5.651  0.00  0.00    -0.166 F 
ENDBRANCH   4   7
BRANCH   6  11
HETATM   11  O   UNK N   1      22.210  18.227   4.236  0.00  0.00    -0.278 OA
BRANCH  11  12
HETATM   12  C   UNK N   1      21.660  18.104   5.479  0.00  0.00     0.260 C 
HETATM   13  C   UNK N   1      21.796  16.870   6.313  0.00  0.00     0.126 C 
HETATM   14  O   UNK N   1      21.044  19.049   5.942  0.00  0.00    -0.265 OA
ENDBRANCH  11  12
ENDBRANCH   6  11
BRANCH   5  15
HETATM   15  C   UNK N   1      21.823  20.548   2.569  0.00  0.00     0.178 C 
HETATM   16  O   UNK N   1      21.574  20.607   1.376  0.00  0.00    -0.646 OA
BRANCH  15  17
HETATM   17  O   UNK N   1      20.873  20.914   3.454  0.00  0.00    -0.773 OA
HETATM   18  H   UNK N   1      21.116  21.319   4.264  0.00  0.00     0.167 HD
ENDBRANCH  15  17
ENDBRANCH   5  15
TORSDOF 5
ENDMDL
MODEL 8
REMARK VINA RESULT:      -5.6      1.692      3.731
REMARK  5 active torsions:
REMARK  status: ('A' for Active; 'I' for Inactive)
REMARK    1  A    between atoms: O_17  and  C_5 
REMARK    2  A    between atoms: C_10  and  C_6 
REMARK    3  A    between atoms: C_9  and  C_7 
REMARK    4  A    between atoms: O_17  and  C_8 
REMARK    5  A    between atoms: O_16  and  C_9 
ROOT
HETATM    1  C   UNK N   1      30.832  18.085   8.834  0.00  0.00     0.017 A 
HETATM    2  C   UNK N   1      32.123  17.948   8.327  0.00  0.00     0.022 A 
HETATM    3  C   UNK N   1      29.966  16.866   6.941  0.00  0.00     0.054 A 
HETATM    4  C   UNK N   1      29.745  17.537   8.148  0.00  0.00     0.050 A 
HETATM    5  C   UNK N   1      32.354  17.280   7.114  0.00  0.00     0.071 A 
HETATM    6  C   UNK N   1      31.256  16.738   6.401  0.00  0.00     0.096 A 
ENDROOT
BRANCH   4   7
HETATM    7  C   UNK N   1      28.349  17.674   8.681  0.00  0.00     0.417 C 
HETATM    8  F   UNK N   1      28.316  17.265  10.001  0.00  0.00    -0.166 F 
HETATM    9  F   UNK N   1      27.491  16.881   7.941  0.00  0.00    -0.166 F 
HETATM   10  F   UNK N   1      27.913  18.987   8.609  0.00  0.00    -0.166 F 
ENDBRANCH   4   7
BRANCH   6  11
HETATM   11  O   UNK N   1      31.472  16.118   5.205  0.00  0.00    -0.278 OA
BRANCH  11  12
HETATM   12  C   UNK N   1      31.288  16.592   3.939  0.00  0.00     0.260 C 
HETATM   13  C   UNK N   1      32.403  17.131   3.099  0.00  0.00     0.126 C 
HETATM   14  O   UNK N   1      30.167  16.560   3.458  0.00  0.00    -0.265 OA
ENDBRANCH  11  12
ENDBRANCH   6  11
BRANCH   5  15
HETATM   15  C   UNK N   1      33.752  17.179   6.615  0.00  0.00     0.178 C 
HETATM   16  O   UNK N   1      34.521  18.116   6.755  0.00  0.00    -0.646 OA
BRANCH  15  17
HETATM   17  O   UNK N   1      34.189  16.060   6.003  0.00  0.00    -0.773 OA
HETATM   18  H   UNK N   1      34.819  15.509   6.426  0.00  0.00     0.167 HD
ENDBRANCH  15  17
ENDBRANCH   5  15
TORSDOF 5
ENDMDL
MODEL 9
REMARK VINA RESULT:      -5.5     10.399     11.912
REMARK  5 active torsions:
REMARK  status: ('A' for Active; 'I' for Inactive)
REMARK    1  A    between atoms: O_17  and  C_5 
REMARK    2  A    between atoms: C_10  and  C_6 
REMARK    3  A    between atoms: C_9  and  C_7 
REMARK    4  A    between atoms: O_17  and  C_8 
REMARK    5  A    between atoms: O_16  and  C_9 
ROOT
HETATM    1  C   UNK N   1      23.067  13.199   8.874  0.00  0.00     0.017 A 
HETATM    2  C   UNK N   1      22.965  14.063   7.785  0.00  0.00     0.022 A 
HETATM    3  C   UNK N   1      20.870  13.872   9.607  0.00  0.00     0.054 A 
HETATM    4  C   UNK N   1      22.016  13.093   9.789  0.00  0.00     0.050 A 
HETATM    5  C   UNK N   1      21.820  14.853   7.597  0.00  0.00     0.071 A 
HETATM    6  C   UNK N   1      20.757  14.766   8.529  0.00  0.00     0.096 A 
ENDROOT
BRANCH   4   7
HETATM    7  C   UNK N   1      22.110  12.167  10.966  0.00  0.00     0.417 C 
HETATM    8  F   UNK N   1      22.993  12.687  11.894  0.00  0.00    -0.166 F 
HETATM    9  F   UNK N   1      22.571  10.931  10.548  0.00  0.00    -0.166 F 
HETATM   10  F   UNK N   1      20.875  11.999  11.569  0.00  0.00    -0.166 F 
ENDBRANCH   4   7
BRANCH   6  11
HETATM   11  O   UNK N   1      19.656  15.557   8.369  0.00  0.00    -0.278 OA
BRANCH  11  12
HETATM   12  C   UNK N   1      19.367  16.764   8.936  0.00  0.00     0.260 C 
HETATM   13  C   UNK N   1      18.004  17.125   9.437  0.00  0.00     0.126 C 
HETATM   14  O   UNK N   1      20.263  17.583   9.058  0.00  0.00    -0.265 OA
ENDBRANCH  11  12
ENDBRANCH   6  11
BRANCH   5  15
HETATM   15  C   UNK N   1      21.774  15.767   6.424  0.00  0.00     0.178 C 
HETATM   16  O   UNK N   1      21.633  15.314   5.300  0.00  0.00    -0.646 OA
BRANCH  15  17
HETATM   17  O   UNK N   1      21.887  17.102   6.581  0.00  0.00    -0.773 OA
HETATM   18  H   UNK N   1      22.733  17.493   6.680  0.00  0.00     0.167 HD
ENDBRANCH  15  17
ENDBRANCH   5  15
TORSDOF 5
ENDMDL
