MODEL 1
REMARK VINA RESULT:      -8.8      0.000      0.000
REMARK  12 active torsions:
REMARK  status: ('A' for Active; 'I' for Inactive)
REMARK    1  A    between atoms: C_14  and  C_5 
REMARK    2  A    between atoms: C_22  and  C_5 
REMARK       I    between atoms: C_14  and  N_15 
REMARK    3  A    between atoms: N_15  and  C_17 
REMARK    4  A    between atoms: C_17  and  C_18 
REMARK    5  A    between atoms: C_22  and  C_23 
REMARK    6  A    between atoms: C_23  and  C_24 
REMARK    7  A    between atoms: C_24  and  C_25 
REMARK    8  A    between atoms: C_25  and  N_26 
REMARK    9  A    between atoms: C_29  and  N_32 
REMARK       I    between atoms: N_32  and  C_33 
REMARK   10  A    between atoms: C_33  and  C_34 
REMARK   11  A    between atoms: C_36  and  C_41 
REMARK   12  A    between atoms: C_44  and  C_47 
ROOT
HETATM    1  N   UNK N   1      27.008  19.989   4.550  0.00  0.00     0.088 N 
HETATM    2  C   UNK N   1      27.278  18.554   4.380  0.00  0.00     0.274 C 
HETATM    3  C   UNK N   1      27.041  17.760   5.672  0.00  0.00     0.055 C 
HETATM    4  C   UNK N   1      27.776  18.375   6.878  0.00  0.00     0.088 C 
HETATM    5  C   UNK N   1      27.436  19.855   6.984  0.00  0.00     0.055 C 
HETATM    6  C   UNK N   1      27.755  20.572   5.668  0.00  0.00     0.274 C 
ENDROOT
BRANCH   1   7
HETATM    7  C   UNK N   1      25.579  20.344   4.578  0.00  0.00     0.272 C 
BRANCH   7   8
HETATM    8  C   UNK N   1      24.733  19.787   3.413  0.00  0.00     0.030 C 
BRANCH   8   9
HETATM    9  C   UNK N   1      23.918  18.525   3.748  0.00  0.00     0.003 C 
BRANCH   9  10
HETATM   10  C   UNK N   1      22.692  18.683   4.677  0.00  0.00     0.029 C 
BRANCH  10  11
HETATM   11  C   UNK N   1      21.856  17.400   4.860  0.00  0.00     0.096 A 
HETATM   12  C   UNK N   1      21.247  17.006   3.492  0.00  0.00    -0.025 A 
HETATM   13  C   UNK N   1      21.679  15.766   3.073  0.00  0.00    -0.018 A 
HETATM   14  C   UNK N   1      20.474  17.779   2.618  0.00  0.00     0.009 A 
HETATM   15  C   UNK N   1      22.530  15.220   4.073  0.00  0.00    -0.018 A 
HETATM   16  C   UNK N   1      21.359  15.237   1.822  0.00  0.00     0.013 A 
HETATM   17  C   UNK N   1      22.709  16.155   5.072  0.00  0.00    -0.025 A 
HETATM   18  C   UNK N   1      23.138  13.969   4.107  0.00  0.00     0.013 A 
HETATM   19  C   UNK N   1      23.532  15.866   6.163  0.00  0.00     0.009 A 
HETATM   20  C   UNK N   1      24.149  14.607   6.231  0.00  0.00     0.001 A 
HETATM   21  C   UNK N   1      23.945  13.658   5.210  0.00  0.00     0.001 A 
HETATM   22  C   UNK N   1      20.583  16.014   0.949  0.00  0.00     0.001 A 
HETATM   23  C   UNK N   1      20.145  17.286   1.346  0.00  0.00     0.001 A 
BRANCH  11  24
HETATM   24  C   UNK N   1      21.014  17.528   6.146  0.00  0.00     0.235 C 
HETATM   25  N   UNK N   1      20.132  16.556   6.498  0.00  0.00    -0.351 N 
HETATM   26  H   UNK N   1      19.848  15.883   5.839  0.00  0.00     0.162 HD
HETATM   27  O   UNK N   1      21.308  18.378   6.979  0.00  0.00    -0.272 OA
BRANCH  25  28
HETATM   28  C   UNK N   1      19.613  16.517   7.852  0.00  0.00     0.240 C 
BRANCH  28  29
HETATM   29  C   UNK N   1      20.200  15.332   8.631  0.00  0.00     0.403 C 
HETATM   30  F   UNK N   1      21.395  15.709   9.214  0.00  0.00    -0.169 F 
HETATM   31  F   UNK N   1      20.450  14.256   7.797  0.00  0.00    -0.169 F 
HETATM   32  F   UNK N   1      19.318  14.944   9.621  0.00  0.00    -0.169 F 
ENDBRANCH  28  29
ENDBRANCH  25  28
ENDBRANCH  11  24
ENDBRANCH  10  11
ENDBRANCH   9  10
ENDBRANCH   8   9
ENDBRANCH   7   8
ENDBRANCH   1   7
BRANCH   4  33
HETATM   33  N   UNK N   1      29.217  18.279   6.802  0.00  0.00    -0.352 N 
HETATM   34  C   UNK N   1      30.014  17.518   7.578  0.00  0.00     0.252 C 
HETATM   35  O   UNK N   1      29.561  16.957   8.573  0.00  0.00    -0.268 OA
HETATM   36  H   UNK N   1      29.661  18.825   6.113  0.00  0.00     0.163 HD
BRANCH  34  37
HETATM   37  C   UNK N   1      31.435  17.350   7.199  0.00  0.00     0.043 A 
HETATM   38  C   UNK N   1      31.847  16.565   6.094  0.00  0.00    -0.010 A 
HETATM   39  C   UNK N   1      33.211  16.431   5.811  0.00  0.00     0.013 A 
HETATM   40  C   UNK N   1      34.162  17.086   6.601  0.00  0.00     0.001 A 
HETATM   41  C   UNK N   1      33.759  17.880   7.674  0.00  0.00     0.001 A 
HETATM   42  C   UNK N   1      32.405  18.009   7.973  0.00  0.00     0.018 A 
BRANCH  38  43
HETATM   43  C   UNK N   1      30.852  15.956   5.196  0.00  0.00    -0.025 A 
HETATM   44  C   UNK N   1      30.577  16.572   3.966  0.00  0.00     0.013 A 
HETATM   45  C   UNK N   1      29.506  16.140   3.184  0.00  0.00     0.017 A 
HETATM   46  C   UNK N   1      28.674  15.112   3.641  0.00  0.00     0.048 A 
HETATM   47  C   UNK N   1      28.953  14.490   4.870  0.00  0.00     0.017 A 
HETATM   48  C   UNK N   1      30.041  14.908   5.644  0.00  0.00     0.013 A 
BRANCH  46  49
HETATM   49  C   UNK N   1      27.470  14.696   2.847  0.00  0.00     0.417 C 
HETATM   50  F   UNK N   1      27.543  15.169   1.546  0.00  0.00    -0.166 F 
HETATM   51  F   UNK N   1      27.382  13.318   2.817  0.00  0.00    -0.166 F 
HETATM   52  F   UNK N   1      26.333  15.213   3.440  0.00  0.00    -0.166 F 
ENDBRANCH  46  49
ENDBRANCH  38  43
ENDBRANCH  34  37
ENDBRANCH   4  33
TORSDOF 12
ENDMDL
MODEL 2
REMARK VINA RESULT:      -8.5      2.578      3.545
REMARK  12 active torsions:
REMARK  status: ('A' for Active; 'I' for Inactive)
REMARK    1  A    between atoms: C_14  and  C_5 
REMARK    2  A    between atoms: C_22  and  C_5 
REMARK       I    between atoms: C_14  and  N_15 
REMARK    3  A    between atoms: N_15  and  C_17 
REMARK    4  A    between atoms: C_17  and  C_18 
REMARK    5  A    between atoms: C_22  and  C_23 
REMARK    6  A    between atoms: C_23  and  C_24 
REMARK    7  A    between atoms: C_24  and  C_25 
REMARK    8  A    between atoms: C_25  and  N_26 
REMARK    9  A    between atoms: C_29  and  N_32 
REMARK       I    between atoms: N_32  and  C_33 
REMARK   10  A    between atoms: C_33  and  C_34 
REMARK   11  A    between atoms: C_36  and  C_41 
REMARK   12  A    between atoms: C_44  and  C_47 
ROOT
HETATM    1  N   UNK N   1      27.165  20.129   4.862  0.00  0.00     0.088 N 
HETATM    2  C   UNK N   1      27.558  18.762   4.492  0.00  0.00     0.274 C 
HETATM    3  C   UNK N   1      27.305  17.757   5.623  0.00  0.00     0.055 C 
HETATM    4  C   UNK N   1      27.913  18.219   6.961  0.00  0.00     0.088 C 
HETATM    5  C   UNK N   1      27.451  19.636   7.270  0.00  0.00     0.055 C 
HETATM    6  C   UNK N   1      27.793  20.576   6.109  0.00  0.00     0.274 C 
ENDROOT
BRANCH   1   7
HETATM    7  C   UNK N   1      25.714  20.377   4.838  0.00  0.00     0.272 C 
BRANCH   7   8
HETATM    8  C   UNK N   1      24.977  19.894   3.571  0.00  0.00     0.030 C 
BRANCH   8   9
HETATM    9  C   UNK N   1      24.198  18.576   3.736  0.00  0.00     0.003 C 
BRANCH   9  10
HETATM   10  C   UNK N   1      23.340  18.400   5.010  0.00  0.00     0.029 C 
BRANCH  10  11
HETATM   11  C   UNK N   1      22.230  17.335   4.895  0.00  0.00     0.096 A 
HETATM   12  C   UNK N   1      22.884  15.973   4.552  0.00  0.00    -0.025 A 
HETATM   13  C   UNK N   1      22.650  15.029   5.527  0.00  0.00    -0.018 A 
HETATM   14  C   UNK N   1      23.754  15.656   3.503  0.00  0.00     0.009 A 
HETATM   15  C   UNK N   1      21.833  15.609   6.536  0.00  0.00    -0.018 A 
HETATM   16  C   UNK N   1      23.226  13.758   5.501  0.00  0.00     0.013 A 
HETATM   17  C   UNK N   1      21.634  16.943   6.242  0.00  0.00    -0.025 A 
HETATM   18  C   UNK N   1      21.296  15.009   7.670  0.00  0.00     0.013 A 
HETATM   19  C   UNK N   1      20.881  17.745   7.102  0.00  0.00     0.009 A 
HETATM   20  C   UNK N   1      20.317  17.164   8.249  0.00  0.00     0.001 A 
HETATM   21  C   UNK N   1      20.517  15.798   8.527  0.00  0.00     0.001 A 
HETATM   22  C   UNK N   1      24.096  13.442   4.448  0.00  0.00     0.001 A 
HETATM   23  C   UNK N   1      24.363  14.392   3.451  0.00  0.00     0.001 A 
BRANCH  11  24
HETATM   24  C   UNK N   1      21.050  17.923   4.095  0.00  0.00     0.235 C 
HETATM   25  N   UNK N   1      20.958  19.260   3.876  0.00  0.00    -0.351 N 
HETATM   26  H   UNK N   1      21.499  19.888   4.407  0.00  0.00     0.162 HD
HETATM   27  O   UNK N   1      20.327  17.174   3.448  0.00  0.00    -0.272 OA
BRANCH  25  28
HETATM   28  C   UNK N   1      20.058  19.757   2.853  0.00  0.00     0.240 C 
BRANCH  28  29
HETATM   29  C   UNK N   1      20.840  20.288   1.643  0.00  0.00     0.403 C 
HETATM   30  F   UNK N   1      22.167  20.460   1.990  0.00  0.00    -0.169 F 
HETATM   31  F   UNK N   1      20.345  21.510   1.221  0.00  0.00    -0.169 F 
HETATM   32  F   UNK N   1      20.759  19.382   0.604  0.00  0.00    -0.169 F 
ENDBRANCH  28  29
ENDBRANCH  25  28
ENDBRANCH  11  24
ENDBRANCH  10  11
ENDBRANCH   9  10
ENDBRANCH   8   9
ENDBRANCH   7   8
ENDBRANCH   1   7
BRANCH   4  33
HETATM   33  N   UNK N   1      29.359  18.236   6.977  0.00  0.00    -0.352 N 
HETATM   34  C   UNK N   1      30.162  17.472   7.745  0.00  0.00     0.252 C 
HETATM   35  O   UNK N   1      29.692  16.799   8.659  0.00  0.00    -0.268 OA
HETATM   36  H   UNK N   1      29.801  18.867   6.365  0.00  0.00     0.163 HD
BRANCH  34  37
HETATM   37  C   UNK N   1      31.613  17.440   7.453  0.00  0.00     0.043 A 
HETATM   38  C   UNK N   1      32.153  16.798   6.311  0.00  0.00    -0.010 A 
HETATM   39  C   UNK N   1      33.538  16.787   6.114  0.00  0.00     0.013 A 
HETATM   40  C   UNK N   1      34.385  17.424   7.026  0.00  0.00     0.001 A 
HETATM   41  C   UNK N   1      33.856  18.080   8.138  0.00  0.00     0.001 A 
HETATM   42  C   UNK N   1      32.480  18.084   8.352  0.00  0.00     0.018 A 
BRANCH  38  43
HETATM   43  C   UNK N   1      31.265  16.214   5.291  0.00  0.00    -0.025 A 
HETATM   44  C   UNK N   1      31.036  16.921   4.102  0.00  0.00     0.013 A 
HETATM   45  C   UNK N   1      30.053  16.497   3.207  0.00  0.00     0.017 A 
HETATM   46  C   UNK N   1      29.263  15.384   3.511  0.00  0.00     0.048 A 
HETATM   47  C   UNK N   1      29.496  14.671   4.699  0.00  0.00     0.017 A 
HETATM   48  C   UNK N   1      30.497  15.083   5.586  0.00  0.00     0.013 A 
BRANCH  46  49
HETATM   49  C   UNK N   1      28.147  14.970   2.596  0.00  0.00     0.417 C 
HETATM   50  F   UNK N   1      28.614  14.745   1.310  0.00  0.00    -0.166 F 
HETATM   51  F   UNK N   1      27.561  13.811   3.067  0.00  0.00    -0.166 F 
HETATM   52  F   UNK N   1      27.198  15.975   2.549  0.00  0.00    -0.166 F 
ENDBRANCH  46  49
ENDBRANCH  38  43
ENDBRANCH  34  37
ENDBRANCH   4  33
TORSDOF 12
ENDMDL
MODEL 3
REMARK VINA RESULT:      -8.4      8.526     13.570
REMARK  12 active torsions:
REMARK  status: ('A' for Active; 'I' for Inactive)
REMARK    1  A    between atoms: C_14  and  C_5 
REMARK    2  A    between atoms: C_22  and  C_5 
REMARK       I    between atoms: C_14  and  N_15 
REMARK    3  A    between atoms: N_15  and  C_17 
REMARK    4  A    between atoms: C_17  and  C_18 
REMARK    5  A    between atoms: C_22  and  C_23 
REMARK    6  A    between atoms: C_23  and  C_24 
REMARK    7  A    between atoms: C_24  and  C_25 
REMARK    8  A    between atoms: C_25  and  N_26 
REMARK    9  A    between atoms: C_29  and  N_32 
REMARK       I    between atoms: N_32  and  C_33 
REMARK   10  A    between atoms: C_33  and  C_34 
REMARK   11  A    between atoms: C_36  and  C_41 
REMARK   12  A    between atoms: C_44  and  C_47 
ROOT
HETATM    1  N   UNK N   1      36.205  14.590   9.783  0.00  0.00     0.088 N 
HETATM    2  C   UNK N   1      35.075  15.530   9.769  0.00  0.00     0.274 C 
HETATM    3  C   UNK N   1      33.720  14.810   9.723  0.00  0.00     0.055 C 
HETATM    4  C   UNK N   1      33.652  13.766   8.592  0.00  0.00     0.088 C 
HETATM    5  C   UNK N   1      34.851  12.833   8.686  0.00  0.00     0.055 C 
HETATM    6  C   UNK N   1      36.156  13.636   8.671  0.00  0.00     0.274 C 
ENDROOT
BRANCH   1   7
HETATM    7  C   UNK N   1      36.440  13.936  11.081  0.00  0.00     0.272 C 
BRANCH   7   8
HETATM    8  C   UNK N   1      37.683  13.023  11.150  0.00  0.00     0.030 C 
BRANCH   8   9
HETATM    9  C   UNK N   1      37.484  11.715  11.937  0.00  0.00     0.003 C 
BRANCH   9  10
HETATM   10  C   UNK N   1      36.695  11.786  13.266  0.00  0.00     0.029 C 
BRANCH  10  11
HETATM   11  C   UNK N   1      36.241  10.419  13.816  0.00  0.00     0.096 A 
HETATM   12  C   UNK N   1      35.234   9.793  12.818  0.00  0.00    -0.025 A 
HETATM   13  C   UNK N   1      35.688   8.595  12.311  0.00  0.00    -0.018 A 
HETATM   14  C   UNK N   1      34.058  10.343  12.296  0.00  0.00     0.009 A 
HETATM   15  C   UNK N   1      36.942   8.293  12.909  0.00  0.00    -0.018 A 
HETATM   16  C   UNK N   1      35.011   7.894  11.312  0.00  0.00     0.013 A 
HETATM   17  C   UNK N   1      37.320   9.346  13.718  0.00  0.00    -0.025 A 
HETATM   18  C   UNK N   1      37.731   7.159  12.747  0.00  0.00     0.013 A 
HETATM   19  C   UNK N   1      38.538   9.303  14.401  0.00  0.00     0.009 A 
HETATM   20  C   UNK N   1      39.350   8.165  14.265  0.00  0.00     0.001 A 
HETATM   21  C   UNK N   1      38.942   7.093  13.447  0.00  0.00     0.001 A 
HETATM   22  C   UNK N   1      33.832   8.446  10.791  0.00  0.00     0.001 A 
HETATM   23  C   UNK N   1      33.358   9.673  11.281  0.00  0.00     0.001 A 
BRANCH  11  24
HETATM   24  C   UNK N   1      35.952  10.554  15.324  0.00  0.00     0.235 C 
HETATM   25  N   UNK N   1      36.068  11.755  15.948  0.00  0.00    -0.351 N 
HETATM   26  H   UNK N   1      36.553  12.494  15.515  0.00  0.00     0.162 HD
HETATM   27  O   UNK N   1      35.383   9.643  15.914  0.00  0.00    -0.272 OA
BRANCH  25  28
HETATM   28  C   UNK N   1      35.472  11.941  17.258  0.00  0.00     0.240 C 
BRANCH  28  29
HETATM   29  C   UNK N   1      35.074  13.408  17.476  0.00  0.00     0.403 C 
HETATM   30  F   UNK N   1      33.940  13.693  16.740  0.00  0.00    -0.169 F 
HETATM   31  F   UNK N   1      36.079  14.268  17.067  0.00  0.00    -0.169 F 
HETATM   32  F   UNK N   1      34.809  13.623  18.814  0.00  0.00    -0.169 F 
ENDBRANCH  28  29
ENDBRANCH  25  28
ENDBRANCH  11  24
ENDBRANCH  10  11
ENDBRANCH   9  10
ENDBRANCH   8   9
ENDBRANCH   7   8
ENDBRANCH   1   7
BRANCH   4  33
HETATM   33  N   UNK N   1      33.664  14.335   7.263  0.00  0.00    -0.352 N 
HETATM   34  C   UNK N   1      32.658  14.301   6.366  0.00  0.00     0.252 C 
HETATM   35  O   UNK N   1      31.672  13.594   6.563  0.00  0.00    -0.268 OA
HETATM   36  H   UNK N   1      34.490  14.793   6.985  0.00  0.00     0.163 HD
BRANCH  34  37
HETATM   37  C   UNK N   1      32.749  15.147   5.154  0.00  0.00     0.043 A 
HETATM   38  C   UNK N   1      32.083  16.391   5.035  0.00  0.00    -0.010 A 
HETATM   39  C   UNK N   1      32.196  17.124   3.849  0.00  0.00     0.013 A 
HETATM   40  C   UNK N   1      32.979  16.644   2.794  0.00  0.00     0.001 A 
HETATM   41  C   UNK N   1      33.657  15.431   2.918  0.00  0.00     0.001 A 
HETATM   42  C   UNK N   1      33.540  14.686   4.088  0.00  0.00     0.018 A 
BRANCH  38  43
HETATM   43  C   UNK N   1      31.340  16.956   6.174  0.00  0.00    -0.025 A 
HETATM   44  C   UNK N   1      32.055  17.443   7.279  0.00  0.00     0.013 A 
HETATM   45  C   UNK N   1      31.386  17.798   8.450  0.00  0.00     0.017 A 
HETATM   46  C   UNK N   1      30.001  17.632   8.544  0.00  0.00     0.048 A 
HETATM   47  C   UNK N   1      29.284  17.150   7.437  0.00  0.00     0.017 A 
HETATM   48  C   UNK N   1      29.951  16.815   6.253  0.00  0.00     0.013 A 
BRANCH  46  49
HETATM   49  C   UNK N   1      29.284  17.932   9.829  0.00  0.00     0.417 C 
HETATM   50  F   UNK N   1      29.797  19.068  10.435  0.00  0.00    -0.166 F 
HETATM   51  F   UNK N   1      27.939  18.128   9.580  0.00  0.00    -0.166 F 
HETATM   52  F   UNK N   1      29.436  16.865  10.696  0.00  0.00    -0.166 F 
ENDBRANCH  46  49
ENDBRANCH  38  43
ENDBRANCH  34  37
ENDBRANCH   4  33
TORSDOF 12
ENDMDL
MODEL 4
REMARK VINA RESULT:      -8.2      8.457     13.356
REMARK  12 active torsions:
REMARK  status: ('A' for Active; 'I' for Inactive)
REMARK    1  A    between atoms: C_14  and  C_5 
REMARK    2  A    between atoms: C_22  and  C_5 
REMARK       I    between atoms: C_14  and  N_15 
REMARK    3  A    between atoms: N_15  and  C_17 
REMARK    4  A    between atoms: C_17  and  C_18 
REMARK    5  A    between atoms: C_22  and  C_23 
REMARK    6  A    between atoms: C_23  and  C_24 
REMARK    7  A    between atoms: C_24  and  C_25 
REMARK    8  A    between atoms: C_25  and  N_26 
REMARK    9  A    between atoms: C_29  and  N_32 
REMARK       I    between atoms: N_32  and  C_33 
REMARK   10  A    between atoms: C_33  and  C_34 
REMARK   11  A    between atoms: C_36  and  C_41 
REMARK   12  A    between atoms: C_44  and  C_47 
ROOT
HETATM    1  N   UNK N   1      34.988  13.946  10.703  0.00  0.00     0.088 N 
HETATM    2  C   UNK N   1      34.623  13.841   9.283  0.00  0.00     0.274 C 
HETATM    3  C   UNK N   1      35.138  15.029   8.459  0.00  0.00     0.055 C 
HETATM    4  C   UNK N   1      34.753  16.383   9.084  0.00  0.00     0.088 C 
HETATM    5  C   UNK N   1      35.173  16.409  10.547  0.00  0.00     0.055 C 
HETATM    6  C   UNK N   1      34.569  15.218  11.298  0.00  0.00     0.274 C 
ENDROOT
BRANCH   1   7
HETATM    7  C   UNK N   1      36.393  13.619  10.998  0.00  0.00     0.272 C 
BRANCH   7   8
HETATM    8  C   UNK N   1      36.797  12.147  10.767  0.00  0.00     0.030 C 
BRANCH   8   9
HETATM    9  C   UNK N   1      37.309  11.410  12.017  0.00  0.00     0.003 C 
BRANCH   9  10
HETATM   10  C   UNK N   1      36.515  11.584  13.333  0.00  0.00     0.029 C 
BRANCH  10  11
HETATM   11  C   UNK N   1      35.901  10.283  13.888  0.00  0.00     0.096 A 
HETATM   12  C   UNK N   1      34.948   9.689  12.822  0.00  0.00    -0.025 A 
HETATM   13  C   UNK N   1      35.350   8.438  12.409  0.00  0.00    -0.018 A 
HETATM   14  C   UNK N   1      33.876  10.303  12.164  0.00  0.00     0.009 A 
HETATM   15  C   UNK N   1      36.512   8.069  13.140  0.00  0.00    -0.018 A 
HETATM   16  C   UNK N   1      34.718   7.744  11.376  0.00  0.00     0.013 A 
HETATM   17  C   UNK N   1      36.894   9.127  13.941  0.00  0.00    -0.025 A 
HETATM   18  C   UNK N   1      37.219   6.872  13.102  0.00  0.00     0.013 A 
HETATM   19  C   UNK N   1      38.034   9.023  14.743  0.00  0.00     0.009 A 
HETATM   20  C   UNK N   1      38.760   7.822  14.733  0.00  0.00     0.001 A 
HETATM   21  C   UNK N   1      38.348   6.746  13.922  0.00  0.00     0.001 A 
HETATM   22  C   UNK N   1      33.643   8.360  10.719  0.00  0.00     0.001 A 
HETATM   23  C   UNK N   1      33.225   9.641  11.111  0.00  0.00     0.001 A 
BRANCH  11  24
HETATM   24  C   UNK N   1      35.481  10.511  15.355  0.00  0.00     0.235 C 
HETATM   25  N   UNK N   1      36.115  11.433  16.123  0.00  0.00    -0.351 N 
HETATM   26  H   UNK N   1      36.985  11.799  15.842  0.00  0.00     0.162 HD
HETATM   27  O   UNK N   1      34.422  10.042  15.758  0.00  0.00    -0.272 OA
BRANCH  25  28
HETATM   28  C   UNK N   1      35.501  11.878  17.360  0.00  0.00     0.240 C 
BRANCH  28  29
HETATM   29  C   UNK N   1      35.100  13.357  17.274  0.00  0.00     0.403 C 
HETATM   30  F   UNK N   1      34.878  13.850  18.546  0.00  0.00    -0.169 F 
HETATM   31  F   UNK N   1      33.937  13.521  16.541  0.00  0.00    -0.169 F 
HETATM   32  F   UNK N   1      36.117  14.080  16.681  0.00  0.00    -0.169 F 
ENDBRANCH  28  29
ENDBRANCH  25  28
ENDBRANCH  11  24
ENDBRANCH  10  11
ENDBRANCH   9  10
ENDBRANCH   8   9
ENDBRANCH   7   8
ENDBRANCH   1   7
BRANCH   4  33
HETATM   33  N   UNK N   1      33.336  16.667   9.048  0.00  0.00    -0.352 N 
HETATM   34  C   UNK N   1      32.745  17.733   8.472  0.00  0.00     0.252 C 
HETATM   35  O   UNK N   1      33.421  18.676   8.067  0.00  0.00    -0.268 OA
HETATM   36  H   UNK N   1      32.743  16.017   9.489  0.00  0.00     0.163 HD
BRANCH  34  37
HETATM   37  C   UNK N   1      31.273  17.736   8.312  0.00  0.00     0.043 A 
HETATM   38  C   UNK N   1      30.621  17.160   7.194  0.00  0.00    -0.010 A 
HETATM   39  C   UNK N   1      29.227  17.224   7.098  0.00  0.00     0.013 A 
HETATM   40  C   UNK N   1      28.477  17.834   8.110  0.00  0.00     0.001 A 
HETATM   41  C   UNK N   1      29.114  18.379   9.225  0.00  0.00     0.001 A 
HETATM   42  C   UNK N   1      30.502  18.334   9.324  0.00  0.00     0.018 A 
BRANCH  38  43
HETATM   43  C   UNK N   1      31.390  16.427   6.174  0.00  0.00    -0.025 A 
HETATM   44  C   UNK N   1      31.581  15.046   6.328  0.00  0.00     0.013 A 
HETATM   45  C   UNK N   1      32.465  14.359   5.496  0.00  0.00     0.017 A 
HETATM   46  C   UNK N   1      33.197  15.052   4.526  0.00  0.00     0.048 A 
HETATM   47  C   UNK N   1      33.001  16.435   4.367  0.00  0.00     0.017 A 
HETATM   48  C   UNK N   1      32.097  17.120   5.187  0.00  0.00     0.013 A 
BRANCH  46  49
HETATM   49  C   UNK N   1      34.212  14.337   3.683  0.00  0.00     0.417 C 
HETATM   50  F   UNK N   1      35.461  14.353   4.284  0.00  0.00    -0.166 F 
HETATM   51  F   UNK N   1      33.823  13.025   3.494  0.00  0.00    -0.166 F 
HETATM   52  F   UNK N   1      34.308  14.966   2.454  0.00  0.00    -0.166 F 
ENDBRANCH  46  49
ENDBRANCH  38  43
ENDBRANCH  34  37
ENDBRANCH   4  33
TORSDOF 12
ENDMDL
MODEL 5
REMARK VINA RESULT:      -8.2      3.201      5.483
REMARK  12 active torsions:
REMARK  status: ('A' for Active; 'I' for Inactive)
REMARK    1  A    between atoms: C_14  and  C_5 
REMARK    2  A    between atoms: C_22  and  C_5 
REMARK       I    between atoms: C_14  and  N_15 
REMARK    3  A    between atoms: N_15  and  C_17 
REMARK    4  A    between atoms: C_17  and  C_18 
REMARK    5  A    between atoms: C_22  and  C_23 
REMARK    6  A    between atoms: C_23  and  C_24 
REMARK    7  A    between atoms: C_24  and  C_25 
REMARK    8  A    between atoms: C_25  and  N_26 
REMARK    9  A    between atoms: C_29  and  N_32 
REMARK       I    between atoms: N_32  and  C_33 
REMARK   10  A    between atoms: C_33  and  C_34 
REMARK   11  A    between atoms: C_36  and  C_41 
REMARK   12  A    between atoms: C_44  and  C_47 
ROOT
HETATM    1  N   UNK N   1      26.324  14.807   3.236  0.00  0.00     0.088 N 
HETATM    2  C   UNK N   1      27.193  15.956   2.945  0.00  0.00     0.274 C 
HETATM    3  C   UNK N   1      28.658  15.542   2.750  0.00  0.00     0.055 C 
HETATM    4  C   UNK N   1      29.177  14.668   3.907  0.00  0.00     0.088 C 
HETATM    5  C   UNK N   1      28.225  13.502   4.134  0.00  0.00     0.055 C 
HETATM    6  C   UNK N   1      26.801  14.015   4.373  0.00  0.00     0.274 C 
ENDROOT
BRANCH   1   7
HETATM    7  C   UNK N   1      25.995  13.977   2.065  0.00  0.00     0.272 C 
BRANCH   7   8
HETATM    8  C   UNK N   1      24.795  14.459   1.223  0.00  0.00     0.030 C 
BRANCH   8   9
HETATM    9  C   UNK N   1      23.709  15.212   2.012  0.00  0.00     0.003 C 
BRANCH   9  10
HETATM   10  C   UNK N   1      22.231  14.876   1.704  0.00  0.00     0.029 C 
BRANCH  10  11
HETATM   11  C   UNK N   1      21.236  15.287   2.808  0.00  0.00     0.096 A 
HETATM   12  C   UNK N   1      21.891  15.027   4.188  0.00  0.00    -0.025 A 
HETATM   13  C   UNK N   1      22.026  16.186   4.921  0.00  0.00    -0.018 A 
HETATM   14  C   UNK N   1      22.460  13.848   4.681  0.00  0.00     0.009 A 
HETATM   15  C   UNK N   1      21.471  17.263   4.176  0.00  0.00    -0.018 A 
HETATM   16  C   UNK N   1      22.686  16.229   6.149  0.00  0.00     0.013 A 
HETATM   17  C   UNK N   1      21.076  16.798   2.938  0.00  0.00    -0.025 A 
HETATM   18  C   UNK N   1      21.328  18.595   4.551  0.00  0.00     0.013 A 
HETATM   19  C   UNK N   1      20.521  17.676   2.004  0.00  0.00     0.009 A 
HETATM   20  C   UNK N   1      20.354  19.024   2.358  0.00  0.00     0.001 A 
HETATM   21  C   UNK N   1      20.749  19.479   3.632  0.00  0.00     0.001 A 
HETATM   22  C   UNK N   1      23.254  15.046   6.643  0.00  0.00     0.001 A 
HETATM   23  C   UNK N   1      23.145  13.857   5.907  0.00  0.00     0.001 A 
BRANCH  11  24
HETATM   24  C   UNK N   1      19.831  14.770   2.437  0.00  0.00     0.235 C 
HETATM   25  N   UNK N   1      19.541  14.400   1.163  0.00  0.00    -0.351 N 
HETATM   26  H   UNK N   1      20.132  14.668   0.423  0.00  0.00     0.162 HD
HETATM   27  O   UNK N   1      19.048  14.460   3.328  0.00  0.00    -0.272 OA
BRANCH  25  28
HETATM   28  C   UNK N   1      18.356  13.606   0.900  0.00  0.00     0.240 C 
BRANCH  28  29
HETATM   29  C   UNK N   1      18.725  12.143   0.619  0.00  0.00     0.403 C 
HETATM   30  F   UNK N   1      17.987  11.678  -0.453  0.00  0.00    -0.169 F 
HETATM   31  F   UNK N   1      18.451  11.337   1.711  0.00  0.00    -0.169 F 
HETATM   32  F   UNK N   1      20.069  12.054   0.314  0.00  0.00    -0.169 F 
ENDBRANCH  28  29
ENDBRANCH  25  28
ENDBRANCH  11  24
ENDBRANCH  10  11
ENDBRANCH   9  10
ENDBRANCH   8   9
ENDBRANCH   7   8
ENDBRANCH   1   7
BRANCH   4  33
HETATM   33  N   UNK N   1      29.295  15.367   5.167  0.00  0.00    -0.352 N 
HETATM   34  C   UNK N   1      30.010  16.486   5.400  0.00  0.00     0.252 C 
HETATM   35  O   UNK N   1      30.793  16.912   4.555  0.00  0.00    -0.268 OA
HETATM   36  H   UNK N   1      28.804  14.988   5.931  0.00  0.00     0.163 HD
BRANCH  34  37
HETATM   37  C   UNK N   1      29.817  17.205   6.680  0.00  0.00     0.043 A 
HETATM   38  C   UNK N   1      28.832  18.208   6.857  0.00  0.00    -0.010 A 
HETATM   39  C   UNK N   1      28.725  18.863   8.088  0.00  0.00     0.013 A 
HETATM   40  C   UNK N   1      29.571  18.516   9.147  0.00  0.00     0.001 A 
HETATM   41  C   UNK N   1      30.525  17.511   8.985  0.00  0.00     0.001 A 
HETATM   42  C   UNK N   1      30.649  16.863   7.759  0.00  0.00     0.018 A 
BRANCH  38  43
HETATM   43  C   UNK N   1      27.870  18.510   5.783  0.00  0.00    -0.025 A 
HETATM   44  C   UNK N   1      28.170  19.528   4.866  0.00  0.00     0.013 A 
HETATM   45  C   UNK N   1      27.203  19.973   3.965  0.00  0.00     0.017 A 
HETATM   46  C   UNK N   1      25.913  19.433   3.997  0.00  0.00     0.048 A 
HETATM   47  C   UNK N   1      25.614  18.409   4.911  0.00  0.00     0.017 A 
HETATM   48  C   UNK N   1      26.590  17.946   5.801  0.00  0.00     0.013 A 
BRANCH  46  49
HETATM   49  C   UNK N   1      24.842  19.964   3.089  0.00  0.00     0.417 C 
HETATM   50  F   UNK N   1      24.160  21.014   3.683  0.00  0.00    -0.166 F 
HETATM   51  F   UNK N   1      25.407  20.409   1.910  0.00  0.00    -0.166 F 
HETATM   52  F   UNK N   1      23.939  18.955   2.811  0.00  0.00    -0.166 F 
ENDBRANCH  46  49
ENDBRANCH  38  43
ENDBRANCH  34  37
ENDBRANCH   4  33
TORSDOF 12
ENDMDL
MODEL 6
REMARK VINA RESULT:      -8.1      3.166      9.239
REMARK  12 active torsions:
REMARK  status: ('A' for Active; 'I' for Inactive)
REMARK    1  A    between atoms: C_14  and  C_5 
REMARK    2  A    between atoms: C_22  and  C_5 
REMARK       I    between atoms: C_14  and  N_15 
REMARK    3  A    between atoms: N_15  and  C_17 
REMARK    4  A    between atoms: C_17  and  C_18 
REMARK    5  A    between atoms: C_22  and  C_23 
REMARK    6  A    between atoms: C_23  and  C_24 
REMARK    7  A    between atoms: C_24  and  C_25 
REMARK    8  A    between atoms: C_25  and  N_26 
REMARK    9  A    between atoms: C_29  and  N_32 
REMARK       I    between atoms: N_32  and  C_33 
REMARK   10  A    between atoms: C_33  and  C_34 
REMARK   11  A    between atoms: C_36  and  C_41 
REMARK   12  A    between atoms: C_44  and  C_47 
ROOT
HETATM    1  N   UNK N   1      22.908  14.463   5.729  0.00  0.00     0.088 N 
HETATM    2  C   UNK N   1      23.497  13.984   4.471  0.00  0.00     0.274 C 
HETATM    3  C   UNK N   1      23.534  15.075   3.392  0.00  0.00     0.055 C 
HETATM    4  C   UNK N   1      22.164  15.753   3.200  0.00  0.00     0.088 C 
HETATM    5  C   UNK N   1      21.633  16.224   4.547  0.00  0.00     0.055 C 
HETATM    6  C   UNK N   1      21.582  15.057   5.539  0.00  0.00     0.274 C 
ENDROOT
BRANCH   1   7
HETATM    7  C   UNK N   1      23.799  15.314   6.536  0.00  0.00     0.272 C 
BRANCH   7   8
HETATM    8  C   UNK N   1      25.072  14.624   7.072  0.00  0.00     0.030 C 
BRANCH   8   9
HETATM    9  C   UNK N   1      26.381  15.053   6.384  0.00  0.00     0.003 C 
BRANCH   9  10
HETATM   10  C   UNK N   1      26.862  16.508   6.593  0.00  0.00     0.029 C 
BRANCH  10  11
HETATM   11  C   UNK N   1      27.897  16.996   5.559  0.00  0.00     0.096 A 
HETATM   12  C   UNK N   1      29.312  16.603   6.050  0.00  0.00    -0.025 A 
HETATM   13  C   UNK N   1      29.947  15.753   5.170  0.00  0.00    -0.018 A 
HETATM   14  C   UNK N   1      29.922  16.877   7.279  0.00  0.00     0.009 A 
HETATM   15  C   UNK N   1      29.096  15.540   4.051  0.00  0.00    -0.018 A 
HETATM   16  C   UNK N   1      31.186  15.172   5.443  0.00  0.00     0.013 A 
HETATM   17  C   UNK N   1      27.891  16.175   4.273  0.00  0.00    -0.025 A 
HETATM   18  C   UNK N   1      29.349  14.810   2.895  0.00  0.00     0.013 A 
HETATM   19  C   UNK N   1      26.869  16.092   3.325  0.00  0.00     0.009 A 
HETATM   20  C   UNK N   1      27.101  15.371   2.142  0.00  0.00     0.001 A 
HETATM   21  C   UNK N   1      28.341  14.740   1.924  0.00  0.00     0.001 A 
HETATM   22  C   UNK N   1      31.796  15.449   6.674  0.00  0.00     0.001 A 
HETATM   23  C   UNK N   1      31.162  16.298   7.594  0.00  0.00     0.001 A 
BRANCH  11  24
HETATM   24  C   UNK N   1      27.531  18.427   5.117  0.00  0.00     0.235 C 
HETATM   25  N   UNK N   1      26.410  19.034   5.588  0.00  0.00    -0.351 N 
HETATM   26  H   UNK N   1      25.705  18.503   6.024  0.00  0.00     0.162 HD
HETATM   27  O   UNK N   1      28.366  19.113   4.539  0.00  0.00    -0.272 OA
BRANCH  25  28
HETATM   28  C   UNK N   1      26.260  20.470   5.446  0.00  0.00     0.240 C 
BRANCH  28  29
HETATM   29  C   UNK N   1      26.788  21.203   6.688  0.00  0.00     0.403 C 
HETATM   30  F   UNK N   1      27.980  21.832   6.381  0.00  0.00    -0.169 F 
HETATM   31  F   UNK N   1      27.024  20.321   7.729  0.00  0.00    -0.169 F 
HETATM   32  F   UNK N   1      25.869  22.149   7.094  0.00  0.00    -0.169 F 
ENDBRANCH  28  29
ENDBRANCH  25  28
ENDBRANCH  11  24
ENDBRANCH  10  11
ENDBRANCH   9  10
ENDBRANCH   8   9
ENDBRANCH   7   8
ENDBRANCH   1   7
BRANCH   4  33
HETATM   33  N   UNK N   1      21.154  14.889   2.629  0.00  0.00    -0.352 N 
HETATM   34  C   UNK N   1      20.819  14.799   1.326  0.00  0.00     0.252 C 
HETATM   35  O   UNK N   1      21.251  15.614   0.515  0.00  0.00    -0.268 OA
HETATM   36  H   UNK N   1      20.663  14.309   3.254  0.00  0.00     0.163 HD
BRANCH  34  37
HETATM   37  C   UNK N   1      19.945  13.688   0.887  0.00  0.00     0.043 A 
HETATM   38  C   UNK N   1      20.433  12.383   0.626  0.00  0.00    -0.010 A 
HETATM   39  C   UNK N   1      19.550  11.390   0.189  0.00  0.00     0.013 A 
HETATM   40  C   UNK N   1      18.190  11.674   0.032  0.00  0.00     0.001 A 
HETATM   41  C   UNK N   1      17.701  12.950   0.313  0.00  0.00     0.001 A 
HETATM   42  C   UNK N   1      18.573  13.950   0.734  0.00  0.00     0.018 A 
BRANCH  38  43
HETATM   43  C   UNK N   1      21.842  12.045   0.886  0.00  0.00    -0.025 A 
HETATM   44  C   UNK N   1      22.159  11.255   2.002  0.00  0.00     0.013 A 
HETATM   45  C   UNK N   1      23.487  11.084   2.390  0.00  0.00     0.017 A 
HETATM   46  C   UNK N   1      24.511  11.731   1.691  0.00  0.00     0.048 A 
HETATM   47  C   UNK N   1      24.196  12.516   0.570  0.00  0.00     0.017 A 
HETATM   48  C   UNK N   1      22.865  12.672   0.166  0.00  0.00     0.013 A 
BRANCH  46  49
HETATM   49  C   UNK N   1      25.936  11.620   2.152  0.00  0.00     0.417 C 
HETATM   50  F   UNK N   1      26.222  10.334   2.583  0.00  0.00    -0.166 F 
HETATM   51  F   UNK N   1      26.789  11.944   1.116  0.00  0.00    -0.166 F 
HETATM   52  F   UNK N   1      26.144  12.493   3.205  0.00  0.00    -0.166 F 
ENDBRANCH  46  49
ENDBRANCH  38  43
ENDBRANCH  34  37
ENDBRANCH   4  33
TORSDOF 12
ENDMDL
MODEL 7
REMARK VINA RESULT:      -8.0      3.223      9.678
REMARK  12 active torsions:
REMARK  status: ('A' for Active; 'I' for Inactive)
REMARK    1  A    between atoms: C_14  and  C_5 
REMARK    2  A    between atoms: C_22  and  C_5 
REMARK       I    between atoms: C_14  and  N_15 
REMARK    3  A    between atoms: N_15  and  C_17 
REMARK    4  A    between atoms: C_17  and  C_18 
REMARK    5  A    between atoms: C_22  and  C_23 
REMARK    6  A    between atoms: C_23  and  C_24 
REMARK    7  A    between atoms: C_24  and  C_25 
REMARK    8  A    between atoms: C_25  and  N_26 
REMARK    9  A    between atoms: C_29  and  N_32 
REMARK       I    between atoms: N_32  and  C_33 
REMARK   10  A    between atoms: C_33  and  C_34 
REMARK   11  A    between atoms: C_36  and  C_41 
REMARK   12  A    between atoms: C_44  and  C_47 
ROOT
HETATM    1  N   UNK N   1      24.420  13.221   5.704  0.00  0.00     0.088 N 
HETATM    2  C   UNK N   1      24.476  12.098   4.759  0.00  0.00     0.274 C 
HETATM    3  C   UNK N   1      25.016  12.519   3.386  0.00  0.00     0.055 C 
HETATM    4  C   UNK N   1      24.280  13.748   2.821  0.00  0.00     0.088 C 
HETATM    5  C   UNK N   1      24.276  14.863   3.858  0.00  0.00     0.055 C 
HETATM    6  C   UNK N   1      23.672  14.365   5.175  0.00  0.00     0.274 C 
ENDROOT
BRANCH   1   7
HETATM    7  C   UNK N   1      25.723  13.610   6.270  0.00  0.00     0.272 C 
BRANCH   7   8
HETATM    8  C   UNK N   1      25.697  14.813   7.236  0.00  0.00     0.030 C 
BRANCH   8   9
HETATM    9  C   UNK N   1      26.352  16.096   6.693  0.00  0.00     0.003 C 
BRANCH   9  10
HETATM   10  C   UNK N   1      27.587  15.943   5.774  0.00  0.00     0.029 C 
BRANCH  10  11
HETATM   11  C   UNK N   1      28.448  17.214   5.639  0.00  0.00     0.096 A 
HETATM   12  C   UNK N   1      28.908  17.654   7.052  0.00  0.00    -0.025 A 
HETATM   13  C   UNK N   1      30.280  17.643   7.174  0.00  0.00    -0.018 A 
HETATM   14  C   UNK N   1      28.132  17.903   8.189  0.00  0.00     0.009 A 
HETATM   15  C   UNK N   1      30.846  17.263   5.926  0.00  0.00    -0.018 A 
HETATM   16  C   UNK N   1      30.932  17.894   8.382  0.00  0.00     0.013 A 
HETATM   17  C   UNK N   1      29.829  16.942   5.050  0.00  0.00    -0.025 A 
HETATM   18  C   UNK N   1      32.188  17.183   5.569  0.00  0.00     0.013 A 
HETATM   19  C   UNK N   1      30.128  16.508   3.756  0.00  0.00     0.009 A 
HETATM   20  C   UNK N   1      31.474  16.429   3.364  0.00  0.00     0.001 A 
HETATM   21  C   UNK N   1      32.500  16.774   4.266  0.00  0.00     0.001 A 
HETATM   22  C   UNK N   1      30.153  18.144   9.521  0.00  0.00     0.001 A 
HETATM   23  C   UNK N   1      28.753  18.144   9.425  0.00  0.00     0.001 A 
BRANCH  11  24
HETATM   24  C   UNK N   1      27.773  18.176   4.640  0.00  0.00     0.235 C 
HETATM   25  N   UNK N   1      26.696  17.779   3.915  0.00  0.00    -0.351 N 
HETATM   26  H   UNK N   1      26.474  16.823   3.839  0.00  0.00     0.162 HD
HETATM   27  O   UNK N   1      28.047  19.370   4.673  0.00  0.00    -0.272 OA
BRANCH  25  28
HETATM   28  C   UNK N   1      25.873  18.773   3.253  0.00  0.00     0.240 C 
BRANCH  28  29
HETATM   29  C   UNK N   1      24.556  18.990   4.012  0.00  0.00     0.403 C 
HETATM   30  F   UNK N   1      23.607  18.096   3.555  0.00  0.00    -0.169 F 
HETATM   31  F   UNK N   1      24.068  20.271   3.816  0.00  0.00    -0.169 F 
HETATM   32  F   UNK N   1      24.759  18.783   5.362  0.00  0.00    -0.169 F 
ENDBRANCH  28  29
ENDBRANCH  25  28
ENDBRANCH  11  24
ENDBRANCH  10  11
ENDBRANCH   9  10
ENDBRANCH   8   9
ENDBRANCH   7   8
ENDBRANCH   1   7
BRANCH   4  33
HETATM   33  N   UNK N   1      22.901  13.498   2.466  0.00  0.00    -0.352 N 
HETATM   34  C   UNK N   1      22.317  13.761   1.280  0.00  0.00     0.252 C 
HETATM   35  O   UNK N   1      22.903  14.427   0.431  0.00  0.00    -0.268 OA
HETATM   36  H   UNK N   1      22.331  13.096   3.161  0.00  0.00     0.163 HD
BRANCH  34  37
HETATM   37  C   UNK N   1      20.968  13.212   1.009  0.00  0.00     0.043 A 
HETATM   38  C   UNK N   1      19.782  13.963   1.199  0.00  0.00    -0.010 A 
HETATM   39  C   UNK N   1      18.541  13.370   0.946  0.00  0.00     0.013 A 
HETATM   40  C   UNK N   1      18.470  12.050   0.487  0.00  0.00     0.001 A 
HETATM   41  C   UNK N   1      19.637  11.317   0.273  0.00  0.00     0.001 A 
HETATM   42  C   UNK N   1      20.877  11.892   0.536  0.00  0.00     0.018 A 
BRANCH  38  43
HETATM   43  C   UNK N   1      19.848  15.383   1.584  0.00  0.00    -0.025 A 
HETATM   44  C   UNK N   1      19.898  16.359   0.578  0.00  0.00     0.013 A 
HETATM   45  C   UNK N   1      20.161  17.691   0.900  0.00  0.00     0.017 A 
HETATM   46  C   UNK N   1      20.415  18.054   2.227  0.00  0.00     0.048 A 
HETATM   47  C   UNK N   1      20.358  17.078   3.235  0.00  0.00     0.017 A 
HETATM   48  C   UNK N   1      20.072  15.746   2.916  0.00  0.00     0.013 A 
BRANCH  46  49
HETATM   49  C   UNK N   1      20.781  19.468   2.572  0.00  0.00     0.417 C 
HETATM   50  F   UNK N   1      21.031  19.602   3.929  0.00  0.00    -0.166 F 
HETATM   51  F   UNK N   1      21.910  19.844   1.871  0.00  0.00    -0.166 F 
HETATM   52  F   UNK N   1      19.734  20.306   2.233  0.00  0.00    -0.166 F 
ENDBRANCH  46  49
ENDBRANCH  38  43
ENDBRANCH  34  37
ENDBRANCH   4  33
TORSDOF 12
ENDMDL
MODEL 8
REMARK VINA RESULT:      -8.0      2.330      4.202
REMARK  12 active torsions:
REMARK  status: ('A' for Active; 'I' for Inactive)
REMARK    1  A    between atoms: C_14  and  C_5 
REMARK    2  A    between atoms: C_22  and  C_5 
REMARK       I    between atoms: C_14  and  N_15 
REMARK    3  A    between atoms: N_15  and  C_17 
REMARK    4  A    between atoms: C_17  and  C_18 
REMARK    5  A    between atoms: C_22  and  C_23 
REMARK    6  A    between atoms: C_23  and  C_24 
REMARK    7  A    between atoms: C_24  and  C_25 
REMARK    8  A    between atoms: C_25  and  N_26 
REMARK    9  A    between atoms: C_29  and  N_32 
REMARK       I    between atoms: N_32  and  C_33 
REMARK   10  A    between atoms: C_33  and  C_34 
REMARK   11  A    between atoms: C_36  and  C_41 
REMARK   12  A    between atoms: C_44  and  C_47 
ROOT
HETATM    1  N   UNK N   1      26.491  14.692   3.164  0.00  0.00     0.088 N 
HETATM    2  C   UNK N   1      27.579  15.612   2.803  0.00  0.00     0.274 C 
HETATM    3  C   UNK N   1      28.869  14.868   2.430  0.00  0.00     0.055 C 
HETATM    4  C   UNK N   1      29.278  13.837   3.499  0.00  0.00     0.088 C 
HETATM    5  C   UNK N   1      28.099  12.924   3.806  0.00  0.00     0.055 C 
HETATM    6  C   UNK N   1      26.877  13.751   4.219  0.00  0.00     0.274 C 
ENDROOT
BRANCH   1   7
HETATM    7  C   UNK N   1      25.847  14.026   2.019  0.00  0.00     0.272 C 
BRANCH   7   8
HETATM    8  C   UNK N   1      24.309  14.139   1.962  0.00  0.00     0.030 C 
BRANCH   8   9
HETATM    9  C   UNK N   1      23.716  15.329   2.738  0.00  0.00     0.003 C 
BRANCH   9  10
HETATM   10  C   UNK N   1      22.955  15.026   4.050  0.00  0.00     0.029 C 
BRANCH  10  11
HETATM   11  C   UNK N   1      21.429  15.236   3.970  0.00  0.00     0.096 A 
HETATM   12  C   UNK N   1      21.152  16.709   3.579  0.00  0.00    -0.025 A 
HETATM   13  C   UNK N   1      20.473  16.807   2.384  0.00  0.00    -0.018 A 
HETATM   14  C   UNK N   1      21.613  17.881   4.189  0.00  0.00     0.009 A 
HETATM   15  C   UNK N   1      20.205  15.496   1.905  0.00  0.00    -0.018 A 
HETATM   16  C   UNK N   1      20.205  18.029   1.767  0.00  0.00     0.013 A 
HETATM   17  C   UNK N   1      20.798  14.578   2.748  0.00  0.00    -0.025 A 
HETATM   18  C   UNK N   1      19.489  15.114   0.775  0.00  0.00     0.013 A 
HETATM   19  C   UNK N   1      20.701  13.211   2.476  0.00  0.00     0.009 A 
HETATM   20  C   UNK N   1      19.975  12.796   1.348  0.00  0.00     0.001 A 
HETATM   21  C   UNK N   1      19.363  13.745   0.506  0.00  0.00     0.001 A 
HETATM   22  C   UNK N   1      20.666  19.202   2.381  0.00  0.00     0.001 A 
HETATM   23  C   UNK N   1      21.374  19.128   3.590  0.00  0.00     0.001 A 
BRANCH  11  24
HETATM   24  C   UNK N   1      20.762  14.550   5.179  0.00  0.00     0.235 C 
HETATM   25  N   UNK N   1      21.485  14.236   6.285  0.00  0.00    -0.351 N 
HETATM   26  H   UNK N   1      22.469  14.226   6.248  0.00  0.00     0.162 HD
HETATM   27  O   UNK N   1      19.539  14.507   5.250  0.00  0.00    -0.272 OA
BRANCH  25  28
HETATM   28  C   UNK N   1      20.799  13.918   7.523  0.00  0.00     0.240 C 
BRANCH  28  29
HETATM   29  C   UNK N   1      20.766  15.133   8.461  0.00  0.00     0.403 C 
HETATM   30  F   UNK N   1      21.555  16.141   7.940  0.00  0.00    -0.169 F 
HETATM   31  F   UNK N   1      21.253  14.812   9.717  0.00  0.00    -0.169 F 
HETATM   32  F   UNK N   1      19.469  15.592   8.581  0.00  0.00    -0.169 F 
ENDBRANCH  28  29
ENDBRANCH  25  28
ENDBRANCH  11  24
ENDBRANCH  10  11
ENDBRANCH   9  10
ENDBRANCH   8   9
ENDBRANCH   7   8
ENDBRANCH   1   7
BRANCH   4  33
HETATM   33  N   UNK N   1      29.696  14.422   4.753  0.00  0.00    -0.352 N 
HETATM   34  C   UNK N   1      30.622  15.387   4.921  0.00  0.00     0.252 C 
HETATM   35  O   UNK N   1      31.340  15.729   3.984  0.00  0.00    -0.268 OA
HETATM   36  H   UNK N   1      29.259  14.082   5.567  0.00  0.00     0.163 HD
BRANCH  34  37
HETATM   37  C   UNK N   1      30.744  16.042   6.243  0.00  0.00     0.043 A 
HETATM   38  C   UNK N   1      29.879  17.081   6.667  0.00  0.00    -0.010 A 
HETATM   39  C   UNK N   1      30.071  17.671   7.920  0.00  0.00     0.013 A 
HETATM   40  C   UNK N   1      31.095  17.224   8.761  0.00  0.00     0.001 A 
HETATM   41  C   UNK N   1      31.932  16.184   8.358  0.00  0.00     0.001 A 
HETATM   42  C   UNK N   1      31.760  15.599   7.106  0.00  0.00     0.018 A 
BRANCH  38  43
HETATM   43  C   UNK N   1      28.735  17.490   5.834  0.00  0.00    -0.025 A 
HETATM   44  C   UNK N   1      28.898  18.543   4.922  0.00  0.00     0.013 A 
HETATM   45  C   UNK N   1      27.793  19.085   4.266  0.00  0.00     0.017 A 
HETATM   46  C   UNK N   1      26.509  18.607   4.544  0.00  0.00     0.048 A 
HETATM   47  C   UNK N   1      26.345  17.549   5.453  0.00  0.00     0.017 A 
HETATM   48  C   UNK N   1      27.456  16.989   6.095  0.00  0.00     0.013 A 
BRANCH  46  49
HETATM   49  C   UNK N   1      25.306  19.240   3.906  0.00  0.00     0.417 C 
HETATM   50  F   UNK N   1      24.624  18.330   3.114  0.00  0.00    -0.166 F 
HETATM   51  F   UNK N   1      24.451  19.711   4.884  0.00  0.00    -0.166 F 
HETATM   52  F   UNK N   1      25.715  20.296   3.111  0.00  0.00    -0.166 F 
ENDBRANCH  46  49
ENDBRANCH  38  43
ENDBRANCH  34  37
ENDBRANCH   4  33
TORSDOF 12
ENDMDL
MODEL 9
REMARK VINA RESULT:      -7.9      3.045      4.721
REMARK  12 active torsions:
REMARK  status: ('A' for Active; 'I' for Inactive)
REMARK    1  A    between atoms: C_14  and  C_5 
REMARK    2  A    between atoms: C_22  and  C_5 
REMARK       I    between atoms: C_14  and  N_15 
REMARK    3  A    between atoms: N_15  and  C_17 
REMARK    4  A    between atoms: C_17  and  C_18 
REMARK    5  A    between atoms: C_22  and  C_23 
REMARK    6  A    between atoms: C_23  and  C_24 
REMARK    7  A    between atoms: C_24  and  C_25 
REMARK    8  A    between atoms: C_25  and  N_26 
REMARK    9  A    between atoms: C_29  and  N_32 
REMARK       I    between atoms: N_32  and  C_33 
REMARK   10  A    between atoms: C_33  and  C_34 
REMARK   11  A    between atoms: C_36  and  C_41 
REMARK   12  A    between atoms: C_44  and  C_47 
ROOT
HETATM    1  N   UNK N   1      26.637  14.787   3.210  0.00  0.00     0.088 N 
HETATM    2  C   UNK N   1      27.620  15.816   2.843  0.00  0.00     0.274 C 
HETATM    3  C   UNK N   1      28.929  15.210   2.319  0.00  0.00     0.055 C 
HETATM    4  C   UNK N   1      29.499  14.141   3.270  0.00  0.00     0.088 C 
HETATM    5  C   UNK N   1      28.421  13.115   3.591  0.00  0.00     0.055 C 
HETATM    6  C   UNK N   1      27.176  13.807   4.157  0.00  0.00     0.274 C 
ENDROOT
BRANCH   1   7
HETATM    7  C   UNK N   1      25.956  14.156   2.067  0.00  0.00     0.272 C 
BRANCH   7   8
HETATM    8  C   UNK N   1      24.432  14.384   1.992  0.00  0.00     0.030 C 
BRANCH   8   9
HETATM    9  C   UNK N   1      23.806  15.012   3.250  0.00  0.00     0.003 C 
BRANCH   9  10
HETATM   10  C   UNK N   1      22.888  16.243   3.062  0.00  0.00     0.029 C 
BRANCH  10  11
HETATM   11  C   UNK N   1      21.430  16.031   3.517  0.00  0.00     0.096 A 
HETATM   12  C   UNK N   1      20.829  14.846   2.722  0.00  0.00    -0.025 A 
HETATM   13  C   UNK N   1      20.447  13.811   3.548  0.00  0.00    -0.018 A 
HETATM   14  C   UNK N   1      20.770  14.658   1.337  0.00  0.00     0.009 A 
HETATM   15  C   UNK N   1      20.695  14.190   4.896  0.00  0.00    -0.018 A 
HETATM   16  C   UNK N   1      19.980  12.590   3.061  0.00  0.00     0.013 A 
HETATM   17  C   UNK N   1      21.321  15.420   4.910  0.00  0.00    -0.025 A 
HETATM   18  C   UNK N   1      20.405  13.490   6.062  0.00  0.00     0.013 A 
HETATM   19  C   UNK N   1      21.698  16.001   6.123  0.00  0.00     0.009 A 
HETATM   20  C   UNK N   1      21.407  15.322   7.318  0.00  0.00     0.001 A 
HETATM   21  C   UNK N   1      20.754  14.074   7.286  0.00  0.00     0.001 A 
HETATM   22  C   UNK N   1      19.920  12.404   1.672  0.00  0.00     0.001 A 
HETATM   23  C   UNK N   1      20.319  13.437   0.811  0.00  0.00     0.001 A 
BRANCH  11  24
HETATM   24  C   UNK N   1      20.735  17.403   3.631  0.00  0.00     0.235 C 
HETATM   25  N   UNK N   1      21.462  18.549   3.670  0.00  0.00    -0.351 N 
HETATM   26  H   UNK N   1      22.428  18.517   3.859  0.00  0.00     0.162 HD
HETATM   27  O   UNK N   1      19.527  17.485   3.440  0.00  0.00    -0.272 OA
BRANCH  25  28
HETATM   28  C   UNK N   1      20.808  19.821   3.430  0.00  0.00     0.240 C 
BRANCH  28  29
HETATM   29  C   UNK N   1      21.262  20.430   2.096  0.00  0.00     0.403 C 
HETATM   30  F   UNK N   1      20.687  21.678   1.938  0.00  0.00    -0.169 F 
HETATM   31  F   UNK N   1      20.876  19.641   1.026  0.00  0.00    -0.169 F 
HETATM   32  F   UNK N   1      22.636  20.563   2.090  0.00  0.00    -0.169 F 
ENDBRANCH  28  29
ENDBRANCH  25  28
ENDBRANCH  11  24
ENDBRANCH  10  11
ENDBRANCH   9  10
ENDBRANCH   8   9
ENDBRANCH   7   8
ENDBRANCH   1   7
BRANCH   4  33
HETATM   33  N   UNK N   1      29.970  14.665   4.532  0.00  0.00    -0.352 N 
HETATM   34  C   UNK N   1      30.829  15.689   4.706  0.00  0.00     0.252 C 
HETATM   35  O   UNK N   1      31.440  16.158   3.748  0.00  0.00    -0.268 OA
HETATM   36  H   UNK N   1      29.628  14.231   5.347  0.00  0.00     0.163 HD
BRANCH  34  37
HETATM   37  C   UNK N   1      31.006  16.254   6.063  0.00  0.00     0.043 A 
HETATM   38  C   UNK N   1      30.103  17.188   6.630  0.00  0.00    -0.010 A 
HETATM   39  C   UNK N   1      30.349  17.698   7.909  0.00  0.00     0.013 A 
HETATM   40  C   UNK N   1      31.467  17.274   8.635  0.00  0.00     0.001 A 
HETATM   41  C   UNK N   1      32.344  16.335   8.091  0.00  0.00     0.001 A 
HETATM   42  C   UNK N   1      32.117  15.831   6.813  0.00  0.00     0.018 A 
BRANCH  38  43
HETATM   43  C   UNK N   1      28.871  17.564   5.918  0.00  0.00    -0.025 A 
HETATM   44  C   UNK N   1      28.887  18.683   5.072  0.00  0.00     0.013 A 
HETATM   45  C   UNK N   1      27.698  19.184   4.542  0.00  0.00     0.017 A 
HETATM   46  C   UNK N   1      26.476  18.595   4.882  0.00  0.00     0.048 A 
HETATM   47  C   UNK N   1      26.459  17.470   5.724  0.00  0.00     0.017 A 
HETATM   48  C   UNK N   1      27.654  16.954   6.238  0.00  0.00     0.013 A 
BRANCH  46  49
HETATM   49  C   UNK N   1      25.185  19.178   4.385  0.00  0.00     0.417 C 
HETATM   50  F   UNK N   1      25.191  20.561   4.483  0.00  0.00    -0.166 F 
HETATM   51  F   UNK N   1      24.991  18.825   3.063  0.00  0.00    -0.166 F 
HETATM   52  F   UNK N   1      24.140  18.687   5.146  0.00  0.00    -0.166 F 
ENDBRANCH  46  49
ENDBRANCH  38  43
ENDBRANCH  34  37
ENDBRANCH   4  33
TORSDOF 12
ENDMDL
