REMARK  4 active torsions:
REMARK  status: ('A' for Active; 'I' for Inactive)
REMARK    1  A    between atoms: C_14  and  C_9 
REMARK    2  A    between atoms: C_14  and  C_10 
REMARK       I    between atoms: N_21  and  C_15 
REMARK    3  A    between atoms: O_24  and  C_16 
REMARK    4  A    between atoms: O_25  and  C_16 
ROOT
HETATM    1  C   UNK N   1       4.268   1.200  -0.382  0.00  0.00     0.018 A 
HETATM    2  C   UNK N   1       3.050   1.892  -0.343  0.00  0.00     0.033 A 
HETATM    3  C   UNK N   1       3.110  -0.943  -0.151  0.00  0.00     0.048 A 
HETATM    4  C   UNK N   1       4.320  -0.216  -0.285  0.00  0.00     0.017 A 
HETATM    5  C   UNK N   1       1.899   1.139  -0.194  0.00  0.00     0.076 A 
HETATM    6  C   UNK N   1       1.920  -0.218  -0.099  0.00  0.00     0.077 A 
HETATM    7  C   UNK N   1      -0.091   0.449   0.041  0.00  0.00     0.686 A 
HETATM    8  C   UNK N   1      -2.261   1.479   0.129  0.00  0.00     0.276 C 
HETATM    9  N   UNK N   1       0.641   1.582  -0.111  0.00  0.00    -0.189 N 
ATOM     10  HN  UNK N   1       0.309   2.546  -0.153  1.00  0.00     0.184 HD
HETATM   11  N   UNK N   1       0.667  -0.678   0.053  0.00  0.00    -0.189 N 
HETATM   12  N   UNK N   1      -1.506   0.430   0.187  0.00  0.00    -0.149 N 
ATOM     13  HN  UNK N   1      -1.956  -0.471   0.348  1.00  0.00     0.188 HD
HETATM   14  H   UNK N   1       0.369  -1.611   0.150  0.00  0.00     0.184 HD
ENDROOT
BRANCH   4  15
HETATM   15  C   UNK N   1       5.627  -0.938  -0.328  0.00  0.00     0.192 C 
HETATM   16  O   UNK N   1       5.619  -2.156  -0.454  0.00  0.00    -0.287 OA
BRANCH  15  17
HETATM   17  C   UNK N   1       6.945  -0.241  -0.199  0.00  0.00     0.015 A 
HETATM   18  C   UNK N   1       8.139  -0.960  -0.374  0.00  0.00     0.018 A 
HETATM   19  C   UNK N   1       9.378  -0.326  -0.223  0.00  0.00     0.043 A 
HETATM   20  C   UNK N   1       9.436   1.028   0.119  0.00  0.00     0.116 A 
HETATM   21  C   UNK N   1       8.258   1.750   0.304  0.00  0.00     0.043 A 
HETATM   22  F   UNK N   1      10.633   1.642   0.274  0.00  0.00    -0.206 F 
HETATM   23  C   UNK N   1       7.024   1.119   0.145  0.00  0.00     0.018 A 
ENDBRANCH  15  17
ENDBRANCH   4  15
BRANCH   8  24
HETATM   24  O   UNK N   1      -1.734   2.705  -0.098  0.00  0.00    -0.326 OA
HETATM   25  H   UNK N   1      -0.817   2.814  -0.254  0.00  0.00     0.221 HD
ENDBRANCH   8  24
BRANCH   8  26
HETATM   26  O   UNK N   1      -3.596   1.339   0.290  0.00  0.00    -0.321 OA
HETATM   27  C   UNK N   1      -4.450   2.413   0.225  0.00  0.00     0.213 C 
ENDBRANCH   8  26
TORSDOF 4
