REMARK  4 active torsions:
REMARK  status: ('A' for Active; 'I' for Inactive)
REMARK    1  A    between atoms: C_1  and  As_10 
REMARK    2  A    between atoms: C_4  and  O_17 
REMARK    3  A    between atoms: C_5  and  N_7 
REMARK       I    between atoms: N_7  and  C_8 
REMARK    4  A    between atoms: C_13  and  C_15 
ROOT
HETATM    1  C   UNK N   1       5.310  -8.361  -0.721  0.00  0.00     0.180 C 
HETATM    2  O   UNK N   1       5.274  -8.562   0.662  0.00  0.00    -0.400 OA
HETATM    3  H   UNK N   1       5.141  -8.611   1.621  0.00  0.00     0.209 HD
ENDROOT
BRANCH   1   4
HETATM    4  C   UNK N   1       6.747  -8.291  -1.217  0.00  0.00     0.092 C 
HETATM    5  C   UNK N   1       7.444  -7.092  -0.577  0.00  0.00     0.104 C 
HETATM    6  S   UNK N   1       9.222  -7.367  -0.420  0.00  0.00    -0.096 SA
HETATM    7 As   UNK N   1       8.713  -9.134   0.880  0.00  0.00     0.000 As
HETATM    8  S   UNK N   1       7.595  -9.891  -0.926  0.00  0.00    -0.089 SA
BRANCH   7   9
HETATM    9  C   UNK N   1      10.340 -10.098   0.423  0.00  0.00    -0.024 A 
HETATM   10  C   UNK N   1      10.331 -11.487   0.272  0.00  0.00     0.015 A 
HETATM   11  C   UNK N   1      11.520 -12.163  -0.015  0.00  0.00     0.040 A 
HETATM   12  C   UNK N   1      12.725 -11.460  -0.134  0.00  0.00     0.092 A 
HETATM   13  C   UNK N   1      12.738 -10.052   0.040  0.00  0.00     0.069 A 
HETATM   14  C   UNK N   1      11.537  -9.397   0.308  0.00  0.00     0.044 A 
BRANCH  12  15
HETATM   15  O   UNK N   1      13.841 -12.140  -0.445  0.00  0.00    -0.358 OA
HETATM   16  H   UNK N   1      13.820 -13.052  -0.661  0.00  0.00     0.217 HD
ENDBRANCH  12  15
BRANCH  13  17
HETATM   17  N   UNK N   1      13.904  -9.242  -0.070  0.00  0.00    -0.325 N 
HETATM   18  C   UNK N   1      15.169  -9.570   0.301  0.00  0.00     0.218 C 
HETATM   19  C   UNK N   1      16.262  -8.582   0.087  0.00  0.00     0.117 C 
HETATM   20  O   UNK N   1      15.411 -10.615   0.878  0.00  0.00    -0.274 OA
HETATM   21  H   UNK N   1      13.780  -8.346  -0.458  0.00  0.00     0.169 HD
ENDBRANCH  13  17
ENDBRANCH   7   9
ENDBRANCH   1   4
TORSDOF 4
