REMARK  5 active torsions:
REMARK  status: ('A' for Active; 'I' for Inactive)
REMARK    1  A    between atoms: C_13  and  C_5 
REMARK    2  A    between atoms: N_35  and  C_13 
REMARK    3  A    between atoms: C_20  and  C_15 
REMARK    4  A    between atoms: N_36  and  C_15 
REMARK    5  A    between atoms: C_17  and  N_26 
REMARK       I    between atoms: N_34  and  C_24 
ROOT
HETATM    1  C   UNK N   1      -5.806   8.971   0.148  0.00  0.00     0.112 C 
HETATM    2  C   UNK N   1      -4.731   8.009  -0.092  0.00  0.00    -0.109 C 
HETATM    3  C   UNK N   1      -3.855   7.224  -0.361  0.00  0.00    -0.086 C 
ENDROOT
BRANCH   3   4
HETATM    4  C   UNK N   1      -2.746   6.387  -0.823  0.00  0.00     0.241 C 
BRANCH   4   5
HETATM    5  N   UNK N   1      -2.563   5.069  -0.196  0.00  0.00    -0.163 N 
HETATM    6  C   UNK N   1      -1.354   4.463  -0.143  0.00  0.00     0.165 A 
HETATM    7  C   UNK N   1      -1.522   3.170   0.199  0.00  0.00     0.160 A 
HETATM    8  C   UNK N   1      -0.096   4.923  -0.535  0.00  0.00     0.283 A 
HETATM    9  N   UNK N   1      -2.811   2.888   0.360  0.00  0.00    -0.174 N 
HETATM   10  N   UNK N   1      -0.530   2.264   0.173  0.00  0.00    -0.287 N 
HETATM   11  C   UNK N   1      -3.444   4.049   0.075  0.00  0.00     0.685 A 
ATOM     12  HN  UNK N   1      -3.228   1.999   0.637  1.00  0.00     0.186 HD
HETATM   13  N   UNK N   1      -4.828   4.034  -0.233  0.00  0.00    -0.215 N 
HETATM   14  C   UNK N   1      -5.740   5.092   0.119  0.00  0.00     0.141 C 
HETATM   15  C   UNK N   1      -5.372   2.817  -0.799  0.00  0.00     0.165 C 
HETATM   16  C   UNK N   1      -6.995   4.515   0.804  0.00  0.00     0.022 C 
HETATM   17  C   UNK N   1      -6.766   3.081   1.301  0.00  0.00     0.028 C 
HETATM   18  C   UNK N   1      -6.364   2.152   0.148  0.00  0.00     0.092 C 
HETATM   19  C   UNK N   1      -0.803   0.865   0.486  0.00  0.00     0.163 C 
HETATM   20  C   UNK N   1       0.701   2.658  -0.299  0.00  0.00     0.333 A 
HETATM   21  N   UNK N   1       0.939   3.999  -0.647  0.00  0.00    -0.257 N 
HETATM   22  O   UNK N   1       1.548   1.806  -0.475  0.00  0.00    -0.246 OA
HETATM   23  O   UNK N   1       0.063   6.085  -0.876  0.00  0.00    -0.265 OA
BRANCH  18  24
HETATM   24  N   UNK N   1      -5.773   0.940   0.687  0.00  0.00    -0.424 N 
HETATM   25  H   UNK N   1      -6.302   0.155   1.066  0.00  0.00     0.150 HD
HETATM   26  H   UNK N   1      -4.755   0.869   0.687  0.00  0.00     0.150 HD
ENDBRANCH  18  24
BRANCH  21  27
HETATM   27  C   UNK N   1       2.169   4.445  -1.343  0.00  0.00     0.213 C 
BRANCH  27  28
HETATM   28  C   UNK N   1       3.499   4.017  -0.798  0.00  0.00     0.100 A 
HETATM   29  N   UNK N   1       3.796   2.698  -0.709  0.00  0.00    -0.347 N 
HETATM   30  C   UNK N   1       5.006   2.248  -0.321  0.00  0.00     0.019 A 
ATOM     31  HN  UNK N   1       3.074   2.017  -0.945  1.00  0.00     0.167 HD
HETATM   32  C   UNK N   1       5.226   0.777  -0.211  0.00  0.00     0.069 C 
HETATM   33  C   UNK N   1       6.015   3.171  -0.054  0.00  0.00     0.013 A 
HETATM   34  C   UNK N   1       7.300   2.764   0.322  0.00  0.00     0.015 A 
HETATM   35  C   UNK N   1       5.717   4.545  -0.185  0.00  0.00     0.045 A 
HETATM   36  C   UNK N   1       8.290   3.718   0.556  0.00  0.00     0.001 A 
HETATM   37  C   UNK N   1       8.000   5.079   0.415  0.00  0.00     0.002 A 
HETATM   38  C   UNK N   1       6.715   5.494   0.048  0.00  0.00     0.030 A 
HETATM   39  N   UNK N   1       4.467   4.940  -0.552  0.00  0.00    -0.344 N 
ATOM     40  HN  UNK N   1       4.254   5.934  -0.642  1.00  0.00     0.167 HD
ENDBRANCH  27  28
ENDBRANCH  21  27
ENDBRANCH   4   5
ENDBRANCH   3   4
TORSDOF 5
