REMARK  5 active torsions:
REMARK  status: ('A' for Active; 'I' for Inactive)
REMARK    1  A    between atoms: C_14  and  C_13 
REMARK    2  A    between atoms: N_22  and  C_13 
REMARK    3  A    between atoms: N_20  and  C_14 
REMARK    4  A    between atoms: S_26  and  C_15 
REMARK    5  A    between atoms: S_26  and  N_21 
ROOT
HETATM    1  C   UNK N   1       7.266   2.085   0.908  0.00  0.00     0.002 A 
HETATM    2  C   UNK N   1       7.338   3.365   0.374  0.00  0.00     0.002 A 
HETATM    3  C   UNK N   1       6.056   1.393   0.889  0.00  0.00     0.031 A 
HETATM    4  C   UNK N   1       6.201   3.943  -0.184  0.00  0.00     0.021 A 
HETATM    5  C   UNK N   1      -0.158   2.851  -0.548  0.00  0.00     0.026 A 
HETATM    6  C   UNK N   1       0.991   3.570  -0.849  0.00  0.00     0.023 A 
HETATM    7  C   UNK N   1       1.202   1.053   0.310  0.00  0.00     0.055 A 
HETATM    8  C   UNK N   1      -0.061   1.592   0.029  0.00  0.00     0.076 A 
HETATM    9  C   UNK N   1       4.891   1.954   0.325  0.00  0.00     0.052 A 
HETATM   10  C   UNK N   1       2.389   1.775   0.015  0.00  0.00     0.053 A 
HETATM   11  C   UNK N   1       4.981   3.254  -0.215  0.00  0.00     0.032 A 
HETATM   12  C   UNK N   1       2.259   3.056  -0.563  0.00  0.00     0.032 A 
HETATM   13  N   UNK N   1       3.663   1.193   0.354  0.00  0.00    -0.343 N 
HETATM   14  S   UNK N   1       3.631   4.103  -1.007  0.00  0.00    -0.086 SA
ENDROOT
BRANCH   8  15
HETATM   15  S   UNK N   1      -1.564   0.764   0.559  0.00  0.00     0.243 S 
HETATM   16  O   UNK N   1      -2.800   1.643   0.294  0.00  0.00    -0.206 OA
HETATM   17  O   UNK N   1      -1.595   0.677   2.092  0.00  0.00    -0.206 OA
BRANCH  15  18
HETATM   18  N   UNK N   1      -1.993  -0.868   0.007  0.00  0.00    -0.215 NA
HETATM   19  C   UNK N   1      -1.886  -0.903  -1.440  0.00  0.00     0.129 C 
HETATM   20  C   UNK N   1      -3.389  -1.116   0.336  0.00  0.00     0.129 C 
ENDBRANCH  15  18
ENDBRANCH   8  15
BRANCH  13  21
HETATM   21  C   UNK N   1       3.672  -0.153   0.909  0.00  0.00     0.164 C 
BRANCH  21  22
HETATM   22  C   UNK N   1       4.229  -1.199  -0.074  0.00  0.00     0.236 C 
HETATM   23  C   UNK N   1       5.704  -1.431   0.242  0.00  0.00     0.044 C 
BRANCH  22  24
HETATM   24  N   UNK N   1       3.482  -2.460   0.050  0.00  0.00     0.085 N 
HETATM   25  C   UNK N   1       4.046  -3.465  -0.844  0.00  0.00     0.310 C 
HETATM   26  C   UNK N   1       2.121  -2.246  -0.416  0.00  0.00     0.310 C 
ENDBRANCH  22  24
ENDBRANCH  21  22
ENDBRANCH  13  21
TORSDOF 5
