MODEL 1
REMARK VINA RESULT:      -4.7      0.000      0.000
REMARK  6 active torsions:
REMARK  status: ('A' for Active; 'I' for Inactive)
REMARK    1  A    between atoms: C_1  and  C_2 
REMARK    2  A    between atoms: C_1  and  C_3 
REMARK    3  A    between atoms: C_2  and  C_4 
REMARK    4  A    between atoms: C_2  and  O_6 
REMARK    5  A    between atoms: C_4  and  N_5 
REMARK    6  A    between atoms: O_6  and  C_9 
ROOT
HETATM    1  C   UNK N   1      34.294  16.097   9.321  0.00  0.00     0.167 C 
ENDROOT
BRANCH   1   2
HETATM    2  C   UNK N   1      33.637  17.402   8.860  0.00  0.00     0.147 C 
BRANCH   2   3
HETATM    3  C   UNK N   1      34.487  18.273   7.973  0.00  0.00     0.175 C 
HETATM    4  O   UNK N   1      35.281  19.204   8.533  0.00  0.00    -0.648 OA
HETATM    5  O   UNK N   1      34.481  18.139   6.759  0.00  0.00    -0.648 OA
ENDBRANCH   2   3
ENDBRANCH   1   2
BRANCH   1   6
HETATM    6  C   UNK N   1      33.292  14.953   9.092  0.00  0.00     0.268 C 
BRANCH   6   7
HETATM    7  N   UNK N   1      33.819  13.819   8.323  0.00  0.00    -0.076 N 
HETATM    8  C   UNK N   1      33.002  13.669   7.134  0.00  0.00     0.271 C 
HETATM    9  C   UNK N   1      33.721  12.590   9.094  0.00  0.00     0.271 C 
HETATM   10  C   UNK N   1      35.198  14.016   7.901  0.00  0.00     0.271 C 
ENDBRANCH   6   7
ENDBRANCH   1   6
BRANCH   1  11
HETATM   11  O   UNK N   1      34.599  16.189  10.665  0.00  0.00    -0.314 OA
BRANCH  11  12
HETATM   12  C   UNK N   1      35.790  15.825  11.207  0.00  0.00     0.255 C 
HETATM   13  C   UNK N   1      35.876  14.871  12.357  0.00  0.00     0.126 C 
HETATM   14  O   UNK N   1      36.820  16.270  10.732  0.00  0.00    -0.266 OA
ENDBRANCH  11  12
ENDBRANCH   1  11
TORSDOF 6
ENDMDL
MODEL 2
REMARK VINA RESULT:      -4.5      3.099      4.148
REMARK  6 active torsions:
REMARK  status: ('A' for Active; 'I' for Inactive)
REMARK    1  A    between atoms: C_1  and  C_2 
REMARK    2  A    between atoms: C_1  and  C_3 
REMARK    3  A    between atoms: C_2  and  C_4 
REMARK    4  A    between atoms: C_2  and  O_6 
REMARK    5  A    between atoms: C_4  and  N_5 
REMARK    6  A    between atoms: O_6  and  C_9 
ROOT
HETATM    1  C   UNK N   1      32.104  16.851   7.804  0.00  0.00     0.167 C 
ENDROOT
BRANCH   1   2
HETATM    2  C   UNK N   1      32.827  18.079   8.370  0.00  0.00     0.147 C 
BRANCH   2   3
HETATM    3  C   UNK N   1      34.215  18.313   7.834  0.00  0.00     0.175 C 
HETATM    4  O   UNK N   1      34.598  17.686   6.707  0.00  0.00    -0.648 OA
HETATM    5  O   UNK N   1      34.989  19.074   8.393  0.00  0.00    -0.648 OA
ENDBRANCH   2   3
ENDBRANCH   1   2
BRANCH   1   6
HETATM    6  C   UNK N   1      30.726  17.304   7.294  0.00  0.00     0.268 C 
BRANCH   6   7
HETATM    7  N   UNK N   1      30.407  16.878   5.926  0.00  0.00    -0.076 N 
HETATM    8  C   UNK N   1      31.528  17.230   5.076  0.00  0.00     0.271 C 
HETATM    9  C   UNK N   1      29.232  17.579   5.433  0.00  0.00     0.271 C 
HETATM   10  C   UNK N   1      30.193  15.442   5.819  0.00  0.00     0.271 C 
ENDBRANCH   6   7
ENDBRANCH   1   6
BRANCH   1  11
HETATM   11  O   UNK N   1      31.946  15.913   8.806  0.00  0.00    -0.314 OA
BRANCH  11  12
HETATM   12  C   UNK N   1      32.647  14.752   8.884  0.00  0.00     0.255 C 
HETATM   13  C   UNK N   1      33.832  14.605   9.786  0.00  0.00     0.126 C 
HETATM   14  O   UNK N   1      32.291  13.796   8.217  0.00  0.00    -0.266 OA
ENDBRANCH  11  12
ENDBRANCH   1  11
TORSDOF 6
ENDMDL
MODEL 3
REMARK VINA RESULT:      -4.3      2.723      3.911
REMARK  6 active torsions:
REMARK  status: ('A' for Active; 'I' for Inactive)
REMARK    1  A    between atoms: C_1  and  C_2 
REMARK    2  A    between atoms: C_1  and  C_3 
REMARK    3  A    between atoms: C_2  and  C_4 
REMARK    4  A    between atoms: C_2  and  O_6 
REMARK    5  A    between atoms: C_4  and  N_5 
REMARK    6  A    between atoms: O_6  and  C_9 
ROOT
HETATM    1  C   UNK N   1      35.380  13.950  11.815  0.00  0.00     0.167 C 
ENDROOT
BRANCH   1   2
HETATM    2  C   UNK N   1      34.648  15.162  11.228  0.00  0.00     0.147 C 
BRANCH   2   3
HETATM    3  C   UNK N   1      35.536  16.275  10.738  0.00  0.00     0.175 C 
HETATM    4  O   UNK N   1      34.976  17.384  10.219  0.00  0.00    -0.648 OA
HETATM    5  O   UNK N   1      36.752  16.197  10.818  0.00  0.00    -0.648 OA
ENDBRANCH   2   3
ENDBRANCH   1   2
BRANCH   1   6
HETATM    6  C   UNK N   1      35.386  12.838  10.752  0.00  0.00     0.268 C 
BRANCH   6   7
HETATM    7  N   UNK N   1      36.706  12.535  10.187  0.00  0.00    -0.076 N 
HETATM    8  C   UNK N   1      36.761  11.110   9.922  0.00  0.00     0.271 C 
HETATM    9  C   UNK N   1      37.756  12.856  11.140  0.00  0.00     0.271 C 
HETATM   10  C   UNK N   1      36.958  13.236   8.936  0.00  0.00     0.271 C 
ENDBRANCH   6   7
ENDBRANCH   1   6
BRANCH   1  11
HETATM   11  O   UNK N   1      34.711  13.515  12.942  0.00  0.00    -0.314 OA
BRANCH  11  12
HETATM   12  C   UNK N   1      35.247  13.497  14.191  0.00  0.00     0.255 C 
HETATM   13  C   UNK N   1      36.613  14.041  14.471  0.00  0.00     0.126 C 
HETATM   14  O   UNK N   1      34.592  13.044  15.113  0.00  0.00    -0.266 OA
ENDBRANCH  11  12
ENDBRANCH   1  11
TORSDOF 6
ENDMDL
MODEL 4
REMARK VINA RESULT:      -4.3     14.027     15.717
REMARK  6 active torsions:
REMARK  status: ('A' for Active; 'I' for Inactive)
REMARK    1  A    between atoms: C_1  and  C_2 
REMARK    2  A    between atoms: C_1  and  C_3 
REMARK    3  A    between atoms: C_2  and  C_4 
REMARK    4  A    between atoms: C_2  and  O_6 
REMARK    5  A    between atoms: C_4  and  N_5 
REMARK    6  A    between atoms: O_6  and  C_9 
ROOT
HETATM    1  C   UNK N   1      20.313  18.346   2.912  0.00  0.00     0.167 C 
ENDROOT
BRANCH   1   2
HETATM    2  C   UNK N   1      19.976  19.791   2.527  0.00  0.00     0.147 C 
BRANCH   2   3
HETATM    3  C   UNK N   1      21.096  20.563   1.880  0.00  0.00     0.175 C 
HETATM    4  O   UNK N   1      21.950  21.256   2.655  0.00  0.00    -0.648 OA
HETATM    5  O   UNK N   1      21.252  20.556   0.669  0.00  0.00    -0.648 OA
ENDBRANCH   2   3
ENDBRANCH   1   2
BRANCH   1   6
HETATM    6  C   UNK N   1      21.218  18.383   4.155  0.00  0.00     0.268 C 
BRANCH   6   7
HETATM    7  N   UNK N   1      21.067  17.238   5.059  0.00  0.00    -0.076 N 
HETATM    8  C   UNK N   1      21.139  17.732   6.421  0.00  0.00     0.271 C 
HETATM    9  C   UNK N   1      22.152  16.289   4.868  0.00  0.00     0.271 C 
HETATM   10  C   UNK N   1      19.793  16.554   4.895  0.00  0.00     0.271 C 
ENDBRANCH   6   7
ENDBRANCH   1   6
BRANCH   1  11
HETATM   11  O   UNK N   1      20.981  17.740   1.866  0.00  0.00    -0.314 OA
BRANCH  11  12
HETATM   12  C   UNK N   1      20.385  16.956   0.929  0.00  0.00     0.255 C 
HETATM   13  C   UNK N   1      19.811  15.617   1.269  0.00  0.00     0.126 C 
HETATM   14  O   UNK N   1      20.296  17.362  -0.216  0.00  0.00    -0.266 OA
ENDBRANCH  11  12
ENDBRANCH   1  11
TORSDOF 6
ENDMDL
MODEL 5
REMARK VINA RESULT:      -4.2     12.184     13.675
REMARK  6 active torsions:
REMARK  status: ('A' for Active; 'I' for Inactive)
REMARK    1  A    between atoms: C_1  and  C_2 
REMARK    2  A    between atoms: C_1  and  C_3 
REMARK    3  A    between atoms: C_2  and  C_4 
REMARK    4  A    between atoms: C_2  and  O_6 
REMARK    5  A    between atoms: C_4  and  N_5 
REMARK    6  A    between atoms: O_6  and  C_9 
ROOT
HETATM    1  C   UNK N   1      22.671  18.837   3.533  0.00  0.00     0.167 C 
ENDROOT
BRANCH   1   2
HETATM    2  C   UNK N   1      21.379  19.088   2.748  0.00  0.00     0.147 C 
BRANCH   2   3
HETATM    3  C   UNK N   1      20.870  20.505   2.783  0.00  0.00     0.175 C 
HETATM    4  O   UNK N   1      20.189  20.933   3.862  0.00  0.00    -0.648 OA
HETATM    5  O   UNK N   1      21.079  21.276   1.858  0.00  0.00    -0.648 OA
ENDBRANCH   2   3
ENDBRANCH   1   2
BRANCH   1   6
HETATM    6  C   UNK N   1      22.292  18.216   4.888  0.00  0.00     0.268 C 
BRANCH   6   7
HETATM    7  N   UNK N   1      22.805  16.859   5.108  0.00  0.00    -0.076 N 
HETATM    8  C   UNK N   1      22.314  16.399   6.393  0.00  0.00     0.271 C 
HETATM    9  C   UNK N   1      24.258  16.864   5.158  0.00  0.00     0.271 C 
HETATM   10  C   UNK N   1      22.361  15.917   4.091  0.00  0.00     0.271 C 
ENDBRANCH   6   7
ENDBRANCH   1   6
BRANCH   1  11
HETATM   11  O   UNK N   1      23.323  20.038   3.736  0.00  0.00    -0.314 OA
BRANCH  11  12
HETATM   12  C   UNK N   1      24.519  20.363   3.180  0.00  0.00     0.255 C 
HETATM   13  C   UNK N   1      25.811  20.135   3.899  0.00  0.00     0.126 C 
HETATM   14  O   UNK N   1      24.544  20.835   2.057  0.00  0.00    -0.266 OA
ENDBRANCH  11  12
ENDBRANCH   1  11
TORSDOF 6
ENDMDL
MODEL 6
REMARK VINA RESULT:      -4.2      3.279      4.826
REMARK  6 active torsions:
REMARK  status: ('A' for Active; 'I' for Inactive)
REMARK    1  A    between atoms: C_1  and  C_2 
REMARK    2  A    between atoms: C_1  and  C_3 
REMARK    3  A    between atoms: C_2  and  C_4 
REMARK    4  A    between atoms: C_2  and  O_6 
REMARK    5  A    between atoms: C_4  and  N_5 
REMARK    6  A    between atoms: O_6  and  C_9 
ROOT
HETATM    1  C   UNK N   1      32.996  16.960   6.803  0.00  0.00     0.167 C 
ENDROOT
BRANCH   1   2
HETATM    2  C   UNK N   1      34.450  17.063   7.276  0.00  0.00     0.147 C 
BRANCH   2   3
HETATM    3  C   UNK N   1      34.678  17.956   8.467  0.00  0.00     0.175 C 
HETATM    4  O   UNK N   1      34.562  17.442   9.705  0.00  0.00    -0.648 OA
HETATM    5  O   UNK N   1      34.982  19.131   8.329  0.00  0.00    -0.648 OA
ENDBRANCH   2   3
ENDBRANCH   1   2
BRANCH   1   6
HETATM    6  C   UNK N   1      32.917  17.533   5.378  0.00  0.00     0.268 C 
BRANCH   6   7
HETATM    7  N   UNK N   1      32.106  16.744   4.443  0.00  0.00    -0.076 N 
HETATM    8  C   UNK N   1      32.078  15.375   4.923  0.00  0.00     0.271 C 
HETATM    9  C   UNK N   1      32.708  16.744   3.120  0.00  0.00     0.271 C 
HETATM   10  C   UNK N   1      30.733  17.217   4.349  0.00  0.00     0.271 C 
ENDBRANCH   6   7
ENDBRANCH   1   6
BRANCH   1  11
HETATM   11  O   UNK N   1      32.188  17.697   7.648  0.00  0.00    -0.314 OA
BRANCH  11  12
HETATM   12  C   UNK N   1      31.052  17.225   8.225  0.00  0.00     0.255 C 
HETATM   13  C   UNK N   1      29.704  17.775   7.879  0.00  0.00     0.126 C 
HETATM   14  O   UNK N   1      31.129  16.315   9.032  0.00  0.00    -0.266 OA
ENDBRANCH  11  12
ENDBRANCH   1  11
TORSDOF 6
ENDMDL
MODEL 7
REMARK VINA RESULT:      -4.1     13.898     15.522
REMARK  6 active torsions:
REMARK  status: ('A' for Active; 'I' for Inactive)
REMARK    1  A    between atoms: C_1  and  C_2 
REMARK    2  A    between atoms: C_1  and  C_3 
REMARK    3  A    between atoms: C_2  and  C_4 
REMARK    4  A    between atoms: C_2  and  O_6 
REMARK    5  A    between atoms: C_4  and  N_5 
REMARK    6  A    between atoms: O_6  and  C_9 
ROOT
HETATM    1  C   UNK N   1      20.532  17.396   3.253  0.00  0.00     0.167 C 
ENDROOT
BRANCH   1   2
HETATM    2  C   UNK N   1      19.954  16.290   2.362  0.00  0.00     0.147 C 
BRANCH   2   3
HETATM    3  C   UNK N   1      20.568  16.181   0.991  0.00  0.00     0.175 C 
HETATM    4  O   UNK N   1      20.217  17.069   0.042  0.00  0.00    -0.648 OA
HETATM    5  O   UNK N   1      21.388  15.315   0.731  0.00  0.00    -0.648 OA
ENDBRANCH   2   3
ENDBRANCH   1   2
BRANCH   1   6
HETATM    6  C   UNK N   1      20.445  16.923   4.714  0.00  0.00     0.268 C 
BRANCH   6   7
HETATM    7  N   UNK N   1      21.737  16.807   5.400  0.00  0.00    -0.076 N 
HETATM    8  C   UNK N   1      21.486  16.325   6.745  0.00  0.00     0.271 C 
HETATM    9  C   UNK N   1      22.380  18.107   5.501  0.00  0.00     0.271 C 
HETATM   10  C   UNK N   1      22.640  15.871   4.747  0.00  0.00     0.271 C 
ENDBRANCH   6   7
ENDBRANCH   1   6
BRANCH   1  11
HETATM   11  O   UNK N   1      19.788  18.548   3.090  0.00  0.00    -0.314 OA
BRANCH  11  12
HETATM   12  C   UNK N   1      20.322  19.784   2.904  0.00  0.00     0.255 C 
HETATM   13  C   UNK N   1      20.874  20.214   1.582  0.00  0.00     0.126 C 
HETATM   14  O   UNK N   1      20.335  20.572   3.834  0.00  0.00    -0.266 OA
ENDBRANCH  11  12
ENDBRANCH   1  11
TORSDOF 6
ENDMDL
MODEL 8
REMARK VINA RESULT:      -4.1     13.700     14.840
REMARK  6 active torsions:
REMARK  status: ('A' for Active; 'I' for Inactive)
REMARK    1  A    between atoms: C_1  and  C_2 
REMARK    2  A    between atoms: C_1  and  C_3 
REMARK    3  A    between atoms: C_2  and  C_4 
REMARK    4  A    between atoms: C_2  and  O_6 
REMARK    5  A    between atoms: C_4  and  N_5 
REMARK    6  A    between atoms: O_6  and  C_9 
ROOT
HETATM    1  C   UNK N   1      21.630  17.992   4.143  0.00  0.00     0.167 C 
ENDROOT
BRANCH   1   2
HETATM    2  C   UNK N   1      22.154  18.133   5.576  0.00  0.00     0.147 C 
BRANCH   2   3
HETATM    3  C   UNK N   1      21.149  17.847   6.661  0.00  0.00     0.175 C 
HETATM    4  O   UNK N   1      20.785  18.837   7.497  0.00  0.00    -0.648 OA
HETATM    5  O   UNK N   1      20.648  16.740   6.784  0.00  0.00    -0.648 OA
ENDBRANCH   2   3
ENDBRANCH   1   2
BRANCH   1   6
HETATM    6  C   UNK N   1      22.281  16.747   3.518  0.00  0.00     0.268 C 
BRANCH   6   7
HETATM    7  N   UNK N   1      21.341  15.687   3.138  0.00  0.00    -0.076 N 
HETATM    8  C   UNK N   1      19.997  16.220   3.255  0.00  0.00     0.271 C 
HETATM    9  C   UNK N   1      21.455  14.554   4.042  0.00  0.00     0.271 C 
HETATM   10  C   UNK N   1      21.528  15.233   1.768  0.00  0.00     0.271 C 
ENDBRANCH   6   7
ENDBRANCH   1   6
BRANCH   1  11
HETATM   11  O   UNK N   1      21.978  19.115   3.418  0.00  0.00    -0.314 OA
BRANCH  11  12
HETATM   12  C   UNK N   1      21.100  20.077   3.028  0.00  0.00     0.255 C 
HETATM   13  C   UNK N   1      20.981  20.504   1.599  0.00  0.00     0.126 C 
HETATM   14  O   UNK N   1      20.375  20.593   3.860  0.00  0.00    -0.266 OA
ENDBRANCH  11  12
ENDBRANCH   1  11
TORSDOF 6
ENDMDL
MODEL 9
REMARK VINA RESULT:      -4.1     17.510     19.598
REMARK  6 active torsions:
REMARK  status: ('A' for Active; 'I' for Inactive)
REMARK    1  A    between atoms: C_1  and  C_2 
REMARK    2  A    between atoms: C_1  and  C_3 
REMARK    3  A    between atoms: C_2  and  C_4 
REMARK    4  A    between atoms: C_2  and  O_6 
REMARK    5  A    between atoms: C_4  and  N_5 
REMARK    6  A    between atoms: O_6  and  C_9 
ROOT
HETATM    1  C   UNK N   1      26.111  25.920  -5.541  0.00  0.00     0.167 C 
ENDROOT
BRANCH   1   2
HETATM    2  C   UNK N   1      25.178  27.104  -5.260  0.00  0.00     0.147 C 
BRANCH   2   3
HETATM    3  C   UNK N   1      25.674  28.084  -4.230  0.00  0.00     0.175 C 
HETATM    4  O   UNK N   1      25.447  27.838  -2.926  0.00  0.00    -0.648 OA
HETATM    5  O   UNK N   1      26.292  29.086  -4.555  0.00  0.00    -0.648 OA
ENDBRANCH   2   3
ENDBRANCH   1   2
BRANCH   1   6
HETATM    6  C   UNK N   1      25.723  25.323  -6.905  0.00  0.00     0.268 C 
BRANCH   6   7
HETATM    7  N   UNK N   1      26.859  24.963  -7.763  0.00  0.00    -0.076 N 
HETATM    8  C   UNK N   1      26.421  25.054  -9.143  0.00  0.00     0.271 C 
HETATM    9  C   UNK N   1      27.273  23.592  -7.512  0.00  0.00     0.271 C 
HETATM   10  C   UNK N   1      27.999  25.851  -7.592  0.00  0.00     0.271 C 
ENDBRANCH   6   7
ENDBRANCH   1   6
BRANCH   1  11
HETATM   11  O   UNK N   1      25.951  24.969  -4.553  0.00  0.00    -0.314 OA
BRANCH  11  12
HETATM   12  C   UNK N   1      26.941  24.560  -3.717  0.00  0.00     0.255 C 
HETATM   13  C   UNK N   1      28.381  24.858  -3.994  0.00  0.00     0.126 C 
HETATM   14  O   UNK N   1      26.649  23.953  -2.702  0.00  0.00    -0.266 OA
ENDBRANCH  11  12
ENDBRANCH   1  11
TORSDOF 6
ENDMDL
