REMARK  19 active torsions:
REMARK  status: ('A' for Active; 'I' for Inactive)
REMARK    1  A    between atoms: C_2  and  C_1 
REMARK    2  A    between atoms: C_3  and  C_1 
REMARK    3  A    between atoms: C_4  and  C_2 
REMARK    4  A    between atoms: C_9  and  C_3 
REMARK    5  A    between atoms: C_10  and  C_4 
REMARK    6  A    between atoms: N_23  and  C_9 
REMARK    7  A    between atoms: N_24  and  C_10 
REMARK    8  A    between atoms: C_21  and  C_13 
REMARK    9  A    between atoms: N_23  and  C_13 
REMARK   10  A    between atoms: C_22  and  C_14 
REMARK   11  A    between atoms: N_24  and  C_14 
REMARK   12  A    between atoms: C_21  and  C_15 
REMARK   13  A    between atoms: C_22  and  C_16 
REMARK   14  A    between atoms: O_25  and  C_17 
REMARK   15  A    between atoms: O_26  and  C_18 
REMARK   16  A    between atoms: O_27  and  C_19 
REMARK   17  A    between atoms: O_28  and  C_20 
REMARK   18  A    between atoms: O_29  and  C_21 
REMARK   19  A    between atoms: O_30  and  C_22 
ROOT
HETATM    1  C   UNK N   1       2.731   2.994   0.647  0.00  0.00     0.002 C 
ENDROOT
BRANCH   1   2
HETATM    2  C   UNK N   1       2.270   1.543   0.647  0.00  0.00     0.002 C 
BRANCH   2   3
HETATM    3  C   UNK N   1       1.250   1.302  -0.451  0.00  0.00     0.019 C 
BRANCH   3   4
HETATM    4  C   UNK N   1      -0.122   1.758   0.007  0.00  0.00     0.113 C 
BRANCH   4   5
HETATM    5  N   UNK N   1      -0.180   3.210   0.064  0.00  0.00    -0.418 N 
HETATM    6  H   UNK N   1       0.527   3.854  -0.290  0.00  0.00     0.153 HD
BRANCH   5   7
HETATM    7  C   UNK N   1      -1.424   3.578   0.717  0.00  0.00     0.150 C 
BRANCH   7   8
HETATM    8  C   UNK N   1      -2.524   3.722  -0.323  0.00  0.00     0.168 C 
BRANCH   8   9
HETATM    9  C   UNK N   1      -3.537   2.615  -0.195  0.00  0.00    -0.025 A 
HETATM   10  C   UNK N   1      -4.890   2.898   0.043  0.00  0.00     0.013 A 
HETATM   11  C   UNK N   1      -5.819   1.859   0.151  0.00  0.00     0.040 A 
HETATM   12  C   UNK N   1      -5.403   0.531   0.024  0.00  0.00     0.098 A 
HETATM   13  C   UNK N   1      -4.054   0.240  -0.214  0.00  0.00     0.099 A 
HETATM   14  C   UNK N   1      -3.130   1.280  -0.328  0.00  0.00     0.049 A 
BRANCH  12  15
HETATM   15  O   UNK N   1      -6.303  -0.462   0.131  0.00  0.00    -0.358 OA
HETATM   16  H   UNK N   1      -7.216  -0.265   0.206  0.00  0.00     0.217 HD
ENDBRANCH  12  15
BRANCH  13  17
HETATM   17  O   UNK N   1      -3.642  -1.033  -0.334  0.00  0.00    -0.358 OA
HETATM   18  H   UNK N   1      -4.268  -1.726  -0.417  0.00  0.00     0.217 HD
ENDBRANCH  13  17
ENDBRANCH   8   9
BRANCH   8  19
HETATM   19  O   UNK N   1      -3.115   4.980  -0.192  0.00  0.00    -0.389 OA
HETATM   20  H   UNK N   1      -2.563   5.773  -0.100  0.00  0.00     0.210 HD
ENDBRANCH   8  19
ENDBRANCH   7   8
ENDBRANCH   5   7
ENDBRANCH   4   5
ENDBRANCH   3   4
ENDBRANCH   2   3
ENDBRANCH   1   2
BRANCH   1  21
HETATM   21  C   UNK N   1       3.752   3.235  -0.451  0.00  0.00     0.019 C 
BRANCH  21  22
HETATM   22  C   UNK N   1       5.123   2.780   0.007  0.00  0.00     0.113 C 
BRANCH  22  23
HETATM   23  N   UNK N   1       5.181   1.327   0.064  0.00  0.00    -0.418 N 
HETATM   24  H   UNK N   1       4.474   0.683  -0.290  0.00  0.00     0.153 HD
BRANCH  23  25
HETATM   25  C   UNK N   1       6.426   0.959   0.717  0.00  0.00     0.150 C 
BRANCH  25  26
HETATM   26  C   UNK N   1       7.525   0.816  -0.323  0.00  0.00     0.168 C 
BRANCH  26  27
HETATM   27  C   UNK N   1       8.538   1.922  -0.195  0.00  0.00    -0.025 A 
HETATM   28  C   UNK N   1       9.891   1.639   0.043  0.00  0.00     0.013 A 
HETATM   29  C   UNK N   1      10.820   2.678   0.151  0.00  0.00     0.040 A 
HETATM   30  C   UNK N   1      10.405   4.007   0.024  0.00  0.00     0.098 A 
HETATM   31  C   UNK N   1       9.056   4.297  -0.214  0.00  0.00     0.099 A 
HETATM   32  C   UNK N   1       8.131   3.257  -0.328  0.00  0.00     0.049 A 
BRANCH  30  33
HETATM   33  O   UNK N   1      11.304   5.000   0.131  0.00  0.00    -0.358 OA
HETATM   34  H   UNK N   1      12.217   4.803   0.206  0.00  0.00     0.217 HD
ENDBRANCH  30  33
BRANCH  31  35
HETATM   35  O   UNK N   1       8.644   5.571  -0.334  0.00  0.00    -0.358 OA
HETATM   36  H   UNK N   1       9.269   6.264  -0.417  0.00  0.00     0.217 HD
ENDBRANCH  31  35
ENDBRANCH  26  27
BRANCH  26  37
HETATM   37  O   UNK N   1       8.116  -0.443  -0.192  0.00  0.00    -0.389 OA
HETATM   38  H   UNK N   1       7.565  -1.235  -0.100  0.00  0.00     0.210 HD
ENDBRANCH  26  37
ENDBRANCH  25  26
ENDBRANCH  23  25
ENDBRANCH  22  23
ENDBRANCH  21  22
ENDBRANCH   1  21
TORSDOF 19
