REMARK  4 active torsions:
REMARK  status: ('A' for Active; 'I' for Inactive)
REMARK    1  A    between atoms: C_5  and  C_8 
REMARK    2  A    between atoms: C_10  and  N_15 
REMARK       I    between atoms: N_15  and  C_16 
REMARK    3  A    between atoms: C_16  and  C_17 
REMARK    4  A    between atoms: C_21  and  S_25 
ROOT
HETATM    1  N   UNK N   1      12.096  -9.700  -0.182  0.00  0.00    -0.323 N 
HETATM    2  C   UNK N   1      13.316  -9.121  -0.207  0.00  0.00     0.257 C 
HETATM    3  O   UNK N   1      13.446  -7.906  -0.115  0.00  0.00    -0.267 OA
HETATM    4  H   UNK N   1      12.120 -10.678  -0.291  0.00  0.00     0.169 HD
ENDROOT
BRANCH   1   5
HETATM    5  C   UNK N   1      10.796  -9.179  -0.031  0.00  0.00     0.035 A 
HETATM    6  C   UNK N   1       9.771 -10.104  -0.065  0.00  0.00     0.045 A 
HETATM    7  C   UNK N   1       8.433  -9.754   0.078  0.00  0.00     0.014 A 
HETATM    8  C   UNK N   1       8.122  -8.382   0.275  0.00  0.00     0.046 A 
HETATM    9  C   UNK N   1       9.165  -7.434   0.322  0.00  0.00     0.027 A 
HETATM   10 Cl   UNK N   1       6.477  -7.795   0.471  0.00  0.00    -0.083 Cl
HETATM   11  C   UNK N   1      10.504  -7.827   0.170  0.00  0.00     0.031 A 
BRANCH   7  12
HETATM   12  C   UNK N   1       7.440 -10.867  -0.000  0.00  0.00     0.044 A 
HETATM   13  C   UNK N   1       7.899 -12.190  -0.158  0.00  0.00     0.030 A 
HETATM   14  C   UNK N   1       6.989 -13.239  -0.247  0.00  0.00     0.004 A 
HETATM   15  C   UNK N   1       5.625 -12.971  -0.185  0.00  0.00     0.017 A 
HETATM   16  C   UNK N   1       5.194 -11.651  -0.029  0.00  0.00     0.088 A 
HETATM   17  N   UNK N   1       6.100 -10.637   0.060  0.00  0.00    -0.365 N 
ATOM     18  HN  UNK N   1       5.764  -9.681   0.176  1.00  0.00     0.165 HD
ENDBRANCH   7  12
ENDBRANCH   1   5
BRANCH   2  19
HETATM   19  C   UNK N   1      14.478 -10.046  -0.268  0.00  0.00     0.054 A 
HETATM   20  C   UNK N   1      14.163 -11.413  -0.355  0.00  0.00     0.020 A 
HETATM   21  C   UNK N   1      15.140 -12.389  -0.305  0.00  0.00     0.024 A 
HETATM   22  C   UNK N   1      16.471 -12.029  -0.168  0.00  0.00     0.060 A 
HETATM   23  C   UNK N   1      16.828 -10.672  -0.121  0.00  0.00     0.048 A 
HETATM   24  C   UNK N   1      15.841  -9.671  -0.183  0.00  0.00     0.051 A 
HETATM   25 Cl   UNK N   1      16.353  -7.993  -0.074  0.00  0.00    -0.083 Cl
BRANCH  22  26
HETATM   26  S   UNK N   1      17.668 -13.323   0.130  0.00  0.00     0.171 S 
HETATM   27  C   UNK N   1      18.688 -14.277  -1.025  0.00  0.00     0.167 C 
HETATM   28  O   UNK N   1      18.569 -12.843   1.277  0.00  0.00    -0.223 OA
HETATM   29  O   UNK N   1      16.889 -14.379   0.932  0.00  0.00    -0.223 OA
ENDBRANCH  22  26
ENDBRANCH   2  19
TORSDOF 4
