MODEL 1
REMARK VINA RESULT:      -8.8      0.000      0.000
REMARK  5 active torsions:
REMARK  status: ('A' for Active; 'I' for Inactive)
REMARK    1  A    between atoms: N_3  and  C_13 
REMARK    2  A    between atoms: C_14  and  C_13 
REMARK    3  A    between atoms: C_19  and  C_20 
REMARK    4  A    between atoms: C_20  and  N_21 
REMARK    5  A    between atoms: N_24  and  C_25 
ROOT
HETATM    1  C   UNK N   1      22.849  15.513   5.727  0.00  0.00     0.010 C 
HETATM    2  C   UNK N   1      21.839  16.482   6.366  0.00  0.00     0.007 C 
HETATM    3  C   UNK N   1      20.539  16.514   5.569  0.00  0.00     0.000 C 
HETATM    4  C   UNK N   1      20.775  17.035   4.145  0.00  0.00     0.000 C 
HETATM    5  C   UNK N   1      22.215  16.845   3.646  0.00  0.00     0.007 C 
HETATM    6  C   UNK N   1      22.834  15.555   4.186  0.00  0.00     0.019 C 
ENDROOT
BRANCH   6   7
HETATM    7  C   UNK N   1      24.218  15.378   3.553  0.00  0.00     0.277 C 
BRANCH   7   8
HETATM    8  N   UNK N   1      25.334  15.650   4.455  0.00  0.00     0.092 N 
HETATM    9  C   UNK N   1      25.867  16.956   4.040  0.00  0.00     0.292 C 
HETATM   10  C   UNK N   1      27.342  17.160   4.407  0.00  0.00     0.154 C 
HETATM   11  N   UNK N   1      27.718  16.288   5.498  0.00  0.00    -0.363 N 
HETATM   12  C   UNK N   1      27.462  14.863   5.366  0.00  0.00     0.154 C 
HETATM   13  C   UNK N   1      26.359  14.610   4.324  0.00  0.00     0.292 C 
BRANCH  11  14
HETATM   14  C   UNK N   1      28.227  16.870   6.701  0.00  0.00     0.121 A 
HETATM   15  N   UNK N   1      27.372  17.257   7.703  0.00  0.00    -0.311 N 
HETATM   16  S   UNK N   1      28.342  17.849   8.896  0.00  0.00    -0.013 SA
ATOM     17  HN  UNK N   1      26.354  17.192   7.707  1.00  0.00     0.176 HD
HETATM   18  C   UNK N   1      29.828  17.666   8.247  0.00  0.00     0.035 A 
HETATM   19  C   UNK N   1      31.083  17.976   8.753  0.00  0.00     0.021 A 
HETATM   20  C   UNK N   1      29.627  17.100   6.990  0.00  0.00     0.027 A 
HETATM   21  C   UNK N   1      32.195  17.707   7.942  0.00  0.00     0.001 A 
HETATM   22  C   UNK N   1      32.020  17.145   6.660  0.00  0.00     0.001 A 
HETATM   23  C   UNK N   1      30.733  16.832   6.179  0.00  0.00     0.017 A 
ENDBRANCH  11  14
ENDBRANCH   7   8
ENDBRANCH   6   7
BRANCH   1  24
HETATM   24  C   UNK N   1      22.522  14.085   6.143  0.00  0.00     0.140 C 
BRANCH  24  25
HETATM   25  N   UNK N   1      22.766  13.875   7.551  0.00  0.00    -0.287 N 
HETATM   26  C   UNK N   1      23.971  13.756   8.116  0.00  0.00     0.231 A 
HETATM   27  O   UNK N   1      25.014  13.828   7.485  0.00  0.00    -0.272 OA
HETATM   28  C   UNK N   1      23.897  13.502   9.595  0.00  0.00     0.096 A 
HETATM   29  C   UNK N   1      22.357  13.500   9.852  0.00  0.00     0.096 A 
HETATM   30  C   UNK N   1      24.302  12.067   9.958  0.00  0.00    -0.000 C 
HETATM   31  C   UNK N   1      21.809  13.727   8.470  0.00  0.00     0.231 A 
HETATM   32  C   UNK N   1      22.090  12.074  10.351  0.00  0.00    -0.000 C 
HETATM   33  O   UNK N   1      20.616  13.768   8.205  0.00  0.00    -0.272 OA
HETATM   34  C   UNK N   1      22.704  11.969  11.745  0.00  0.00     0.006 C 
HETATM   35  C   UNK N   1      23.084  11.268   9.552  0.00  0.00     0.011 C 
HETATM   36  C   UNK N   1      24.211  11.951  11.474  0.00  0.00     0.006 C 
ENDBRANCH  24  25
ENDBRANCH   1  24
TORSDOF 5
ENDMDL
MODEL 2
REMARK VINA RESULT:      -8.4      5.921      9.574
REMARK  5 active torsions:
REMARK  status: ('A' for Active; 'I' for Inactive)
REMARK    1  A    between atoms: N_3  and  C_13 
REMARK    2  A    between atoms: C_14  and  C_13 
REMARK    3  A    between atoms: C_19  and  C_20 
REMARK    4  A    between atoms: C_20  and  N_21 
REMARK    5  A    between atoms: N_24  and  C_25 
ROOT
HETATM    1  C   UNK N   1      31.415  17.076   5.214  0.00  0.00     0.010 C 
HETATM    2  C   UNK N   1      31.693  17.117   3.702  0.00  0.00     0.007 C 
HETATM    3  C   UNK N   1      32.386  15.838   3.242  0.00  0.00     0.000 C 
HETATM    4  C   UNK N   1      33.756  15.679   3.915  0.00  0.00     0.000 C 
HETATM    5  C   UNK N   1      33.881  16.423   5.252  0.00  0.00     0.007 C 
HETATM    6  C   UNK N   1      32.559  16.429   6.020  0.00  0.00     0.019 C 
ENDROOT
BRANCH   6   7
HETATM    7  C   UNK N   1      32.793  17.082   7.387  0.00  0.00     0.277 C 
BRANCH   7   8
HETATM    8  N   UNK N   1      33.680  16.332   8.272  0.00  0.00     0.092 N 
HETATM    9  C   UNK N   1      32.816  15.372   8.974  0.00  0.00     0.292 C 
HETATM   10  C   UNK N   1      33.376  14.923  10.330  0.00  0.00     0.154 C 
HETATM   11  N   UNK N   1      34.808  15.116  10.375  0.00  0.00    -0.363 N 
HETATM   12  C   UNK N   1      35.341  16.432  10.063  0.00  0.00     0.154 C 
HETATM   13  C   UNK N   1      34.330  17.235   9.226  0.00  0.00     0.292 C 
BRANCH  11  14
HETATM   14  C   UNK N   1      35.647  13.985  10.621  0.00  0.00     0.121 A 
HETATM   15  N   UNK N   1      36.135  13.239   9.577  0.00  0.00    -0.311 N 
HETATM   16  S   UNK N   1      37.055  12.064  10.274  0.00  0.00    -0.013 SA
ATOM     17  HN  UNK N   1      35.963  13.383   8.582  1.00  0.00     0.176 HD
HETATM   18  C   UNK N   1      36.896  12.407  11.862  0.00  0.00     0.035 A 
HETATM   19  C   UNK N   1      37.429  11.783  12.982  0.00  0.00     0.021 A 
HETATM   20  C   UNK N   1      36.066  13.523  11.928  0.00  0.00     0.027 A 
HETATM   21  C   UNK N   1      37.098  12.312  14.238  0.00  0.00     0.001 A 
HETATM   22  C   UNK N   1      36.250  13.435  14.336  0.00  0.00     0.001 A 
HETATM   23  C   UNK N   1      35.733  14.051  13.180  0.00  0.00     0.017 A 
ENDBRANCH  11  14
ENDBRANCH   7   8
ENDBRANCH   6   7
BRANCH   1  24
HETATM   24  C   UNK N   1      30.157  16.260   5.481  0.00  0.00     0.140 C 
BRANCH  24  25
HETATM   25  N   UNK N   1      28.977  17.093   5.485  0.00  0.00    -0.287 N 
HETATM   26  C   UNK N   1      28.103  17.196   4.480  0.00  0.00     0.231 A 
HETATM   27  O   UNK N   1      28.208  16.571   3.437  0.00  0.00    -0.272 OA
HETATM   28  C   UNK N   1      27.001  18.177   4.766  0.00  0.00     0.096 A 
HETATM   29  C   UNK N   1      27.367  18.672   6.201  0.00  0.00     0.096 A 
HETATM   30  C   UNK N   1      27.130  19.455   3.926  0.00  0.00    -0.000 C 
HETATM   31  C   UNK N   1      28.631  17.909   6.484  0.00  0.00     0.231 A 
HETATM   32  C   UNK N   1      27.630  20.169   5.996  0.00  0.00    -0.000 C 
HETATM   33  O   UNK N   1      29.283  18.019   7.511  0.00  0.00    -0.272 OA
HETATM   34  C   UNK N   1      26.280  20.822   5.706  0.00  0.00     0.006 C 
HETATM   35  C   UNK N   1      28.249  20.196   4.621  0.00  0.00     0.011 C 
HETATM   36  C   UNK N   1      25.948  20.344   4.289  0.00  0.00     0.006 C 
ENDBRANCH  24  25
ENDBRANCH   1  24
TORSDOF 5
ENDMDL
MODEL 3
REMARK VINA RESULT:      -8.4      7.461     11.738
REMARK  5 active torsions:
REMARK  status: ('A' for Active; 'I' for Inactive)
REMARK    1  A    between atoms: N_3  and  C_13 
REMARK    2  A    between atoms: C_14  and  C_13 
REMARK    3  A    between atoms: C_19  and  C_20 
REMARK    4  A    between atoms: C_20  and  N_21 
REMARK    5  A    between atoms: N_24  and  C_25 
ROOT
HETATM    1  C   UNK N   1      35.861  12.796  10.962  0.00  0.00     0.010 C 
HETATM    2  C   UNK N   1      35.397  11.358  10.677  0.00  0.00     0.007 C 
HETATM    3  C   UNK N   1      36.113  10.788   9.457  0.00  0.00     0.000 C 
HETATM    4  C   UNK N   1      35.780  11.593   8.193  0.00  0.00     0.000 C 
HETATM    5  C   UNK N   1      35.344  13.038   8.475  0.00  0.00     0.007 C 
HETATM    6  C   UNK N   1      36.081  13.625   9.680  0.00  0.00     0.019 C 
ENDROOT
BRANCH   6   7
HETATM    7  C   UNK N   1      35.681  15.097   9.824  0.00  0.00     0.277 C 
BRANCH   7   8
HETATM    8  N   UNK N   1      34.446  15.459   9.133  0.00  0.00     0.092 N 
HETATM    9  C   UNK N   1      34.563  16.895   8.842  0.00  0.00     0.292 C 
HETATM   10  C   UNK N   1      33.210  17.600   8.687  0.00  0.00     0.154 C 
HETATM   11  N   UNK N   1      32.178  16.646   8.345  0.00  0.00    -0.363 N 
HETATM   12  C   UNK N   1      32.002  15.480   9.194  0.00  0.00     0.154 C 
HETATM   13  C   UNK N   1      33.287  15.199   9.992  0.00  0.00     0.292 C 
BRANCH  11  14
HETATM   14  C   UNK N   1      31.445  16.832   7.131  0.00  0.00     0.121 A 
HETATM   15  N   UNK N   1      31.922  16.330   5.946  0.00  0.00    -0.311 N 
HETATM   16  S   UNK N   1      30.793  16.736   4.817  0.00  0.00    -0.013 SA
ATOM     17  HN  UNK N   1      32.791  15.817   5.797  1.00  0.00     0.176 HD
HETATM   18  C   UNK N   1      29.688  17.535   5.713  0.00  0.00     0.035 A 
HETATM   19  C   UNK N   1      28.490  18.135   5.352  0.00  0.00     0.021 A 
HETATM   20  C   UNK N   1      30.179  17.524   7.018  0.00  0.00     0.027 A 
HETATM   21  C   UNK N   1      27.750  18.766   6.363  0.00  0.00     0.001 A 
HETATM   22  C   UNK N   1      28.227  18.781   7.690  0.00  0.00     0.001 A 
HETATM   23  C   UNK N   1      29.443  18.154   8.026  0.00  0.00     0.017 A 
ENDBRANCH  11  14
ENDBRANCH   7   8
ENDBRANCH   6   7
BRANCH   1  24
HETATM   24  C   UNK N   1      37.186  12.768  11.713  0.00  0.00     0.140 C 
BRANCH  24  25
HETATM   25  N   UNK N   1      36.982  12.685  13.141  0.00  0.00    -0.287 N 
HETATM   26  C   UNK N   1      37.146  11.585  13.880  0.00  0.00     0.231 A 
HETATM   27  O   UNK N   1      37.507  10.515  13.416  0.00  0.00    -0.272 OA
HETATM   28  C   UNK N   1      36.816  11.805  15.330  0.00  0.00     0.096 A 
HETATM   29  C   UNK N   1      36.413  13.313  15.350  0.00  0.00     0.096 A 
HETATM   30  C   UNK N   1      35.515  11.103  15.741  0.00  0.00    -0.000 C 
HETATM   31  C   UNK N   1      36.556  13.695  13.903  0.00  0.00     0.231 A 
HETATM   32  C   UNK N   1      34.946  13.275  15.794  0.00  0.00    -0.000 C 
HETATM   33  O   UNK N   1      36.307  14.807  13.460  0.00  0.00    -0.272 OA
HETATM   34  C   UNK N   1      34.937  12.864  17.265  0.00  0.00     0.006 C 
HETATM   35  C   UNK N   1      34.453  12.002  15.151  0.00  0.00     0.011 C 
HETATM   36  C   UNK N   1      35.313  11.380  17.225  0.00  0.00     0.006 C 
ENDBRANCH  24  25
ENDBRANCH   1  24
TORSDOF 5
ENDMDL
MODEL 4
REMARK VINA RESULT:      -8.4      7.878     11.719
REMARK  5 active torsions:
REMARK  status: ('A' for Active; 'I' for Inactive)
REMARK    1  A    between atoms: N_3  and  C_13 
REMARK    2  A    between atoms: C_14  and  C_13 
REMARK    3  A    between atoms: C_19  and  C_20 
REMARK    4  A    between atoms: C_20  and  N_21 
REMARK    5  A    between atoms: N_24  and  C_25 
ROOT
HETATM    1  C   UNK N   1      35.778  12.831  11.032  0.00  0.00     0.010 C 
HETATM    2  C   UNK N   1      35.319  11.387  10.764  0.00  0.00     0.007 C 
HETATM    3  C   UNK N   1      36.016  10.815   9.534  0.00  0.00     0.000 C 
HETATM    4  C   UNK N   1      35.653  11.609   8.273  0.00  0.00     0.000 C 
HETATM    5  C   UNK N   1      35.212  13.052   8.554  0.00  0.00     0.007 C 
HETATM    6  C   UNK N   1      35.967  13.652   9.740  0.00  0.00     0.019 C 
ENDROOT
BRANCH   6   7
HETATM    7  C   UNK N   1      35.559  15.123   9.883  0.00  0.00     0.277 C 
BRANCH   7   8
HETATM    8  N   UNK N   1      34.370  15.497   9.121  0.00  0.00     0.092 N 
HETATM    9  C   UNK N   1      34.523  16.930   8.829  0.00  0.00     0.292 C 
HETATM   10  C   UNK N   1      33.191  17.652   8.594  0.00  0.00     0.154 C 
HETATM   11  N   UNK N   1      32.167  16.710   8.198  0.00  0.00    -0.363 N 
HETATM   12  C   UNK N   1      31.927  15.552   9.043  0.00  0.00     0.154 C 
HETATM   13  C   UNK N   1      33.161  15.258   9.914  0.00  0.00     0.292 C 
BRANCH  11  14
HETATM   14  C   UNK N   1      31.507  16.898   6.944  0.00  0.00     0.121 A 
HETATM   15  N   UNK N   1      30.225  17.387   6.898  0.00  0.00    -0.311 N 
HETATM   16  S   UNK N   1      29.849  17.469   5.297  0.00  0.00    -0.013 SA
ATOM     17  HN  UNK N   1      29.633  17.644   7.688  1.00  0.00     0.176 HD
HETATM   18  C   UNK N   1      31.215  16.913   4.598  0.00  0.00     0.035 A 
HETATM   19  C   UNK N   1      31.541  16.733   3.261  0.00  0.00     0.021 A 
HETATM   20  C   UNK N   1      32.084  16.618   5.646  0.00  0.00     0.027 A 
HETATM   21  C   UNK N   1      32.812  16.219   2.967  0.00  0.00     0.001 A 
HETATM   22  C   UNK N   1      33.709  15.900   4.008  0.00  0.00     0.001 A 
HETATM   23  C   UNK N   1      33.351  16.104   5.355  0.00  0.00     0.017 A 
ENDBRANCH  11  14
ENDBRANCH   7   8
ENDBRANCH   6   7
BRANCH   1  24
HETATM   24  C   UNK N   1      37.117  12.817  11.757  0.00  0.00     0.140 C 
BRANCH  24  25
HETATM   25  N   UNK N   1      36.941  12.733  13.189  0.00  0.00    -0.287 N 
HETATM   26  C   UNK N   1      37.145  11.638  13.927  0.00  0.00     0.231 A 
HETATM   27  O   UNK N   1      37.522  10.576  13.457  0.00  0.00    -0.272 OA
HETATM   28  C   UNK N   1      36.836  11.853  15.382  0.00  0.00     0.096 A 
HETATM   29  C   UNK N   1      36.398  13.351  15.407  0.00  0.00     0.096 A 
HETATM   30  C   UNK N   1      35.559  11.121  15.818  0.00  0.00    -0.000 C 
HETATM   31  C   UNK N   1      36.506  13.734  13.957  0.00  0.00     0.231 A 
HETATM   32  C   UNK N   1      34.941  13.280  15.878  0.00  0.00    -0.000 C 
HETATM   33  O   UNK N   1      36.222  14.838  13.517  0.00  0.00    -0.272 OA
HETATM   34  C   UNK N   1      34.969  12.872  17.350  0.00  0.00     0.006 C 
HETATM   35  C   UNK N   1      34.466  11.995  15.246  0.00  0.00     0.011 C 
HETATM   36  C   UNK N   1      35.378  11.396  17.305  0.00  0.00     0.006 C 
ENDBRANCH  24  25
ENDBRANCH   1  24
TORSDOF 5
ENDMDL
MODEL 5
REMARK VINA RESULT:      -8.3      1.578      2.141
REMARK  5 active torsions:
REMARK  status: ('A' for Active; 'I' for Inactive)
REMARK    1  A    between atoms: N_3  and  C_13 
REMARK    2  A    between atoms: C_14  and  C_13 
REMARK    3  A    between atoms: C_19  and  C_20 
REMARK    4  A    between atoms: C_20  and  N_21 
REMARK    5  A    between atoms: N_24  and  C_25 
ROOT
HETATM    1  C   UNK N   1      21.247  15.570   5.352  0.00  0.00     0.010 C 
HETATM    2  C   UNK N   1      19.851  15.373   4.736  0.00  0.00     0.007 C 
HETATM    3  C   UNK N   1      19.946  15.180   3.227  0.00  0.00     0.000 C 
HETATM    4  C   UNK N   1      20.531  16.424   2.545  0.00  0.00     0.000 C 
HETATM    5  C   UNK N   1      21.403  17.285   3.470  0.00  0.00     0.007 C 
HETATM    6  C   UNK N   1      22.177  16.430   4.473  0.00  0.00     0.019 C 
ENDROOT
BRANCH   6   7
HETATM    7  C   UNK N   1      23.108  17.345   5.276  0.00  0.00     0.277 C 
BRANCH   7   8
HETATM    8  N   UNK N   1      24.528  17.169   4.985  0.00  0.00     0.092 N 
HETATM    9  C   UNK N   1      25.049  18.519   4.728  0.00  0.00     0.292 C 
HETATM   10  C   UNK N   1      26.301  18.534   3.842  0.00  0.00     0.154 C 
HETATM   11  N   UNK N   1      26.973  17.254   3.893  0.00  0.00    -0.363 N 
HETATM   12  C   UNK N   1      26.206  16.056   3.597  0.00  0.00     0.154 C 
HETATM   13  C   UNK N   1      24.704  16.315   3.806  0.00  0.00     0.292 C 
BRANCH  11  14
HETATM   14  C   UNK N   1      28.333  17.208   4.333  0.00  0.00     0.121 A 
HETATM   15  N   UNK N   1      29.356  17.097   3.425  0.00  0.00    -0.311 N 
HETATM   16  S   UNK N   1      30.736  17.098   4.323  0.00  0.00    -0.013 SA
ATOM     17  HN  UNK N   1      29.276  17.029   2.410  1.00  0.00     0.176 HD
HETATM   18  C   UNK N   1      30.153  17.228   5.842  0.00  0.00     0.035 A 
HETATM   19  C   UNK N   1      30.810  17.281   7.064  0.00  0.00     0.021 A 
HETATM   20  C   UNK N   1      28.767  17.278   5.713  0.00  0.00     0.027 A 
HETATM   21  C   UNK N   1      30.022  17.384   8.219  0.00  0.00     0.001 A 
HETATM   22  C   UNK N   1      28.616  17.426   8.120  0.00  0.00     0.001 A 
HETATM   23  C   UNK N   1      27.980  17.379   6.864  0.00  0.00     0.017 A 
ENDBRANCH  11  14
ENDBRANCH   7   8
ENDBRANCH   6   7
BRANCH   1  24
HETATM   24  C   UNK N   1      21.922  14.217   5.535  0.00  0.00     0.140 C 
BRANCH  24  25
HETATM   25  N   UNK N   1      22.358  14.024   6.898  0.00  0.00    -0.287 N 
HETATM   26  C   UNK N   1      23.630  14.024   7.308  0.00  0.00     0.231 A 
HETATM   27  O   UNK N   1      24.574  14.206   6.555  0.00  0.00    -0.272 OA
HETATM   28  C   UNK N   1      23.766  13.755   8.780  0.00  0.00     0.096 A 
HETATM   29  C   UNK N   1      22.278  13.594   9.224  0.00  0.00     0.096 A 
HETATM   30  C   UNK N   1      24.355  12.366   9.063  0.00  0.00    -0.000 C 
HETATM   31  C   UNK N   1      21.543  13.773   7.924  0.00  0.00     0.231 A 
HETATM   32  C   UNK N   1      22.220  12.146   9.725  0.00  0.00    -0.000 C 
HETATM   33  O   UNK N   1      20.329  13.695   7.809  0.00  0.00    -0.272 OA
HETATM   34  C   UNK N   1      23.009  12.095  11.031  0.00  0.00     0.006 C 
HETATM   35  C   UNK N   1      23.183  11.450   8.795  0.00  0.00     0.011 C 
HETATM   36  C   UNK N   1      24.465  12.232  10.576  0.00  0.00     0.006 C 
ENDBRANCH  24  25
ENDBRANCH   1  24
TORSDOF 5
ENDMDL
MODEL 6
REMARK VINA RESULT:      -8.2     13.929     16.899
REMARK  5 active torsions:
REMARK  status: ('A' for Active; 'I' for Inactive)
REMARK    1  A    between atoms: N_3  and  C_13 
REMARK    2  A    between atoms: C_14  and  C_13 
REMARK    3  A    between atoms: C_19  and  C_20 
REMARK    4  A    between atoms: C_20  and  N_21 
REMARK    5  A    between atoms: N_24  and  C_25 
ROOT
HETATM    1  C   UNK N   1      26.861  25.952  -5.952  0.00  0.00     0.010 C 
HETATM    2  C   UNK N   1      26.864  25.566  -7.441  0.00  0.00     0.007 C 
HETATM    3  C   UNK N   1      25.745  24.577  -7.748  0.00  0.00     0.000 C 
HETATM    4  C   UNK N   1      25.939  23.265  -6.976  0.00  0.00     0.000 C 
HETATM    5  C   UNK N   1      26.778  23.414  -5.699  0.00  0.00     0.007 C 
HETATM    6  C   UNK N   1      26.539  24.765  -5.022  0.00  0.00     0.019 C 
ENDROOT
BRANCH   6   7
HETATM    7  C   UNK N   1      27.317  24.790  -3.701  0.00  0.00     0.277 C 
BRANCH   7   8
HETATM    8  N   UNK N   1      28.634  24.162  -3.763  0.00  0.00     0.092 N 
HETATM    9  C   UNK N   1      28.673  23.215  -2.640  0.00  0.00     0.292 C 
HETATM   10  C   UNK N   1      30.093  22.907  -2.148  0.00  0.00     0.154 C 
HETATM   11  N   UNK N   1      31.060  23.182  -3.188  0.00  0.00    -0.363 N 
HETATM   12  C   UNK N   1      31.056  24.497  -3.808  0.00  0.00     0.154 C 
HETATM   13  C   UNK N   1      29.687  25.174  -3.622  0.00  0.00     0.292 C 
BRANCH  11  14
HETATM   14  C   UNK N   1      31.908  22.122  -3.636  0.00  0.00     0.121 A 
HETATM   15  N   UNK N   1      32.930  21.665  -2.841  0.00  0.00    -0.311 N 
HETATM   16  S   UNK N   1      33.640  20.452  -3.701  0.00  0.00    -0.013 SA
ATOM     17  HN  UNK N   1      33.194  22.004  -1.916  1.00  0.00     0.176 HD
HETATM   18  C   UNK N   1      32.744  20.435  -5.066  0.00  0.00     0.035 A 
HETATM   19  C   UNK N   1      32.833  19.638  -6.199  0.00  0.00     0.021 A 
HETATM   20  C   UNK N   1      31.791  21.438  -4.907  0.00  0.00     0.027 A 
HETATM   21  C   UNK N   1      31.912  19.872  -7.230  0.00  0.00     0.001 A 
HETATM   22  C   UNK N   1      30.943  20.889  -7.102  0.00  0.00     0.001 A 
HETATM   23  C   UNK N   1      30.873  21.675  -5.935  0.00  0.00     0.017 A 
ENDBRANCH  11  14
ENDBRANCH   7   8
ENDBRANCH   6   7
BRANCH   1  24
HETATM   24  C   UNK N   1      25.805  27.020  -5.701  0.00  0.00     0.140 C 
BRANCH  24  25
HETATM   25  N   UNK N   1      26.361  28.164  -5.016  0.00  0.00    -0.287 N 
HETATM   26  C   UNK N   1      27.217  29.040  -5.550  0.00  0.00     0.231 A 
HETATM   27  O   UNK N   1      27.614  28.970  -6.702  0.00  0.00    -0.272 OA
HETATM   28  C   UNK N   1      27.650  30.098  -4.573  0.00  0.00     0.096 A 
HETATM   29  C   UNK N   1      26.859  29.701  -3.287  0.00  0.00     0.096 A 
HETATM   30  C   UNK N   1      29.111  29.922  -4.138  0.00  0.00    -0.000 C 
HETATM   31  C   UNK N   1      26.126  28.467  -3.738  0.00  0.00     0.231 A 
HETATM   32  C   UNK N   1      27.970  29.376  -2.282  0.00  0.00    -0.000 C 
HETATM   33  O   UNK N   1      25.395  27.804  -3.018  0.00  0.00    -0.272 OA
HETATM   34  C   UNK N   1      28.640  30.699  -1.918  0.00  0.00     0.006 C 
HETATM   35  C   UNK N   1      29.029  28.767  -3.167  0.00  0.00     0.011 C 
HETATM   36  C   UNK N   1      29.428  31.062  -3.180  0.00  0.00     0.006 C 
ENDBRANCH  24  25
ENDBRANCH   1  24
TORSDOF 5
ENDMDL
MODEL 7
REMARK VINA RESULT:      -7.9      1.811      5.086
REMARK  5 active torsions:
REMARK  status: ('A' for Active; 'I' for Inactive)
REMARK    1  A    between atoms: N_3  and  C_13 
REMARK    2  A    between atoms: C_14  and  C_13 
REMARK    3  A    between atoms: C_19  and  C_20 
REMARK    4  A    between atoms: C_20  and  N_21 
REMARK    5  A    between atoms: N_24  and  C_25 
ROOT
HETATM    1  C   UNK N   1      22.123  13.798   7.583  0.00  0.00     0.010 C 
HETATM    2  C   UNK N   1      21.826  12.762   8.681  0.00  0.00     0.007 C 
HETATM    3  C   UNK N   1      22.589  13.094   9.960  0.00  0.00     0.000 C 
HETATM    4  C   UNK N   1      24.105  13.037   9.730  0.00  0.00     0.000 C 
HETATM    5  C   UNK N   1      24.520  13.258   8.269  0.00  0.00     0.007 C 
HETATM    6  C   UNK N   1      23.596  14.252   7.564  0.00  0.00     0.019 C 
ENDROOT
BRANCH   6   7
HETATM    7  C   UNK N   1      24.142  14.507   6.154  0.00  0.00     0.277 C 
BRANCH   7   8
HETATM    8  N   UNK N   1      25.556  14.872   6.110  0.00  0.00     0.092 N 
HETATM    9  C   UNK N   1      25.589  16.261   5.630  0.00  0.00     0.292 C 
HETATM   10  C   UNK N   1      26.908  16.640   4.945  0.00  0.00     0.154 C 
HETATM   11  N   UNK N   1      27.974  15.762   5.377  0.00  0.00    -0.363 N 
HETATM   12  C   UNK N   1      27.781  14.326   5.257  0.00  0.00     0.154 C 
HETATM   13  C   UNK N   1      26.281  13.990   5.191  0.00  0.00     0.292 C 
BRANCH  11  14
HETATM   14  C   UNK N   1      29.126  16.333   6.001  0.00  0.00     0.121 A 
HETATM   15  N   UNK N   1      30.357  16.253   5.397  0.00  0.00    -0.311 N 
HETATM   16  S   UNK N   1      31.391  17.036   6.412  0.00  0.00    -0.013 SA
ATOM     17  HN  UNK N   1      30.582  15.802   4.510  1.00  0.00     0.176 HD
HETATM   18  C   UNK N   1      30.395  17.499   7.620  0.00  0.00     0.035 A 
HETATM   19  C   UNK N   1      30.653  18.204   8.788  0.00  0.00     0.021 A 
HETATM   20  C   UNK N   1      29.130  17.034   7.267  0.00  0.00     0.027 A 
HETATM   21  C   UNK N   1      29.575  18.445   9.651  0.00  0.00     0.001 A 
HETATM   22  C   UNK N   1      28.284  17.976   9.326  0.00  0.00     0.001 A 
HETATM   23  C   UNK N   1      28.054  17.272   8.128  0.00  0.00     0.017 A 
ENDBRANCH  11  14
ENDBRANCH   7   8
ENDBRANCH   6   7
BRANCH   1  24
HETATM   24  C   UNK N   1      21.271  15.040   7.806  0.00  0.00     0.140 C 
BRANCH  24  25
HETATM   25  N   UNK N   1      20.798  15.589   6.557  0.00  0.00    -0.287 N 
HETATM   26  C   UNK N   1      20.015  14.951   5.682  0.00  0.00     0.231 A 
HETATM   27  O   UNK N   1      19.598  13.818   5.861  0.00  0.00    -0.272 OA
HETATM   28  C   UNK N   1      19.729  15.770   4.454  0.00  0.00     0.096 A 
HETATM   29  C   UNK N   1      20.503  17.092   4.753  0.00  0.00     0.096 A 
HETATM   30  C   UNK N   1      20.453  15.228   3.214  0.00  0.00    -0.000 C 
HETATM   31  C   UNK N   1      21.124  16.797   6.090  0.00  0.00     0.231 A 
HETATM   32  C   UNK N   1      21.548  17.144   3.631  0.00  0.00    -0.000 C 
HETATM   33  O   UNK N   1      21.853  17.571   6.692  0.00  0.00    -0.272 OA
HETATM   34  C   UNK N   1      20.794  17.434   2.335  0.00  0.00     0.006 C 
HETATM   35  C   UNK N   1      21.876  15.684   3.437  0.00  0.00     0.011 C 
HETATM   36  C   UNK N   1      20.059  16.122   2.046  0.00  0.00     0.006 C 
ENDBRANCH  24  25
ENDBRANCH   1  24
TORSDOF 5
ENDMDL
MODEL 8
REMARK VINA RESULT:      -7.9     14.446     17.339
REMARK  5 active torsions:
REMARK  status: ('A' for Active; 'I' for Inactive)
REMARK    1  A    between atoms: N_3  and  C_13 
REMARK    2  A    between atoms: C_14  and  C_13 
REMARK    3  A    between atoms: C_19  and  C_20 
REMARK    4  A    between atoms: C_20  and  N_21 
REMARK    5  A    between atoms: N_24  and  C_25 
ROOT
HETATM    1  C   UNK N   1      26.917  27.027  -5.325  0.00  0.00     0.010 C 
HETATM    2  C   UNK N   1      26.534  27.219  -3.847  0.00  0.00     0.007 C 
HETATM    3  C   UNK N   1      25.651  28.450  -3.671  0.00  0.00     0.000 C 
HETATM    4  C   UNK N   1      26.396  29.728  -4.079  0.00  0.00     0.000 C 
HETATM    5  C   UNK N   1      27.539  29.489  -5.075  0.00  0.00     0.007 C 
HETATM    6  C   UNK N   1      27.211  28.356  -6.049  0.00  0.00     0.019 C 
ENDROOT
BRANCH   6   7
HETATM    7  C   UNK N   1      28.342  28.257  -7.079  0.00  0.00     0.277 C 
BRANCH   7   8
HETATM    8  N   UNK N   1      29.260  27.142  -6.863  0.00  0.00     0.092 N 
HETATM    9  C   UNK N   1      30.429  27.719  -6.185  0.00  0.00     0.292 C 
HETATM   10  C   UNK N   1      31.719  26.917  -6.398  0.00  0.00     0.154 C 
HETATM   11  N   UNK N   1      31.411  25.549  -6.754  0.00  0.00    -0.363 N 
HETATM   12  C   UNK N   1      30.520  25.309  -7.878  0.00  0.00     0.154 C 
HETATM   13  C   UNK N   1      29.649  26.548  -8.146  0.00  0.00     0.292 C 
BRANCH  11  14
HETATM   14  C   UNK N   1      31.908  24.494  -5.927  0.00  0.00     0.121 A 
HETATM   15  N   UNK N   1      33.101  23.882  -6.220  0.00  0.00    -0.311 N 
HETATM   16  S   UNK N   1      33.315  22.758  -5.035  0.00  0.00    -0.013 SA
ATOM     17  HN  UNK N   1      33.722  24.081  -7.005  1.00  0.00     0.176 HD
HETATM   18  C   UNK N   1      31.975  22.964  -4.126  0.00  0.00     0.035 A 
HETATM   19  C   UNK N   1      31.554  22.316  -2.973  0.00  0.00     0.021 A 
HETATM   20  C   UNK N   1      31.251  23.982  -4.743  0.00  0.00     0.027 A 
HETATM   21  C   UNK N   1      30.329  22.713  -2.417  0.00  0.00     0.001 A 
HETATM   22  C   UNK N   1      29.569  23.733  -3.026  0.00  0.00     0.001 A 
HETATM   23  C   UNK N   1      30.029  24.378  -4.191  0.00  0.00     0.017 A 
ENDBRANCH  11  14
ENDBRANCH   7   8
ENDBRANCH   6   7
BRANCH   1  24
HETATM   24  C   UNK N   1      25.771  26.352  -6.068  0.00  0.00     0.140 C 
BRANCH  24  25
HETATM   25  N   UNK N   1      26.212  25.153  -6.742  0.00  0.00    -0.287 N 
HETATM   26  C   UNK N   1      26.430  25.043  -8.056  0.00  0.00     0.231 A 
HETATM   27  O   UNK N   1      26.288  25.971  -8.836  0.00  0.00    -0.272 OA
HETATM   28  C   UNK N   1      26.841  23.656  -8.462  0.00  0.00     0.096 A 
HETATM   29  C   UNK N   1      26.850  22.902  -7.095  0.00  0.00     0.096 A 
HETATM   30  C   UNK N   1      25.737  22.929  -9.241  0.00  0.00    -0.000 C 
HETATM   31  C   UNK N   1      26.416  23.979  -6.140  0.00  0.00     0.231 A 
HETATM   32  C   UNK N   1      25.770  21.829  -7.283  0.00  0.00    -0.000 C 
HETATM   33  O   UNK N   1      26.260  23.808  -4.940  0.00  0.00    -0.272 OA
HETATM   34  C   UNK N   1      26.323  20.811  -8.278  0.00  0.00     0.006 C 
HETATM   35  C   UNK N   1      24.763  22.542  -8.152  0.00  0.00     0.011 C 
HETATM   36  C   UNK N   1      26.288  21.558  -9.614  0.00  0.00     0.006 C 
ENDBRANCH  24  25
ENDBRANCH   1  24
TORSDOF 5
ENDMDL
MODEL 9
REMARK VINA RESULT:      -7.8      1.293      2.113
REMARK  5 active torsions:
REMARK  status: ('A' for Active; 'I' for Inactive)
REMARK    1  A    between atoms: N_3  and  C_13 
REMARK    2  A    between atoms: C_14  and  C_13 
REMARK    3  A    between atoms: C_19  and  C_20 
REMARK    4  A    between atoms: C_20  and  N_21 
REMARK    5  A    between atoms: N_24  and  C_25 
ROOT
HETATM    1  C   UNK N   1      24.112  15.207   5.353  0.00  0.00     0.010 C 
HETATM    2  C   UNK N   1      23.246  15.918   6.408  0.00  0.00     0.007 C 
HETATM    3  C   UNK N   1      22.005  16.531   5.767  0.00  0.00     0.000 C 
HETATM    4  C   UNK N   1      22.386  17.608   4.743  0.00  0.00     0.000 C 
HETATM    5  C   UNK N   1      23.795  17.439   4.159  0.00  0.00     0.007 C 
HETATM    6  C   UNK N   1      24.171  15.964   4.011  0.00  0.00     0.019 C 
ENDROOT
BRANCH   6   7
HETATM    7  C   UNK N   1      25.535  15.877   3.317  0.00  0.00     0.277 C 
BRANCH   7   8
HETATM    8  N   UNK N   1      26.680  15.996   4.216  0.00  0.00     0.092 N 
HETATM    9  C   UNK N   1      27.395  17.207   3.786  0.00  0.00     0.292 C 
HETATM   10  C   UNK N   1      28.884  17.200   4.152  0.00  0.00     0.154 C 
HETATM   11  N   UNK N   1      29.131  16.296   5.254  0.00  0.00    -0.363 N 
HETATM   12  C   UNK N   1      28.673  14.922   5.140  0.00  0.00     0.154 C 
HETATM   13  C   UNK N   1      27.544  14.817   4.100  0.00  0.00     0.292 C 
BRANCH  11  14
HETATM   14  C   UNK N   1      29.720  16.814   6.450  0.00  0.00     0.121 A 
HETATM   15  N   UNK N   1      28.951  17.038   7.564  0.00  0.00    -0.311 N 
HETATM   16  S   UNK N   1      29.994  17.607   8.705  0.00  0.00    -0.013 SA
ATOM     17  HN  UNK N   1      27.947  16.886   7.664  1.00  0.00     0.176 HD
HETATM   18  C   UNK N   1      31.412  17.608   7.897  0.00  0.00     0.035 A 
HETATM   19  C   UNK N   1      32.687  17.980   8.303  0.00  0.00     0.021 A 
HETATM   20  C   UNK N   1      31.121  17.137   6.619  0.00  0.00     0.027 A 
HETATM   21  C   UNK N   1      33.722  17.878   7.363  0.00  0.00     0.001 A 
HETATM   22  C   UNK N   1      33.455  17.415   6.057  0.00  0.00     0.001 A 
HETATM   23  C   UNK N   1      32.152  17.036   5.680  0.00  0.00     0.017 A 
ENDBRANCH  11  14
ENDBRANCH   7   8
ENDBRANCH   6   7
BRANCH   1  24
HETATM   24  C   UNK N   1      23.538  13.825   5.066  0.00  0.00     0.140 C 
BRANCH  24  25
HETATM   25  N   UNK N   1      23.323  13.079   6.284  0.00  0.00    -0.287 N 
HETATM   26  C   UNK N   1      22.129  12.749   6.786  0.00  0.00     0.231 A 
HETATM   27  O   UNK N   1      21.074  13.039   6.244  0.00  0.00    -0.272 OA
HETATM   28  C   UNK N   1      22.231  12.008   8.090  0.00  0.00     0.096 A 
HETATM   29  C   UNK N   1      23.776  11.928   8.302  0.00  0.00     0.096 A 
HETATM   30  C   UNK N   1      21.771  12.862   9.279  0.00  0.00    -0.000 C 
HETATM   31  C   UNK N   1      24.296  12.660   7.096  0.00  0.00     0.231 A 
HETATM   32  C   UNK N   1      23.990  12.723   9.596  0.00  0.00    -0.000 C 
HETATM   33  O   UNK N   1      25.482  12.859   6.875  0.00  0.00    -0.272 OA
HETATM   34  C   UNK N   1      23.410  11.886  10.733  0.00  0.00     0.006 C 
HETATM   35  C   UNK N   1      22.938  13.800   9.484  0.00  0.00     0.011 C 
HETATM   36  C   UNK N   1      21.897  11.993  10.523  0.00  0.00     0.006 C 
ENDBRANCH  24  25
ENDBRANCH   1  24
TORSDOF 5
ENDMDL
