MODEL 1
REMARK VINA RESULT:      -5.9      0.000      0.000
REMARK  15 active torsions:
REMARK  status: ('A' for Active; 'I' for Inactive)
REMARK    1  A    between atoms: O_1  and  C_7 
REMARK    2  A    between atoms: O_2  and  C_8 
REMARK    3  A    between atoms: N_3  and  C_4 
REMARK    4  A    between atoms: C_4  and  C_5 
REMARK    5  A    between atoms: C_4  and  C_7 
REMARK    6  A    between atoms: C_4  and  C_8 
REMARK    7  A    between atoms: C_5  and  C_6 
REMARK    8  A    between atoms: C_6  and  C_12 
REMARK    9  A    between atoms: C_9  and  C_10 
REMARK   10  A    between atoms: C_9  and  C_11 
REMARK   11  A    between atoms: C_10  and  C_13 
REMARK   12  A    between atoms: C_11  and  C_14 
REMARK   13  A    between atoms: C_13  and  C_15 
REMARK   14  A    between atoms: C_14  and  C_16 
REMARK   15  A    between atoms: C_16  and  C_21 
ROOT
HETATM    1  C   UNK N   1      32.673  17.625   7.768  0.00  0.00    -0.058 A 
HETATM    2  C   UNK N   1      30.226  17.232   6.467  0.00  0.00    -0.058 A 
HETATM    3  C   UNK N   1      32.650  17.292   6.412  0.00  0.00     0.007 A 
HETATM    4  C   UNK N   1      31.474  17.761   8.477  0.00  0.00     0.007 A 
HETATM    5  C   UNK N   1      31.428  17.109   5.759  0.00  0.00     0.007 A 
HETATM    6  C   UNK N   1      30.250  17.559   7.827  0.00  0.00     0.007 A 
ENDROOT
BRANCH   1   7
HETATM    7  C   UNK N   1      33.980  17.804   8.458  0.00  0.00     0.041 C 
BRANCH   7   8
HETATM    8  C   UNK N   1      34.793  16.514   8.425  0.00  0.00     0.039 C 
BRANCH   8   9
HETATM    9  C   UNK N   1      34.963  15.883   9.813  0.00  0.00     0.066 C 
BRANCH   9  10
HETATM   10  N   UNK N   1      34.887  16.930  10.818  0.00  0.00    -0.418 N 
HETATM   11  H   UNK N   1      35.443  17.525  11.433  0.00  0.00     0.150 HD
HETATM   12  H   UNK N   1      33.903  17.159  10.963  0.00  0.00     0.150 HD
ENDBRANCH   9  10
BRANCH   9  13
HETATM   13  C   UNK N   1      36.308  15.168   9.943  0.00  0.00     0.196 C 
BRANCH  13  14
HETATM   14  O   UNK N   1      37.166  15.862  10.798  0.00  0.00    -0.398 OA
HETATM   15  H   UNK N   1      37.729  15.537  11.518  0.00  0.00     0.209 HD
ENDBRANCH  13  14
ENDBRANCH   9  13
BRANCH   9  16
HETATM   16  C   UNK N   1      33.852  14.867  10.069  0.00  0.00     0.196 C 
BRANCH  16  17
HETATM   17  O   UNK N   1      33.486  14.858  11.418  0.00  0.00    -0.398 OA
HETATM   18  H   UNK N   1      33.630  15.536  12.098  0.00  0.00     0.209 HD
ENDBRANCH  16  17
ENDBRANCH   9  16
ENDBRANCH   8   9
ENDBRANCH   7   8
ENDBRANCH   1   7
BRANCH   2  19
HETATM   19  C   UNK N   1      28.910  17.046   5.773  0.00  0.00     0.038 C 
BRANCH  19  20
HETATM   20  C   UNK N   1      28.888  17.729   4.415  0.00  0.00     0.005 C 
BRANCH  20  21
HETATM   21  C   UNK N   1      27.632  17.293   3.674  0.00  0.00     0.000 C 
BRANCH  21  22
HETATM   22  C   UNK N   1      26.512  18.294   3.885  0.00  0.00     0.000 C 
BRANCH  22  23
HETATM   23  C   UNK N   1      27.035  19.707   3.740  0.00  0.00     0.000 C 
BRANCH  23  24
HETATM   24  C   UNK N   1      26.461  20.575   4.840  0.00  0.00    -0.000 C 
BRANCH  24  25
HETATM   25  C   UNK N   1      27.572  20.987   5.782  0.00  0.00    -0.005 C 
HETATM   26  C   UNK N   1      27.461  20.197   7.069  0.00  0.00     0.005 C 
ENDBRANCH  24  25
ENDBRANCH  23  24
ENDBRANCH  22  23
ENDBRANCH  21  22
ENDBRANCH  20  21
ENDBRANCH  19  20
ENDBRANCH   2  19
TORSDOF 15
ENDMDL
MODEL 2
REMARK VINA RESULT:      -5.8     11.870     14.095
REMARK  15 active torsions:
REMARK  status: ('A' for Active; 'I' for Inactive)
REMARK    1  A    between atoms: O_1  and  C_7 
REMARK    2  A    between atoms: O_2  and  C_8 
REMARK    3  A    between atoms: N_3  and  C_4 
REMARK    4  A    between atoms: C_4  and  C_5 
REMARK    5  A    between atoms: C_4  and  C_7 
REMARK    6  A    between atoms: C_4  and  C_8 
REMARK    7  A    between atoms: C_5  and  C_6 
REMARK    8  A    between atoms: C_6  and  C_12 
REMARK    9  A    between atoms: C_9  and  C_10 
REMARK   10  A    between atoms: C_9  and  C_11 
REMARK   11  A    between atoms: C_10  and  C_13 
REMARK   12  A    between atoms: C_11  and  C_14 
REMARK   13  A    between atoms: C_13  and  C_15 
REMARK   14  A    between atoms: C_14  and  C_16 
REMARK   15  A    between atoms: C_16  and  C_21 
ROOT
HETATM    1  C   UNK N   1      28.937  23.584  -3.652  0.00  0.00    -0.058 A 
HETATM    2  C   UNK N   1      26.646  24.283  -5.102  0.00  0.00    -0.058 A 
HETATM    3  C   UNK N   1      28.973  23.598  -5.048  0.00  0.00     0.007 A 
HETATM    4  C   UNK N   1      27.757  23.916  -2.978  0.00  0.00     0.007 A 
HETATM    5  C   UNK N   1      27.834  23.960  -5.771  0.00  0.00     0.007 A 
HETATM    6  C   UNK N   1      26.610  24.262  -3.703  0.00  0.00     0.007 A 
ENDROOT
BRANCH   1   7
HETATM    7  C   UNK N   1      30.152  23.183  -2.890  0.00  0.00     0.041 C 
BRANCH   7   8
HETATM    8  C   UNK N   1      31.352  23.036  -3.820  0.00  0.00     0.039 C 
BRANCH   8   9
HETATM    9  C   UNK N   1      31.776  21.574  -4.016  0.00  0.00     0.066 C 
BRANCH   9  10
HETATM   10  N   UNK N   1      30.753  20.709  -3.453  0.00  0.00    -0.418 N 
HETATM   11  H   UNK N   1      30.125  19.932  -3.660  0.00  0.00     0.150 HD
HETATM   12  H   UNK N   1      30.608  20.982  -2.480  0.00  0.00     0.150 HD
ENDBRANCH   9  10
BRANCH   9  13
HETATM   13  C   UNK N   1      33.109  21.280  -3.330  0.00  0.00     0.196 C 
BRANCH  13  14
HETATM   14  O   UNK N   1      32.938  21.094  -1.957  0.00  0.00    -0.398 OA
HETATM   15  H   UNK N   1      32.388  21.581  -1.323  0.00  0.00     0.209 HD
ENDBRANCH  13  14
ENDBRANCH   9  13
BRANCH   9  16
HETATM   16  C   UNK N   1      31.922  21.265  -5.504  0.00  0.00     0.196 C 
BRANCH  16  17
HETATM   17  O   UNK N   1      30.814  20.557  -5.978  0.00  0.00    -0.398 OA
HETATM   18  H   UNK N   1      30.456  20.508  -6.878  0.00  0.00     0.209 HD
ENDBRANCH  16  17
ENDBRANCH   9  16
ENDBRANCH   8   9
ENDBRANCH   7   8
ENDBRANCH   1   7
BRANCH   2  19
HETATM   19  C   UNK N   1      25.422  24.681  -5.868  0.00  0.00     0.038 C 
BRANCH  19  20
HETATM   20  C   UNK N   1      25.588  26.041  -6.529  0.00  0.00     0.005 C 
BRANCH  20  21
HETATM   21  C   UNK N   1      24.838  27.076  -5.704  0.00  0.00     0.000 C 
BRANCH  21  22
HETATM   22  C   UNK N   1      25.800  28.088  -5.113  0.00  0.00     0.000 C 
BRANCH  22  23
HETATM   23  C   UNK N   1      25.844  27.954  -3.606  0.00  0.00     0.000 C 
BRANCH  23  24
HETATM   24  C   UNK N   1      27.281  27.810  -3.151  0.00  0.00    -0.000 C 
BRANCH  24  25
HETATM   25  C   UNK N   1      28.174  27.648  -4.363  0.00  0.00    -0.005 C 
HETATM   26  C   UNK N   1      29.545  27.184  -3.923  0.00  0.00     0.005 C 
ENDBRANCH  24  25
ENDBRANCH  23  24
ENDBRANCH  22  23
ENDBRANCH  21  22
ENDBRANCH  20  21
ENDBRANCH  19  20
ENDBRANCH   2  19
TORSDOF 15
ENDMDL
MODEL 3
REMARK VINA RESULT:      -5.6      1.445      2.864
REMARK  15 active torsions:
REMARK  status: ('A' for Active; 'I' for Inactive)
REMARK    1  A    between atoms: O_1  and  C_7 
REMARK    2  A    between atoms: O_2  and  C_8 
REMARK    3  A    between atoms: N_3  and  C_4 
REMARK    4  A    between atoms: C_4  and  C_5 
REMARK    5  A    between atoms: C_4  and  C_7 
REMARK    6  A    between atoms: C_4  and  C_8 
REMARK    7  A    between atoms: C_5  and  C_6 
REMARK    8  A    between atoms: C_6  and  C_12 
REMARK    9  A    between atoms: C_9  and  C_10 
REMARK   10  A    between atoms: C_9  and  C_11 
REMARK   11  A    between atoms: C_10  and  C_13 
REMARK   12  A    between atoms: C_11  and  C_14 
REMARK   13  A    between atoms: C_13  and  C_15 
REMARK   14  A    between atoms: C_14  and  C_16 
REMARK   15  A    between atoms: C_16  and  C_21 
ROOT
HETATM    1  C   UNK N   1      33.154  17.177   6.527  0.00  0.00    -0.058 A 
HETATM    2  C   UNK N   1      30.735  17.205   5.117  0.00  0.00    -0.058 A 
HETATM    3  C   UNK N   1      31.969  16.806   7.168  0.00  0.00     0.007 A 
HETATM    4  C   UNK N   1      33.132  17.564   5.182  0.00  0.00     0.007 A 
HETATM    5  C   UNK N   1      30.764  16.807   6.460  0.00  0.00     0.007 A 
HETATM    6  C   UNK N   1      31.921  17.582   4.479  0.00  0.00     0.007 A 
ENDROOT
BRANCH   1   7
HETATM    7  C   UNK N   1      34.431  17.187   7.292  0.00  0.00     0.041 C 
BRANCH   7   8
HETATM    8  C   UNK N   1      34.164  17.229   8.793  0.00  0.00     0.039 C 
BRANCH   8   9
HETATM    9  C   UNK N   1      34.740  16.015   9.533  0.00  0.00     0.066 C 
BRANCH   9  10
HETATM   10  N   UNK N   1      35.662  15.320   8.650  0.00  0.00    -0.418 N 
HETATM   11  H   UNK N   1      36.393  15.454   7.951  0.00  0.00     0.150 HD
HETATM   12  H   UNK N   1      35.527  14.316   8.777  0.00  0.00     0.150 HD
ENDBRANCH   9  10
BRANCH   9  13
HETATM   13  C   UNK N   1      33.639  15.046   9.964  0.00  0.00     0.196 C 
BRANCH  13  14
HETATM   14  O   UNK N   1      33.570  14.950  11.356  0.00  0.00    -0.398 OA
HETATM   15  H   UNK N   1      34.258  15.077  12.027  0.00  0.00     0.209 HD
ENDBRANCH  13  14
ENDBRANCH   9  13
BRANCH   9  16
HETATM   16  C   UNK N   1      35.496  16.468  10.780  0.00  0.00     0.196 C 
BRANCH  16  17
HETATM   17  O   UNK N   1      36.552  15.598  11.067  0.00  0.00    -0.398 OA
HETATM   18  H   UNK N   1      36.851  15.258  11.925  0.00  0.00     0.209 HD
ENDBRANCH  16  17
ENDBRANCH   9  16
ENDBRANCH   8   9
ENDBRANCH   7   8
ENDBRANCH   1   7
BRANCH   2  19
HETATM   19  C   UNK N   1      29.449  17.200   4.348  0.00  0.00     0.038 C 
BRANCH  19  20
HETATM   20  C   UNK N   1      28.673  18.494   4.537  0.00  0.00     0.005 C 
BRANCH  20  21
HETATM   21  C   UNK N   1      27.559  18.249   5.543  0.00  0.00     0.000 C 
BRANCH  21  22
HETATM   22  C   UNK N   1      27.449  19.409   6.514  0.00  0.00     0.000 C 
BRANCH  22  23
HETATM   23  C   UNK N   1      28.323  19.165   7.725  0.00  0.00     0.000 C 
BRANCH  23  24
HETATM   24  C   UNK N   1      27.925  17.861   8.384  0.00  0.00    -0.000 C 
BRANCH  24  25
HETATM   25  C   UNK N   1      28.835  17.601   9.565  0.00  0.00    -0.005 C 
HETATM   26  C   UNK N   1      29.865  18.705   9.663  0.00  0.00     0.005 C 
ENDBRANCH  24  25
ENDBRANCH  23  24
ENDBRANCH  22  23
ENDBRANCH  21  22
ENDBRANCH  20  21
ENDBRANCH  19  20
ENDBRANCH   2  19
TORSDOF 15
ENDMDL
MODEL 4
REMARK VINA RESULT:      -5.6      7.558     10.947
REMARK  15 active torsions:
REMARK  status: ('A' for Active; 'I' for Inactive)
REMARK    1  A    between atoms: O_1  and  C_7 
REMARK    2  A    between atoms: O_2  and  C_8 
REMARK    3  A    between atoms: N_3  and  C_4 
REMARK    4  A    between atoms: C_4  and  C_5 
REMARK    5  A    between atoms: C_4  and  C_7 
REMARK    6  A    between atoms: C_4  and  C_8 
REMARK    7  A    between atoms: C_5  and  C_6 
REMARK    8  A    between atoms: C_6  and  C_12 
REMARK    9  A    between atoms: C_9  and  C_10 
REMARK   10  A    between atoms: C_9  and  C_11 
REMARK   11  A    between atoms: C_10  and  C_13 
REMARK   12  A    between atoms: C_11  and  C_14 
REMARK   13  A    between atoms: C_13  and  C_15 
REMARK   14  A    between atoms: C_14  and  C_16 
REMARK   15  A    between atoms: C_16  and  C_21 
ROOT
HETATM    1  C   UNK N   1      24.111  18.715   3.991  0.00  0.00    -0.058 A 
HETATM    2  C   UNK N   1      26.815  17.988   4.001  0.00  0.00    -0.058 A 
HETATM    3  C   UNK N   1      24.497  17.473   4.501  0.00  0.00     0.007 A 
HETATM    4  C   UNK N   1      25.075  19.595   3.484  0.00  0.00     0.007 A 
HETATM    5  C   UNK N   1      25.848  17.116   4.518  0.00  0.00     0.007 A 
HETATM    6  C   UNK N   1      26.427  19.229   3.485  0.00  0.00     0.007 A 
ENDROOT
BRANCH   1   7
HETATM    7  C   UNK N   1      22.669  19.082   3.963  0.00  0.00     0.041 C 
BRANCH   7   8
HETATM    8  C   UNK N   1      22.382  20.072   2.839  0.00  0.00     0.039 C 
BRANCH   8   9
HETATM    9  C   UNK N   1      20.903  20.097   2.433  0.00  0.00     0.066 C 
BRANCH   9  10
HETATM   10  N   UNK N   1      20.162  20.884   3.406  0.00  0.00    -0.418 N 
HETATM   11  H   UNK N   1      19.226  21.168   3.695  0.00  0.00     0.150 HD
HETATM   12  H   UNK N   1      20.834  21.314   4.042  0.00  0.00     0.150 HD
ENDBRANCH   9  10
BRANCH   9  13
HETATM   13  C   UNK N   1      20.311  18.689   2.380  0.00  0.00     0.196 C 
BRANCH  13  14
HETATM   14  O   UNK N   1      18.918  18.731   2.286  0.00  0.00    -0.398 OA
HETATM   15  H   UNK N   1      18.246  18.175   2.709  0.00  0.00     0.209 HD
ENDBRANCH  13  14
ENDBRANCH   9  13
BRANCH   9  16
HETATM   16  C   UNK N   1      20.745  20.736   1.055  0.00  0.00     0.196 C 
BRANCH  16  17
HETATM   17  O   UNK N   1      20.607  19.760   0.065  0.00  0.00    -0.398 OA
HETATM   18  H   UNK N   1      20.192  18.885   0.119  0.00  0.00     0.209 HD
ENDBRANCH  16  17
ENDBRANCH   9  16
ENDBRANCH   8   9
ENDBRANCH   7   8
ENDBRANCH   1   7
BRANCH   2  19
HETATM   19  C   UNK N   1      28.267  17.617   4.024  0.00  0.00     0.038 C 
BRANCH  19  20
HETATM   20  C   UNK N   1      28.610  16.754   5.228  0.00  0.00     0.005 C 
BRANCH  20  21
HETATM   21  C   UNK N   1      29.392  17.598   6.223  0.00  0.00     0.000 C 
BRANCH  21  22
HETATM   22  C   UNK N   1      28.874  17.381   7.632  0.00  0.00     0.000 C 
BRANCH  22  23
HETATM   23  C   UNK N   1      27.997  18.540   8.054  0.00  0.00     0.000 C 
BRANCH  23  24
HETATM   24  C   UNK N   1      28.169  19.687   7.080  0.00  0.00    -0.000 C 
BRANCH  24  25
HETATM   25  C   UNK N   1      26.856  20.428   6.945  0.00  0.00    -0.005 C 
HETATM   26  C   UNK N   1      27.071  21.695   6.146  0.00  0.00     0.005 C 
ENDBRANCH  24  25
ENDBRANCH  23  24
ENDBRANCH  22  23
ENDBRANCH  21  22
ENDBRANCH  20  21
ENDBRANCH  19  20
ENDBRANCH   2  19
TORSDOF 15
ENDMDL
MODEL 5
REMARK VINA RESULT:      -5.5      2.694      3.734
REMARK  15 active torsions:
REMARK  status: ('A' for Active; 'I' for Inactive)
REMARK    1  A    between atoms: O_1  and  C_7 
REMARK    2  A    between atoms: O_2  and  C_8 
REMARK    3  A    between atoms: N_3  and  C_4 
REMARK    4  A    between atoms: C_4  and  C_5 
REMARK    5  A    between atoms: C_4  and  C_7 
REMARK    6  A    between atoms: C_4  and  C_8 
REMARK    7  A    between atoms: C_5  and  C_6 
REMARK    8  A    between atoms: C_6  and  C_12 
REMARK    9  A    between atoms: C_9  and  C_10 
REMARK   10  A    between atoms: C_9  and  C_11 
REMARK   11  A    between atoms: C_10  and  C_13 
REMARK   12  A    between atoms: C_11  and  C_14 
REMARK   13  A    between atoms: C_13  and  C_15 
REMARK   14  A    between atoms: C_14  and  C_16 
REMARK   15  A    between atoms: C_16  and  C_21 
ROOT
HETATM    1  C   UNK N   1      34.677  16.449   9.146  0.00  0.00    -0.058 A 
HETATM    2  C   UNK N   1      33.920  17.097   6.529  0.00  0.00    -0.058 A 
HETATM    3  C   UNK N   1      34.465  17.783   8.791  0.00  0.00     0.007 A 
HETATM    4  C   UNK N   1      34.513  15.437   8.193  0.00  0.00     0.007 A 
HETATM    5  C   UNK N   1      34.074  18.106   7.489  0.00  0.00     0.007 A 
HETATM    6  C   UNK N   1      34.138  15.761   6.884  0.00  0.00     0.007 A 
ENDROOT
BRANCH   1   7
HETATM    7  C   UNK N   1      35.107  16.116  10.531  0.00  0.00     0.041 C 
BRANCH   7   8
HETATM    8  C   UNK N   1      36.421  15.341  10.520  0.00  0.00     0.039 C 
BRANCH   8   9
HETATM    9  C   UNK N   1      36.361  14.058  11.360  0.00  0.00     0.066 C 
BRANCH   9  10
HETATM   10  N   UNK N   1      36.750  14.373  12.725  0.00  0.00    -0.418 N 
HETATM   11  H   UNK N   1      37.309  14.054  13.517  0.00  0.00     0.150 HD
HETATM   12  H   UNK N   1      36.289  15.243  12.994  0.00  0.00     0.150 HD
ENDBRANCH   9  10
BRANCH   9  13
HETATM   13  C   UNK N   1      37.299  12.984  10.812  0.00  0.00     0.196 C 
BRANCH  13  14
HETATM   14  O   UNK N   1      38.637  13.344  10.994  0.00  0.00    -0.398 OA
HETATM   15  H   UNK N   1      39.382  12.827  11.336  0.00  0.00     0.209 HD
ENDBRANCH  13  14
ENDBRANCH   9  13
BRANCH   9  16
HETATM   16  C   UNK N   1      34.941  13.498  11.366  0.00  0.00     0.196 C 
BRANCH  16  17
HETATM   17  O   UNK N   1      34.484  13.309  12.673  0.00  0.00    -0.398 OA
HETATM   18  H   UNK N   1      33.720  13.706  13.120  0.00  0.00     0.209 HD
ENDBRANCH  16  17
ENDBRANCH   9  16
ENDBRANCH   8   9
ENDBRANCH   7   8
ENDBRANCH   1   7
BRANCH   2  19
HETATM   19  C   UNK N   1      33.491  17.432   5.133  0.00  0.00     0.038 C 
BRANCH  19  20
HETATM   20  C   UNK N   1      32.334  16.560   4.673  0.00  0.00     0.005 C 
BRANCH  20  21
HETATM   21  C   UNK N   1      31.030  17.231   5.079  0.00  0.00     0.000 C 
BRANCH  21  22
HETATM   22  C   UNK N   1      30.378  16.484   6.226  0.00  0.00     0.000 C 
BRANCH  22  23
HETATM   23  C   UNK N   1      29.725  17.457   7.184  0.00  0.00     0.000 C 
BRANCH  23  24
HETATM   24  C   UNK N   1      30.613  17.647   8.396  0.00  0.00    -0.000 C 
BRANCH  24  25
HETATM   25  C   UNK N   1      29.850  18.409   9.459  0.00  0.00    -0.005 C 
HETATM   26  C   UNK N   1      28.367  18.340   9.163  0.00  0.00     0.005 C 
ENDBRANCH  24  25
ENDBRANCH  23  24
ENDBRANCH  22  23
ENDBRANCH  21  22
ENDBRANCH  20  21
ENDBRANCH  19  20
ENDBRANCH   2  19
TORSDOF 15
ENDMDL
MODEL 6
REMARK VINA RESULT:      -5.5      6.371     11.614
REMARK  15 active torsions:
REMARK  status: ('A' for Active; 'I' for Inactive)
REMARK    1  A    between atoms: O_1  and  C_7 
REMARK    2  A    between atoms: O_2  and  C_8 
REMARK    3  A    between atoms: N_3  and  C_4 
REMARK    4  A    between atoms: C_4  and  C_5 
REMARK    5  A    between atoms: C_4  and  C_7 
REMARK    6  A    between atoms: C_4  and  C_8 
REMARK    7  A    between atoms: C_5  and  C_6 
REMARK    8  A    between atoms: C_6  and  C_12 
REMARK    9  A    between atoms: C_9  and  C_10 
REMARK   10  A    between atoms: C_9  and  C_11 
REMARK   11  A    between atoms: C_10  and  C_13 
REMARK   12  A    between atoms: C_11  and  C_14 
REMARK   13  A    between atoms: C_13  and  C_15 
REMARK   14  A    between atoms: C_14  and  C_16 
REMARK   15  A    between atoms: C_16  and  C_21 
ROOT
HETATM    1  C   UNK N   1      35.906  13.744  13.513  0.00  0.00    -0.058 A 
HETATM    2  C   UNK N   1      35.391  12.830  16.108  0.00  0.00    -0.058 A 
HETATM    3  C   UNK N   1      36.690  14.193  14.578  0.00  0.00     0.007 A 
HETATM    4  C   UNK N   1      34.863  12.840  13.742  0.00  0.00     0.007 A 
HETATM    5  C   UNK N   1      36.441  13.726  15.871  0.00  0.00     0.007 A 
HETATM    6  C   UNK N   1      34.603  12.386  15.041  0.00  0.00     0.007 A 
ENDROOT
BRANCH   1   7
HETATM    7  C   UNK N   1      36.168  14.257  12.140  0.00  0.00     0.041 C 
BRANCH   7   8
HETATM    8  C   UNK N   1      35.142  13.713  11.151  0.00  0.00     0.039 C 
BRANCH   8   9
HETATM    9  C   UNK N   1      34.534  14.806  10.264  0.00  0.00     0.066 C 
BRANCH   9  10
HETATM   10  N   UNK N   1      33.164  15.045  10.686  0.00  0.00    -0.418 N 
HETATM   11  H   UNK N   1      32.186  14.880  10.445  0.00  0.00     0.150 HD
HETATM   12  H   UNK N   1      33.189  15.581  11.553  0.00  0.00     0.150 HD
ENDBRANCH   9  10
BRANCH   9  13
HETATM   13  C   UNK N   1      34.536  14.397   8.791  0.00  0.00     0.196 C 
BRANCH  13  14
HETATM   14  O   UNK N   1      35.195  15.346   8.006  0.00  0.00    -0.398 OA
HETATM   15  H   UNK N   1      36.021  15.828   8.169  0.00  0.00     0.209 HD
ENDBRANCH  13  14
ENDBRANCH   9  13
BRANCH   9  16
HETATM   16  C   UNK N   1      35.330  16.101  10.403  0.00  0.00     0.196 C 
BRANCH  16  17
HETATM   17  O   UNK N   1      34.518  17.213  10.162  0.00  0.00    -0.398 OA
HETATM   18  H   UNK N   1      34.770  18.109   9.888  0.00  0.00     0.209 HD
ENDBRANCH  16  17
ENDBRANCH   9  16
ENDBRANCH   8   9
ENDBRANCH   7   8
ENDBRANCH   1   7
BRANCH   2  19
HETATM   19  C   UNK N   1      35.123  12.317  17.491  0.00  0.00     0.038 C 
BRANCH  19  20
HETATM   20  C   UNK N   1      35.800  10.977  17.736  0.00  0.00     0.005 C 
BRANCH  20  21
HETATM   21  C   UNK N   1      34.826   9.868  17.368  0.00  0.00     0.000 C 
BRANCH  21  22
HETATM   22  C   UNK N   1      35.550   8.728  16.677  0.00  0.00     0.000 C 
BRANCH  22  23
HETATM   23  C   UNK N   1      36.671   9.264  15.812  0.00  0.00     0.000 C 
BRANCH  23  24
HETATM   24  C   UNK N   1      36.239   9.256  14.361  0.00  0.00    -0.000 C 
BRANCH  24  25
HETATM   25  C   UNK N   1      37.237  10.043  13.539  0.00  0.00    -0.005 C 
HETATM   26  C   UNK N   1      38.178  10.787  14.463  0.00  0.00     0.005 C 
ENDBRANCH  24  25
ENDBRANCH  23  24
ENDBRANCH  22  23
ENDBRANCH  21  22
ENDBRANCH  20  21
ENDBRANCH  19  20
ENDBRANCH   2  19
TORSDOF 15
ENDMDL
MODEL 7
REMARK VINA RESULT:      -5.5      8.851     13.829
REMARK  15 active torsions:
REMARK  status: ('A' for Active; 'I' for Inactive)
REMARK    1  A    between atoms: O_1  and  C_7 
REMARK    2  A    between atoms: O_2  and  C_8 
REMARK    3  A    between atoms: N_3  and  C_4 
REMARK    4  A    between atoms: C_4  and  C_5 
REMARK    5  A    between atoms: C_4  and  C_7 
REMARK    6  A    between atoms: C_4  and  C_8 
REMARK    7  A    between atoms: C_5  and  C_6 
REMARK    8  A    between atoms: C_6  and  C_12 
REMARK    9  A    between atoms: C_9  and  C_10 
REMARK   10  A    between atoms: C_9  and  C_11 
REMARK   11  A    between atoms: C_10  and  C_13 
REMARK   12  A    between atoms: C_11  and  C_14 
REMARK   13  A    between atoms: C_13  and  C_15 
REMARK   14  A    between atoms: C_14  and  C_16 
REMARK   15  A    between atoms: C_16  and  C_21 
ROOT
HETATM    1  C   UNK N   1      35.720  12.923  16.253  0.00  0.00    -0.058 A 
HETATM    2  C   UNK N   1      35.370  11.600  18.696  0.00  0.00    -0.058 A 
HETATM    3  C   UNK N   1      35.979  11.554  16.348  0.00  0.00     0.007 A 
HETATM    4  C   UNK N   1      35.288  13.634  17.379  0.00  0.00     0.007 A 
HETATM    5  C   UNK N   1      35.791  10.891  17.564  0.00  0.00     0.007 A 
HETATM    6  C   UNK N   1      35.117  12.973  18.602  0.00  0.00     0.007 A 
ENDROOT
BRANCH   1   7
HETATM    7  C   UNK N   1      35.937  13.624  14.958  0.00  0.00     0.041 C 
BRANCH   7   8
HETATM    8  C   UNK N   1      36.532  12.677  13.921  0.00  0.00     0.039 C 
BRANCH   8   9
HETATM    9  C   UNK N   1      36.258  13.125  12.480  0.00  0.00     0.066 C 
BRANCH   9  10
HETATM   10  N   UNK N   1      37.527  13.311  11.796  0.00  0.00    -0.418 N 
HETATM   11  H   UNK N   1      38.525  13.101  11.838  0.00  0.00     0.150 HD
HETATM   12  H   UNK N   1      37.355  13.860  10.953  0.00  0.00     0.150 HD
ENDBRANCH   9  10
BRANCH   9  13
HETATM   13  C   UNK N   1      35.475  14.437  12.440  0.00  0.00     0.196 C 
BRANCH  13  14
HETATM   14  O   UNK N   1      34.208  14.251  11.883  0.00  0.00    -0.398 OA
HETATM   15  H   UNK N   1      33.441  14.844  11.861  0.00  0.00     0.209 HD
ENDBRANCH  13  14
ENDBRANCH   9  13
BRANCH   9  16
HETATM   16  C   UNK N   1      35.449  12.061  11.742  0.00  0.00     0.196 C 
BRANCH  16  17
HETATM   17  O   UNK N   1      34.401  11.590  12.539  0.00  0.00    -0.398 OA
HETATM   18  H   UNK N   1      34.212  10.685  12.833  0.00  0.00     0.209 HD
ENDBRANCH  16  17
ENDBRANCH   9  16
ENDBRANCH   8   9
ENDBRANCH   7   8
ENDBRANCH   1   7
BRANCH   2  19
HETATM   19  C   UNK N   1      35.157  10.896  20.002  0.00  0.00     0.038 C 
BRANCH  19  20
HETATM   20  C   UNK N   1      34.896   9.411  19.806  0.00  0.00     0.005 C 
BRANCH  20  21
HETATM   21  C   UNK N   1      34.335   8.843  21.100  0.00  0.00     0.000 C 
BRANCH  21  22
HETATM   22  C   UNK N   1      33.153   9.666  21.578  0.00  0.00     0.000 C 
BRANCH  22  23
HETATM   23  C   UNK N   1      31.899   8.818  21.607  0.00  0.00     0.000 C 
BRANCH  23  24
HETATM   24  C   UNK N   1      31.271   8.796  20.230  0.00  0.00    -0.000 C 
BRANCH  24  25
HETATM   25  C   UNK N   1      30.602   7.456  20.009  0.00  0.00    -0.005 C 
HETATM   26  C   UNK N   1      31.628   6.451  19.534  0.00  0.00     0.005 C 
ENDBRANCH  24  25
ENDBRANCH  23  24
ENDBRANCH  22  23
ENDBRANCH  21  22
ENDBRANCH  20  21
ENDBRANCH  19  20
ENDBRANCH   2  19
TORSDOF 15
ENDMDL
MODEL 8
REMARK VINA RESULT:      -5.5      6.994     11.874
REMARK  15 active torsions:
REMARK  status: ('A' for Active; 'I' for Inactive)
REMARK    1  A    between atoms: O_1  and  C_7 
REMARK    2  A    between atoms: O_2  and  C_8 
REMARK    3  A    between atoms: N_3  and  C_4 
REMARK    4  A    between atoms: C_4  and  C_5 
REMARK    5  A    between atoms: C_4  and  C_7 
REMARK    6  A    between atoms: C_4  and  C_8 
REMARK    7  A    between atoms: C_5  and  C_6 
REMARK    8  A    between atoms: C_6  and  C_12 
REMARK    9  A    between atoms: C_9  and  C_10 
REMARK   10  A    between atoms: C_9  and  C_11 
REMARK   11  A    between atoms: C_10  and  C_13 
REMARK   12  A    between atoms: C_11  and  C_14 
REMARK   13  A    between atoms: C_13  and  C_15 
REMARK   14  A    between atoms: C_14  and  C_16 
REMARK   15  A    between atoms: C_16  and  C_21 
ROOT
HETATM    1  C   UNK N   1      35.451  11.607  12.948  0.00  0.00    -0.058 A 
HETATM    2  C   UNK N   1      35.563  10.065  15.282  0.00  0.00    -0.058 A 
HETATM    3  C   UNK N   1      36.687  11.214  13.465  0.00  0.00     0.007 A 
HETATM    4  C   UNK N   1      34.269  11.232  13.597  0.00  0.00     0.007 A 
HETATM    5  C   UNK N   1      36.743  10.432  14.622  0.00  0.00     0.007 A 
HETATM    6  C   UNK N   1      34.325  10.464  14.766  0.00  0.00     0.007 A 
ENDROOT
BRANCH   1   7
HETATM    7  C   UNK N   1      35.402  12.451  11.723  0.00  0.00     0.041 C 
BRANCH   7   8
HETATM    8  C   UNK N   1      35.238  13.924  12.084  0.00  0.00     0.039 C 
BRANCH   8   9
HETATM    9  C   UNK N   1      34.804  14.784  10.890  0.00  0.00     0.066 C 
BRANCH   9  10
HETATM   10  N   UNK N   1      33.375  15.034  10.986  0.00  0.00    -0.418 N 
HETATM   11  H   UNK N   1      32.476  14.855  10.538  0.00  0.00     0.150 HD
HETATM   12  H   UNK N   1      33.207  15.602  11.816  0.00  0.00     0.150 HD
ENDBRANCH   9  10
BRANCH   9  13
HETATM   13  C   UNK N   1      35.099  14.089   9.562  0.00  0.00     0.196 C 
BRANCH  13  14
HETATM   14  O   UNK N   1      36.025  14.815   8.809  0.00  0.00    -0.398 OA
HETATM   15  H   UNK N   1      36.994  14.826   8.849  0.00  0.00     0.209 HD
ENDBRANCH  13  14
ENDBRANCH   9  13
BRANCH   9  16
HETATM   16  C   UNK N   1      35.543  16.120  10.908  0.00  0.00     0.196 C 
BRANCH  16  17
HETATM   17  O   UNK N   1      36.914  15.930  11.104  0.00  0.00    -0.398 OA
HETATM   18  H   UNK N   1      37.647  16.072  10.485  0.00  0.00     0.209 HD
ENDBRANCH  16  17
ENDBRANCH   9  16
ENDBRANCH   8   9
ENDBRANCH   7   8
ENDBRANCH   1   7
BRANCH   2  19
HETATM   19  C   UNK N   1      35.612   9.219  16.518  0.00  0.00     0.038 C 
BRANCH  19  20
HETATM   20  C   UNK N   1      34.514   9.594  17.501  0.00  0.00     0.005 C 
BRANCH  20  21
HETATM   21  C   UNK N   1      35.129   9.727  18.886  0.00  0.00     0.000 C 
BRANCH  21  22
HETATM   22  C   UNK N   1      35.935  11.008  18.993  0.00  0.00     0.000 C 
BRANCH  22  23
HETATM   23  C   UNK N   1      35.037  12.163  19.382  0.00  0.00     0.000 C 
BRANCH  23  24
HETATM   24  C   UNK N   1      35.402  13.385  18.566  0.00  0.00    -0.000 C 
BRANCH  24  25
HETATM   25  C   UNK N   1      34.843  13.236  17.167  0.00  0.00    -0.005 C 
HETATM   26  C   UNK N   1      35.890  13.655  16.158  0.00  0.00     0.005 C 
ENDBRANCH  24  25
ENDBRANCH  23  24
ENDBRANCH  22  23
ENDBRANCH  21  22
ENDBRANCH  20  21
ENDBRANCH  19  20
ENDBRANCH   2  19
TORSDOF 15
ENDMDL
MODEL 9
REMARK VINA RESULT:      -5.5      2.126      3.863
REMARK  15 active torsions:
REMARK  status: ('A' for Active; 'I' for Inactive)
REMARK    1  A    between atoms: O_1  and  C_7 
REMARK    2  A    between atoms: O_2  and  C_8 
REMARK    3  A    between atoms: N_3  and  C_4 
REMARK    4  A    between atoms: C_4  and  C_5 
REMARK    5  A    between atoms: C_4  and  C_7 
REMARK    6  A    between atoms: C_4  and  C_8 
REMARK    7  A    between atoms: C_5  and  C_6 
REMARK    8  A    between atoms: C_6  and  C_12 
REMARK    9  A    between atoms: C_9  and  C_10 
REMARK   10  A    between atoms: C_9  and  C_11 
REMARK   11  A    between atoms: C_10  and  C_13 
REMARK   12  A    between atoms: C_11  and  C_14 
REMARK   13  A    between atoms: C_13  and  C_15 
REMARK   14  A    between atoms: C_14  and  C_16 
REMARK   15  A    between atoms: C_16  and  C_21 
ROOT
HETATM    1  C   UNK N   1      29.474  17.668   6.427  0.00  0.00    -0.058 A 
HETATM    2  C   UNK N   1      27.741  19.588   5.355  0.00  0.00    -0.058 A 
HETATM    3  C   UNK N   1      29.470  17.914   5.052  0.00  0.00     0.007 A 
HETATM    4  C   UNK N   1      28.611  18.380   7.269  0.00  0.00     0.007 A 
HETATM    5  C   UNK N   1      28.615  18.881   4.519  0.00  0.00     0.007 A 
HETATM    6  C   UNK N   1      27.741  19.337   6.731  0.00  0.00     0.007 A 
ENDROOT
BRANCH   1   7
HETATM    7  C   UNK N   1      30.379  16.626   6.985  0.00  0.00     0.041 C 
BRANCH   7   8
HETATM    8  C   UNK N   1      31.840  16.979   6.725  0.00  0.00     0.039 C 
BRANCH   8   9
HETATM    9  C   UNK N   1      32.660  17.101   8.016  0.00  0.00     0.066 C 
BRANCH   9  10
HETATM   10  N   UNK N   1      31.787  17.553   9.086  0.00  0.00    -0.418 N 
HETATM   11  H   UNK N   1      31.741  18.139   9.920  0.00  0.00     0.150 HD
HETATM   12  H   UNK N   1      30.873  17.120   8.954  0.00  0.00     0.150 HD
ENDBRANCH   9  10
BRANCH   9  13
HETATM   13  C   UNK N   1      33.809  18.097   7.857  0.00  0.00     0.196 C 
BRANCH  13  14
HETATM   14  O   UNK N   1      34.343  18.048   6.568  0.00  0.00    -0.398 OA
HETATM   15  H   UNK N   1      33.899  18.066   5.706  0.00  0.00     0.209 HD
ENDBRANCH  13  14
ENDBRANCH   9  13
BRANCH   9  16
HETATM   16  C   UNK N   1      33.250  15.744   8.395  0.00  0.00     0.196 C 
BRANCH  16  17
HETATM   17  O   UNK N   1      34.535  15.594   7.867  0.00  0.00    -0.398 OA
HETATM   18  H   UNK N   1      34.900  14.867   7.338  0.00  0.00     0.209 HD
ENDBRANCH  16  17
ENDBRANCH   9  16
ENDBRANCH   8   9
ENDBRANCH   7   8
ENDBRANCH   1   7
BRANCH   2  19
HETATM   19  C   UNK N   1      26.826  20.634   4.793  0.00  0.00     0.038 C 
BRANCH  19  20
HETATM   20  C   UNK N   1      26.378  20.292   3.381  0.00  0.00     0.005 C 
BRANCH  20  21
HETATM   21  C   UNK N   1      24.857  20.253   3.352  0.00  0.00     0.000 C 
BRANCH  21  22
HETATM   22  C   UNK N   1      24.330  19.200   4.310  0.00  0.00     0.000 C 
BRANCH  22  23
HETATM   23  C   UNK N   1      24.703  17.815   3.826  0.00  0.00     0.000 C 
BRANCH  23  24
HETATM   24  C   UNK N   1      25.223  16.995   4.988  0.00  0.00    -0.000 C 
BRANCH  24  25
HETATM   25  C   UNK N   1      26.297  16.052   4.492  0.00  0.00    -0.005 C 
HETATM   26  C   UNK N   1      26.507  16.261   3.008  0.00  0.00     0.005 C 
ENDBRANCH  24  25
ENDBRANCH  23  24
ENDBRANCH  22  23
ENDBRANCH  21  22
ENDBRANCH  20  21
ENDBRANCH  19  20
ENDBRANCH   2  19
TORSDOF 15
ENDMDL
