MODEL 1
REMARK VINA RESULT:      -8.4      0.000      0.000
REMARK  10 active torsions:
REMARK  status: ('A' for Active; 'I' for Inactive)
REMARK    1  A    between atoms: C_1  and  C_8 
REMARK    2  A    between atoms: C_8  and  O_9 
REMARK    3  A    between atoms: O_9  and  C_10 
REMARK    4  A    between atoms: C_10  and  C_12 
REMARK    5  A    between atoms: C_20  and  O_24 
REMARK    6  A    between atoms: N_21  and  C_22 
REMARK    7  A    between atoms: C_22  and  C_23 
REMARK    8  A    between atoms: O_24  and  C_25 
REMARK    9  A    between atoms: C_31  and  C_32 
REMARK   10  A    between atoms: C_33  and  C_38 
ROOT
HETATM    1  C   UNK N   1      30.146  17.155   7.153  0.00  0.00     0.068 A 
HETATM    2  C   UNK N   1      29.021  17.972   6.898  0.00  0.00     0.081 A 
HETATM    3  C   UNK N   1      28.494  18.775   7.872  0.00  0.00     0.063 A 
HETATM    4  C   UNK N   1      30.669  17.169   8.462  0.00  0.00     0.020 A 
HETATM    5  C   UNK N   1      30.116  18.008   9.452  0.00  0.00     0.003 A 
HETATM    6  C   UNK N   1      29.018  18.832   9.157  0.00  0.00     0.032 A 
HETATM    7  N   UNK N   1      27.422  19.434   7.400  0.00  0.00    -0.320 N 
ATOM      8  HN  UNK N   1      26.835  20.110   7.889  1.00  0.00     0.169 HD
HETATM    9  C   UNK N   1      27.301  18.992   6.122  0.00  0.00     0.227 A 
HETATM   10  N   UNK N   1      28.265  18.092   5.790  0.00  0.00    -0.306 N 
ENDROOT
BRANCH  10  11
HETATM   11  C   UNK N   1      28.464  17.341   4.555  0.00  0.00     0.171 C 
BRANCH  11  12
HETATM   12  C   UNK N   1      27.380  16.402   4.173  0.00  0.00    -0.040 A 
HETATM   13  C   UNK N   1      26.983  15.462   5.115  0.00  0.00     0.010 A 
HETATM   14  C   UNK N   1      25.850  14.698   4.894  0.00  0.00     0.013 A 
HETATM   15  C   UNK N   1      25.093  14.867   3.726  0.00  0.00    -0.025 A 
HETATM   16  C   UNK N   1      25.521  15.768   2.741  0.00  0.00     0.013 A 
HETATM   17  C   UNK N   1      26.663  16.550   2.973  0.00  0.00     0.010 A 
BRANCH  15  18
HETATM   18  C   UNK N   1      23.772  14.227   3.662  0.00  0.00    -0.012 A 
HETATM   19  C   UNK N   1      22.605  14.934   4.082  0.00  0.00     0.021 A 
HETATM   20  C   UNK N   1      21.380  14.256   4.121  0.00  0.00     0.016 A 
HETATM   21  C   UNK N   1      21.294  12.918   3.731  0.00  0.00     0.001 A 
HETATM   22  C   UNK N   1      22.429  12.245   3.273  0.00  0.00     0.001 A 
HETATM   23  C   UNK N   1      23.665  12.896   3.240  0.00  0.00     0.013 A 
BRANCH  19  24
HETATM   24  C   UNK N   1      22.621  16.395   4.404  0.00  0.00     0.141 A 
HETATM   25  N   UNK N   1      22.313  17.374   3.524  0.00  0.00    -0.285 N 
HETATM   26  C   UNK N   1      22.513  18.493   4.264  0.00  0.00     0.388 A 
HETATM   27  H   UNK N   1      22.019  17.294   2.587  0.00  0.00     0.172 HD
HETATM   28  O   UNK N   1      22.922  18.206   5.469  0.00  0.00    -0.179 OA
HETATM   29  O   UNK N   1      22.333  19.627   3.858  0.00  0.00    -0.236 OA
HETATM   30  N   UNK N   1      23.010  16.917   5.589  0.00  0.00    -0.239 N 
ATOM     31  HN  UNK N   1      23.313  16.400   6.414  1.00  0.00     0.196 HD
ENDBRANCH  19  24
ENDBRANCH  15  18
ENDBRANCH  11  12
ENDBRANCH  10  11
BRANCH   9  32
HETATM   32  O   UNK N   1      26.308  19.383   5.291  0.00  0.00    -0.322 OA
BRANCH  32  33
HETATM   33  C   UNK N   1      26.429  20.500   4.499  0.00  0.00     0.174 C 
HETATM   34  C   UNK N   1      25.843  20.225   3.128  0.00  0.00     0.034 C 
ENDBRANCH  32  33
ENDBRANCH   9  32
BRANCH   1  35
HETATM   35  C   UNK N   1      30.816  16.327   6.132  0.00  0.00     0.296 C 
HETATM   36  O   UNK N   1      30.621  15.120   6.112  0.00  0.00    -0.259 OA
BRANCH  35  37
HETATM   37  O   UNK N   1      31.798  16.881   5.367  0.00  0.00    -0.311 OA
BRANCH  37  38
HETATM   38  C   UNK N   1      33.155  16.616   5.471  0.00  0.00     0.247 C 
BRANCH  38  39
HETATM   39  C   UNK N   1      33.802  17.060   6.760  0.00  0.00     0.112 A 
HETATM   40  O   UNK N   1      34.285  18.268   6.930  0.00  0.00    -0.255 OA
HETATM   41  C   UNK N   1      34.798  18.308   8.136  0.00  0.00     0.416 A 
HETATM   42  O   UNK N   1      34.665  17.161   8.760  0.00  0.00    -0.257 OA
HETATM   43  O   UNK N   1      35.338  19.289   8.616  0.00  0.00    -0.229 OA
HETATM   44  C   UNK N   1      34.042  16.354   7.934  0.00  0.00     0.087 A 
HETATM   45  C   UNK N   1      33.702  14.937   8.245  0.00  0.00     0.079 C 
ENDBRANCH  38  39
ENDBRANCH  37  38
ENDBRANCH  35  37
ENDBRANCH   1  35
TORSDOF 10
ENDMDL
MODEL 2
REMARK VINA RESULT:      -8.3      2.587      3.814
REMARK  10 active torsions:
REMARK  status: ('A' for Active; 'I' for Inactive)
REMARK    1  A    between atoms: C_1  and  C_8 
REMARK    2  A    between atoms: C_8  and  O_9 
REMARK    3  A    between atoms: O_9  and  C_10 
REMARK    4  A    between atoms: C_10  and  C_12 
REMARK    5  A    between atoms: C_20  and  O_24 
REMARK    6  A    between atoms: N_21  and  C_22 
REMARK    7  A    between atoms: C_22  and  C_23 
REMARK    8  A    between atoms: O_24  and  C_25 
REMARK    9  A    between atoms: C_31  and  C_32 
REMARK   10  A    between atoms: C_33  and  C_38 
ROOT
HETATM    1  C   UNK N   1      29.806  17.037   7.103  0.00  0.00     0.068 A 
HETATM    2  C   UNK N   1      28.878  18.002   6.651  0.00  0.00     0.081 A 
HETATM    3  C   UNK N   1      28.142  18.744   7.533  0.00  0.00     0.063 A 
HETATM    4  C   UNK N   1      29.905  16.842   8.495  0.00  0.00     0.020 A 
HETATM    5  C   UNK N   1      29.143  17.621   9.391  0.00  0.00     0.003 A 
HETATM    6  C   UNK N   1      28.252  18.594   8.909  0.00  0.00     0.032 A 
HETATM    7  N   UNK N   1      27.318  19.572   6.869  0.00  0.00    -0.320 N 
ATOM      8  HN  UNK N   1      26.662  20.251   7.257  1.00  0.00     0.169 HD
HETATM    9  C   UNK N   1      27.557  19.296   5.562  0.00  0.00     0.227 A 
HETATM   10  N   UNK N   1      28.506  18.335   5.399  0.00  0.00    -0.306 N 
ENDROOT
BRANCH  10  11
HETATM   11  C   UNK N   1      29.014  17.711   4.182  0.00  0.00     0.171 C 
BRANCH  11  12
HETATM   12  C   UNK N   1      28.251  16.545   3.671  0.00  0.00    -0.040 A 
HETATM   13  C   UNK N   1      26.991  16.318   4.208  0.00  0.00     0.010 A 
HETATM   14  C   UNK N   1      26.155  15.375   3.634  0.00  0.00     0.013 A 
HETATM   15  C   UNK N   1      26.568  14.647   2.509  0.00  0.00    -0.025 A 
HETATM   16  C   UNK N   1      27.861  14.825   1.999  0.00  0.00     0.013 A 
HETATM   17  C   UNK N   1      28.701  15.790   2.575  0.00  0.00     0.010 A 
BRANCH  15  18
HETATM   18  C   UNK N   1      25.558  13.858   1.789  0.00  0.00    -0.012 A 
HETATM   19  C   UNK N   1      25.729  12.452   1.613  0.00  0.00     0.021 A 
HETATM   20  C   UNK N   1      24.810  11.752   0.821  0.00  0.00     0.016 A 
HETATM   21  C   UNK N   1      23.729  12.412   0.232  0.00  0.00     0.001 A 
HETATM   22  C   UNK N   1      23.538  13.779   0.449  0.00  0.00     0.001 A 
HETATM   23  C   UNK N   1      24.451  14.501   1.223  0.00  0.00     0.013 A 
BRANCH  19  24
HETATM   24  C   UNK N   1      26.803  11.679   2.310  0.00  0.00     0.141 A 
HETATM   25  N   UNK N   1      26.778  11.346   3.620  0.00  0.00    -0.285 N 
HETATM   26  C   UNK N   1      27.963  10.705   3.772  0.00  0.00     0.388 A 
HETATM   27  H   UNK N   1      26.078  11.524   4.291  0.00  0.00     0.172 HD
HETATM   28  O   UNK N   1      28.641  10.676   2.659  0.00  0.00    -0.179 OA
HETATM   29  O   UNK N   1      28.350  10.214   4.818  0.00  0.00    -0.236 OA
HETATM   30  N   UNK N   1      27.959  11.277   1.733  0.00  0.00    -0.239 N 
ATOM     31  HN  UNK N   1      28.239  11.420   0.763  1.00  0.00     0.196 HD
ENDBRANCH  19  24
ENDBRANCH  15  18
ENDBRANCH  11  12
ENDBRANCH  10  11
BRANCH   9  32
HETATM   32  O   UNK N   1      26.898  19.891   4.542  0.00  0.00    -0.322 OA
BRANCH  32  33
HETATM   33  C   UNK N   1      25.553  19.690   4.338  0.00  0.00     0.174 C 
HETATM   34  C   UNK N   1      25.153  20.230   2.980  0.00  0.00     0.034 C 
ENDBRANCH  32  33
ENDBRANCH   9  32
BRANCH   1  35
HETATM   35  C   UNK N   1      30.691  16.259   6.214  0.00  0.00     0.296 C 
HETATM   36  O   UNK N   1      30.519  15.054   6.099  0.00  0.00    -0.259 OA
BRANCH  35  37
HETATM   37  O   UNK N   1      31.806  16.851   5.704  0.00  0.00    -0.311 OA
BRANCH  37  38
HETATM   38  C   UNK N   1      33.115  16.479   5.967  0.00  0.00     0.247 C 
BRANCH  38  39
HETATM   39  C   UNK N   1      33.728  17.100   7.199  0.00  0.00     0.112 A 
HETATM   40  O   UNK N   1      34.378  18.239   7.168  0.00  0.00    -0.255 OA
HETATM   41  C   UNK N   1      34.801  18.471   8.387  0.00  0.00     0.416 A 
HETATM   42  O   UNK N   1      34.446  17.516   9.215  0.00  0.00    -0.257 OA
HETATM   43  O   UNK N   1      35.450  19.450   8.710  0.00  0.00    -0.229 OA
HETATM   44  C   UNK N   1      33.768  16.641   8.511  0.00  0.00     0.087 A 
HETATM   45  C   UNK N   1      33.190  15.386   9.068  0.00  0.00     0.079 C 
ENDBRANCH  38  39
ENDBRANCH  37  38
ENDBRANCH  35  37
ENDBRANCH   1  35
TORSDOF 10
ENDMDL
MODEL 3
REMARK VINA RESULT:      -8.3      1.383      1.891
REMARK  10 active torsions:
REMARK  status: ('A' for Active; 'I' for Inactive)
REMARK    1  A    between atoms: C_1  and  C_8 
REMARK    2  A    between atoms: C_8  and  O_9 
REMARK    3  A    between atoms: O_9  and  C_10 
REMARK    4  A    between atoms: C_10  and  C_12 
REMARK    5  A    between atoms: C_20  and  O_24 
REMARK    6  A    between atoms: N_21  and  C_22 
REMARK    7  A    between atoms: C_22  and  C_23 
REMARK    8  A    between atoms: O_24  and  C_25 
REMARK    9  A    between atoms: C_31  and  C_32 
REMARK   10  A    between atoms: C_33  and  C_38 
ROOT
HETATM    1  C   UNK N   1      30.147  17.089   7.161  0.00  0.00     0.068 A 
HETATM    2  C   UNK N   1      29.038  17.914   6.872  0.00  0.00     0.081 A 
HETATM    3  C   UNK N   1      28.466  18.696   7.836  0.00  0.00     0.063 A 
HETATM    4  C   UNK N   1      30.607  17.073   8.493  0.00  0.00     0.020 A 
HETATM    5  C   UNK N   1      30.009  17.891   9.475  0.00  0.00     0.003 A 
HETATM    6  C   UNK N   1      28.928  18.724   9.146  0.00  0.00     0.032 A 
HETATM    7  N   UNK N   1      27.419  19.368   7.328  0.00  0.00    -0.320 N 
ATOM      8  HN  UNK N   1      26.809  20.035   7.804  1.00  0.00     0.169 HD
HETATM    9  C   UNK N   1      27.358  18.956   6.037  0.00  0.00     0.227 A 
HETATM   10  N   UNK N   1      28.335  18.061   5.731  0.00  0.00    -0.306 N 
ENDROOT
BRANCH  10  11
HETATM   11  C   UNK N   1      28.592  17.336   4.491  0.00  0.00     0.171 C 
BRANCH  11  12
HETATM   12  C   UNK N   1      27.573  16.335   4.090  0.00  0.00    -0.040 A 
HETATM   13  C   UNK N   1      26.875  16.565   2.912  0.00  0.00     0.010 A 
HETATM   14  C   UNK N   1      26.063  15.575   2.385  0.00  0.00     0.013 A 
HETATM   15  C   UNK N   1      25.940  14.336   3.029  0.00  0.00    -0.025 A 
HETATM   16  C   UNK N   1      26.591  14.117   4.251  0.00  0.00     0.013 A 
HETATM   17  C   UNK N   1      27.423  15.117   4.776  0.00  0.00     0.010 A 
BRANCH  15  18
HETATM   18  C   UNK N   1      25.282  13.242   2.300  0.00  0.00    -0.012 A 
HETATM   19  C   UNK N   1      23.863  13.097   2.341  0.00  0.00     0.021 A 
HETATM   20  C   UNK N   1      23.280  11.977   1.736  0.00  0.00     0.016 A 
HETATM   21  C   UNK N   1      24.069  11.029   1.080  0.00  0.00     0.001 A 
HETATM   22  C   UNK N   1      25.453  11.202   1.000  0.00  0.00     0.001 A 
HETATM   23  C   UNK N   1      26.058  12.304   1.610  0.00  0.00     0.013 A 
BRANCH  19  24
HETATM   24  C   UNK N   1      22.964  14.137   2.932  0.00  0.00     0.141 A 
HETATM   25  N   UNK N   1      22.439  15.174   2.242  0.00  0.00    -0.285 N 
HETATM   26  C   UNK N   1      21.749  15.834   3.206  0.00  0.00     0.388 A 
HETATM   27  H   UNK N   1      22.533  15.392   1.286  0.00  0.00     0.172 HD
HETATM   28  O   UNK N   1      21.870  15.254   4.367  0.00  0.00    -0.179 OA
HETATM   29  O   UNK N   1      21.096  16.844   3.013  0.00  0.00    -0.236 OA
HETATM   30  N   UNK N   1      22.623  14.204   4.239  0.00  0.00    -0.239 N 
ATOM     31  HN  UNK N   1      22.902  13.559   4.978  1.00  0.00     0.196 HD
ENDBRANCH  19  24
ENDBRANCH  15  18
ENDBRANCH  11  12
ENDBRANCH  10  11
BRANCH   9  32
HETATM   32  O   UNK N   1      26.407  19.367   5.168  0.00  0.00    -0.322 OA
BRANCH  32  33
HETATM   33  C   UNK N   1      26.562  20.507   4.415  0.00  0.00     0.174 C 
HETATM   34  C   UNK N   1      25.922  20.316   3.055  0.00  0.00     0.034 C 
ENDBRANCH  32  33
ENDBRANCH   9  32
BRANCH   1  35
HETATM   35  C   UNK N   1      30.865  16.281   6.156  0.00  0.00     0.296 C 
HETATM   36  O   UNK N   1      30.676  15.075   6.106  0.00  0.00    -0.259 OA
BRANCH  35  37
HETATM   37  O   UNK N   1      31.875  16.853   5.444  0.00  0.00    -0.311 OA
BRANCH  37  38
HETATM   38  C   UNK N   1      33.226  16.575   5.585  0.00  0.00     0.247 C 
BRANCH  38  39
HETATM   39  C   UNK N   1      33.856  17.067   6.865  0.00  0.00     0.112 A 
HETATM   40  O   UNK N   1      34.334  18.282   6.997  0.00  0.00    -0.255 OA
HETATM   41  C   UNK N   1      34.831  18.368   8.208  0.00  0.00     0.416 A 
HETATM   42  O   UNK N   1      34.692  17.244   8.872  0.00  0.00    -0.257 OA
HETATM   43  O   UNK N   1      35.362  19.368   8.658  0.00  0.00    -0.229 OA
HETATM   44  C   UNK N   1      34.082  16.406   8.067  0.00  0.00     0.087 A 
HETATM   45  C   UNK N   1      33.740  15.001   8.427  0.00  0.00     0.079 C 
ENDBRANCH  38  39
ENDBRANCH  37  38
ENDBRANCH  35  37
ENDBRANCH   1  35
TORSDOF 10
ENDMDL
MODEL 4
REMARK VINA RESULT:      -8.2      2.655      3.769
REMARK  10 active torsions:
REMARK  status: ('A' for Active; 'I' for Inactive)
REMARK    1  A    between atoms: C_1  and  C_8 
REMARK    2  A    between atoms: C_8  and  O_9 
REMARK    3  A    between atoms: O_9  and  C_10 
REMARK    4  A    between atoms: C_10  and  C_12 
REMARK    5  A    between atoms: C_20  and  O_24 
REMARK    6  A    between atoms: N_21  and  C_22 
REMARK    7  A    between atoms: C_22  and  C_23 
REMARK    8  A    between atoms: O_24  and  C_25 
REMARK    9  A    between atoms: C_31  and  C_32 
REMARK   10  A    between atoms: C_33  and  C_38 
ROOT
HETATM    1  C   UNK N   1      27.975  18.816   6.332  0.00  0.00     0.068 A 
HETATM    2  C   UNK N   1      27.307  18.364   5.172  0.00  0.00     0.081 A 
HETATM    3  C   UNK N   1      26.540  19.211   4.420  0.00  0.00     0.063 A 
HETATM    4  C   UNK N   1      27.780  20.161   6.704  0.00  0.00     0.020 A 
HETATM    5  C   UNK N   1      26.991  21.023   5.913  0.00  0.00     0.003 A 
HETATM    6  C   UNK N   1      26.366  20.549   4.748  0.00  0.00     0.032 A 
HETATM    7  N   UNK N   1      25.992  18.548   3.388  0.00  0.00    -0.320 N 
ATOM      8  HN  UNK N   1      25.387  18.918   2.654  1.00  0.00     0.169 HD
HETATM    9  C   UNK N   1      26.428  17.273   3.546  0.00  0.00     0.227 A 
HETATM   10  N   UNK N   1      27.232  17.130   4.635  0.00  0.00    -0.306 N 
ENDROOT
BRANCH  10  11
HETATM   11  C   UNK N   1      27.858  15.935   5.191  0.00  0.00     0.171 C 
BRANCH  11  12
HETATM   12  C   UNK N   1      26.993  15.067   6.026  0.00  0.00    -0.040 A 
HETATM   13  C   UNK N   1      26.570  15.568   7.251  0.00  0.00     0.010 A 
HETATM   14  C   UNK N   1      25.606  14.892   7.978  0.00  0.00     0.013 A 
HETATM   15  C   UNK N   1      25.045  13.704   7.489  0.00  0.00    -0.025 A 
HETATM   16  C   UNK N   1      25.510  13.158   6.284  0.00  0.00     0.013 A 
HETATM   17  C   UNK N   1      26.479  13.851   5.543  0.00  0.00     0.010 A 
BRANCH  15  18
HETATM   18  C   UNK N   1      23.853  13.174   8.165  0.00  0.00    -0.012 A 
HETATM   19  C   UNK N   1      22.557  13.683   7.851  0.00  0.00     0.021 A 
HETATM   20  C   UNK N   1      21.457  13.242   8.598  0.00  0.00     0.016 A 
HETATM   21  C   UNK N   1      21.619  12.300   9.616  0.00  0.00     0.001 A 
HETATM   22  C   UNK N   1      22.882  11.767   9.885  0.00  0.00     0.001 A 
HETATM   23  C   UNK N   1      23.996  12.204   9.164  0.00  0.00     0.013 A 
BRANCH  19  24
HETATM   24  C   UNK N   1      22.313  14.609   6.701  0.00  0.00     0.141 A 
HETATM   25  N   UNK N   1      21.955  14.207   5.461  0.00  0.00    -0.285 N 
HETATM   26  C   UNK N   1      21.898  15.384   4.788  0.00  0.00     0.388 A 
HETATM   27  H   UNK N   1      21.780  13.295   5.132  0.00  0.00     0.172 HD
HETATM   28  O   UNK N   1      22.213  16.391   5.553  0.00  0.00    -0.179 OA
HETATM   29  O   UNK N   1      21.590  15.490   3.614  0.00  0.00    -0.236 OA
HETATM   30  N   UNK N   1      22.485  15.949   6.743  0.00  0.00    -0.239 N 
ATOM     31  HN  UNK N   1      22.772  16.504   7.549  1.00  0.00     0.196 HD
ENDBRANCH  19  24
ENDBRANCH  15  18
ENDBRANCH  11  12
ENDBRANCH  10  11
BRANCH   9  32
HETATM   32  O   UNK N   1      26.071  16.256   2.729  0.00  0.00    -0.322 OA
BRANCH  32  33
HETATM   33  C   UNK N   1      24.885  15.580   2.895  0.00  0.00     0.174 C 
HETATM   34  C   UNK N   1      24.929  14.271   2.132  0.00  0.00     0.034 C 
ENDBRANCH  32  33
ENDBRANCH   9  32
BRANCH   1  35
HETATM   35  C   UNK N   1      28.881  17.982   7.144  0.00  0.00     0.296 C 
HETATM   36  O   UNK N   1      28.585  17.722   8.301  0.00  0.00    -0.259 OA
BRANCH  35  37
HETATM   37  O   UNK N   1      30.123  17.692   6.667  0.00  0.00    -0.311 OA
BRANCH  37  38
HETATM   38  C   UNK N   1      31.080  16.920   7.309  0.00  0.00     0.247 C 
BRANCH  38  39
HETATM   39  C   UNK N   1      32.494  17.442   7.224  0.00  0.00     0.112 A 
HETATM   40  O   UNK N   1      33.092  18.030   8.232  0.00  0.00    -0.255 OA
HETATM   41  C   UNK N   1      34.284  18.385   7.815  0.00  0.00     0.416 A 
HETATM   42  O   UNK N   1      34.482  18.045   6.562  0.00  0.00    -0.257 OA
HETATM   43  O   UNK N   1      35.104  18.964   8.505  0.00  0.00    -0.229 OA
HETATM   44  C   UNK N   1      33.386  17.448   6.157  0.00  0.00     0.087 A 
HETATM   45  C   UNK N   1      33.183  16.915   4.781  0.00  0.00     0.079 C 
ENDBRANCH  38  39
ENDBRANCH  37  38
ENDBRANCH  35  37
ENDBRANCH   1  35
TORSDOF 10
ENDMDL
MODEL 5
REMARK VINA RESULT:      -8.2      3.364      4.712
REMARK  10 active torsions:
REMARK  status: ('A' for Active; 'I' for Inactive)
REMARK    1  A    between atoms: C_1  and  C_8 
REMARK    2  A    between atoms: C_8  and  O_9 
REMARK    3  A    between atoms: O_9  and  C_10 
REMARK    4  A    between atoms: C_10  and  C_12 
REMARK    5  A    between atoms: C_20  and  O_24 
REMARK    6  A    between atoms: N_21  and  C_22 
REMARK    7  A    between atoms: C_22  and  C_23 
REMARK    8  A    between atoms: O_24  and  C_25 
REMARK    9  A    between atoms: C_31  and  C_32 
REMARK   10  A    between atoms: C_33  and  C_38 
ROOT
HETATM    1  C   UNK N   1      27.636  18.068   4.790  0.00  0.00     0.068 A 
HETATM    2  C   UNK N   1      26.229  17.955   4.736  0.00  0.00     0.081 A 
HETATM    3  C   UNK N   1      25.426  19.060   4.815  0.00  0.00     0.063 A 
HETATM    4  C   UNK N   1      28.172  19.358   4.976  0.00  0.00     0.020 A 
HETATM    5  C   UNK N   1      27.330  20.487   5.050  0.00  0.00     0.003 A 
HETATM    6  C   UNK N   1      25.936  20.343   4.960  0.00  0.00     0.032 A 
HETATM    7  N   UNK N   1      24.133  18.698   4.764  0.00  0.00    -0.320 N 
ATOM      8  HN  UNK N   1      23.311  19.302   4.788  1.00  0.00     0.169 HD
HETATM    9  C   UNK N   1      24.173  17.345   4.674  0.00  0.00     0.227 A 
HETATM   10  N   UNK N   1      25.445  16.862   4.659  0.00  0.00    -0.306 N 
ENDROOT
BRANCH  10  11
HETATM   11  C   UNK N   1      25.928  15.485   4.630  0.00  0.00     0.171 C 
BRANCH  11  12
HETATM   12  C   UNK N   1      25.613  14.652   5.817  0.00  0.00    -0.040 A 
HETATM   13  C   UNK N   1      25.873  15.194   7.069  0.00  0.00     0.010 A 
HETATM   14  C   UNK N   1      25.417  14.551   8.208  0.00  0.00     0.013 A 
HETATM   15  C   UNK N   1      24.690  13.357   8.110  0.00  0.00    -0.025 A 
HETATM   16  C   UNK N   1      24.477  12.770   6.855  0.00  0.00     0.013 A 
HETATM   17  C   UNK N   1      24.930  13.429   5.702  0.00  0.00     0.010 A 
BRANCH  15  18
HETATM   18  C   UNK N   1      24.012  12.861   9.316  0.00  0.00    -0.012 A 
HETATM   19  C   UNK N   1      22.603  13.024   9.472  0.00  0.00     0.021 A 
HETATM   20  C   UNK N   1      22.007  12.649  10.683  0.00  0.00     0.016 A 
HETATM   21  C   UNK N   1      22.774  12.101  11.713  0.00  0.00     0.001 A 
HETATM   22  C   UNK N   1      24.144  11.896  11.537  0.00  0.00     0.001 A 
HETATM   23  C   UNK N   1      24.763  12.277  10.343  0.00  0.00     0.013 A 
BRANCH  19  24
HETATM   24  C   UNK N   1      21.720  13.503   8.362  0.00  0.00     0.141 A 
HETATM   25  N   UNK N   1      21.448  14.803   8.110  0.00  0.00    -0.285 N 
HETATM   26  C   UNK N   1      20.593  14.714   7.061  0.00  0.00     0.388 A 
HETATM   27  H   UNK N   1      21.784  15.606   8.570  0.00  0.00     0.172 HD
HETATM   28  O   UNK N   1      20.362  13.473   6.731  0.00  0.00    -0.179 OA
HETATM   29  O   UNK N   1      20.101  15.672   6.492  0.00  0.00    -0.236 OA
HETATM   30  N   UNK N   1      21.036  12.694   7.521  0.00  0.00    -0.239 N 
ATOM     31  HN  UNK N   1      21.046  11.675   7.510  1.00  0.00     0.196 HD
ENDBRANCH  19  24
ENDBRANCH  15  18
ENDBRANCH  11  12
ENDBRANCH  10  11
BRANCH   9  32
HETATM   32  O   UNK N   1      23.066  16.568   4.639  0.00  0.00    -0.322 OA
BRANCH  32  33
HETATM   33  C   UNK N   1      22.504  16.167   3.450  0.00  0.00     0.174 C 
HETATM   34  C   UNK N   1      21.105  16.734   3.326  0.00  0.00     0.034 C 
ENDBRANCH  32  33
ENDBRANCH   9  32
BRANCH   1  35
HETATM   35  C   UNK N   1      28.565  16.932   4.630  0.00  0.00     0.296 C 
HETATM   36  O   UNK N   1      28.836  16.529   3.509  0.00  0.00    -0.259 OA
BRANCH  35  37
HETATM   37  O   UNK N   1      28.940  16.221   5.730  0.00  0.00    -0.311 OA
BRANCH  37  38
HETATM   38  C   UNK N   1      30.173  15.618   5.925  0.00  0.00     0.247 C 
BRANCH  38  39
HETATM   39  C   UNK N   1      31.269  16.532   6.416  0.00  0.00     0.112 A 
HETATM   40  O   UNK N   1      32.403  16.684   5.775  0.00  0.00    -0.255 OA
HETATM   41  C   UNK N   1      33.134  17.513   6.482  0.00  0.00     0.416 A 
HETATM   42  O   UNK N   1      32.509  17.907   7.567  0.00  0.00    -0.257 OA
HETATM   43  O   UNK N   1      34.257  17.867   6.171  0.00  0.00    -0.229 OA
HETATM   44  C   UNK N   1      31.336  17.319   7.560  0.00  0.00     0.087 A 
HETATM   45  C   UNK N   1      30.311  17.485   8.628  0.00  0.00     0.079 C 
ENDBRANCH  38  39
ENDBRANCH  37  38
ENDBRANCH  35  37
ENDBRANCH   1  35
TORSDOF 10
ENDMDL
MODEL 6
REMARK VINA RESULT:      -8.1      5.552     10.012
REMARK  10 active torsions:
REMARK  status: ('A' for Active; 'I' for Inactive)
REMARK    1  A    between atoms: C_1  and  C_8 
REMARK    2  A    between atoms: C_8  and  O_9 
REMARK    3  A    between atoms: O_9  and  C_10 
REMARK    4  A    between atoms: C_10  and  C_12 
REMARK    5  A    between atoms: C_20  and  O_24 
REMARK    6  A    between atoms: N_21  and  C_22 
REMARK    7  A    between atoms: C_22  and  C_23 
REMARK    8  A    between atoms: O_24  and  C_25 
REMARK    9  A    between atoms: C_31  and  C_32 
REMARK   10  A    between atoms: C_33  and  C_38 
ROOT
HETATM    1  C   UNK N   1      36.627  12.849  12.180  0.00  0.00     0.068 A 
HETATM    2  C   UNK N   1      36.761  13.054  10.788  0.00  0.00     0.081 A 
HETATM    3  C   UNK N   1      37.405  12.144   9.997  0.00  0.00     0.063 A 
HETATM    4  C   UNK N   1      37.225  11.693  12.720  0.00  0.00     0.020 A 
HETATM    5  C   UNK N   1      37.882  10.761  11.888  0.00  0.00     0.003 A 
HETATM    6  C   UNK N   1      37.968  10.980  10.504  0.00  0.00     0.032 A 
HETATM    7  N   UNK N   1      37.424  12.569   8.722  0.00  0.00    -0.320 N 
ATOM      8  HN  UNK N   1      37.821  12.098   7.908  1.00  0.00     0.169 HD
HETATM    9  C   UNK N   1      36.794  13.770   8.766  0.00  0.00     0.227 A 
HETATM   10  N   UNK N   1      36.380  14.094  10.020  0.00  0.00    -0.306 N 
ENDROOT
BRANCH  10  11
HETATM   11  C   UNK N   1      35.724  15.301  10.511  0.00  0.00     0.171 C 
BRANCH  11  12
HETATM   12  C   UNK N   1      34.549  15.773   9.738  0.00  0.00    -0.040 A 
HETATM   13  C   UNK N   1      33.441  14.937   9.678  0.00  0.00     0.010 A 
HETATM   14  C   UNK N   1      32.251  15.404   9.146  0.00  0.00     0.013 A 
HETATM   15  C   UNK N   1      32.150  16.718   8.669  0.00  0.00    -0.025 A 
HETATM   16  C   UNK N   1      33.279  17.548   8.668  0.00  0.00     0.013 A 
HETATM   17  C   UNK N   1      34.481  17.077   9.218  0.00  0.00     0.010 A 
BRANCH  15  18
HETATM   18  C   UNK N   1      30.811  17.239   8.361  0.00  0.00    -0.012 A 
HETATM   19  C   UNK N   1      30.357  17.315   7.010  0.00  0.00     0.021 A 
HETATM   20  C   UNK N   1      29.126  17.927   6.743  0.00  0.00     0.016 A 
HETATM   21  C   UNK N   1      28.341  18.432   7.782  0.00  0.00     0.001 A 
HETATM   22  C   UNK N   1      28.766  18.309   9.107  0.00  0.00     0.001 A 
HETATM   23  C   UNK N   1      29.998  17.717   9.396  0.00  0.00     0.013 A 
BRANCH  19  24
HETATM   24  C   UNK N   1      31.106  16.693   5.874  0.00  0.00     0.141 A 
HETATM   25  N   UNK N   1      31.886  17.378   5.008  0.00  0.00    -0.285 N 
HETATM   26  C   UNK N   1      32.296  16.399   4.163  0.00  0.00     0.388 A 
HETATM   27  H   UNK N   1      32.103  18.339   4.996  0.00  0.00     0.172 HD
HETATM   28  O   UNK N   1      31.789  15.242   4.484  0.00  0.00    -0.179 OA
HETATM   29  O   UNK N   1      33.046  16.576   3.219  0.00  0.00    -0.236 OA
HETATM   30  N   UNK N   1      31.039  15.386   5.533  0.00  0.00    -0.239 N 
ATOM     31  HN  UNK N   1      30.504  14.658   6.006  1.00  0.00     0.196 HD
ENDBRANCH  19  24
ENDBRANCH  15  18
ENDBRANCH  11  12
ENDBRANCH  10  11
BRANCH   9  32
HETATM   32  O   UNK N   1      36.630  14.564   7.684  0.00  0.00    -0.322 OA
BRANCH  32  33
HETATM   33  C   UNK N   1      36.001  14.115   6.547  0.00  0.00     0.174 C 
HETATM   34  C   UNK N   1      34.925  15.098   6.132  0.00  0.00     0.034 C 
ENDBRANCH  32  33
ENDBRANCH   9  32
BRANCH   1  35
HETATM   35  C   UNK N   1      35.877  13.745  13.081  0.00  0.00     0.296 C 
HETATM   36  O   UNK N   1      36.437  14.715  13.569  0.00  0.00    -0.259 OA
BRANCH  35  37
HETATM   37  O   UNK N   1      34.645  13.364  13.520  0.00  0.00    -0.311 OA
BRANCH  37  38
HETATM   38  C   UNK N   1      34.370  12.255  14.305  0.00  0.00     0.247 C 
BRANCH  38  39
HETATM   39  C   UNK N   1      34.720  12.395  15.766  0.00  0.00     0.112 A 
HETATM   40  O   UNK N   1      34.794  13.558  16.368  0.00  0.00    -0.255 OA
HETATM   41  C   UNK N   1      35.147  13.325  17.609  0.00  0.00     0.416 A 
HETATM   42  O   UNK N   1      35.306  12.042  17.837  0.00  0.00    -0.257 OA
HETATM   43  O   UNK N   1      35.313  14.195  18.446  0.00  0.00    -0.229 OA
HETATM   44  C   UNK N   1      35.043  11.425  16.709  0.00  0.00     0.087 A 
HETATM   45  C   UNK N   1      35.119   9.949  16.526  0.00  0.00     0.079 C 
ENDBRANCH  38  39
ENDBRANCH  37  38
ENDBRANCH  35  37
ENDBRANCH   1  35
TORSDOF 10
ENDMDL
MODEL 7
REMARK VINA RESULT:      -8.0      3.444      7.622
REMARK  10 active torsions:
REMARK  status: ('A' for Active; 'I' for Inactive)
REMARK    1  A    between atoms: C_1  and  C_8 
REMARK    2  A    between atoms: C_8  and  O_9 
REMARK    3  A    between atoms: O_9  and  C_10 
REMARK    4  A    between atoms: C_10  and  C_12 
REMARK    5  A    between atoms: C_20  and  O_24 
REMARK    6  A    between atoms: N_21  and  C_22 
REMARK    7  A    between atoms: C_22  and  C_23 
REMARK    8  A    between atoms: O_24  and  C_25 
REMARK    9  A    between atoms: C_31  and  C_32 
REMARK   10  A    between atoms: C_33  and  C_38 
ROOT
HETATM    1  C   UNK N   1      25.995  17.490   3.661  0.00  0.00     0.068 A 
HETATM    2  C   UNK N   1      27.124  17.407   4.506  0.00  0.00     0.081 A 
HETATM    3  C   UNK N   1      27.865  18.515   4.810  0.00  0.00     0.063 A 
HETATM    4  C   UNK N   1      25.694  18.752   3.111  0.00  0.00     0.020 A 
HETATM    5  C   UNK N   1      26.465  19.887   3.440  0.00  0.00     0.003 A 
HETATM    6  C   UNK N   1      27.563  19.775   4.309  0.00  0.00     0.032 A 
HETATM    7  N   UNK N   1      28.895  18.182   5.605  0.00  0.00    -0.320 N 
ATOM      8  HN  UNK N   1      29.606  18.796   6.003  1.00  0.00     0.169 HD
HETATM    9  C   UNK N   1      28.772  16.839   5.758  0.00  0.00     0.227 A 
HETATM   10  N   UNK N   1      27.698  16.337   5.091  0.00  0.00    -0.306 N 
ENDROOT
BRANCH  10  11
HETATM   11  C   UNK N   1      27.242  14.958   4.945  0.00  0.00     0.171 C 
BRANCH  11  12
HETATM   12  C   UNK N   1      26.225  14.494   5.922  0.00  0.00    -0.040 A 
HETATM   13  C   UNK N   1      25.928  13.138   5.944  0.00  0.00     0.010 A 
HETATM   14  C   UNK N   1      25.145  12.619   6.961  0.00  0.00     0.013 A 
HETATM   15  C   UNK N   1      24.649  13.451   7.974  0.00  0.00    -0.025 A 
HETATM   16  C   UNK N   1      24.892  14.831   7.926  0.00  0.00     0.013 A 
HETATM   17  C   UNK N   1      25.696  15.352   6.902  0.00  0.00     0.010 A 
BRANCH  15  18
HETATM   18  C   UNK N   1      24.051  12.815   9.157  0.00  0.00    -0.012 A 
HETATM   19  C   UNK N   1      22.635  12.672   9.263  0.00  0.00     0.021 A 
HETATM   20  C   UNK N   1      22.092  12.173  10.454  0.00  0.00     0.016 A 
HETATM   21  C   UNK N   1      22.922  11.796  11.512  0.00  0.00     0.001 A 
HETATM   22  C   UNK N   1      24.310  11.890  11.384  0.00  0.00     0.001 A 
HETATM   23  C   UNK N   1      24.873  12.401  10.212  0.00  0.00     0.013 A 
BRANCH  19  24
HETATM   24  C   UNK N   1      21.710  12.957   8.122  0.00  0.00     0.141 A 
HETATM   25  N   UNK N   1      21.153  14.163   7.873  0.00  0.00    -0.285 N 
HETATM   26  C   UNK N   1      20.384  13.900   6.787  0.00  0.00     0.388 A 
HETATM   27  H   UNK N   1      21.276  15.013   8.355  0.00  0.00     0.172 HD
HETATM   28  O   UNK N   1      20.461  12.647   6.434  0.00  0.00    -0.179 OA
HETATM   29  O   UNK N   1      19.705  14.730   6.208  0.00  0.00    -0.236 OA
HETATM   30  N   UNK N   1      21.265  12.029   7.244  0.00  0.00    -0.239 N 
ATOM     31  HN  UNK N   1      21.512  11.040   7.222  1.00  0.00     0.196 HD
ENDBRANCH  19  24
ENDBRANCH  15  18
ENDBRANCH  11  12
ENDBRANCH  10  11
BRANCH   9  32
HETATM   32  O   UNK N   1      29.644  16.087   6.466  0.00  0.00    -0.322 OA
BRANCH  32  33
HETATM   33  C   UNK N   1      30.716  15.468   5.867  0.00  0.00     0.174 C 
HETATM   34  C   UNK N   1      31.857  16.452   5.712  0.00  0.00     0.034 C 
ENDBRANCH  32  33
ENDBRANCH   9  32
BRANCH   1  35
HETATM   35  C   UNK N   1      25.103  16.355   3.355  0.00  0.00     0.296 C 
HETATM   36  O   UNK N   1      25.268  15.721   2.323  0.00  0.00    -0.259 OA
BRANCH  35  37
HETATM   37  O   UNK N   1      23.989  16.162   4.114  0.00  0.00    -0.311 OA
BRANCH  37  38
HETATM   38  C   UNK N   1      22.695  16.513   3.760  0.00  0.00     0.247 C 
BRANCH  38  39
HETATM   39  C   UNK N   1      22.057  17.577   4.619  0.00  0.00     0.112 A 
HETATM   40  O   UNK N   1      21.769  17.385   5.885  0.00  0.00    -0.255 OA
HETATM   41  C   UNK N   1      21.202  18.485   6.319  0.00  0.00     0.416 A 
HETATM   42  O   UNK N   1      21.111  19.391   5.373  0.00  0.00    -0.257 OA
HETATM   43  O   UNK N   1      20.803  18.644   7.459  0.00  0.00    -0.229 OA
HETATM   44  C   UNK N   1      21.639  18.862   4.294  0.00  0.00     0.087 A 
HETATM   45  C   UNK N   1      21.726  19.557   2.979  0.00  0.00     0.079 C 
ENDBRANCH  38  39
ENDBRANCH  37  38
ENDBRANCH  35  37
ENDBRANCH   1  35
TORSDOF 10
ENDMDL
MODEL 8
REMARK VINA RESULT:      -7.9      4.212      9.687
REMARK  10 active torsions:
REMARK  status: ('A' for Active; 'I' for Inactive)
REMARK    1  A    between atoms: C_1  and  C_8 
REMARK    2  A    between atoms: C_8  and  O_9 
REMARK    3  A    between atoms: O_9  and  C_10 
REMARK    4  A    between atoms: C_10  and  C_12 
REMARK    5  A    between atoms: C_20  and  O_24 
REMARK    6  A    between atoms: N_21  and  C_22 
REMARK    7  A    between atoms: C_22  and  C_23 
REMARK    8  A    between atoms: O_24  and  C_25 
REMARK    9  A    between atoms: C_31  and  C_32 
REMARK   10  A    between atoms: C_33  and  C_38 
ROOT
HETATM    1  C   UNK N   1      21.412  13.649   8.607  0.00  0.00     0.068 A 
HETATM    2  C   UNK N   1      22.290  12.729   7.990  0.00  0.00     0.081 A 
HETATM    3  C   UNK N   1      22.920  11.756   8.715  0.00  0.00     0.063 A 
HETATM    4  C   UNK N   1      21.252  13.549  10.003  0.00  0.00     0.020 A 
HETATM    5  C   UNK N   1      21.904  12.534  10.735  0.00  0.00     0.003 A 
HETATM    6  C   UNK N   1      22.745  11.616  10.086  0.00  0.00     0.032 A 
HETATM    7  N   UNK N   1      23.716  11.024   7.918  0.00  0.00    -0.320 N 
ATOM      8  HN  UNK N   1      24.297  10.225   8.172  1.00  0.00     0.169 HD
HETATM    9  C   UNK N   1      23.569  11.593   6.694  0.00  0.00     0.227 A 
HETATM   10  N   UNK N   1      22.704  12.643   6.711  0.00  0.00    -0.306 N 
ENDROOT
BRANCH  10  11
HETATM   11  C   UNK N   1      22.311  13.554   5.641  0.00  0.00     0.171 C 
BRANCH  11  12
HETATM   12  C   UNK N   1      23.311  14.577   5.245  0.00  0.00    -0.040 A 
HETATM   13  C   UNK N   1      23.365  14.938   3.906  0.00  0.00     0.010 A 
HETATM   14  C   UNK N   1      24.131  16.022   3.513  0.00  0.00     0.013 A 
HETATM   15  C   UNK N   1      24.853  16.765   4.458  0.00  0.00    -0.025 A 
HETATM   16  C   UNK N   1      24.854  16.370   5.803  0.00  0.00     0.013 A 
HETATM   17  C   UNK N   1      24.068  15.278   6.200  0.00  0.00     0.010 A 
BRANCH  15  18
HETATM   18  C   UNK N   1      25.431  18.048   4.032  0.00  0.00    -0.012 A 
HETATM   19  C   UNK N   1      26.847  18.225   3.993  0.00  0.00     0.021 A 
HETATM   20  C   UNK N   1      27.362  19.494   3.699  0.00  0.00     0.016 A 
HETATM   21  C   UNK N   1      26.508  20.563   3.422  0.00  0.00     0.001 A 
HETATM   22  C   UNK N   1      25.124  20.372   3.412  0.00  0.00     0.001 A 
HETATM   23  C   UNK N   1      24.587  19.119   3.718  0.00  0.00     0.013 A 
BRANCH  19  24
HETATM   24  C   UNK N   1      27.806  17.091   4.172  0.00  0.00     0.141 A 
HETATM   25  N   UNK N   1      28.423  16.789   5.337  0.00  0.00    -0.285 N 
HETATM   26  C   UNK N   1      29.199  15.735   4.980  0.00  0.00     0.388 A 
HETATM   27  H   UNK N   1      28.331  17.223   6.216  0.00  0.00     0.172 HD
HETATM   28  O   UNK N   1      29.070  15.448   3.715  0.00  0.00    -0.179 OA
HETATM   29  O   UNK N   1      29.926  15.128   5.746  0.00  0.00    -0.236 OA
HETATM   30  N   UNK N   1      28.223  16.273   3.179  0.00  0.00    -0.239 N 
ATOM     31  HN  UNK N   1      27.930  16.298   2.203  1.00  0.00     0.196 HD
ENDBRANCH  19  24
ENDBRANCH  15  18
ENDBRANCH  11  12
ENDBRANCH  10  11
BRANCH   9  32
HETATM   32  O   UNK N   1      24.237  11.178   5.595  0.00  0.00    -0.322 OA
BRANCH  32  33
HETATM   33  C   UNK N   1      25.485  11.664   5.283  0.00  0.00     0.174 C 
HETATM   34  C   UNK N   1      25.572  11.942   3.796  0.00  0.00     0.034 C 
ENDBRANCH  32  33
ENDBRANCH   9  32
BRANCH   1  35
HETATM   35  C   UNK N   1      20.638  14.672   7.877  0.00  0.00     0.296 C 
HETATM   36  O   UNK N   1      19.747  14.323   7.116  0.00  0.00    -0.259 OA
BRANCH  35  37
HETATM   37  O   UNK N   1      21.060  15.966   7.900  0.00  0.00    -0.311 OA
BRANCH  37  38
HETATM   38  C   UNK N   1      20.308  17.072   7.534  0.00  0.00     0.247 C 
BRANCH  38  39
HETATM   39  C   UNK N   1      19.571  17.754   8.661  0.00  0.00     0.112 A 
HETATM   40  O   UNK N   1      20.088  18.746   9.346  0.00  0.00    -0.255 OA
HETATM   41  C   UNK N   1      19.208  19.079  10.259  0.00  0.00     0.416 A 
HETATM   42  O   UNK N   1      18.130  18.333  10.192  0.00  0.00    -0.257 OA
HETATM   43  O   UNK N   1      19.374  19.969  11.074  0.00  0.00    -0.229 OA
HETATM   44  C   UNK N   1      18.317  17.493   9.200  0.00  0.00     0.087 A 
HETATM   45  C   UNK N   1      17.333  16.453   8.789  0.00  0.00     0.079 C 
ENDBRANCH  38  39
ENDBRANCH  37  38
ENDBRANCH  35  37
ENDBRANCH   1  35
TORSDOF 10
ENDMDL
MODEL 9
REMARK VINA RESULT:      -7.9      3.575      9.326
REMARK  10 active torsions:
REMARK  status: ('A' for Active; 'I' for Inactive)
REMARK    1  A    between atoms: C_1  and  C_8 
REMARK    2  A    between atoms: C_8  and  O_9 
REMARK    3  A    between atoms: O_9  and  C_10 
REMARK    4  A    between atoms: C_10  and  C_12 
REMARK    5  A    between atoms: C_20  and  O_24 
REMARK    6  A    between atoms: N_21  and  C_22 
REMARK    7  A    between atoms: C_22  and  C_23 
REMARK    8  A    between atoms: O_24  and  C_25 
REMARK    9  A    between atoms: C_31  and  C_32 
REMARK   10  A    between atoms: C_33  and  C_38 
ROOT
HETATM    1  C   UNK N   1      21.159  15.552   7.406  0.00  0.00     0.068 A 
HETATM    2  C   UNK N   1      21.794  14.332   7.082  0.00  0.00     0.081 A 
HETATM    3  C   UNK N   1      21.746  13.261   7.930  0.00  0.00     0.063 A 
HETATM    4  C   UNK N   1      20.515  15.629   8.658  0.00  0.00     0.020 A 
HETATM    5  C   UNK N   1      20.470  14.512   9.518  0.00  0.00     0.003 A 
HETATM    6  C   UNK N   1      21.085  13.304   9.151  0.00  0.00     0.032 A 
HETATM    7  N   UNK N   1      22.440  12.231   7.417  0.00  0.00    -0.320 N 
ATOM      8  HN  UNK N   1      22.570  11.300   7.815  1.00  0.00     0.169 HD
HETATM    9  C   UNK N   1      22.928  12.713   6.246  0.00  0.00     0.227 A 
HETATM   10  N   UNK N   1      22.551  14.000   6.017  0.00  0.00    -0.306 N 
ENDROOT
BRANCH  10  11
HETATM   11  C   UNK N   1      22.898  14.901   4.923  0.00  0.00     0.171 C 
BRANCH  11  12
HETATM   12  C   UNK N   1      24.278  15.447   4.932  0.00  0.00    -0.040 A 
HETATM   13  C   UNK N   1      24.897  15.609   6.164  0.00  0.00     0.010 A 
HETATM   14  C   UNK N   1      26.245  15.920   6.224  0.00  0.00     0.013 A 
HETATM   15  C   UNK N   1      26.995  16.070   5.050  0.00  0.00    -0.025 A 
HETATM   16  C   UNK N   1      26.365  15.970   3.802  0.00  0.00     0.013 A 
HETATM   17  C   UNK N   1      25.002  15.643   3.743  0.00  0.00     0.010 A 
BRANCH  15  18
HETATM   18  C   UNK N   1      28.459  16.139   5.170  0.00  0.00    -0.012 A 
HETATM   19  C   UNK N   1      29.134  17.392   5.065  0.00  0.00     0.021 A 
HETATM   20  C   UNK N   1      30.535  17.408   5.063  0.00  0.00     0.016 A 
HETATM   21  C   UNK N   1      31.260  16.221   5.190  0.00  0.00     0.001 A 
HETATM   22  C   UNK N   1      30.594  15.003   5.344  0.00  0.00     0.001 A 
HETATM   23  C   UNK N   1      29.197  14.962   5.332  0.00  0.00     0.013 A 
BRANCH  19  24
HETATM   24  C   UNK N   1      28.407  18.699   5.038  0.00  0.00     0.141 A 
HETATM   25  N   UNK N   1      27.986  19.361   6.139  0.00  0.00    -0.285 N 
HETATM   26  C   UNK N   1      27.363  20.439   5.600  0.00  0.00     0.388 A 
HETATM   27  H   UNK N   1      28.102  19.122   7.088  0.00  0.00     0.172 HD
HETATM   28  O   UNK N   1      27.394  20.411   4.297  0.00  0.00    -0.179 OA
HETATM   29  O   UNK N   1      26.840  21.326   6.250  0.00  0.00    -0.236 OA
HETATM   30  N   UNK N   1      28.024  19.343   3.912  0.00  0.00    -0.239 N 
ATOM     31  HN  UNK N   1      28.196  19.049   2.951  1.00  0.00     0.196 HD
ENDBRANCH  19  24
ENDBRANCH  15  18
ENDBRANCH  11  12
ENDBRANCH  10  11
BRANCH   9  32
HETATM   32  O   UNK N   1      23.726  11.999   5.421  0.00  0.00    -0.322 OA
BRANCH  32  33
HETATM   33  C   UNK N   1      25.052  11.778   5.713  0.00  0.00     0.174 C 
HETATM   34  C   UNK N   1      25.908  12.135   4.515  0.00  0.00     0.034 C 
ENDBRANCH  32  33
ENDBRANCH   9  32
BRANCH   1  35
HETATM   35  C   UNK N   1      21.100  16.720   6.507  0.00  0.00     0.296 C 
HETATM   36  O   UNK N   1      21.924  17.616   6.628  0.00  0.00    -0.259 OA
BRANCH  35  37
HETATM   37  O   UNK N   1      20.014  16.884   5.702  0.00  0.00    -0.311 OA
BRANCH  37  38
HETATM   38  C   UNK N   1      19.976  16.660   4.334  0.00  0.00     0.247 C 
BRANCH  38  39
HETATM   39  C   UNK N   1      20.304  17.856   3.474  0.00  0.00     0.112 A 
HETATM   40  O   UNK N   1      20.621  19.025   3.979  0.00  0.00    -0.255 OA
HETATM   41  C   UNK N   1      20.812  19.839   2.969  0.00  0.00     0.416 A 
HETATM   42  O   UNK N   1      20.629  19.236   1.817  0.00  0.00    -0.257 OA
HETATM   43  O   UNK N   1      21.115  21.012   3.086  0.00  0.00    -0.229 OA
HETATM   44  C   UNK N   1      20.315  17.991   2.091  0.00  0.00     0.087 A 
HETATM   45  C   UNK N   1      20.010  16.960   1.060  0.00  0.00     0.079 C 
ENDBRANCH  38  39
ENDBRANCH  37  38
ENDBRANCH  35  37
ENDBRANCH   1  35
TORSDOF 10
ENDMDL
