REMARK  5 active torsions:
REMARK  status: ('A' for Active; 'I' for Inactive)
REMARK    1  A    between atoms: C_15  and  C_3 
REMARK    2  A    between atoms: C_14  and  C_13 
REMARK    3  A    between atoms: N_18  and  C_13 
REMARK    4  A    between atoms: C_17  and  C_14 
REMARK    5  A    between atoms: C_17  and  C_16 
ROOT
HETATM    1  C   UNK N   1       2.377   0.020  -0.176  0.00  0.00     0.165 C 
HETATM    2  O   UNK N   1       3.456   0.590  -0.133  0.00  0.00    -0.292 OA
ENDROOT
BRANCH   1   3
HETATM    3  C   UNK N   1       2.391  -1.483  -0.450  0.00  0.00     0.085 C 
HETATM    4  C   UNK N   1       1.039  -2.179  -0.517  0.00  0.00     0.020 C 
BRANCH   3   5
HETATM    5  C   UNK N   1       3.340  -2.252   0.473  0.00  0.00     0.284 C 
BRANCH   5   6
HETATM    6  N   UNK N   1       3.566  -3.591  -0.061  0.00  0.00     0.089 N 
HETATM    7  C   UNK N   1       4.933  -4.006   0.249  0.00  0.00     0.272 C 
HETATM    8  C   UNK N   1       5.204  -5.378  -0.373  0.00  0.00     0.030 C 
HETATM    9  C   UNK N   1       4.199  -6.401   0.157  0.00  0.00     0.003 C 
HETATM   10  C   UNK N   1       2.771  -5.898  -0.029  0.00  0.00     0.030 C 
HETATM   11  C   UNK N   1       2.642  -4.514   0.597  0.00  0.00     0.272 C 
ENDBRANCH   5   6
ENDBRANCH   3   5
ENDBRANCH   1   3
BRANCH   1  12
HETATM   12  C   UNK N   1       1.133   0.852  -0.049  0.00  0.00     0.010 A 
HETATM   13  C   UNK N   1      -0.152   0.294  -0.096  0.00  0.00     0.015 A 
HETATM   14  C   UNK N   1      -1.291   1.097  -0.038  0.00  0.00     0.008 A 
HETATM   15  C   UNK N   1      -1.171   2.484   0.060  0.00  0.00    -0.059 A 
HETATM   16  C   UNK N   1       0.108   3.059   0.120  0.00  0.00     0.008 A 
HETATM   17  C   UNK N   1       1.249   2.249   0.067  0.00  0.00     0.015 A 
BRANCH  15  18
HETATM   18  C   UNK N   1      -2.425   3.310   0.085  0.00  0.00     0.034 C 
HETATM   19  C   UNK N   1      -2.180   4.811   0.114  0.00  0.00     0.010 C 
ENDBRANCH  15  18
ENDBRANCH   1  12
TORSDOF 5
