MODEL 1
REMARK VINA RESULT:      -7.5      0.000      0.000
REMARK  24 active torsions:
REMARK  status: ('A' for Active; 'I' for Inactive)
REMARK    1  A    between atoms: C_28  and  O_1 
REMARK    2  A    between atoms: C_30  and  O_1 
REMARK    3  A    between atoms: O_3  and  C_26 
REMARK    4  A    between atoms: C_39  and  O_3 
REMARK    5  A    between atoms: O_4  and  C_34 
REMARK    6  A    between atoms: C_35  and  O_4 
REMARK    7  A    between atoms: C_29  and  O_7 
REMARK    8  A    between atoms: C_32  and  O_9 
REMARK    9  A    between atoms: C_33  and  O_10 
REMARK   10  A    between atoms: C_38  and  O_11 
REMARK   11  A    between atoms: C_41  and  O_12 
REMARK   12  A    between atoms: C_42  and  O_13 
REMARK   13  A    between atoms: O_14  and  C_43 
REMARK   14  A    between atoms: C_44  and  O_15 
REMARK   15  A    between atoms: C_45  and  O_16 
REMARK   16  A    between atoms: O_17  and  C_47 
REMARK   17  A    between atoms: O_18  and  C_48 
REMARK   18  A    between atoms: O_21  and  C_50 
REMARK   19  A    between atoms: C_27  and  N_24 
REMARK       I    between atoms: N_24  and  C_49 
REMARK   20  A    between atoms: C_37  and  N_25 
REMARK       I    between atoms: N_25  and  C_51 
REMARK   21  A    between atoms: C_31  and  C_43 
REMARK   22  A    between atoms: C_36  and  C_47 
REMARK   23  A    between atoms: C_40  and  C_48 
REMARK   24  A    between atoms: C_46  and  C_50 
ROOT
HETATM    1  O   UNK N   1      27.392  17.254   3.589  0.00  0.00    -0.348 OA
ENDROOT
BRANCH   1   2
HETATM    2  C   UNK N   1      26.125  16.647   3.415  0.00  0.00     0.286 C 
HETATM    3  O   UNK N   1      25.970  15.866   2.240  0.00  0.00    -0.349 OA
HETATM    4  C   UNK N   1      24.667  15.302   2.115  0.00  0.00     0.179 C 
HETATM    5  C   UNK N   1      23.820  15.330   3.397  0.00  0.00     0.180 C 
HETATM    6  C   UNK N   1      23.752  16.775   3.946  0.00  0.00     0.183 C 
HETATM    7  C   UNK N   1      24.960  17.627   3.552  0.00  0.00     0.171 C 
BRANCH   4   8
HETATM    8  C   UNK N   1      24.740  13.905   1.510  0.00  0.00     0.198 C 
BRANCH   8   9
HETATM    9  O   UNK N   1      25.914  13.253   1.895  0.00  0.00    -0.398 OA
HETATM   10  H   UNK N   1      26.777  13.181   2.331  0.00  0.00     0.209 HD
ENDBRANCH   8   9
ENDBRANCH   4   8
BRANCH   5  11
HETATM   11  O   UNK N   1      24.390  14.509   4.375  0.00  0.00    -0.390 OA
HETATM   12  H   UNK N   1      25.070  14.040   4.883  0.00  0.00     0.210 HD
ENDBRANCH   5  11
BRANCH   6  13
HETATM   13  O   UNK N   1      22.526  17.401   3.674  0.00  0.00    -0.348 OA
BRANCH  13  14
HETATM   14  C   UNK N   1      21.752  16.982   4.759  0.00  0.00     0.292 C 
HETATM   15  O   UNK N   1      20.558  16.397   4.329  0.00  0.00    -0.340 OA
HETATM   16  C   UNK N   1      20.314  15.432   5.310  0.00  0.00     0.253 C 
HETATM   17  C   UNK N   1      19.808  16.146   6.574  0.00  0.00     0.189 C 
HETATM   18  C   UNK N   1      20.903  17.143   7.023  0.00  0.00     0.183 C 
HETATM   19  C   UNK N   1      21.465  17.988   5.861  0.00  0.00     0.204 C 
BRANCH  16  20
HETATM   20  C   UNK N   1      19.416  14.366   4.772  0.00  0.00     0.172 C 
HETATM   21  O   UNK N   1      19.303  13.313   5.378  0.00  0.00    -0.648 OA
BRANCH  20  22
HETATM   22  O   UNK N   1      18.769  14.543   3.605  0.00  0.00    -0.774 OA
HETATM   23  H   UNK N   1      18.797  14.970   2.772  0.00  0.00     0.167 HD
ENDBRANCH  20  22
ENDBRANCH  16  20
BRANCH  17  24
HETATM   24  O   UNK N   1      19.585  15.215   7.590  0.00  0.00    -0.390 OA
HETATM   25  H   UNK N   1      19.908  14.371   7.943  0.00  0.00     0.210 HD
ENDBRANCH  17  24
BRANCH  18  26
HETATM   26  O   UNK N   1      20.440  17.958   8.054  0.00  0.00    -0.390 OA
HETATM   27  H   UNK N   1      20.820  17.882   8.944  0.00  0.00     0.210 HD
ENDBRANCH  18  26
BRANCH  19  28
HETATM   28  O   UNK N   1      22.649  18.605   6.268  0.00  0.00    -0.388 OA
HETATM   29  H   UNK N   1      22.726  19.159   7.060  0.00  0.00     0.210 HD
ENDBRANCH  19  28
ENDBRANCH  13  14
ENDBRANCH   6  13
BRANCH   7  30
HETATM   30  N   UNK N   1      25.201  18.637   4.553  0.00  0.00    -0.349 N 
HETATM   31  C   UNK N   1      25.627  19.877   4.217  0.00  0.00     0.214 C 
HETATM   32  O   UNK N   1      25.814  20.176   3.043  0.00  0.00    -0.274 OA
HETATM   33  C   UNK N   1      25.880  20.887   5.278  0.00  0.00     0.117 C 
HETATM   34  H   UNK N   1      25.052  18.419   5.501  0.00  0.00     0.163 HD
ENDBRANCH   7  30
ENDBRANCH   1   2
BRANCH   1  35
HETATM   35  C   UNK N   1      28.373  16.513   4.294  0.00  0.00     0.195 C 
HETATM   36  C   UNK N   1      29.448  15.706   3.529  0.00  0.00     0.183 C 
HETATM   37  C   UNK N   1      30.815  16.411   3.549  0.00  0.00     0.204 C 
HETATM   38  C   UNK N   1      31.106  17.029   4.944  0.00  0.00     0.292 C 
HETATM   39  O   UNK N   1      30.076  17.926   5.327  0.00  0.00    -0.340 OA
HETATM   40  C   UNK N   1      28.930  17.150   5.575  0.00  0.00     0.253 C 
BRANCH  36  41
HETATM   41  O   UNK N   1      29.047  15.385   2.231  0.00  0.00    -0.390 OA
HETATM   42  H   UNK N   1      29.055  14.603   1.656  0.00  0.00     0.210 HD
ENDBRANCH  36  41
BRANCH  37  43
HETATM   43  O   UNK N   1      31.844  15.571   3.123  0.00  0.00    -0.388 OA
HETATM   44  H   UNK N   1      32.529  15.281   3.745  0.00  0.00     0.210 HD
ENDBRANCH  37  43
BRANCH  38  45
HETATM   45  O   UNK N   1      31.535  16.191   6.021  0.00  0.00    -0.348 OA
BRANCH  45  46
HETATM   46  C   UNK N   1      32.318  16.891   6.961  0.00  0.00     0.183 C 
HETATM   47  C   UNK N   1      31.839  16.559   8.386  0.00  0.00     0.171 C 
HETATM   48  C   UNK N   1      32.948  15.916   9.211  0.00  0.00     0.282 C 
HETATM   49  O   UNK N   1      33.573  14.940   8.425  0.00  0.00    -0.349 OA
HETATM   50  C   UNK N   1      34.504  15.667   7.668  0.00  0.00     0.179 C 
HETATM   51  C   UNK N   1      33.831  16.665   6.718  0.00  0.00     0.180 C 
BRANCH  47  52
HETATM   52  N   UNK N   1      31.337  17.743   9.037  0.00  0.00    -0.349 N 
HETATM   53  C   UNK N   1      30.100  17.793   9.588  0.00  0.00     0.214 C 
HETATM   54  O   UNK N   1      29.708  18.831  10.093  0.00  0.00    -0.274 OA
HETATM   55  C   UNK N   1      29.213  16.587   9.616  0.00  0.00     0.117 C 
HETATM   56  H   UNK N   1      31.911  18.542   9.083  0.00  0.00     0.163 HD
ENDBRANCH  47  52
BRANCH  48  57
HETATM   57  O   UNK N   1      32.435  15.347  10.375  0.00  0.00    -0.369 OA
HETATM   58  H   UNK N   1      32.673  15.672  11.258  0.00  0.00     0.212 HD
ENDBRANCH  48  57
BRANCH  50  59
HETATM   59  C   UNK N   1      35.412  14.746   6.873  0.00  0.00     0.198 C 
BRANCH  59  60
HETATM   60  O   UNK N   1      35.782  15.358   5.677  0.00  0.00    -0.398 OA
HETATM   61  H   UNK N   1      35.617  16.304   5.538  0.00  0.00     0.209 HD
ENDBRANCH  59  60
ENDBRANCH  50  59
BRANCH  51  62
HETATM   62  O   UNK N   1      34.515  17.878   6.795  0.00  0.00    -0.390 OA
HETATM   63  H   UNK N   1      34.790  18.777   7.033  0.00  0.00     0.210 HD
ENDBRANCH  51  62
ENDBRANCH  45  46
ENDBRANCH  38  45
BRANCH  40  64
HETATM   64  C   UNK N   1      27.953  17.813   6.501  0.00  0.00     0.172 C 
HETATM   65  O   UNK N   1      28.188  18.910   6.981  0.00  0.00    -0.648 OA
BRANCH  64  66
HETATM   66  O   UNK N   1      26.774  17.215   6.755  0.00  0.00    -0.774 OA
HETATM   67  H   UNK N   1      26.030  17.261   7.324  0.00  0.00     0.167 HD
ENDBRANCH  64  66
ENDBRANCH  40  64
ENDBRANCH   1  35
TORSDOF 24
ENDMDL
MODEL 2
REMARK VINA RESULT:      -7.4      4.033     11.286
REMARK  24 active torsions:
REMARK  status: ('A' for Active; 'I' for Inactive)
REMARK    1  A    between atoms: C_28  and  O_1 
REMARK    2  A    between atoms: C_30  and  O_1 
REMARK    3  A    between atoms: O_3  and  C_26 
REMARK    4  A    between atoms: C_39  and  O_3 
REMARK    5  A    between atoms: O_4  and  C_34 
REMARK    6  A    between atoms: C_35  and  O_4 
REMARK    7  A    between atoms: C_29  and  O_7 
REMARK    8  A    between atoms: C_32  and  O_9 
REMARK    9  A    between atoms: C_33  and  O_10 
REMARK   10  A    between atoms: C_38  and  O_11 
REMARK   11  A    between atoms: C_41  and  O_12 
REMARK   12  A    between atoms: C_42  and  O_13 
REMARK   13  A    between atoms: O_14  and  C_43 
REMARK   14  A    between atoms: C_44  and  O_15 
REMARK   15  A    between atoms: C_45  and  O_16 
REMARK   16  A    between atoms: O_17  and  C_47 
REMARK   17  A    between atoms: O_18  and  C_48 
REMARK   18  A    between atoms: O_21  and  C_50 
REMARK   19  A    between atoms: C_27  and  N_24 
REMARK       I    between atoms: N_24  and  C_49 
REMARK   20  A    between atoms: C_37  and  N_25 
REMARK       I    between atoms: N_25  and  C_51 
REMARK   21  A    between atoms: C_31  and  C_43 
REMARK   22  A    between atoms: C_36  and  C_47 
REMARK   23  A    between atoms: C_40  and  C_48 
REMARK   24  A    between atoms: C_46  and  C_50 
ROOT
HETATM    1  O   UNK N   1      34.257  15.423   6.107  0.00  0.00    -0.348 OA
ENDROOT
BRANCH   1   2
HETATM    2  C   UNK N   1      34.201  15.128   7.491  0.00  0.00     0.286 C 
HETATM    3  O   UNK N   1      35.163  15.783   8.302  0.00  0.00    -0.349 OA
HETATM    4  C   UNK N   1      35.066  15.426   9.678  0.00  0.00     0.179 C 
HETATM    5  C   UNK N   1      33.762  14.717  10.076  0.00  0.00     0.180 C 
HETATM    6  C   UNK N   1      33.536  13.488   9.164  0.00  0.00     0.183 C 
HETATM    7  C   UNK N   1      34.194  13.629   7.790  0.00  0.00     0.171 C 
BRANCH   4   8
HETATM    8  C   UNK N   1      35.357  16.628  10.570  0.00  0.00     0.198 C 
BRANCH   8   9
HETATM    9  O   UNK N   1      35.399  17.807   9.822  0.00  0.00    -0.398 OA
HETATM   10  H   UNK N   1      35.782  18.646   9.524  0.00  0.00     0.209 HD
ENDBRANCH   8   9
ENDBRANCH   4   8
BRANCH   5  11
HETATM   11  O   UNK N   1      32.673  15.584   9.932  0.00  0.00    -0.390 OA
HETATM   12  H   UNK N   1      31.770  15.927  10.008  0.00  0.00     0.210 HD
ENDBRANCH   5  11
BRANCH   6  13
HETATM   13  O   UNK N   1      33.846  12.276   9.799  0.00  0.00    -0.348 OA
BRANCH  13  14
HETATM   14  C   UNK N   1      35.150  12.516  10.238  0.00  0.00     0.292 C 
HETATM   15  O   UNK N   1      36.079  11.826   9.455  0.00  0.00    -0.340 OA
HETATM   16  C   UNK N   1      37.189  12.675   9.469  0.00  0.00     0.253 C 
HETATM   17  C   UNK N   1      37.871  12.556  10.841  0.00  0.00     0.189 C 
HETATM   18  C   UNK N   1      36.838  12.961  11.919  0.00  0.00     0.183 C 
HETATM   19  C   UNK N   1      35.458  12.305  11.711  0.00  0.00     0.204 C 
BRANCH  16  20
HETATM   20  C   UNK N   1      38.064  12.397   8.290  0.00  0.00     0.172 C 
HETATM   21  O   UNK N   1      39.134  11.834   8.456  0.00  0.00    -0.648 OA
BRANCH  20  22
HETATM   22  O   UNK N   1      37.701  12.801   7.059  0.00  0.00    -0.774 OA
HETATM   23  H   UNK N   1      37.329  12.529   6.243  0.00  0.00     0.167 HD
ENDBRANCH  20  22
ENDBRANCH  16  20
BRANCH  17  24
HETATM   24  O   UNK N   1      38.968  13.417  10.904  0.00  0.00    -0.390 OA
HETATM   25  H   UNK N   1      39.205  14.355  10.981  0.00  0.00     0.210 HD
ENDBRANCH  17  24
BRANCH  18  26
HETATM   26  O   UNK N   1      37.327  12.701  13.198  0.00  0.00    -0.390 OA
HETATM   27  H   UNK N   1      37.987  12.004  13.335  0.00  0.00     0.210 HD
ENDBRANCH  18  26
BRANCH  19  28
HETATM   28  O   UNK N   1      34.510  12.960  12.498  0.00  0.00    -0.388 OA
HETATM   29  H   UNK N   1      33.856  12.504  13.050  0.00  0.00     0.210 HD
ENDBRANCH  19  28
ENDBRANCH  13  14
ENDBRANCH   6  13
BRANCH   7  30
HETATM   30  N   UNK N   1      33.457  12.871   6.808  0.00  0.00    -0.349 N 
HETATM   31  C   UNK N   1      34.015  11.824   6.158  0.00  0.00     0.214 C 
HETATM   32  O   UNK N   1      35.170  11.487   6.395  0.00  0.00    -0.274 OA
HETATM   33  C   UNK N   1      33.230  11.078   5.141  0.00  0.00     0.117 C 
HETATM   34  H   UNK N   1      32.527  13.123   6.606  0.00  0.00     0.163 HD
ENDBRANCH   7  30
ENDBRANCH   1   2
BRANCH   1  35
HETATM   35  C   UNK N   1      33.141  16.090   5.542  0.00  0.00     0.195 C 
HETATM   36  C   UNK N   1      32.209  15.357   4.547  0.00  0.00     0.183 C 
HETATM   37  C   UNK N   1      30.883  14.942   5.205  0.00  0.00     0.204 C 
HETATM   38  C   UNK N   1      30.348  16.060   6.142  0.00  0.00     0.292 C 
HETATM   39  O   UNK N   1      31.310  16.399   7.128  0.00  0.00    -0.340 OA
HETATM   40  C   UNK N   1      32.367  17.044   6.464  0.00  0.00     0.253 C 
BRANCH  36  41
HETATM   41  O   UNK N   1      32.842  14.278   3.925  0.00  0.00    -0.390 OA
HETATM   42  H   UNK N   1      32.667  13.335   3.786  0.00  0.00     0.210 HD
ENDBRANCH  36  41
BRANCH  37  43
HETATM   43  O   UNK N   1      29.932  14.548   4.263  0.00  0.00    -0.388 OA
HETATM   44  H   UNK N   1      29.515  13.675   4.324  0.00  0.00     0.210 HD
ENDBRANCH  37  43
BRANCH  38  45
HETATM   45  O   UNK N   1      29.701  17.208   5.586  0.00  0.00    -0.348 OA
BRANCH  45  46
HETATM   46  C   UNK N   1      28.333  17.263   5.923  0.00  0.00     0.183 C 
HETATM   47  C   UNK N   1      28.149  18.073   7.218  0.00  0.00     0.171 C 
HETATM   48  C   UNK N   1      27.270  19.298   6.991  0.00  0.00     0.282 C 
HETATM   49  O   UNK N   1      27.687  19.927   5.811  0.00  0.00    -0.349 OA
HETATM   50  C   UNK N   1      27.026  19.214   4.800  0.00  0.00     0.179 C 
HETATM   51  C   UNK N   1      27.476  17.751   4.728  0.00  0.00     0.180 C 
BRANCH  47  52
HETATM   52  N   UNK N   1      27.606  17.239   8.261  0.00  0.00    -0.349 N 
HETATM   53  C   UNK N   1      28.215  17.099   9.463  0.00  0.00     0.214 C 
HETATM   54  O   UNK N   1      27.735  16.350  10.297  0.00  0.00    -0.274 OA
HETATM   55  C   UNK N   1      29.454  17.869   9.801  0.00  0.00     0.117 C 
HETATM   56  H   UNK N   1      26.765  16.755   8.094  0.00  0.00     0.163 HD
ENDBRANCH  47  52
BRANCH  48  57
HETATM   57  O   UNK N   1      27.355  20.178   8.067  0.00  0.00    -0.369 OA
HETATM   58  H   UNK N   1      27.059  21.100   8.005  0.00  0.00     0.212 HD
ENDBRANCH  48  57
BRANCH  50  59
HETATM   59  C   UNK N   1      27.217  19.869   3.445  0.00  0.00     0.198 C 
BRANCH  59  60
HETATM   60  O   UNK N   1      26.067  20.571   3.088  0.00  0.00    -0.398 OA
HETATM   61  H   UNK N   1      26.101  21.529   2.941  0.00  0.00     0.209 HD
ENDBRANCH  59  60
ENDBRANCH  50  59
BRANCH  51  62
HETATM   62  O   UNK N   1      26.345  16.947   4.591  0.00  0.00    -0.390 OA
HETATM   63  H   UNK N   1      25.535  16.443   4.767  0.00  0.00     0.210 HD
ENDBRANCH  51  62
ENDBRANCH  45  46
ENDBRANCH  38  45
BRANCH  40  64
HETATM   64  C   UNK N   1      33.168  17.946   7.356  0.00  0.00     0.172 C 
HETATM   65  O   UNK N   1      32.737  18.298   8.441  0.00  0.00    -0.648 OA
BRANCH  64  66
HETATM   66  O   UNK N   1      34.404  18.321   6.978  0.00  0.00    -0.774 OA
HETATM   67  H   UNK N   1      35.220  17.975   6.675  0.00  0.00     0.167 HD
ENDBRANCH  64  66
ENDBRANCH  40  64
ENDBRANCH   1  35
TORSDOF 24
ENDMDL
MODEL 3
REMARK VINA RESULT:      -7.3      2.514     10.516
REMARK  24 active torsions:
REMARK  status: ('A' for Active; 'I' for Inactive)
REMARK    1  A    between atoms: C_28  and  O_1 
REMARK    2  A    between atoms: C_30  and  O_1 
REMARK    3  A    between atoms: O_3  and  C_26 
REMARK    4  A    between atoms: C_39  and  O_3 
REMARK    5  A    between atoms: O_4  and  C_34 
REMARK    6  A    between atoms: C_35  and  O_4 
REMARK    7  A    between atoms: C_29  and  O_7 
REMARK    8  A    between atoms: C_32  and  O_9 
REMARK    9  A    between atoms: C_33  and  O_10 
REMARK   10  A    between atoms: C_38  and  O_11 
REMARK   11  A    between atoms: C_41  and  O_12 
REMARK   12  A    between atoms: C_42  and  O_13 
REMARK   13  A    between atoms: O_14  and  C_43 
REMARK   14  A    between atoms: C_44  and  O_15 
REMARK   15  A    between atoms: C_45  and  O_16 
REMARK   16  A    between atoms: O_17  and  C_47 
REMARK   17  A    between atoms: O_18  and  C_48 
REMARK   18  A    between atoms: O_21  and  C_50 
REMARK   19  A    between atoms: C_27  and  N_24 
REMARK       I    between atoms: N_24  and  C_49 
REMARK   20  A    between atoms: C_37  and  N_25 
REMARK       I    between atoms: N_25  and  C_51 
REMARK   21  A    between atoms: C_31  and  C_43 
REMARK   22  A    between atoms: C_36  and  C_47 
REMARK   23  A    between atoms: C_40  and  C_48 
REMARK   24  A    between atoms: C_46  and  C_50 
ROOT
HETATM    1  O   UNK N   1      28.223  15.304   5.553  0.00  0.00    -0.348 OA
ENDROOT
BRANCH   1   2
HETATM    2  C   UNK N   1      28.929  16.217   6.372  0.00  0.00     0.286 C 
HETATM    3  O   UNK N   1      28.306  17.476   6.575  0.00  0.00    -0.349 OA
HETATM    4  C   UNK N   1      29.079  18.354   7.389  0.00  0.00     0.179 C 
HETATM    5  C   UNK N   1      30.218  17.682   8.172  0.00  0.00     0.180 C 
HETATM    6  C   UNK N   1      31.120  16.885   7.200  0.00  0.00     0.183 C 
HETATM    7  C   UNK N   1      30.384  16.414   5.944  0.00  0.00     0.171 C 
BRANCH   4   8
HETATM    8  C   UNK N   1      28.176  19.184   8.295  0.00  0.00     0.198 C 
BRANCH   8   9
HETATM    9  O   UNK N   1      27.418  18.363   9.133  0.00  0.00    -0.398 OA
HETATM   10  H   UNK N   1      27.281  17.665   9.792  0.00  0.00     0.209 HD
ENDBRANCH   8   9
ENDBRANCH   4   8
BRANCH   5  11
HETATM   11  O   UNK N   1      29.699  16.798   9.124  0.00  0.00    -0.390 OA
HETATM   12  H   UNK N   1      29.524  15.966   9.589  0.00  0.00     0.210 HD
ENDBRANCH   5  11
BRANCH   6  13
HETATM   13  O   UNK N   1      32.326  17.544   6.915  0.00  0.00    -0.348 OA
BRANCH  13  14
HETATM   14  C   UNK N   1      33.221  16.853   7.733  0.00  0.00     0.292 C 
HETATM   15  O   UNK N   1      32.626  15.714   8.283  0.00  0.00    -0.340 OA
HETATM   16  C   UNK N   1      33.696  14.821   8.382  0.00  0.00     0.253 C 
HETATM   17  C   UNK N   1      34.573  15.249   9.569  0.00  0.00     0.189 C 
HETATM   18  C   UNK N   1      35.065  16.690   9.297  0.00  0.00     0.183 C 
HETATM   19  C   UNK N   1      33.942  17.633   8.821  0.00  0.00     0.204 C 
BRANCH  16  20
HETATM   20  C   UNK N   1      33.191  13.416   8.430  0.00  0.00     0.172 C 
HETATM   21  O   UNK N   1      32.574  12.966   7.478  0.00  0.00    -0.648 OA
BRANCH  20  22
HETATM   22  O   UNK N   1      33.373  12.661   9.529  0.00  0.00    -0.774 OA
HETATM   23  H   UNK N   1      33.527  11.792   9.843  0.00  0.00     0.167 HD
ENDBRANCH  20  22
ENDBRANCH  16  20
BRANCH  17  24
HETATM   24  O   UNK N   1      35.674  14.397   9.679  0.00  0.00    -0.390 OA
HETATM   25  H   UNK N   1      35.953  13.480   9.531  0.00  0.00     0.210 HD
ENDBRANCH  17  24
BRANCH  18  26
HETATM   26  O   UNK N   1      35.714  17.213  10.415  0.00  0.00    -0.390 OA
HETATM   27  H   UNK N   1      35.285  17.185  11.285  0.00  0.00     0.210 HD
ENDBRANCH  18  26
BRANCH  19  28
HETATM   28  O   UNK N   1      34.506  18.792   8.286  0.00  0.00    -0.388 OA
HETATM   29  H   UNK N   1      35.456  18.913   8.138  0.00  0.00     0.210 HD
ENDBRANCH  19  28
ENDBRANCH  13  14
ENDBRANCH   6  13
BRANCH   7  30
HETATM   30  N   UNK N   1      30.983  15.200   5.445  0.00  0.00    -0.349 N 
HETATM   31  C   UNK N   1      31.341  15.071   4.147  0.00  0.00     0.214 C 
HETATM   32  O   UNK N   1      31.168  15.993   3.357  0.00  0.00    -0.274 OA
HETATM   33  C   UNK N   1      31.941  13.799   3.666  0.00  0.00     0.117 C 
HETATM   34  H   UNK N   1      31.135  14.449   6.064  0.00  0.00     0.163 HD
ENDBRANCH   7  30
ENDBRANCH   1   2
BRANCH   1  35
HETATM   35  C   UNK N   1      27.013  15.760   4.970  0.00  0.00     0.195 C 
HETATM   36  C   UNK N   1      26.932  16.045   3.451  0.00  0.00     0.183 C 
HETATM   37  C   UNK N   1      26.187  14.930   2.699  0.00  0.00     0.204 C 
HETATM   38  C   UNK N   1      24.947  14.446   3.499  0.00  0.00     0.292 C 
HETATM   39  O   UNK N   1      25.319  14.010   4.797  0.00  0.00    -0.340 OA
HETATM   40  C   UNK N   1      25.713  15.152   5.515  0.00  0.00     0.253 C 
BRANCH  36  41
HETATM   41  O   UNK N   1      28.186  16.303   2.892  0.00  0.00    -0.390 OA
HETATM   42  H   UNK N   1      28.714  17.082   2.659  0.00  0.00     0.210 HD
ENDBRANCH  36  41
BRANCH  37  43
HETATM   43  O   UNK N   1      25.855  15.307   1.397  0.00  0.00    -0.388 OA
HETATM   44  H   UNK N   1      25.197  14.804   0.894  0.00  0.00     0.210 HD
ENDBRANCH  37  43
BRANCH  38  45
HETATM   45  O   UNK N   1      23.750  15.228   3.504  0.00  0.00    -0.348 OA
BRANCH  45  46
HETATM   46  C   UNK N   1      22.609  14.458   3.198  0.00  0.00     0.183 C 
HETATM   47  C   UNK N   1      21.523  15.360   2.586  0.00  0.00     0.171 C 
HETATM   48  C   UNK N   1      21.156  14.914   1.175  0.00  0.00     0.282 C 
HETATM   49  O   UNK N   1      22.340  14.652   0.475  0.00  0.00    -0.349 OA
HETATM   50  C   UNK N   1      22.664  13.339   0.848  0.00  0.00     0.179 C 
HETATM   51  C   UNK N   1      22.976  13.219   2.344  0.00  0.00     0.180 C 
BRANCH  47  52
HETATM   52  N   UNK N   1      20.356  15.389   3.434  0.00  0.00    -0.349 N 
HETATM   53  C   UNK N   1      19.844  16.547   3.916  0.00  0.00     0.214 C 
HETATM   54  O   UNK N   1      18.879  16.513   4.661  0.00  0.00    -0.274 OA
HETATM   55  C   UNK N   1      20.421  17.873   3.529  0.00  0.00     0.117 C 
HETATM   56  H   UNK N   1      19.919  14.539   3.670  0.00  0.00     0.163 HD
ENDBRANCH  47  52
BRANCH  48  57
HETATM   57  O   UNK N   1      20.412  15.895   0.522  0.00  0.00    -0.369 OA
HETATM   58  H   UNK N   1      19.919  16.577   1.006  0.00  0.00     0.212 HD
ENDBRANCH  48  57
BRANCH  50  59
HETATM   59  C   UNK N   1      23.836  12.808   0.043  0.00  0.00     0.198 C 
BRANCH  59  60
HETATM   60  O   UNK N   1      24.363  11.675   0.659  0.00  0.00    -0.398 OA
HETATM   61  H   UNK N   1      23.951  10.807   0.525  0.00  0.00     0.209 HD
ENDBRANCH  59  60
ENDBRANCH  50  59
BRANCH  51  62
HETATM   62  O   UNK N   1      22.329  12.087   2.840  0.00  0.00    -0.390 OA
HETATM   63  H   UNK N   1      21.952  11.199   2.936  0.00  0.00     0.210 HD
ENDBRANCH  51  62
ENDBRANCH  45  46
ENDBRANCH  38  45
BRANCH  40  64
HETATM   64  C   UNK N   1      25.593  14.990   7.002  0.00  0.00     0.172 C 
HETATM   65  O   UNK N   1      24.967  14.061   7.483  0.00  0.00    -0.648 OA
BRANCH  64  66
HETATM   66  O   UNK N   1      26.240  15.848   7.814  0.00  0.00    -0.774 OA
HETATM   67  H   UNK N   1      26.980  15.908   8.384  0.00  0.00     0.167 HD
ENDBRANCH  64  66
ENDBRANCH  40  64
ENDBRANCH   1  35
TORSDOF 24
ENDMDL
MODEL 4
REMARK VINA RESULT:      -7.2      2.118      3.413
REMARK  24 active torsions:
REMARK  status: ('A' for Active; 'I' for Inactive)
REMARK    1  A    between atoms: C_28  and  O_1 
REMARK    2  A    between atoms: C_30  and  O_1 
REMARK    3  A    between atoms: O_3  and  C_26 
REMARK    4  A    between atoms: C_39  and  O_3 
REMARK    5  A    between atoms: O_4  and  C_34 
REMARK    6  A    between atoms: C_35  and  O_4 
REMARK    7  A    between atoms: C_29  and  O_7 
REMARK    8  A    between atoms: C_32  and  O_9 
REMARK    9  A    between atoms: C_33  and  O_10 
REMARK   10  A    between atoms: C_38  and  O_11 
REMARK   11  A    between atoms: C_41  and  O_12 
REMARK   12  A    between atoms: C_42  and  O_13 
REMARK   13  A    between atoms: O_14  and  C_43 
REMARK   14  A    between atoms: C_44  and  O_15 
REMARK   15  A    between atoms: C_45  and  O_16 
REMARK   16  A    between atoms: O_17  and  C_47 
REMARK   17  A    between atoms: O_18  and  C_48 
REMARK   18  A    between atoms: O_21  and  C_50 
REMARK   19  A    between atoms: C_27  and  N_24 
REMARK       I    between atoms: N_24  and  C_49 
REMARK   20  A    between atoms: C_37  and  N_25 
REMARK       I    between atoms: N_25  and  C_51 
REMARK   21  A    between atoms: C_31  and  C_43 
REMARK   22  A    between atoms: C_36  and  C_47 
REMARK   23  A    between atoms: C_40  and  C_48 
REMARK   24  A    between atoms: C_46  and  C_50 
ROOT
HETATM    1  O   UNK N   1      28.130  17.933   5.664  0.00  0.00    -0.348 OA
ENDROOT
BRANCH   1   2
HETATM    2  C   UNK N   1      26.956  17.637   4.931  0.00  0.00     0.286 C 
HETATM    3  O   UNK N   1      27.157  17.085   3.640  0.00  0.00    -0.349 OA
HETATM    4  C   UNK N   1      25.937  16.831   2.948  0.00  0.00     0.179 C 
HETATM    5  C   UNK N   1      24.675  16.851   3.826  0.00  0.00     0.180 C 
HETATM    6  C   UNK N   1      24.605  18.183   4.609  0.00  0.00     0.183 C 
HETATM    7  C   UNK N   1      25.978  18.810   4.855  0.00  0.00     0.171 C 
BRANCH   4   8
HETATM    8  C   UNK N   1      26.039  15.552   2.125  0.00  0.00     0.198 C 
BRANCH   8   9
HETATM    9  O   UNK N   1      26.663  14.536   2.854  0.00  0.00    -0.398 OA
HETATM   10  H   UNK N   1      27.347  14.158   3.428  0.00  0.00     0.209 HD
ENDBRANCH   8   9
ENDBRANCH   4   8
BRANCH   5  11
HETATM   11  O   UNK N   1      24.704  15.795   4.743  0.00  0.00    -0.390 OA
HETATM   12  H   UNK N   1      24.434  15.224   5.478  0.00  0.00     0.210 HD
ENDBRANCH   5  11
BRANCH   6  13
HETATM   13  O   UNK N   1      23.679  19.085   4.063  0.00  0.00    -0.348 OA
BRANCH  13  14
HETATM   14  C   UNK N   1      22.512  18.317   4.057  0.00  0.00     0.292 C 
HETATM   15  O   UNK N   1      21.629  18.752   3.065  0.00  0.00    -0.340 OA
HETATM   16  C   UNK N   1      20.988  17.571   2.681  0.00  0.00     0.253 C 
HETATM   17  C   UNK N   1      19.977  17.193   3.775  0.00  0.00     0.189 C 
HETATM   18  C   UNK N   1      20.760  17.005   5.096  0.00  0.00     0.183 C 
HETATM   19  C   UNK N   1      21.767  18.141   5.370  0.00  0.00     0.204 C 
BRANCH  16  20
HETATM   20  C   UNK N   1      20.422  17.717   1.306  0.00  0.00     0.172 C 
HETATM   21  O   UNK N   1      20.006  16.731   0.719  0.00  0.00    -0.648 OA
BRANCH  20  22
HETATM   22  O   UNK N   1      20.407  18.917   0.696  0.00  0.00    -0.774 OA
HETATM   23  H   UNK N   1      20.130  19.809   0.769  0.00  0.00     0.167 HD
ENDBRANCH  20  22
ENDBRANCH  16  20
BRANCH  17  24
HETATM   24  O   UNK N   1      19.339  15.997   3.441  0.00  0.00    -0.390 OA
HETATM   25  H   UNK N   1      19.506  15.111   3.082  0.00  0.00     0.210 HD
ENDBRANCH  17  24
BRANCH  18  26
HETATM   26  O   UNK N   1      19.887  16.842   6.171  0.00  0.00    -0.390 OA
HETATM   27  H   UNK N   1      19.982  17.394   6.964  0.00  0.00     0.210 HD
ENDBRANCH  18  26
BRANCH  19  28
HETATM   28  O   UNK N   1      22.651  17.744   6.374  0.00  0.00    -0.388 OA
HETATM   29  H   UNK N   1      22.518  17.932   7.316  0.00  0.00     0.210 HD
ENDBRANCH  19  28
ENDBRANCH  13  14
ENDBRANCH   6  13
BRANCH   7  30
HETATM   30  N   UNK N   1      25.956  19.592   6.068  0.00  0.00    -0.349 N 
HETATM   31  C   UNK N   1      26.411  20.865   6.096  0.00  0.00     0.214 C 
HETATM   32  O   UNK N   1      26.852  21.392   5.080  0.00  0.00    -0.274 OA
HETATM   33  C   UNK N   1      26.386  21.634   7.367  0.00  0.00     0.117 C 
HETATM   34  H   UNK N   1      25.600  19.189   6.893  0.00  0.00     0.163 HD
ENDBRANCH   7  30
ENDBRANCH   1   2
BRANCH   1  35
HETATM   35  C   UNK N   1      28.850  16.838   6.204  0.00  0.00     0.195 C 
HETATM   36  C   UNK N   1      29.921  16.109   5.358  0.00  0.00     0.183 C 
HETATM   37  C   UNK N   1      31.347  16.495   5.785  0.00  0.00     0.204 C 
HETATM   38  C   UNK N   1      31.463  16.591   7.331  0.00  0.00     0.292 C 
HETATM   39  O   UNK N   1      30.519  17.511   7.855  0.00  0.00    -0.340 OA
HETATM   40  C   UNK N   1      29.248  16.935   7.684  0.00  0.00     0.253 C 
BRANCH  36  41
HETATM   41  O   UNK N   1      29.723  16.282   3.987  0.00  0.00    -0.390 OA
HETATM   42  H   UNK N   1      30.195  16.692   3.246  0.00  0.00     0.210 HD
ENDBRANCH  36  41
BRANCH  37  43
HETATM   43  O   UNK N   1      32.307  15.642   5.240  0.00  0.00    -0.388 OA
HETATM   44  H   UNK N   1      33.238  15.912   5.203  0.00  0.00     0.210 HD
ENDBRANCH  37  43
BRANCH  38  45
HETATM   45  O   UNK N   1      31.563  15.400   8.115  0.00  0.00    -0.348 OA
BRANCH  45  46
HETATM   46  C   UNK N   1      32.853  15.227   8.659  0.00  0.00     0.183 C 
HETATM   47  C   UNK N   1      33.722  14.413   7.684  0.00  0.00     0.171 C 
HETATM   48  C   UNK N   1      34.945  15.203   7.232  0.00  0.00     0.282 C 
HETATM   49  O   UNK N   1      34.533  16.501   6.904  0.00  0.00    -0.349 OA
HETATM   50  C   UNK N   1      34.510  17.166   8.139  0.00  0.00     0.179 C 
HETATM   51  C   UNK N   1      33.468  16.580   9.097  0.00  0.00     0.180 C 
BRANCH  47  52
HETATM   52  N   UNK N   1      34.115  13.162   8.285  0.00  0.00    -0.349 N 
HETATM   53  C   UNK N   1      33.860  11.969   7.696  0.00  0.00     0.214 C 
HETATM   54  O   UNK N   1      34.178  10.937   8.264  0.00  0.00    -0.274 OA
HETATM   55  C   UNK N   1      33.221  11.889   6.345  0.00  0.00     0.117 C 
HETATM   56  H   UNK N   1      34.583  13.176   9.151  0.00  0.00     0.163 HD
ENDBRANCH  47  52
BRANCH  48  57
HETATM   57  O   UNK N   1      35.553  14.595   6.136  0.00  0.00    -0.369 OA
HETATM   58  H   UNK N   1      35.159  13.831   5.686  0.00  0.00     0.212 HD
ENDBRANCH  48  57
BRANCH  50  59
HETATM   59  C   UNK N   1      34.254  18.652   7.963  0.00  0.00     0.198 C 
BRANCH  59  60
HETATM   60  O   UNK N   1      35.303  19.384   8.516  0.00  0.00    -0.398 OA
HETATM   61  H   UNK N   1      35.833  19.978   7.963  0.00  0.00     0.209 HD
ENDBRANCH  59  60
ENDBRANCH  50  59
BRANCH  51  62
HETATM   62  O   UNK N   1      34.049  16.454  10.359  0.00  0.00    -0.390 OA
HETATM   63  H   UNK N   1      34.200  16.273  11.300  0.00  0.00     0.210 HD
ENDBRANCH  51  62
ENDBRANCH  45  46
ENDBRANCH  38  45
BRANCH  40  64
HETATM   64  C   UNK N   1      28.222  17.461   8.644  0.00  0.00     0.172 C 
HETATM   65  O   UNK N   1      27.835  16.784   9.582  0.00  0.00    -0.648 OA
BRANCH  64  66
HETATM   66  O   UNK N   1      27.771  18.721   8.503  0.00  0.00    -0.774 OA
HETATM   67  H   UNK N   1      27.303  19.393   8.960  0.00  0.00     0.167 HD
ENDBRANCH  64  66
ENDBRANCH  40  64
ENDBRANCH   1  35
TORSDOF 24
ENDMDL
MODEL 5
REMARK VINA RESULT:      -6.9      4.250      8.288
REMARK  24 active torsions:
REMARK  status: ('A' for Active; 'I' for Inactive)
REMARK    1  A    between atoms: C_28  and  O_1 
REMARK    2  A    between atoms: C_30  and  O_1 
REMARK    3  A    between atoms: O_3  and  C_26 
REMARK    4  A    between atoms: C_39  and  O_3 
REMARK    5  A    between atoms: O_4  and  C_34 
REMARK    6  A    between atoms: C_35  and  O_4 
REMARK    7  A    between atoms: C_29  and  O_7 
REMARK    8  A    between atoms: C_32  and  O_9 
REMARK    9  A    between atoms: C_33  and  O_10 
REMARK   10  A    between atoms: C_38  and  O_11 
REMARK   11  A    between atoms: C_41  and  O_12 
REMARK   12  A    between atoms: C_42  and  O_13 
REMARK   13  A    between atoms: O_14  and  C_43 
REMARK   14  A    between atoms: C_44  and  O_15 
REMARK   15  A    between atoms: C_45  and  O_16 
REMARK   16  A    between atoms: O_17  and  C_47 
REMARK   17  A    between atoms: O_18  and  C_48 
REMARK   18  A    between atoms: O_21  and  C_50 
REMARK   19  A    between atoms: C_27  and  N_24 
REMARK       I    between atoms: N_24  and  C_49 
REMARK   20  A    between atoms: C_37  and  N_25 
REMARK       I    between atoms: N_25  and  C_51 
REMARK   21  A    between atoms: C_31  and  C_43 
REMARK   22  A    between atoms: C_36  and  C_47 
REMARK   23  A    between atoms: C_40  and  C_48 
REMARK   24  A    between atoms: C_46  and  C_50 
ROOT
HETATM    1  O   UNK N   1      34.642  14.636   6.624  0.00  0.00    -0.348 OA
ENDROOT
BRANCH   1   2
HETATM    2  C   UNK N   1      33.442  14.534   5.880  0.00  0.00     0.286 C 
HETATM    3  O   UNK N   1      33.552  13.905   4.612  0.00  0.00    -0.349 OA
HETATM    4  C   UNK N   1      32.315  13.854   3.907  0.00  0.00     0.179 C 
HETATM    5  C   UNK N   1      31.068  14.140   4.760  0.00  0.00     0.180 C 
HETATM    6  C   UNK N   1      31.236  15.490   5.495  0.00  0.00     0.183 C 
HETATM    7  C   UNK N   1      32.699  15.863   5.744  0.00  0.00     0.171 C 
BRANCH   4   8
HETATM    8  C   UNK N   1      32.189  12.548   3.131  0.00  0.00     0.198 C 
BRANCH   8   9
HETATM    9  O   UNK N   1      30.849  12.192   2.966  0.00  0.00    -0.398 OA
HETATM   10  H   UNK N   1      30.066  11.921   2.462  0.00  0.00     0.209 HD
ENDBRANCH   8   9
ENDBRANCH   4   8
BRANCH   5  11
HETATM   11  O   UNK N   1      30.891  13.132   5.714  0.00  0.00    -0.390 OA
HETATM   12  H   UNK N   1      30.796  12.711   6.582  0.00  0.00     0.210 HD
ENDBRANCH   5  11
BRANCH   6  13
HETATM   13  O   UNK N   1      30.499  16.526   4.901  0.00  0.00    -0.348 OA
BRANCH  13  14
HETATM   14  C   UNK N   1      29.551  16.796   5.890  0.00  0.00     0.292 C 
HETATM   15  O   UNK N   1      30.074  16.567   7.165  0.00  0.00    -0.340 OA
HETATM   16  C   UNK N   1      29.414  17.518   7.948  0.00  0.00     0.253 C 
HETATM   17  C   UNK N   1      27.970  17.039   8.173  0.00  0.00     0.189 C 
HETATM   18  C   UNK N   1      27.302  16.887   6.787  0.00  0.00     0.183 C 
HETATM   19  C   UNK N   1      28.185  16.140   5.767  0.00  0.00     0.204 C 
BRANCH  16  20
HETATM   20  C   UNK N   1      30.199  17.799   9.187  0.00  0.00     0.172 C 
HETATM   21  O   UNK N   1      30.008  18.839   9.797  0.00  0.00    -0.648 OA
BRANCH  20  22
HETATM   22  O   UNK N   1      31.141  16.936   9.610  0.00  0.00    -0.774 OA
HETATM   23  H   UNK N   1      31.888  16.432   9.352  0.00  0.00     0.167 HD
ENDBRANCH  20  22
ENDBRANCH  16  20
BRANCH  17  24
HETATM   24  O   UNK N   1      27.268  17.983   8.925  0.00  0.00    -0.390 OA
HETATM   25  H   UNK N   1      27.387  18.671   9.599  0.00  0.00     0.210 HD
ENDBRANCH  17  24
BRANCH  18  26
HETATM   26  O   UNK N   1      26.051  16.281   6.902  0.00  0.00    -0.390 OA
HETATM   27  H   UNK N   1      25.385  16.401   6.207  0.00  0.00     0.210 HD
ENDBRANCH  18  26
BRANCH  19  28
HETATM   28  O   UNK N   1      27.675  16.333   4.483  0.00  0.00    -0.388 OA
HETATM   29  H   UNK N   1      27.635  17.195   4.040  0.00  0.00     0.210 HD
ENDBRANCH  19  28
ENDBRANCH  13  14
ENDBRANCH   6  13
BRANCH   7  30
HETATM   30  N   UNK N   1      32.806  16.681   6.928  0.00  0.00    -0.349 N 
HETATM   31  C   UNK N   1      33.715  17.678   7.017  0.00  0.00     0.214 C 
HETATM   32  O   UNK N   1      34.473  17.918   6.083  0.00  0.00    -0.274 OA
HETATM   33  C   UNK N   1      33.807  18.490   8.259  0.00  0.00     0.117 C 
HETATM   34  H   UNK N   1      32.204  16.508   7.688  0.00  0.00     0.163 HD
ENDBRANCH   7  30
ENDBRANCH   1   2
BRANCH   1  35
HETATM   35  C   UNK N   1      35.033  13.503   7.380  0.00  0.00     0.195 C 
HETATM   36  C   UNK N   1      36.389  12.807   7.109  0.00  0.00     0.183 C 
HETATM   37  C   UNK N   1      37.433  13.151   8.184  0.00  0.00     0.204 C 
HETATM   38  C   UNK N   1      36.796  13.159   9.601  0.00  0.00     0.292 C 
HETATM   39  O   UNK N   1      35.702  14.061   9.661  0.00  0.00    -0.340 OA
HETATM   40  C   UNK N   1      34.676  13.512   8.873  0.00  0.00     0.253 C 
BRANCH  36  41
HETATM   41  O   UNK N   1      36.866  13.059   5.820  0.00  0.00    -0.390 OA
HETATM   42  H   UNK N   1      37.155  13.829   5.307  0.00  0.00     0.210 HD
ENDBRANCH  36  41
BRANCH  37  43
HETATM   43  O   UNK N   1      38.549  12.316   8.117  0.00  0.00    -0.388 OA
HETATM   44  H   UNK N   1      38.853  11.840   8.905  0.00  0.00     0.210 HD
ENDBRANCH  37  43
BRANCH  38  45
HETATM   45  O   UNK N   1      36.528  11.924  10.271  0.00  0.00    -0.348 OA
BRANCH  45  46
HETATM   46  C   UNK N   1      35.450  12.031  11.173  0.00  0.00     0.183 C 
HETATM   47  C   UNK N   1      34.779  10.657  11.346  0.00  0.00     0.171 C 
HETATM   48  C   UNK N   1      34.837  10.186  12.794  0.00  0.00     0.282 C 
HETATM   49  O   UNK N   1      36.132  10.412  13.279  0.00  0.00    -0.349 OA
HETATM   50  C   UNK N   1      36.109  11.757  13.676  0.00  0.00     0.179 C 
HETATM   51  C   UNK N   1      35.885  12.709  12.496  0.00  0.00     0.180 C 
BRANCH  47  52
HETATM   52  N   UNK N   1      33.417  10.699  10.875  0.00  0.00    -0.349 N 
HETATM   53  C   UNK N   1      33.045  10.151   9.693  0.00  0.00     0.214 C 
HETATM   54  O   UNK N   1      31.887  10.248   9.323  0.00  0.00    -0.274 OA
HETATM   55  C   UNK N   1      34.022   9.401   8.843  0.00  0.00     0.117 C 
HETATM   56  H   UNK N   1      32.734  11.141  11.431  0.00  0.00     0.163 HD
ENDBRANCH  47  52
BRANCH  48  57
HETATM   57  O   UNK N   1      34.511   8.834  12.891  0.00  0.00    -0.369 OA
HETATM   58  H   UNK N   1      35.080   8.139  12.524  0.00  0.00     0.212 HD
ENDBRANCH  48  57
BRANCH  50  59
HETATM   59  C   UNK N   1      37.386  12.141  14.401  0.00  0.00     0.198 C 
BRANCH  59  60
HETATM   60  O   UNK N   1      37.296  13.454  14.859  0.00  0.00    -0.398 OA
HETATM   61  H   UNK N   1      36.576  14.031  14.561  0.00  0.00     0.209 HD
ENDBRANCH  59  60
ENDBRANCH  50  59
BRANCH  51  62
HETATM   62  O   UNK N   1      34.945  13.667  12.875  0.00  0.00    -0.390 OA
HETATM   63  H   UNK N   1      34.509  14.504  13.100  0.00  0.00     0.210 HD
ENDBRANCH  51  62
ENDBRANCH  45  46
ENDBRANCH  38  45
BRANCH  40  64
HETATM   64  C   UNK N   1      33.309  13.997   9.255  0.00  0.00     0.172 C 
HETATM   65  O   UNK N   1      33.140  15.129   9.678  0.00  0.00    -0.648 OA
BRANCH  64  66
HETATM   66  O   UNK N   1      32.246  13.192   9.070  0.00  0.00    -0.774 OA
HETATM   67  H   UNK N   1      31.314  13.167   9.164  0.00  0.00     0.167 HD
ENDBRANCH  64  66
ENDBRANCH  40  64
ENDBRANCH   1  35
TORSDOF 24
ENDMDL
MODEL 6
REMARK VINA RESULT:      -6.8      2.221      9.872
REMARK  24 active torsions:
REMARK  status: ('A' for Active; 'I' for Inactive)
REMARK    1  A    between atoms: C_28  and  O_1 
REMARK    2  A    between atoms: C_30  and  O_1 
REMARK    3  A    between atoms: O_3  and  C_26 
REMARK    4  A    between atoms: C_39  and  O_3 
REMARK    5  A    between atoms: O_4  and  C_34 
REMARK    6  A    between atoms: C_35  and  O_4 
REMARK    7  A    between atoms: C_29  and  O_7 
REMARK    8  A    between atoms: C_32  and  O_9 
REMARK    9  A    between atoms: C_33  and  O_10 
REMARK   10  A    between atoms: C_38  and  O_11 
REMARK   11  A    between atoms: C_41  and  O_12 
REMARK   12  A    between atoms: C_42  and  O_13 
REMARK   13  A    between atoms: O_14  and  C_43 
REMARK   14  A    between atoms: C_44  and  O_15 
REMARK   15  A    between atoms: C_45  and  O_16 
REMARK   16  A    between atoms: O_17  and  C_47 
REMARK   17  A    between atoms: O_18  and  C_48 
REMARK   18  A    between atoms: O_21  and  C_50 
REMARK   19  A    between atoms: C_27  and  N_24 
REMARK       I    between atoms: N_24  and  C_49 
REMARK   20  A    between atoms: C_37  and  N_25 
REMARK       I    between atoms: N_25  and  C_51 
REMARK   21  A    between atoms: C_31  and  C_43 
REMARK   22  A    between atoms: C_36  and  C_47 
REMARK   23  A    between atoms: C_40  and  C_48 
REMARK   24  A    between atoms: C_46  and  C_50 
ROOT
HETATM    1  O   UNK N   1      28.514  17.645   3.814  0.00  0.00    -0.348 OA
ENDROOT
BRANCH   1   2
HETATM    2  C   UNK N   1      28.893  17.682   5.177  0.00  0.00     0.286 C 
HETATM    3  O   UNK N   1      28.369  18.761   5.935  0.00  0.00    -0.349 OA
HETATM    4  C   UNK N   1      28.805  18.752   7.291  0.00  0.00     0.179 C 
HETATM    5  C   UNK N   1      29.435  17.431   7.764  0.00  0.00     0.180 C 
HETATM    6  C   UNK N   1      30.581  17.028   6.806  0.00  0.00     0.183 C 
HETATM    7  C   UNK N   1      30.403  17.576   5.389  0.00  0.00     0.171 C 
BRANCH   4   8
HETATM    8  C   UNK N   1      27.690  19.217   8.221  0.00  0.00     0.198 C 
BRANCH   8   9
HETATM    9  O   UNK N   1      27.617  18.408   9.358  0.00  0.00    -0.398 OA
HETATM   10  H   UNK N   1      27.170  17.849  10.012  0.00  0.00     0.209 HD
ENDBRANCH   8   9
ENDBRANCH   4   8
BRANCH   5  11
HETATM   11  O   UNK N   1      28.478  16.411   7.768  0.00  0.00    -0.390 OA
HETATM   12  H   UNK N   1      27.664  15.931   7.985  0.00  0.00     0.210 HD
ENDBRANCH   5  11
BRANCH   6  13
HETATM   13  O   UNK N   1      31.852  17.288   7.341  0.00  0.00    -0.348 OA
BRANCH  13  14
HETATM   14  C   UNK N   1      32.349  15.996   7.522  0.00  0.00     0.292 C 
HETATM   15  O   UNK N   1      31.557  15.055   6.858  0.00  0.00    -0.340 OA
HETATM   16  C   UNK N   1      32.483  14.077   6.486  0.00  0.00     0.253 C 
HETATM   17  C   UNK N   1      32.854  13.263   7.736  0.00  0.00     0.189 C 
HETATM   18  C   UNK N   1      33.453  14.240   8.775  0.00  0.00     0.183 C 
HETATM   19  C   UNK N   1      32.623  15.529   8.942  0.00  0.00     0.204 C 
BRANCH  16  20
HETATM   20  C   UNK N   1      31.958  13.282   5.335  0.00  0.00     0.172 C 
HETATM   21  O   UNK N   1      32.618  12.356   4.893  0.00  0.00    -0.648 OA
BRANCH  20  22
HETATM   22  O   UNK N   1      30.787  13.608   4.756  0.00  0.00    -0.774 OA
HETATM   23  H   UNK N   1      30.227  13.451   4.022  0.00  0.00     0.167 HD
ENDBRANCH  20  22
ENDBRANCH  16  20
BRANCH  17  24
HETATM   24  O   UNK N   1      33.806  12.295   7.409  0.00  0.00    -0.390 OA
HETATM   25  H   UNK N   1      34.757  12.171   7.263  0.00  0.00     0.210 HD
ENDBRANCH  17  24
BRANCH  18  26
HETATM   26  O   UNK N   1      33.642  13.606  10.002  0.00  0.00    -0.390 OA
HETATM   27  H   UNK N   1      33.152  13.903  10.785  0.00  0.00     0.210 HD
ENDBRANCH  18  26
BRANCH  19  28
HETATM   28  O   UNK N   1      33.380  16.483   9.622  0.00  0.00    -0.388 OA
HETATM   29  H   UNK N   1      34.329  16.623   9.479  0.00  0.00     0.210 HD
ENDBRANCH  19  28
ENDBRANCH  13  14
ENDBRANCH   6  13
BRANCH   7  30
HETATM   30  N   UNK N   1      31.036  16.698   4.435  0.00  0.00    -0.349 N 
HETATM   31  C   UNK N   1      32.261  16.968   3.930  0.00  0.00     0.214 C 
HETATM   32  O   UNK N   1      32.872  17.973   4.278  0.00  0.00    -0.274 OA
HETATM   33  C   UNK N   1      32.874  16.048   2.937  0.00  0.00     0.117 C 
HETATM   34  H   UNK N   1      30.565  15.883   4.146  0.00  0.00     0.163 HD
ENDBRANCH   7  30
ENDBRANCH   1   2
BRANCH   1  35
HETATM   35  C   UNK N   1      27.211  17.173   3.517  0.00  0.00     0.195 C 
HETATM   36  C   UNK N   1      26.809  15.715   3.844  0.00  0.00     0.183 C 
HETATM   37  C   UNK N   1      25.915  15.635   5.093  0.00  0.00     0.204 C 
HETATM   38  C   UNK N   1      24.872  16.786   5.110  0.00  0.00     0.292 C 
HETATM   39  O   UNK N   1      25.510  18.051   5.033  0.00  0.00    -0.340 OA
HETATM   40  C   UNK N   1      26.053  18.157   3.742  0.00  0.00     0.253 C 
BRANCH  36  41
HETATM   41  O   UNK N   1      27.916  14.869   3.941  0.00  0.00    -0.390 OA
HETATM   42  H   UNK N   1      28.191  14.118   4.489  0.00  0.00     0.210 HD
ENDBRANCH  36  41
BRANCH  37  43
HETATM   43  O   UNK N   1      25.315  14.383   5.229  0.00  0.00    -0.388 OA
HETATM   44  H   UNK N   1      25.272  13.776   4.473  0.00  0.00     0.210 HD
ENDBRANCH  37  43
BRANCH  38  45
HETATM   45  O   UNK N   1      23.707  16.706   4.284  0.00  0.00    -0.348 OA
BRANCH  45  46
HETATM   46  C   UNK N   1      22.517  16.861   5.025  0.00  0.00     0.183 C 
HETATM   47  C   UNK N   1      21.371  17.275   4.085  0.00  0.00     0.171 C 
HETATM   48  C   UNK N   1      20.242  16.251   4.098  0.00  0.00     0.282 C 
HETATM   49  O   UNK N   1      20.806  14.972   4.011  0.00  0.00    -0.349 OA
HETATM   50  C   UNK N   1      21.150  14.668   5.336  0.00  0.00     0.179 C 
HETATM   51  C   UNK N   1      22.224  15.611   5.891  0.00  0.00     0.180 C 
BRANCH  47  52
HETATM   52  N   UNK N   1      20.879  18.584   4.438  0.00  0.00    -0.349 N 
HETATM   53  C   UNK N   1      20.733  19.570   3.520  0.00  0.00     0.214 C 
HETATM   54  O   UNK N   1      20.350  20.672   3.877  0.00  0.00    -0.274 OA
HETATM   55  C   UNK N   1      21.005  19.327   2.068  0.00  0.00     0.117 C 
HETATM   56  H   UNK N   1      20.642  18.767   5.376  0.00  0.00     0.163 HD
ENDBRANCH  47  52
BRANCH  48  57
HETATM   57  O   UNK N   1      19.363  16.467   3.038  0.00  0.00    -0.369 OA
HETATM   58  H   UNK N   1      18.904  17.313   2.912  0.00  0.00     0.212 HD
ENDBRANCH  48  57
BRANCH  50  59
HETATM   59  C   UNK N   1      21.620  13.231   5.471  0.00  0.00     0.198 C 
BRANCH  59  60
HETATM   60  O   UNK N   1      22.779  13.179   6.243  0.00  0.00    -0.398 OA
HETATM   61  H   UNK N   1      22.792  12.685   7.077  0.00  0.00     0.209 HD
ENDBRANCH  59  60
ENDBRANCH  50  59
BRANCH  51  62
HETATM   62  O   UNK N   1      21.850  15.997   7.178  0.00  0.00    -0.390 OA
HETATM   63  H   UNK N   1      21.336  16.232   7.966  0.00  0.00     0.210 HD
ENDBRANCH  51  62
ENDBRANCH  45  46
ENDBRANCH  38  45
BRANCH  40  64
HETATM   64  C   UNK N   1      26.253  19.575   3.295  0.00  0.00     0.172 C 
HETATM   65  O   UNK N   1      25.325  20.229   2.849  0.00  0.00    -0.648 OA
BRANCH  64  66
HETATM   66  O   UNK N   1      27.460  20.153   3.448  0.00  0.00    -0.774 OA
HETATM   67  H   UNK N   1      28.372  20.010   3.287  0.00  0.00     0.167 HD
ENDBRANCH  64  66
ENDBRANCH  40  64
ENDBRANCH   1  35
TORSDOF 24
ENDMDL
MODEL 7
REMARK VINA RESULT:      -6.8      2.216      9.577
REMARK  24 active torsions:
REMARK  status: ('A' for Active; 'I' for Inactive)
REMARK    1  A    between atoms: C_28  and  O_1 
REMARK    2  A    between atoms: C_30  and  O_1 
REMARK    3  A    between atoms: O_3  and  C_26 
REMARK    4  A    between atoms: C_39  and  O_3 
REMARK    5  A    between atoms: O_4  and  C_34 
REMARK    6  A    between atoms: C_35  and  O_4 
REMARK    7  A    between atoms: C_29  and  O_7 
REMARK    8  A    between atoms: C_32  and  O_9 
REMARK    9  A    between atoms: C_33  and  O_10 
REMARK   10  A    between atoms: C_38  and  O_11 
REMARK   11  A    between atoms: C_41  and  O_12 
REMARK   12  A    between atoms: C_42  and  O_13 
REMARK   13  A    between atoms: O_14  and  C_43 
REMARK   14  A    between atoms: C_44  and  O_15 
REMARK   15  A    between atoms: C_45  and  O_16 
REMARK   16  A    between atoms: O_17  and  C_47 
REMARK   17  A    between atoms: O_18  and  C_48 
REMARK   18  A    between atoms: O_21  and  C_50 
REMARK   19  A    between atoms: C_27  and  N_24 
REMARK       I    between atoms: N_24  and  C_49 
REMARK   20  A    between atoms: C_37  and  N_25 
REMARK       I    between atoms: N_25  and  C_51 
REMARK   21  A    between atoms: C_31  and  C_43 
REMARK   22  A    between atoms: C_36  and  C_47 
REMARK   23  A    between atoms: C_40  and  C_48 
REMARK   24  A    between atoms: C_46  and  C_50 
ROOT
HETATM    1  O   UNK N   1      26.170  14.409   3.183  0.00  0.00    -0.348 OA
ENDROOT
BRANCH   1   2
HETATM    2  C   UNK N   1      26.534  15.673   3.705  0.00  0.00     0.286 C 
HETATM    3  O   UNK N   1      26.000  16.799   3.027  0.00  0.00    -0.349 OA
HETATM    4  C   UNK N   1      26.421  18.039   3.590  0.00  0.00     0.179 C 
HETATM    5  C   UNK N   1      27.047  17.938   4.991  0.00  0.00     0.180 C 
HETATM    6  C   UNK N   1      28.204  16.911   4.973  0.00  0.00     0.183 C 
HETATM    7  C   UNK N   1      28.042  15.839   3.894  0.00  0.00     0.171 C 
BRANCH   4   8
HETATM    8  C   UNK N   1      25.295  19.065   3.541  0.00  0.00     0.198 C 
BRANCH   8   9
HETATM    9  O   UNK N   1      24.075  18.485   3.898  0.00  0.00    -0.398 OA
HETATM   10  H   UNK N   1      23.323  17.881   3.792  0.00  0.00     0.209 HD
ENDBRANCH   8   9
ENDBRANCH   4   8
BRANCH   5  11
HETATM   11  O   UNK N   1      26.091  17.516   5.921  0.00  0.00    -0.390 OA
HETATM   12  H   UNK N   1      25.677  16.989   6.622  0.00  0.00     0.210 HD
ENDBRANCH   5  11
BRANCH   6  13
HETATM   13  O   UNK N   1      29.468  17.520   4.957  0.00  0.00    -0.348 OA
BRANCH  13  14
HETATM   14  C   UNK N   1      29.979  17.133   6.198  0.00  0.00     0.292 C 
HETATM   15  O   UNK N   1      29.790  18.134   7.155  0.00  0.00    -0.340 OA
HETATM   16  C   UNK N   1      29.615  17.406   8.335  0.00  0.00     0.253 C 
HETATM   17  C   UNK N   1      30.987  16.880   8.785  0.00  0.00     0.189 C 
HETATM   18  C   UNK N   1      31.545  15.988   7.651  0.00  0.00     0.183 C 
HETATM   19  C   UNK N   1      31.413  16.631   6.255  0.00  0.00     0.204 C 
BRANCH  16  20
HETATM   20  C   UNK N   1      28.881  18.230   9.343  0.00  0.00     0.172 C 
HETATM   21  O   UNK N   1      29.497  18.739  10.266  0.00  0.00    -0.648 OA
BRANCH  20  22
HETATM   22  O   UNK N   1      27.546  18.377   9.265  0.00  0.00    -0.774 OA
HETATM   23  H   UNK N   1      26.854  18.961   9.026  0.00  0.00     0.167 HD
ENDBRANCH  20  22
ENDBRANCH  16  20
BRANCH  17  24
HETATM   24  O   UNK N   1      30.848  16.118   9.946  0.00  0.00    -0.390 OA
HETATM   25  H   UNK N   1      31.360  15.689  10.650  0.00  0.00     0.210 HD
ENDBRANCH  17  24
BRANCH  18  26
HETATM   26  O   UNK N   1      32.866  15.624   7.909  0.00  0.00    -0.390 OA
HETATM   27  H   UNK N   1      33.398  16.136   8.538  0.00  0.00     0.210 HD
ENDBRANCH  18  26
BRANCH  19  28
HETATM   28  O   UNK N   1      31.619  15.658   5.275  0.00  0.00    -0.388 OA
HETATM   29  H   UNK N   1      31.097  15.591   4.461  0.00  0.00     0.210 HD
ENDBRANCH  19  28
ENDBRANCH  13  14
ENDBRANCH   6  13
BRANCH   7  30
HETATM   30  N   UNK N   1      28.686  14.617   4.310  0.00  0.00    -0.349 N 
HETATM   31  C   UNK N   1      29.440  13.890   3.454  0.00  0.00     0.214 C 
HETATM   32  O   UNK N   1      29.601  14.259   2.296  0.00  0.00    -0.274 OA
HETATM   33  C   UNK N   1      30.076  12.627   3.914  0.00  0.00     0.117 C 
HETATM   34  H   UNK N   1      28.574  14.306   5.237  0.00  0.00     0.163 HD
ENDBRANCH   7  30
ENDBRANCH   1   2
BRANCH   1  35
HETATM   35  C   UNK N   1      25.011  13.795   3.719  0.00  0.00     0.195 C 
HETATM   36  C   UNK N   1      24.951  13.401   5.215  0.00  0.00     0.183 C 
HETATM   37  C   UNK N   1      24.092  14.382   6.030  0.00  0.00     0.204 C 
HETATM   38  C   UNK N   1      22.814  14.791   5.249  0.00  0.00     0.292 C 
HETATM   39  O   UNK N   1      23.146  15.349   3.988  0.00  0.00    -0.340 OA
HETATM   40  C   UNK N   1      23.658  14.304   3.200  0.00  0.00     0.253 C 
BRANCH  36  41
HETATM   41  O   UNK N   1      26.221  13.234   5.770  0.00  0.00    -0.390 OA
HETATM   42  H   UNK N   1      26.661  12.604   6.362  0.00  0.00     0.210 HD
ENDBRANCH  36  41
BRANCH  37  43
HETATM   43  O   UNK N   1      23.794  13.886   7.300  0.00  0.00    -0.388 OA
HETATM   44  H   UNK N   1      24.240  14.244   8.083  0.00  0.00     0.210 HD
ENDBRANCH  37  43
BRANCH  38  45
HETATM   45  O   UNK N   1      21.702  13.894   5.178  0.00  0.00    -0.348 OA
BRANCH  45  46
HETATM   46  C   UNK N   1      20.490  14.520   5.534  0.00  0.00     0.183 C 
HETATM   47  C   UNK N   1      20.676  15.304   6.845  0.00  0.00     0.171 C 
HETATM   48  C   UNK N   1      20.400  16.791   6.649  0.00  0.00     0.282 C 
HETATM   49  O   UNK N   1      21.040  17.206   5.474  0.00  0.00    -0.349 OA
HETATM   50  C   UNK N   1      20.132  16.864   4.461  0.00  0.00     0.179 C 
HETATM   51  C   UNK N   1      19.916  15.350   4.359  0.00  0.00     0.180 C 
BRANCH  47  52
HETATM   52  N   UNK N   1      19.834  14.760   7.881  0.00  0.00    -0.349 N 
HETATM   53  C   UNK N   1      20.332  14.353   9.074  0.00  0.00     0.214 C 
HETATM   54  O   UNK N   1      19.583  13.863   9.902  0.00  0.00    -0.274 OA
HETATM   55  C   UNK N   1      21.781  14.520   9.409  0.00  0.00     0.117 C 
HETATM   56  H   UNK N   1      18.866  14.681   7.716  0.00  0.00     0.163 HD
ENDBRANCH  47  52
BRANCH  48  57
HETATM   57  O   UNK N   1      20.858  17.529   7.739  0.00  0.00    -0.369 OA
HETATM   58  H   UNK N   1      21.503  17.171   8.370  0.00  0.00     0.212 HD
ENDBRANCH  48  57
BRANCH  50  59
HETATM   59  C   UNK N   1      20.576  17.404   3.114  0.00  0.00     0.198 C 
BRANCH  59  60
HETATM   60  O   UNK N   1      20.693  16.360   2.198  0.00  0.00    -0.398 OA
HETATM   61  H   UNK N   1      21.112  16.507   1.336  0.00  0.00     0.209 HD
ENDBRANCH  59  60
ENDBRANCH  50  59
BRANCH  51  62
HETATM   62  O   UNK N   1      18.549  15.108   4.224  0.00  0.00    -0.390 OA
HETATM   63  H   UNK N   1      17.606  15.192   4.014  0.00  0.00     0.210 HD
ENDBRANCH  51  62
ENDBRANCH  45  46
ENDBRANCH  38  45
BRANCH  40  64
HETATM   64  C   UNK N   1      23.531  14.553   1.726  0.00  0.00     0.172 C 
HETATM   65  O   UNK N   1      22.439  14.549   1.181  0.00  0.00    -0.648 OA
BRANCH  64  66
HETATM   66  O   UNK N   1      24.631  14.847   1.009  0.00  0.00    -0.774 OA
HETATM   67  H   UNK N   1      25.431  14.472   0.698  0.00  0.00     0.167 HD
ENDBRANCH  64  66
ENDBRANCH  40  64
ENDBRANCH   1  35
TORSDOF 24
ENDMDL
MODEL 8
REMARK VINA RESULT:      -6.8      1.578      2.172
REMARK  24 active torsions:
REMARK  status: ('A' for Active; 'I' for Inactive)
REMARK    1  A    between atoms: C_28  and  O_1 
REMARK    2  A    between atoms: C_30  and  O_1 
REMARK    3  A    between atoms: O_3  and  C_26 
REMARK    4  A    between atoms: C_39  and  O_3 
REMARK    5  A    between atoms: O_4  and  C_34 
REMARK    6  A    between atoms: C_35  and  O_4 
REMARK    7  A    between atoms: C_29  and  O_7 
REMARK    8  A    between atoms: C_32  and  O_9 
REMARK    9  A    between atoms: C_33  and  O_10 
REMARK   10  A    between atoms: C_38  and  O_11 
REMARK   11  A    between atoms: C_41  and  O_12 
REMARK   12  A    between atoms: C_42  and  O_13 
REMARK   13  A    between atoms: O_14  and  C_43 
REMARK   14  A    between atoms: C_44  and  O_15 
REMARK   15  A    between atoms: C_45  and  O_16 
REMARK   16  A    between atoms: O_17  and  C_47 
REMARK   17  A    between atoms: O_18  and  C_48 
REMARK   18  A    between atoms: O_21  and  C_50 
REMARK   19  A    between atoms: C_27  and  N_24 
REMARK       I    between atoms: N_24  and  C_49 
REMARK   20  A    between atoms: C_37  and  N_25 
REMARK       I    between atoms: N_25  and  C_51 
REMARK   21  A    between atoms: C_31  and  C_43 
REMARK   22  A    between atoms: C_36  and  C_47 
REMARK   23  A    between atoms: C_40  and  C_48 
REMARK   24  A    between atoms: C_46  and  C_50 
ROOT
HETATM    1  O   UNK N   1      28.026  17.037   4.390  0.00  0.00    -0.348 OA
ENDROOT
BRANCH   1   2
HETATM    2  C   UNK N   1      26.756  16.601   3.944  0.00  0.00     0.286 C 
HETATM    3  O   UNK N   1      26.731  15.962   2.677  0.00  0.00    -0.349 OA
HETATM    4  C   UNK N   1      25.421  15.567   2.279  0.00  0.00     0.179 C 
HETATM    5  C   UNK N   1      24.371  15.568   3.402  0.00  0.00     0.180 C 
HETATM    6  C   UNK N   1      24.350  16.950   4.096  0.00  0.00     0.183 C 
HETATM    7  C   UNK N   1      25.686  17.691   4.003  0.00  0.00     0.171 C 
BRANCH   4   8
HETATM    8  C   UNK N   1      25.460  14.236   1.536  0.00  0.00     0.198 C 
BRANCH   8   9
HETATM    9  O   UNK N   1      24.309  14.060   0.764  0.00  0.00    -0.398 OA
HETATM   10  H   UNK N   1      23.771  14.123  -0.040  0.00  0.00     0.209 HD
ENDBRANCH   8   9
ENDBRANCH   4   8
BRANCH   5  11
HETATM   11  O   UNK N   1      24.681  14.594   4.358  0.00  0.00    -0.390 OA
HETATM   12  H   UNK N   1      24.552  13.941   5.063  0.00  0.00     0.210 HD
ENDBRANCH   5  11
BRANCH   6  13
HETATM   13  O   UNK N   1      23.257  17.737   3.704  0.00  0.00    -0.348 OA
BRANCH  13  14
HETATM   14  C   UNK N   1      22.255  17.266   4.554  0.00  0.00     0.292 C 
HETATM   15  O   UNK N   1      21.144  16.827   3.828  0.00  0.00    -0.340 OA
HETATM   16  C   UNK N   1      20.650  15.784   4.616  0.00  0.00     0.253 C 
HETATM   17  C   UNK N   1      19.935  16.394   5.832  0.00  0.00     0.189 C 
HETATM   18  C   UNK N   1      20.968  17.245   6.608  0.00  0.00     0.183 C 
HETATM   19  C   UNK N   1      21.804  18.165   5.694  0.00  0.00     0.204 C 
BRANCH  16  20
HETATM   20  C   UNK N   1      19.824  14.858   3.784  0.00  0.00     0.172 C 
HETATM   21  O   UNK N   1      20.260  14.459   2.716  0.00  0.00    -0.648 OA
BRANCH  20  22
HETATM   22  O   UNK N   1      18.589  14.498   4.182  0.00  0.00    -0.774 OA
HETATM   23  H   UNK N   1      17.938  13.827   4.139  0.00  0.00     0.167 HD
ENDBRANCH  20  22
ENDBRANCH  16  20
BRANCH  17  24
HETATM   24  O   UNK N   1      19.456  15.379   6.662  0.00  0.00    -0.390 OA
HETATM   25  H   UNK N   1      19.369  15.125   7.594  0.00  0.00     0.210 HD
ENDBRANCH  17  24
BRANCH  18  26
HETATM   26  O   UNK N   1      20.349  17.978   7.620  0.00  0.00    -0.390 OA
HETATM   27  H   UNK N   1      19.427  18.265   7.520  0.00  0.00     0.210 HD
ENDBRANCH  18  26
BRANCH  19  28
HETATM   28  O   UNK N   1      22.911  18.637   6.399  0.00  0.00    -0.388 OA
HETATM   29  H   UNK N   1      23.623  19.161   6.001  0.00  0.00     0.210 HD
ENDBRANCH  19  28
ENDBRANCH  13  14
ENDBRANCH   6  13
BRANCH   7  30
HETATM   30  N   UNK N   1      25.847  18.564   5.141  0.00  0.00    -0.349 N 
HETATM   31  C   UNK N   1      26.150  19.874   4.989  0.00  0.00     0.214 C 
HETATM   32  O   UNK N   1      26.289  20.356   3.870  0.00  0.00    -0.274 OA
HETATM   33  C   UNK N   1      26.324  20.739   6.185  0.00  0.00     0.117 C 
HETATM   34  H   UNK N   1      25.735  18.198   6.048  0.00  0.00     0.163 HD
ENDBRANCH   7  30
ENDBRANCH   1   2
BRANCH   1  35
HETATM   35  C   UNK N   1      28.812  16.107   5.115  0.00  0.00     0.195 C 
HETATM   36  C   UNK N   1      29.719  15.097   4.372  0.00  0.00     0.183 C 
HETATM   37  C   UNK N   1      31.201  15.504   4.436  0.00  0.00     0.204 C 
HETATM   38  C   UNK N   1      31.574  16.043   5.844  0.00  0.00     0.292 C 
HETATM   39  O   UNK N   1      30.741  17.133   6.207  0.00  0.00    -0.340 OA
HETATM   40  C   UNK N   1      29.453  16.611   6.417  0.00  0.00     0.253 C 
BRANCH  36  41
HETATM   41  O   UNK N   1      29.297  14.870   3.060  0.00  0.00    -0.390 OA
HETATM   42  H   UNK N   1      29.458  14.214   2.364  0.00  0.00     0.210 HD
ENDBRANCH  36  41
BRANCH  37  43
HETATM   43  O   UNK N   1      32.046  14.471   4.030  0.00  0.00    -0.388 OA
HETATM   44  H   UNK N   1      32.932  14.668   3.690  0.00  0.00     0.210 HD
ENDBRANCH  37  43
BRANCH  38  45
HETATM   45  O   UNK N   1      31.789  15.131   6.924  0.00  0.00    -0.348 OA
BRANCH  45  46
HETATM   46  C   UNK N   1      33.159  14.957   7.209  0.00  0.00     0.183 C 
HETATM   47  C   UNK N   1      33.522  15.721   8.495  0.00  0.00     0.171 C 
HETATM   48  C   UNK N   1      34.050  14.781   9.572  0.00  0.00     0.282 C 
HETATM   49  O   UNK N   1      33.215  13.657   9.624  0.00  0.00    -0.349 OA
HETATM   50  C   UNK N   1      33.707  12.829   8.604  0.00  0.00     0.179 C 
HETATM   51  C   UNK N   1      33.549  13.458   7.215  0.00  0.00     0.180 C 
BRANCH  47  52
HETATM   52  N   UNK N   1      34.479  16.761   8.209  0.00  0.00    -0.349 N 
HETATM   53  C   UNK N   1      34.125  18.067   8.140  0.00  0.00     0.214 C 
HETATM   54  O   UNK N   1      34.966  18.904   7.856  0.00  0.00    -0.274 OA
HETATM   55  C   UNK N   1      32.726  18.509   8.434  0.00  0.00     0.117 C 
HETATM   56  H   UNK N   1      35.420  16.514   8.059  0.00  0.00     0.163 HD
ENDBRANCH  47  52
BRANCH  48  57
HETATM   57  O   UNK N   1      34.087  15.416  10.812  0.00  0.00    -0.369 OA
HETATM   58  H   UNK N   1      34.892  15.444  11.354  0.00  0.00     0.212 HD
ENDBRANCH  48  57
BRANCH  50  59
HETATM   59  C   UNK N   1      33.033  11.469   8.622  0.00  0.00     0.198 C 
BRANCH  59  60
HETATM   60  O   UNK N   1      32.043  11.441   9.603  0.00  0.00    -0.398 OA
HETATM   61  H   UNK N   1      31.181  11.855   9.443  0.00  0.00     0.209 HD
ENDBRANCH  59  60
ENDBRANCH  50  59
BRANCH  51  62
HETATM   62  O   UNK N   1      34.736  13.270   6.508  0.00  0.00    -0.390 OA
HETATM   63  H   UNK N   1      35.475  12.875   6.019  0.00  0.00     0.210 HD
ENDBRANCH  51  62
ENDBRANCH  45  46
ENDBRANCH  38  45
BRANCH  40  64
HETATM   64  C   UNK N   1      28.608  17.458   7.322  0.00  0.00     0.172 C 
HETATM   65  O   UNK N   1      29.095  18.380   7.954  0.00  0.00    -0.648 OA
BRANCH  64  66
HETATM   66  O   UNK N   1      27.282  17.235   7.387  0.00  0.00    -0.774 OA
HETATM   67  H   UNK N   1      26.460  17.682   7.437  0.00  0.00     0.167 HD
ENDBRANCH  64  66
ENDBRANCH  40  64
ENDBRANCH   1  35
TORSDOF 24
ENDMDL
MODEL 9
REMARK VINA RESULT:      -6.8      4.449      8.435
REMARK  24 active torsions:
REMARK  status: ('A' for Active; 'I' for Inactive)
REMARK    1  A    between atoms: C_28  and  O_1 
REMARK    2  A    between atoms: C_30  and  O_1 
REMARK    3  A    between atoms: O_3  and  C_26 
REMARK    4  A    between atoms: C_39  and  O_3 
REMARK    5  A    between atoms: O_4  and  C_34 
REMARK    6  A    between atoms: C_35  and  O_4 
REMARK    7  A    between atoms: C_29  and  O_7 
REMARK    8  A    between atoms: C_32  and  O_9 
REMARK    9  A    between atoms: C_33  and  O_10 
REMARK   10  A    between atoms: C_38  and  O_11 
REMARK   11  A    between atoms: C_41  and  O_12 
REMARK   12  A    between atoms: C_42  and  O_13 
REMARK   13  A    between atoms: O_14  and  C_43 
REMARK   14  A    between atoms: C_44  and  O_15 
REMARK   15  A    between atoms: C_45  and  O_16 
REMARK   16  A    between atoms: O_17  and  C_47 
REMARK   17  A    between atoms: O_18  and  C_48 
REMARK   18  A    between atoms: O_21  and  C_50 
REMARK   19  A    between atoms: C_27  and  N_24 
REMARK       I    between atoms: N_24  and  C_49 
REMARK   20  A    between atoms: C_37  and  N_25 
REMARK       I    between atoms: N_25  and  C_51 
REMARK   21  A    between atoms: C_31  and  C_43 
REMARK   22  A    between atoms: C_36  and  C_47 
REMARK   23  A    between atoms: C_40  and  C_48 
REMARK   24  A    between atoms: C_46  and  C_50 
ROOT
HETATM    1  O   UNK N   1      33.981  14.055   6.433  0.00  0.00    -0.348 OA
ENDROOT
BRANCH   1   2
HETATM    2  C   UNK N   1      32.844  14.304   5.627  0.00  0.00     0.286 C 
HETATM    3  O   UNK N   1      32.844  13.686   4.350  0.00  0.00    -0.349 OA
HETATM    4  C   UNK N   1      31.684  13.994   3.582  0.00  0.00     0.179 C 
HETATM    5  C   UNK N   1      30.521  14.607   4.379  0.00  0.00     0.180 C 
HETATM    6  C   UNK N   1      31.019  15.846   5.159  0.00  0.00     0.183 C 
HETATM    7  C   UNK N   1      32.511  15.790   5.491  0.00  0.00     0.171 C 
BRANCH   4   8
HETATM    8  C   UNK N   1      31.241  12.785   2.765  0.00  0.00     0.198 C 
BRANCH   8   9
HETATM    9  O   UNK N   1      31.437  11.600   3.478  0.00  0.00    -0.398 OA
HETATM   10  H   UNK N   1      31.530  10.640   3.581  0.00  0.00     0.209 HD
ENDBRANCH   8   9
ENDBRANCH   4   8
BRANCH   5  11
HETATM   11  O   UNK N   1      30.016  13.678   5.294  0.00  0.00    -0.390 OA
HETATM   12  H   UNK N   1      29.986  13.075   6.053  0.00  0.00     0.210 HD
ENDBRANCH   5  11
BRANCH   6  13
HETATM   13  O   UNK N   1      30.636  17.055   4.558  0.00  0.00    -0.348 OA
BRANCH  13  14
HETATM   14  C   UNK N   1      29.730  17.558   5.494  0.00  0.00     0.292 C 
HETATM   15  O   UNK N   1      29.830  16.873   6.709  0.00  0.00    -0.340 OA
HETATM   16  C   UNK N   1      29.519  17.860   7.648  0.00  0.00     0.253 C 
HETATM   17  C   UNK N   1      28.001  18.099   7.613  0.00  0.00     0.189 C 
HETATM   18  C   UNK N   1      27.626  18.546   6.180  0.00  0.00     0.183 C 
HETATM   19  C   UNK N   1      28.270  17.671   5.085  0.00  0.00     0.204 C 
BRANCH  16  20
HETATM   20  C   UNK N   1      30.081  17.495   8.983  0.00  0.00     0.172 C 
HETATM   21  O   UNK N   1      30.858  16.558   9.072  0.00  0.00    -0.648 OA
BRANCH  20  22
HETATM   22  O   UNK N   1      29.704  18.162  10.090  0.00  0.00    -0.774 OA
HETATM   23  H   UNK N   1      28.980  18.376  10.644  0.00  0.00     0.167 HD
ENDBRANCH  20  22
ENDBRANCH  16  20
BRANCH  17  24
HETATM   24  O   UNK N   1      27.656  19.105   8.517  0.00  0.00    -0.390 OA
HETATM   25  H   UNK N   1      28.025  19.673   9.212  0.00  0.00     0.210 HD
ENDBRANCH  17  24
BRANCH  18  26
HETATM   26  O   UNK N   1      26.242  18.603   6.023  0.00  0.00    -0.390 OA
HETATM   27  H   UNK N   1      25.772  19.443   6.145  0.00  0.00     0.210 HD
ENDBRANCH  18  26
BRANCH  19  28
HETATM   28  O   UNK N   1      28.167  18.320   3.854  0.00  0.00    -0.388 OA
HETATM   29  H   UNK N   1      28.890  18.377   3.210  0.00  0.00     0.210 HD
ENDBRANCH  19  28
ENDBRANCH  13  14
ENDBRANCH   6  13
BRANCH   7  30
HETATM   30  N   UNK N   1      32.777  16.529   6.702  0.00  0.00    -0.349 N 
HETATM   31  C   UNK N   1      33.584  17.615   6.703  0.00  0.00     0.214 C 
HETATM   32  O   UNK N   1      34.109  18.003   5.665  0.00  0.00    -0.274 OA
HETATM   33  C   UNK N   1      33.847  18.342   7.972  0.00  0.00     0.117 C 
HETATM   34  H   UNK N   1      32.361  16.237   7.545  0.00  0.00     0.163 HD
ENDBRANCH   7  30
ENDBRANCH   1   2
BRANCH   1  35
HETATM   35  C   UNK N   1      33.837  13.113   7.482  0.00  0.00     0.195 C 
HETATM   36  C   UNK N   1      33.810  11.596   7.177  0.00  0.00     0.183 C 
HETATM   37  C   UNK N   1      35.139  10.915   7.541  0.00  0.00     0.204 C 
HETATM   38  C   UNK N   1      35.700  11.461   8.883  0.00  0.00     0.292 C 
HETATM   39  O   UNK N   1      35.858  12.870   8.831  0.00  0.00    -0.340 OA
HETATM   40  C   UNK N   1      34.567  13.425   8.796  0.00  0.00     0.253 C 
BRANCH  36  41
HETATM   41  O   UNK N   1      33.430  11.326   5.860  0.00  0.00    -0.390 OA
HETATM   42  H   UNK N   1      33.746  10.775   5.127  0.00  0.00     0.210 HD
ENDBRANCH  36  41
BRANCH  37  43
HETATM   43  O   UNK N   1      35.032   9.524   7.546  0.00  0.00    -0.388 OA
HETATM   44  H   UNK N   1      35.674   8.985   8.033  0.00  0.00     0.210 HD
ENDBRANCH  37  43
BRANCH  38  45
HETATM   45  O   UNK N   1      35.144  11.015  10.123  0.00  0.00    -0.348 OA
BRANCH  45  46
HETATM   46  C   UNK N   1      36.124  10.883  11.128  0.00  0.00     0.183 C 
HETATM   47  C   UNK N   1      37.513  11.195  10.544  0.00  0.00     0.171 C 
HETATM   48  C   UNK N   1      38.164  12.377  11.252  0.00  0.00     0.282 C 
HETATM   49  O   UNK N   1      37.206  13.390  11.390  0.00  0.00    -0.349 OA
HETATM   50  C   UNK N   1      36.504  13.030  12.550  0.00  0.00     0.179 C 
HETATM   51  C   UNK N   1      35.754  11.703  12.389  0.00  0.00     0.180 C 
BRANCH  47  52
HETATM   52  N   UNK N   1      38.359  10.030  10.608  0.00  0.00    -0.349 N 
HETATM   53  C   UNK N   1      39.003   9.545   9.519  0.00  0.00     0.214 C 
HETATM   54  O   UNK N   1      39.676   8.533   9.619  0.00  0.00    -0.274 OA
HETATM   55  C   UNK N   1      38.928  10.244   8.198  0.00  0.00     0.117 C 
HETATM   56  H   UNK N   1      38.473   9.571  11.472  0.00  0.00     0.163 HD
ENDBRANCH  47  52
BRANCH  48  57
HETATM   57  O   UNK N   1      39.263  12.843  10.534  0.00  0.00    -0.369 OA
HETATM   58  H   UNK N   1      39.456  13.790  10.441  0.00  0.00     0.212 HD
ENDBRANCH  48  57
BRANCH  50  59
HETATM   59  C   UNK N   1      35.528  14.116  12.966  0.00  0.00     0.198 C 
BRANCH  59  60
HETATM   60  O   UNK N   1      34.299  13.916  12.341  0.00  0.00    -0.398 OA
HETATM   61  H   UNK N   1      33.771  14.672  12.043  0.00  0.00     0.209 HD
ENDBRANCH  59  60
ENDBRANCH  50  59
BRANCH  51  62
HETATM   62  O   UNK N   1      35.962  10.937  13.536  0.00  0.00    -0.390 OA
HETATM   63  H   UNK N   1      36.137  10.203  14.145  0.00  0.00     0.210 HD
ENDBRANCH  51  62
ENDBRANCH  45  46
ENDBRANCH  38  45
BRANCH  40  64
HETATM   64  C   UNK N   1      34.513  14.838   9.299  0.00  0.00     0.172 C 
HETATM   65  O   UNK N   1      35.509  15.543   9.297  0.00  0.00    -0.648 OA
BRANCH  64  66
HETATM   66  O   UNK N   1      33.335  15.353   9.698  0.00  0.00    -0.774 OA
HETATM   67  H   UNK N   1      32.835  15.540  10.468  0.00  0.00     0.167 HD
ENDBRANCH  64  66
ENDBRANCH  40  64
ENDBRANCH   1  35
TORSDOF 24
ENDMDL
