REMARK  20 active torsions:
REMARK  status: ('A' for Active; 'I' for Inactive)
REMARK    1  A    between atoms: C_1  and  C_2 
REMARK    2  A    between atoms: C_1  and  N_15 
REMARK       I    between atoms: C_2  and  N_3 
REMARK    3  A    between atoms: N_3  and  C_4 
REMARK    4  A    between atoms: C_4  and  C_5 
REMARK    5  A    between atoms: C_4  and  C_28 
REMARK       I    between atoms: C_5  and  N_6 
REMARK    6  A    between atoms: N_6  and  C_7 
REMARK    7  A    between atoms: C_7  and  C_8 
REMARK    8  A    between atoms: C_7  and  C_30 
REMARK       I    between atoms: C_8  and  N_9 
REMARK    9  A    between atoms: N_9  and  C_10 
REMARK   10  A    between atoms: C_10  and  C_11 
REMARK   11  A    between atoms: C_10  and  C_27 
REMARK       I    between atoms: C_11  and  N_12 
REMARK   12  A    between atoms: N_12  and  C_13 
REMARK   13  A    between atoms: C_13  and  C_14 
REMARK   14  A    between atoms: C_13  and  C_29 
REMARK   15  A    between atoms: C_14  and  C_16 
REMARK   16  A    between atoms: C_27  and  C_33 
REMARK   17  A    between atoms: C_28  and  C_34 
REMARK   18  A    between atoms: C_29  and  C_49 
REMARK   19  A    between atoms: C_30  and  C_46 
REMARK   20  A    between atoms: C_34  and  C_35 
ROOT
HETATM    1  C   UNK N   1      11.058 -11.873   0.883  0.00  0.00     0.177 C 
ENDROOT
BRANCH   1   2
HETATM    2  N   UNK N   1      10.520 -12.182  -0.436  0.00  0.00    -0.346 N 
HETATM    3  C   UNK N   1       9.304 -11.803  -0.923  0.00  0.00     0.241 C 
HETATM    4  O   UNK N   1       8.989 -12.142  -2.054  0.00  0.00    -0.271 OA
HETATM    5  H   UNK N   1      11.091 -12.716  -1.035  0.00  0.00     0.163 HD
BRANCH   3   6
HETATM    6  C   UNK N   1       8.373 -10.922  -0.138  0.00  0.00     0.177 C 
BRANCH   6   7
HETATM    7  N   UNK N   1       7.024 -11.445  -0.110  0.00  0.00    -0.346 N 
HETATM    8  C   UNK N   1       6.132 -11.083   0.848  0.00  0.00     0.246 C 
HETATM    9  O   UNK N   1       6.487 -10.436   1.823  0.00  0.00    -0.272 OA
HETATM   10  H   UNK N   1       6.744 -12.082  -0.806  0.00  0.00     0.163 HD
BRANCH   8  11
HETATM   11  C   UNK N   1       4.676 -11.376   0.655  0.00  0.00     0.374 C 
BRANCH  11  12
HETATM   12  N   UNK N   1       4.202 -10.834  -0.624  0.00  0.00     0.101 N 
HETATM   13  C   UNK N   1       4.479  -9.382  -0.740  0.00  0.00     0.299 C 
HETATM   14  C   UNK N   1       3.246  -8.487  -0.593  0.00  0.00     0.198 C 
HETATM   15  O   UNK N   1       2.270  -9.138   0.162  0.00  0.00    -0.388 OA
HETATM   16  C   UNK N   1       1.784 -10.123  -0.700  0.00  0.00     0.198 C 
HETATM   17  C   UNK N   1       2.805 -11.259  -0.826  0.00  0.00     0.299 C 
ENDBRANCH  11  12
ENDBRANCH   8  11
ENDBRANCH   6   7
BRANCH   6  18
HETATM   18  C   UNK N   1       8.361  -9.543  -0.795  0.00  0.00     0.039 C 
BRANCH  18  19
HETATM   19  C   UNK N   1       7.874  -8.490   0.186  0.00  0.00     0.041 C 
BRANCH  19  20
HETATM   20  C   UNK N   1       8.504  -7.170  -0.086  0.00  0.00    -0.058 A 
HETATM   21  C   UNK N   1       9.899  -7.032  -0.062  0.00  0.00     0.007 A 
HETATM   22  C   UNK N   1      10.483  -5.786  -0.296  0.00  0.00     0.001 A 
HETATM   23  C   UNK N   1       9.675  -4.672  -0.543  0.00  0.00     0.000 A 
HETATM   24  C   UNK N   1       8.283  -4.807  -0.559  0.00  0.00     0.001 A 
HETATM   25  C   UNK N   1       7.698  -6.056  -0.331  0.00  0.00     0.007 A 
ENDBRANCH  19  20
ENDBRANCH  18  19
ENDBRANCH   6  18
ENDBRANCH   3   6
ENDBRANCH   1   2
BRANCH   1  26
HETATM   26  C   UNK N   1      11.151 -10.375   1.171  0.00  0.00     0.241 C 
HETATM   27  N   UNK N   1      12.288  -9.627   1.093  0.00  0.00    -0.346 N 
HETATM   28  H   UNK N   1      12.166  -8.655   1.189  0.00  0.00     0.163 HD
HETATM   29  O   UNK N   1      10.145  -9.817   1.567  0.00  0.00    -0.271 OA
BRANCH  27  30
HETATM   30  C   UNK N   1      13.650 -10.068   0.889  0.00  0.00     0.180 C 
BRANCH  30  31
HETATM   31  C   UNK N   1      13.973 -10.723  -0.437  0.00  0.00     0.241 C 
HETATM   32  N   UNK N   1      15.167 -11.344  -0.617  0.00  0.00    -0.348 N 
HETATM   33  H   UNK N   1      15.361 -11.784  -1.476  0.00  0.00     0.163 HD
HETATM   34  O   UNK N   1      13.153 -10.718  -1.347  0.00  0.00    -0.271 OA
BRANCH  32  35
HETATM   35  C   UNK N   1      16.163 -11.369   0.441  0.00  0.00     0.158 C 
BRANCH  35  36
HETATM   36  C   UNK N   1      17.359 -10.507   0.128  0.00  0.00     0.185 C 
HETATM   37  O   UNK N   1      17.436  -9.928  -0.947  0.00  0.00    -0.292 OA
BRANCH  36  38
HETATM   38  C   UNK N   1      18.428 -10.315   1.170  0.00  0.00     0.141 A 
HETATM   39  O   UNK N   1      19.433  -9.436   0.722  0.00  0.00    -0.367 OA
HETATM   40  C   UNK N   1      19.800 -10.785   0.879  0.00  0.00     0.215 A 
HETATM   41  C   UNK N   1      18.055  -9.982   2.601  0.00  0.00     0.057 C 
ENDBRANCH  36  38
ENDBRANCH  35  36
BRANCH  35  42
HETATM   42  C   UNK N   1      16.504 -12.783   0.938  0.00  0.00     0.037 C 
BRANCH  42  43
HETATM   43  C   UNK N   1      16.986 -13.815  -0.083  0.00  0.00    -0.020 C 
HETATM   44  C   UNK N   1      18.104 -13.313  -0.978  0.00  0.00     0.009 C 
HETATM   45  C   UNK N   1      15.844 -14.376  -0.900  0.00  0.00     0.009 C 
ENDBRANCH  42  43
ENDBRANCH  35  42
ENDBRANCH  32  35
ENDBRANCH  30  31
BRANCH  30  46
HETATM   46  C   UNK N   1      14.610  -8.916   1.222  0.00  0.00     0.073 C 
BRANCH  46  47
HETATM   47  C   UNK N   1      14.434  -7.672   0.402  0.00  0.00    -0.056 A 
HETATM   48  C   UNK N   1      14.704  -7.666  -0.974  0.00  0.00     0.007 A 
HETATM   49  C   UNK N   1      14.576  -6.482  -1.708  0.00  0.00     0.001 A 
HETATM   50  C   UNK N   1      14.187  -5.300  -1.070  0.00  0.00     0.000 A 
HETATM   51  C   UNK N   1      13.924  -5.302   0.303  0.00  0.00     0.001 A 
HETATM   52  C   UNK N   1      14.051  -6.485   1.037  0.00  0.00     0.007 A 
ENDBRANCH  46  47
ENDBRANCH  30  46
ENDBRANCH  27  30
ENDBRANCH   1  26
BRANCH   1  53
HETATM   53  C   UNK N   1      12.341 -12.663   1.198  0.00  0.00     0.038 C 
BRANCH  53  54
HETATM   54  C   UNK N   1      12.420 -14.099   0.666  0.00  0.00    -0.020 C 
HETATM   55  C   UNK N   1      12.605 -14.143  -0.842  0.00  0.00     0.009 C 
HETATM   56  C   UNK N   1      11.232 -14.941   1.087  0.00  0.00     0.009 C 
ENDBRANCH  53  54
ENDBRANCH   1  53
TORSDOF 20
