MODEL 1
REMARK VINA RESULT:      -8.2      0.000      0.000
REMARK  4 active torsions:
REMARK  status: ('A' for Active; 'I' for Inactive)
REMARK    1  A    between atoms: N_1  and  C_9 
REMARK    2  A    between atoms: N_1  and  C_17 
REMARK       I    between atoms: N_4  and  C_20 
REMARK    3  A    between atoms: N_4  and  C_21 
REMARK    4  A    between atoms: C_12  and  C_18 
ROOT
HETATM    1  N   UNK N   1      23.645  12.148  13.962  0.00  0.00    -0.192 NA
HETATM    2  C   UNK N   1      21.693  12.252  11.217  0.00  0.00     0.022 C 
HETATM    3  C   UNK N   1      22.848  11.726  11.555  0.00  0.00     0.094 C 
HETATM    4  C   UNK N   1      23.281  11.963  12.883  0.00  0.00     0.087 C 
ENDROOT
BRANCH   2   5
HETATM    5  C   UNK N   1      21.605  12.905   9.946  0.00  0.00    -0.035 A 
HETATM    6  C   UNK N   1      22.239  12.332   8.853  0.00  0.00     0.020 A 
HETATM    7  C   UNK N   1      22.193  12.937   7.615  0.00  0.00    -0.034 A 
HETATM    8  C   UNK N   1      21.452  14.123   7.429  0.00  0.00     0.045 A 
HETATM    9  C   UNK N   1      22.979  12.309   6.507  0.00  0.00     0.050 C 
HETATM   10  C   UNK N   1      20.776  14.691   8.621  0.00  0.00    -0.034 A 
HETATM   11  C   UNK N   1      20.915  14.064   9.827  0.00  0.00     0.020 A 
HETATM   12  C   UNK N   1      19.912  15.884   8.838  0.00  0.00     0.050 C 
BRANCH   8  13
HETATM   13  N   UNK N   1      21.437  14.619   6.075  0.00  0.00    -0.341 N 
HETATM   14  H   UNK N   1      20.760  14.247   5.464  0.00  0.00     0.167 HD
BRANCH  13  15
HETATM   15  C   UNK N   1      22.304  15.581   5.561  0.00  0.00     0.122 C 
HETATM   16  N   UNK N   1      22.913  15.377   4.370  0.00  0.00    -0.176 N 
HETATM   17  C   UNK N   1      23.347  16.458   3.683  0.00  0.00     0.684 C 
ATOM     18  HN  UNK N   1      23.042  14.435   4.001  1.00  0.00     0.186 HD
HETATM   19  N   UNK N   1      24.715  16.453   3.355  0.00  0.00    -0.192 N 
HETATM   20  N   UNK N   1      22.827  17.672   4.001  0.00  0.00    -0.202 N 
HETATM   21  H   UNK N   1      25.084  15.748   2.774  0.00  0.00     0.184 HD
HETATM   22  C   UNK N   1      22.410  17.893   5.262  0.00  0.00     0.110 C 
ATOM     23  HN  UNK N   1      22.752  18.405   3.296  1.00  0.00     0.183 HD
HETATM   24  C   UNK N   1      22.292  16.826   6.108  0.00  0.00     0.066 C 
BRANCH  19  25
HETATM   25  C   UNK N   1      25.565  17.482   3.874  0.00  0.00     0.049 C 
HETATM   26  C   UNK N   1      26.170  17.394   5.152  0.00  0.00     0.031 C 
HETATM   27  C   UNK N   1      26.775  18.469   5.742  0.00  0.00     0.025 C 
HETATM   28  C   UNK N   1      26.846  19.650   5.029  0.00  0.00     0.044 C 
HETATM   29  C   UNK N   1      26.401  19.723   3.709  0.00  0.00     0.025 C 
HETATM   30  C   UNK N   1      27.241  20.802   5.741  0.00  0.00     0.099 C 
HETATM   31  C   UNK N   1      25.747  18.634   3.137  0.00  0.00     0.031 C 
HETATM   32  N   UNK N   1      27.579  21.659   6.433  0.00  0.00    -0.191 NA
ENDBRANCH  19  25
ENDBRANCH  13  15
ENDBRANCH   8  13
ENDBRANCH   2   5
TORSDOF 4
ENDMDL
MODEL 2
REMARK VINA RESULT:      -7.8      9.262     12.720
REMARK  4 active torsions:
REMARK  status: ('A' for Active; 'I' for Inactive)
REMARK    1  A    between atoms: N_1  and  C_9 
REMARK    2  A    between atoms: N_1  and  C_17 
REMARK       I    between atoms: N_4  and  C_20 
REMARK    3  A    between atoms: N_4  and  C_21 
REMARK    4  A    between atoms: C_12  and  C_18 
ROOT
HETATM    1  N   UNK N   1      27.958  14.740   2.256  0.00  0.00    -0.192 NA
HETATM    2  C   UNK N   1      29.132  17.071   4.388  0.00  0.00     0.022 C 
HETATM    3  C   UNK N   1      29.526  16.506   3.270  0.00  0.00     0.094 C 
HETATM    4  C   UNK N   1      28.658  15.534   2.717  0.00  0.00     0.087 C 
ENDROOT
BRANCH   2   5
HETATM    5  C   UNK N   1      30.098  17.229   5.432  0.00  0.00    -0.035 A 
HETATM    6  C   UNK N   1      29.655  17.414   6.733  0.00  0.00     0.020 A 
HETATM    7  C   UNK N   1      30.552  17.588   7.766  0.00  0.00    -0.034 A 
HETATM    8  C   UNK N   1      31.940  17.525   7.521  0.00  0.00     0.045 A 
HETATM    9  C   UNK N   1      29.997  17.877   9.125  0.00  0.00     0.050 C 
HETATM   10  C   UNK N   1      32.369  17.306   6.118  0.00  0.00    -0.034 A 
HETATM   11  C   UNK N   1      31.421  17.201   5.141  0.00  0.00     0.020 A 
HETATM   12  C   UNK N   1      33.699  17.169   5.462  0.00  0.00     0.050 C 
BRANCH   8  13
HETATM   13  N   UNK N   1      32.766  17.662   8.695  0.00  0.00    -0.341 N 
HETATM   14  H   UNK N   1      32.763  18.534   9.153  0.00  0.00     0.167 HD
BRANCH  13  15
HETATM   15  C   UNK N   1      33.567  16.658   9.236  0.00  0.00     0.122 C 
HETATM   16  N   UNK N   1      34.554  16.975  10.106  0.00  0.00    -0.176 N 
HETATM   17  C   UNK N   1      34.988  16.014  10.954  0.00  0.00     0.684 C 
ATOM     18  HN  UNK N   1      34.959  17.910  10.122  1.00  0.00     0.186 HD
HETATM   19  N   UNK N   1      36.366  15.740  10.898  0.00  0.00    -0.192 N 
HETATM   20  N   UNK N   1      34.186  14.938  11.169  0.00  0.00    -0.202 N 
HETATM   21  H   UNK N   1      37.021  16.442  11.119  0.00  0.00     0.184 HD
HETATM   22  C   UNK N   1      33.353  14.539  10.190  0.00  0.00     0.110 C 
ATOM     23  HN  UNK N   1      34.214  14.440  12.059  1.00  0.00     0.183 HD
HETATM   24  C   UNK N   1      33.159  15.365   9.119  0.00  0.00     0.066 C 
BRANCH  19  25
HETATM   25  C   UNK N   1      36.807  14.432  10.517  0.00  0.00     0.049 C 
HETATM   26  C   UNK N   1      37.198  13.456  11.468  0.00  0.00     0.031 C 
HETATM   27  C   UNK N   1      37.843  12.307  11.102  0.00  0.00     0.025 C 
HETATM   28  C   UNK N   1      38.053  12.077   9.757  0.00  0.00     0.044 C 
HETATM   29  C   UNK N   1      37.542  12.942   8.788  0.00  0.00     0.025 C 
HETATM   30  C   UNK N   1      38.932  11.026   9.419  0.00  0.00     0.099 C 
HETATM   31  C   UNK N   1      36.927  14.129   9.176  0.00  0.00     0.031 C 
HETATM   32  N   UNK N   1      39.659  10.144   9.281  0.00  0.00    -0.191 NA
ENDBRANCH  19  25
ENDBRANCH  13  15
ENDBRANCH   8  13
ENDBRANCH   2   5
TORSDOF 4
ENDMDL
MODEL 3
REMARK VINA RESULT:      -7.6     11.501     13.855
REMARK  4 active torsions:
REMARK  status: ('A' for Active; 'I' for Inactive)
REMARK    1  A    between atoms: N_1  and  C_9 
REMARK    2  A    between atoms: N_1  and  C_17 
REMARK       I    between atoms: N_4  and  C_20 
REMARK    3  A    between atoms: N_4  and  C_21 
REMARK    4  A    between atoms: C_12  and  C_18 
ROOT
HETATM    1  N   UNK N   1      35.342   9.137  20.213  0.00  0.00    -0.192 NA
HETATM    2  C   UNK N   1      35.020  11.423  17.759  0.00  0.00     0.022 C 
HETATM    3  C   UNK N   1      34.743  10.151  17.928  0.00  0.00     0.094 C 
HETATM    4  C   UNK N   1      35.076   9.598  19.189  0.00  0.00     0.087 C 
ENDROOT
BRANCH   2   5
HETATM    5  C   UNK N   1      35.629  11.814  16.524  0.00  0.00    -0.035 A 
HETATM    6  C   UNK N   1      35.706  10.889  15.493  0.00  0.00     0.020 A 
HETATM    7  C   UNK N   1      36.300  11.219  14.293  0.00  0.00    -0.034 A 
HETATM    8  C   UNK N   1      36.792  12.524  14.077  0.00  0.00     0.045 A 
HETATM    9  C   UNK N   1      36.430  10.140  13.264  0.00  0.00     0.050 C 
HETATM   10  C   UNK N   1      36.672  13.485  15.200  0.00  0.00    -0.034 A 
HETATM   11  C   UNK N   1      36.123  13.067  16.378  0.00  0.00     0.020 A 
HETATM   12  C   UNK N   1      37.044  14.917  15.367  0.00  0.00     0.050 C 
BRANCH   8  13
HETATM   13  N   UNK N   1      37.333  12.754  12.760  0.00  0.00    -0.341 N 
HETATM   14  H   UNK N   1      38.198  12.334  12.545  0.00  0.00     0.167 HD
BRANCH  13  15
HETATM   15  C   UNK N   1      36.730  13.521  11.766  0.00  0.00     0.122 C 
HETATM   16  N   UNK N   1      36.694  14.869  11.879  0.00  0.00    -0.176 N 
HETATM   17  C   UNK N   1      36.551  15.600  10.750  0.00  0.00     0.684 C 
ATOM     18  HN  UNK N   1      36.773  15.321  12.790  1.00  0.00     0.186 HD
HETATM   19  N   UNK N   1      35.455  16.481  10.738  0.00  0.00    -0.192 N 
HETATM   20  N   UNK N   1      36.838  15.007   9.561  0.00  0.00    -0.202 N 
HETATM   21  H   UNK N   1      35.397  17.211  11.397  0.00  0.00     0.184 HD
HETATM   22  C   UNK N   1      36.670  13.678   9.438  0.00  0.00     0.110 C 
ATOM     23  HN  UNK N   1      37.177  15.561   8.774  1.00  0.00     0.183 HD
HETATM   24  C   UNK N   1      36.458  12.938  10.567  0.00  0.00     0.066 C 
BRANCH  19  25
HETATM   25  C   UNK N   1      34.424  16.306   9.759  0.00  0.00     0.049 C 
HETATM   26  C   UNK N   1      34.257  17.194   8.667  0.00  0.00     0.031 C 
HETATM   27  C   UNK N   1      33.139  17.169   7.880  0.00  0.00     0.025 C 
HETATM   28  C   UNK N   1      32.186  16.203   8.131  0.00  0.00     0.044 C 
HETATM   29  C   UNK N   1      32.394  15.217   9.096  0.00  0.00     0.025 C 
HETATM   30  C   UNK N   1      30.941  16.350   7.482  0.00  0.00     0.099 C 
HETATM   31  C   UNK N   1      33.516  15.280   9.919  0.00  0.00     0.031 C 
HETATM   32  N   UNK N   1      29.981  16.584   6.891  0.00  0.00    -0.191 NA
ENDBRANCH  19  25
ENDBRANCH  13  15
ENDBRANCH   8  13
ENDBRANCH   2   5
TORSDOF 4
ENDMDL
MODEL 4
REMARK VINA RESULT:      -7.6     10.689     14.694
REMARK  4 active torsions:
REMARK  status: ('A' for Active; 'I' for Inactive)
REMARK    1  A    between atoms: N_1  and  C_9 
REMARK    2  A    between atoms: N_1  and  C_17 
REMARK       I    between atoms: N_4  and  C_20 
REMARK    3  A    between atoms: N_4  and  C_21 
REMARK    4  A    between atoms: C_12  and  C_18 
ROOT
HETATM    1  N   UNK N   1      29.434  18.926   8.855  0.00  0.00    -0.192 NA
HETATM    2  C   UNK N   1      32.269  17.230   8.192  0.00  0.00     0.022 C 
HETATM    3  C   UNK N   1      30.978  17.019   8.087  0.00  0.00     0.094 C 
HETATM    4  C   UNK N   1      30.133  18.074   8.513  0.00  0.00     0.087 C 
ENDROOT
BRANCH   2   5
HETATM    5  C   UNK N   1      33.077  16.173   8.722  0.00  0.00    -0.035 A 
HETATM    6  C   UNK N   1      32.797  14.866   8.351  0.00  0.00     0.020 A 
HETATM    7  C   UNK N   1      33.539  13.818   8.852  0.00  0.00    -0.034 A 
HETATM    8  C   UNK N   1      34.632  14.065   9.709  0.00  0.00     0.045 A 
HETATM    9  C   UNK N   1      33.117  12.431   8.481  0.00  0.00     0.050 C 
HETATM   10  C   UNK N   1      34.907  15.478  10.064  0.00  0.00    -0.034 A 
HETATM   11  C   UNK N   1      34.091  16.458   9.573  0.00  0.00     0.020 A 
HETATM   12  C   UNK N   1      35.942  16.143  10.903  0.00  0.00     0.050 C 
BRANCH   8  13
HETATM   13  N   UNK N   1      35.360  12.886  10.112  0.00  0.00    -0.341 N 
HETATM   14  H   UNK N   1      35.836  12.385   9.411  0.00  0.00     0.167 HD
BRANCH  13  15
HETATM   15  C   UNK N   1      35.445  12.401  11.416  0.00  0.00     0.122 C 
HETATM   16  N   UNK N   1      34.507  11.545  11.881  0.00  0.00    -0.176 N 
HETATM   17  C   UNK N   1      34.836  10.742  12.919  0.00  0.00     0.684 C 
ATOM     18  HN  UNK N   1      33.578  11.506  11.463  1.00  0.00     0.186 HD
HETATM   19  N   UNK N   1      34.000  10.841  14.046  0.00  0.00    -0.192 N 
HETATM   20  N   UNK N   1      36.155  10.544  13.184  0.00  0.00    -0.202 N 
HETATM   21  H   UNK N   1      33.045  10.612  13.977  0.00  0.00     0.184 HD
HETATM   22  C   UNK N   1      37.034  11.515  12.877  0.00  0.00     0.110 C 
ATOM     23  HN  UNK N   1      36.473   9.673  13.609  1.00  0.00     0.183 HD
HETATM   24  C   UNK N   1      36.616  12.552  12.092  0.00  0.00     0.066 C 
BRANCH  19  25
HETATM   25  C   UNK N   1      34.553  11.277  15.293  0.00  0.00     0.049 C 
HETATM   26  C   UNK N   1      34.850  10.378  16.347  0.00  0.00     0.031 C 
HETATM   27  C   UNK N   1      35.143  10.815  17.609  0.00  0.00     0.025 C 
HETATM   28  C   UNK N   1      35.210  12.176  17.830  0.00  0.00     0.044 C 
HETATM   29  C   UNK N   1      35.077  13.084  16.779  0.00  0.00     0.025 C 
HETATM   30  C   UNK N   1      35.262  12.603  19.173  0.00  0.00     0.099 C 
HETATM   31  C   UNK N   1      34.736  12.627  15.508  0.00  0.00     0.031 C 
HETATM   32  N   UNK N   1      35.305  12.816  20.305  0.00  0.00    -0.191 NA
ENDBRANCH  19  25
ENDBRANCH  13  15
ENDBRANCH   8  13
ENDBRANCH   2   5
TORSDOF 4
ENDMDL
MODEL 5
REMARK VINA RESULT:      -7.5      4.074      8.486
REMARK  4 active torsions:
REMARK  status: ('A' for Active; 'I' for Inactive)
REMARK    1  A    between atoms: N_1  and  C_9 
REMARK    2  A    between atoms: N_1  and  C_17 
REMARK       I    between atoms: N_4  and  C_20 
REMARK    3  A    between atoms: N_4  and  C_21 
REMARK    4  A    between atoms: C_12  and  C_18 
ROOT
HETATM    1  N   UNK N   1      35.312  17.538  10.152  0.00  0.00    -0.192 NA
HETATM    2  C   UNK N   1      32.470  16.473   8.689  0.00  0.00     0.022 C 
HETATM    3  C   UNK N   1      33.701  16.739   8.317  0.00  0.00     0.094 C 
HETATM    4  C   UNK N   1      34.584  17.179   9.333  0.00  0.00     0.087 C 
ENDROOT
BRANCH   2   5
HETATM    5  C   UNK N   1      31.405  16.951   7.861  0.00  0.00    -0.035 A 
HETATM    6  C   UNK N   1      31.530  16.850   6.484  0.00  0.00     0.020 A 
HETATM    7  C   UNK N   1      30.534  17.315   5.650  0.00  0.00    -0.034 A 
HETATM    8  C   UNK N   1      29.347  17.852   6.190  0.00  0.00     0.045 A 
HETATM    9  C   UNK N   1      30.783  17.257   4.175  0.00  0.00     0.050 C 
HETATM   10  C   UNK N   1      29.248  17.924   7.668  0.00  0.00    -0.034 A 
HETATM   11  C   UNK N   1      30.300  17.496   8.426  0.00  0.00     0.020 A 
HETATM   12  C   UNK N   1      28.190  18.395   8.603  0.00  0.00     0.050 C 
BRANCH   8  13
HETATM   13  N   UNK N   1      28.363  18.244   5.210  0.00  0.00    -0.341 N 
HETATM   14  H   UNK N   1      28.593  18.992   4.612  0.00  0.00     0.167 HD
BRANCH  13  15
HETATM   15  C   UNK N   1      27.115  17.649   5.042  0.00  0.00     0.122 C 
HETATM   16  N   UNK N   1      25.992  18.323   5.382  0.00  0.00    -0.176 N 
HETATM   17  C   UNK N   1      24.828  17.957   4.800  0.00  0.00     0.684 C 
ATOM     18  HN  UNK N   1      26.023  19.085   6.059  1.00  0.00     0.186 HD
HETATM   19  N   UNK N   1      23.795  17.606   5.687  0.00  0.00    -0.192 N 
HETATM   20  N   UNK N   1      24.885  17.232   3.651  0.00  0.00    -0.202 N 
HETATM   21  H   UNK N   1      23.441  18.267   6.325  0.00  0.00     0.184 HD
HETATM   22  C   UNK N   1      25.937  16.420   3.445  0.00  0.00     0.110 C 
ATOM     23  HN  UNK N   1      24.141  17.302   2.956  1.00  0.00     0.183 HD
HETATM   24  C   UNK N   1      27.024  16.535   4.267  0.00  0.00     0.066 C 
BRANCH  19  25
HETATM   25  C   UNK N   1      23.263  16.276   5.654  0.00  0.00     0.049 C 
HETATM   26  C   UNK N   1      22.146  15.926   4.855  0.00  0.00     0.031 C 
HETATM   27  C   UNK N   1      21.495  14.733   5.007  0.00  0.00     0.025 C 
HETATM   28  C   UNK N   1      21.993  13.829   5.924  0.00  0.00     0.044 C 
HETATM   29  C   UNK N   1      23.180  14.080   6.613  0.00  0.00     0.025 C 
HETATM   30  C   UNK N   1      21.172  12.727   6.244  0.00  0.00     0.099 C 
HETATM   31  C   UNK N   1      23.809  15.316   6.481  0.00  0.00     0.031 C 
HETATM   32  N   UNK N   1      20.412  11.877   6.410  0.00  0.00    -0.191 NA
ENDBRANCH  19  25
ENDBRANCH  13  15
ENDBRANCH   8  13
ENDBRANCH   2   5
TORSDOF 4
ENDMDL
MODEL 6
REMARK VINA RESULT:      -7.3     11.627     14.118
REMARK  4 active torsions:
REMARK  status: ('A' for Active; 'I' for Inactive)
REMARK    1  A    between atoms: N_1  and  C_9 
REMARK    2  A    between atoms: N_1  and  C_17 
REMARK       I    between atoms: N_4  and  C_20 
REMARK    3  A    between atoms: N_4  and  C_21 
REMARK    4  A    between atoms: C_12  and  C_18 
ROOT
HETATM    1  N   UNK N   1      33.838   9.995  20.829  0.00  0.00    -0.192 NA
HETATM    2  C   UNK N   1      34.649   9.823  17.564  0.00  0.00     0.022 C 
HETATM    3  C   UNK N   1      35.271   9.712  18.714  0.00  0.00     0.094 C 
HETATM    4  C   UNK N   1      34.476   9.869  19.876  0.00  0.00     0.087 C 
ENDROOT
BRANCH   2   5
HETATM    5  C   UNK N   1      35.278  10.598  16.538  0.00  0.00    -0.035 A 
HETATM    6  C   UNK N   1      35.636  11.909  16.812  0.00  0.00     0.020 A 
HETATM    7  C   UNK N   1      36.229  12.695  15.846  0.00  0.00    -0.034 A 
HETATM    8  C   UNK N   1      36.531  12.157  14.578  0.00  0.00     0.045 A 
HETATM    9  C   UNK N   1      36.498  14.127  16.188  0.00  0.00     0.050 C 
HETATM   10  C   UNK N   1      36.148  10.745  14.334  0.00  0.00    -0.034 A 
HETATM   11  C   UNK N   1      35.512  10.048  15.321  0.00  0.00     0.020 A 
HETATM   12  C   UNK N   1      36.299   9.828  13.170  0.00  0.00     0.050 C 
BRANCH   8  13
HETATM   13  N   UNK N   1      37.205  13.066  13.683  0.00  0.00    -0.341 N 
HETATM   14  H   UNK N   1      38.142  13.291  13.885  0.00  0.00     0.167 HD
BRANCH  13  15
HETATM   15  C   UNK N   1      36.635  13.651  12.554  0.00  0.00     0.122 C 
HETATM   16  N   UNK N   1      36.199  14.931  12.602  0.00  0.00    -0.176 N 
HETATM   17  C   UNK N   1      36.099  15.614  11.438  0.00  0.00     0.684 C 
ATOM     18  HN  UNK N   1      35.952  15.368  13.489  1.00  0.00     0.186 HD
HETATM   19  N   UNK N   1      34.828  16.148  11.161  0.00  0.00    -0.192 N 
HETATM   20  N   UNK N   1      36.787  15.151  10.361  0.00  0.00    -0.202 N 
HETATM   21  H   UNK N   1      34.429  16.818  11.763  0.00  0.00     0.184 HD
HETATM   22  C   UNK N   1      37.029  13.831  10.260  0.00  0.00     0.110 C 
ATOM     23  HN  UNK N   1      37.115  15.794   9.640  1.00  0.00     0.183 HD
HETATM   24  C   UNK N   1      36.799  13.038  11.350  0.00  0.00     0.066 C 
BRANCH  19  25
HETATM   25  C   UNK N   1      34.121  15.708   9.996  0.00  0.00     0.049 C 
HETATM   26  C   UNK N   1      33.396  14.491   9.963  0.00  0.00     0.031 C 
HETATM   27  C   UNK N   1      32.931  13.958   8.792  0.00  0.00     0.025 C 
HETATM   28  C   UNK N   1      33.125  14.673   7.627  0.00  0.00     0.044 C 
HETATM   29  C   UNK N   1      33.696  15.946   7.648  0.00  0.00     0.025 C 
HETATM   30  C   UNK N   1      32.868  13.999   6.415  0.00  0.00     0.099 C 
HETATM   31  C   UNK N   1      34.204  16.457   8.840  0.00  0.00     0.031 C 
HETATM   32  N   UNK N   1      32.618  13.339   5.504  0.00  0.00    -0.191 NA
ENDBRANCH  19  25
ENDBRANCH  13  15
ENDBRANCH   8  13
ENDBRANCH   2   5
TORSDOF 4
ENDMDL
MODEL 7
REMARK VINA RESULT:      -7.2      2.432      3.201
REMARK  4 active torsions:
REMARK  status: ('A' for Active; 'I' for Inactive)
REMARK    1  A    between atoms: N_1  and  C_9 
REMARK    2  A    between atoms: N_1  and  C_17 
REMARK       I    between atoms: N_4  and  C_20 
REMARK    3  A    between atoms: N_4  and  C_21 
REMARK    4  A    between atoms: C_12  and  C_18 
ROOT
HETATM    1  N   UNK N   1      23.674  12.314  14.284  0.00  0.00    -0.192 NA
HETATM    2  C   UNK N   1      22.003  12.318  11.359  0.00  0.00     0.022 C 
HETATM    3  C   UNK N   1      22.976  11.629  11.908  0.00  0.00     0.094 C 
HETATM    4  C   UNK N   1      23.356  12.012  13.217  0.00  0.00     0.087 C 
ENDROOT
BRANCH   2   5
HETATM    5  C   UNK N   1      22.160  12.724   9.995  0.00  0.00    -0.035 A 
HETATM    6  C   UNK N   1      21.633  13.942   9.592  0.00  0.00     0.020 A 
HETATM    7  C   UNK N   1      21.748  14.362   8.283  0.00  0.00    -0.034 A 
HETATM    8  C   UNK N   1      22.454  13.580   7.345  0.00  0.00     0.045 A 
HETATM    9  C   UNK N   1      21.071  15.641   7.905  0.00  0.00     0.050 C 
HETATM   10  C   UNK N   1      23.017  12.294   7.823  0.00  0.00    -0.034 A 
HETATM   11  C   UNK N   1      22.812  11.920   9.120  0.00  0.00     0.020 A 
HETATM   12  C   UNK N   1      23.815  11.219   7.172  0.00  0.00     0.050 C 
BRANCH   8  13
HETATM   13  N   UNK N   1      22.551  14.162   6.028  0.00  0.00    -0.341 N 
HETATM   14  H   UNK N   1      21.717  14.263   5.514  0.00  0.00     0.167 HD
BRANCH  13  15
HETATM   15  C   UNK N   1      23.731  14.593   5.426  0.00  0.00     0.122 C 
HETATM   16  N   UNK N   1      24.043  14.179   4.176  0.00  0.00    -0.176 N 
HETATM   17  C   UNK N   1      24.894  14.938   3.447  0.00  0.00     0.684 C 
ATOM     18  HN  UNK N   1      23.649  13.320   3.794  1.00  0.00     0.186 HD
HETATM   19  N   UNK N   1      26.038  14.272   2.974  0.00  0.00    -0.192 N 
HETATM   20  N   UNK N   1      25.082  16.231   3.822  0.00  0.00    -0.202 N 
HETATM   21  H   UNK N   1      25.950  13.511   2.355  0.00  0.00     0.184 HD
HETATM   22  C   UNK N   1      24.950  16.560   5.119  0.00  0.00     0.110 C 
ATOM     23  HN  UNK N   1      25.318  16.942   3.129  1.00  0.00     0.183 HD
HETATM   24  C   UNK N   1      24.394  15.648   5.973  0.00  0.00     0.066 C 
BRANCH  19  25
HETATM   25  C   UNK N   1      27.333  14.713   3.399  0.00  0.00     0.049 C 
HETATM   26  C   UNK N   1      27.877  14.362   4.660  0.00  0.00     0.031 C 
HETATM   27  C   UNK N   1      28.993  14.974   5.161  0.00  0.00     0.025 C 
HETATM   28  C   UNK N   1      29.632  15.912   4.375  0.00  0.00     0.044 C 
HETATM   29  C   UNK N   1      29.212  16.165   3.069  0.00  0.00     0.025 C 
HETATM   30  C   UNK N   1      30.617  16.705   5.001  0.00  0.00     0.099 C 
HETATM   31  C   UNK N   1      28.049  15.567   2.587  0.00  0.00     0.031 C 
HETATM   32  N   UNK N   1      31.397  17.276   5.628  0.00  0.00    -0.191 NA
ENDBRANCH  19  25
ENDBRANCH  13  15
ENDBRANCH   8  13
ENDBRANCH   2   5
TORSDOF 4
ENDMDL
MODEL 8
REMARK VINA RESULT:      -7.2     12.593     15.024
REMARK  4 active torsions:
REMARK  status: ('A' for Active; 'I' for Inactive)
REMARK    1  A    between atoms: N_1  and  C_9 
REMARK    2  A    between atoms: N_1  and  C_17 
REMARK       I    between atoms: N_4  and  C_20 
REMARK    3  A    between atoms: N_4  and  C_21 
REMARK    4  A    between atoms: C_12  and  C_18 
ROOT
HETATM    1  N   UNK N   1      37.235   4.896  18.417  0.00  0.00    -0.192 NA
HETATM    2  C   UNK N   1      35.833   7.852  17.612  0.00  0.00     0.022 C 
HETATM    3  C   UNK N   1      36.090   6.715  17.008  0.00  0.00     0.094 C 
HETATM    4  C   UNK N   1      36.722   5.717  17.790  0.00  0.00     0.087 C 
ENDROOT
BRANCH   2   5
HETATM    5  C   UNK N   1      36.130   9.063  16.908  0.00  0.00    -0.035 A 
HETATM    6  C   UNK N   1      35.563  10.250  17.347  0.00  0.00     0.020 A 
HETATM    7  C   UNK N   1      35.809  11.436  16.688  0.00  0.00    -0.034 A 
HETATM    8  C   UNK N   1      36.689  11.467  15.586  0.00  0.00     0.045 A 
HETATM    9  C   UNK N   1      35.086  12.656  17.163  0.00  0.00     0.050 C 
HETATM   10  C   UNK N   1      37.288  10.178  15.162  0.00  0.00    -0.034 A 
HETATM   11  C   UNK N   1      36.950   9.036  15.830  0.00  0.00     0.020 A 
HETATM   12  C   UNK N   1      38.246   9.797  14.088  0.00  0.00     0.050 C 
BRANCH   8  13
HETATM   13  N   UNK N   1      36.907  12.779  15.025  0.00  0.00    -0.341 N 
HETATM   14  H   UNK N   1      37.333  13.453  15.603  0.00  0.00     0.167 HD
BRANCH  13  15
HETATM   15  C   UNK N   1      36.562  13.167  13.733  0.00  0.00     0.122 C 
HETATM   16  N   UNK N   1      37.497  13.169  12.754  0.00  0.00    -0.176 N 
HETATM   17  C   UNK N   1      37.078  13.082  11.471  0.00  0.00     0.684 C 
ATOM     18  HN  UNK N   1      38.490  13.234  12.978  1.00  0.00     0.186 HD
HETATM   19  N   UNK N   1      37.503  14.124  10.628  0.00  0.00    -0.192 N 
HETATM   20  N   UNK N   1      35.823  12.615  11.237  0.00  0.00    -0.202 N 
HETATM   21  H   UNK N   1      38.463  14.268  10.462  0.00  0.00     0.184 HD
HETATM   22  C   UNK N   1      34.869  12.811  12.166  0.00  0.00     0.110 C 
ATOM     23  HN  UNK N   1      35.607  12.122  10.370  1.00  0.00     0.183 HD
HETATM   24  C   UNK N   1      35.244  13.247  13.406  0.00  0.00     0.066 C 
BRANCH  19  25
HETATM   25  C   UNK N   1      36.526  14.973  10.013  0.00  0.00     0.049 C 
HETATM   26  C   UNK N   1      35.962  16.088  10.680  0.00  0.00     0.031 C 
HETATM   27  C   UNK N   1      34.866  16.744  10.192  0.00  0.00     0.025 C 
HETATM   28  C   UNK N   1      34.347  16.336   8.980  0.00  0.00     0.044 C 
HETATM   29  C   UNK N   1      34.974  15.345   8.224  0.00  0.00     0.025 C 
HETATM   30  C   UNK N   1      33.084  16.851   8.621  0.00  0.00     0.099 C 
HETATM   31  C   UNK N   1      36.062  14.655   8.753  0.00  0.00     0.031 C 
HETATM   32  N   UNK N   1      32.058  17.345   8.447  0.00  0.00    -0.191 NA
ENDBRANCH  19  25
ENDBRANCH  13  15
ENDBRANCH   8  13
ENDBRANCH   2   5
TORSDOF 4
ENDMDL
MODEL 9
REMARK VINA RESULT:      -7.2     12.199     14.469
REMARK  4 active torsions:
REMARK  status: ('A' for Active; 'I' for Inactive)
REMARK    1  A    between atoms: N_1  and  C_9 
REMARK    2  A    between atoms: N_1  and  C_17 
REMARK       I    between atoms: N_4  and  C_20 
REMARK    3  A    between atoms: N_4  and  C_21 
REMARK    4  A    between atoms: C_12  and  C_18 
ROOT
HETATM    1  N   UNK N   1      36.901   6.059  18.851  0.00  0.00    -0.192 NA
HETATM    2  C   UNK N   1      35.591   8.965  17.761  0.00  0.00     0.022 C 
HETATM    3  C   UNK N   1      35.814   7.768  17.269  0.00  0.00     0.094 C 
HETATM    4  C   UNK N   1      36.414   6.831  18.146  0.00  0.00     0.087 C 
ENDROOT
BRANCH   2   5
HETATM    5  C   UNK N   1      35.926  10.093  16.946  0.00  0.00    -0.035 A 
HETATM    6  C   UNK N   1      36.874   9.940  15.946  0.00  0.00     0.020 A 
HETATM    7  C   UNK N   1      37.239  11.005  15.150  0.00  0.00    -0.034 A 
HETATM    8  C   UNK N   1      36.609  12.258  15.307  0.00  0.00     0.045 A 
HETATM    9  C   UNK N   1      38.336  10.785  14.157  0.00  0.00     0.050 C 
HETATM   10  C   UNK N   1      35.588  12.372  16.376  0.00  0.00    -0.034 A 
HETATM   11  C   UNK N   1      35.323  11.287  17.161  0.00  0.00     0.020 A 
HETATM   12  C   UNK N   1      34.712  13.482  16.842  0.00  0.00     0.050 C 
BRANCH   8  13
HETATM   13  N   UNK N   1      37.039  13.269  14.372  0.00  0.00    -0.341 N 
HETATM   14  H   UNK N   1      37.756  13.880  14.661  0.00  0.00     0.167 HD
BRANCH  13  15
HETATM   15  C   UNK N   1      36.522  13.451  13.091  0.00  0.00     0.122 C 
HETATM   16  N   UNK N   1      37.354  13.693  12.052  0.00  0.00    -0.176 N 
HETATM   17  C   UNK N   1      36.919  13.402  10.805  0.00  0.00     0.684 C 
ATOM     18  HN  UNK N   1      38.283  14.083  12.205  1.00  0.00     0.186 HD
HETATM   19  N   UNK N   1      36.942  14.474   9.894  0.00  0.00    -0.192 N 
HETATM   20  N   UNK N   1      35.870  12.547  10.675  0.00  0.00    -0.202 N 
HETATM   21  H   UNK N   1      37.795  14.906   9.658  0.00  0.00     0.184 HD
HETATM   22  C   UNK N   1      34.954  12.484  11.658  0.00  0.00     0.110 C 
ATOM     23  HN  UNK N   1      35.780  11.961   9.845  1.00  0.00     0.183 HD
HETATM   24  C   UNK N   1      35.232  13.088  12.852  0.00  0.00     0.066 C 
BRANCH  19  25
HETATM   25  C   UNK N   1      35.714  14.930   9.315  0.00  0.00     0.049 C 
HETATM   26  C   UNK N   1      35.165  14.348   8.145  0.00  0.00     0.031 C 
HETATM   27  C   UNK N   1      34.137  14.933   7.461  0.00  0.00     0.025 C 
HETATM   28  C   UNK N   1      33.586  16.090   7.975  0.00  0.00     0.044 C 
HETATM   29  C   UNK N   1      33.999  16.601   9.205  0.00  0.00     0.025 C 
HETATM   30  C   UNK N   1      32.709  16.808   7.134  0.00  0.00     0.099 C 
HETATM   31  C   UNK N   1      35.077  16.020   9.869  0.00  0.00     0.031 C 
HETATM   32  N   UNK N   1      32.011  17.290   6.354  0.00  0.00    -0.191 NA
ENDBRANCH  19  25
ENDBRANCH  13  15
ENDBRANCH   8  13
ENDBRANCH   2   5
TORSDOF 4
ENDMDL
