MODEL 1
REMARK VINA RESULT:      -4.8      0.000      0.000
REMARK  1 active torsions:
REMARK  status: ('A' for Active; 'I' for Inactive)
REMARK    1  A    between atoms: C_5  and  O_8 
ROOT
HETATM    1  N   UNK N   1      33.155  15.804   8.209  0.00  0.00    -0.362 N 
HETATM    2  C   UNK N   1      33.020  16.752   7.240  0.00  0.00     0.094 A 
HETATM    3  C   UNK N   1      33.742  17.942   7.308  0.00  0.00     0.075 A 
HETATM    4  C   UNK N   1      34.000  15.994   9.272  0.00  0.00     0.044 A 
HETATM    5  C   UNK N   1      34.742  17.184   9.371  0.00  0.00     0.138 A 
HETATM    6  C   UNK N   1      34.606  18.159   8.377  0.00  0.00     0.208 A 
HETATM    7  O   UNK N   1      35.240  19.198   8.442  0.00  0.00    -0.285 OA
HETATM    8  C   UNK N   1      34.146  14.950  10.337  0.00  0.00     0.071 C 
HETATM    9  C   UNK N   1      32.370  14.584   8.074  0.00  0.00     0.155 C 
ENDROOT
BRANCH   5  10
HETATM   10  O   UNK N   1      35.576  17.387  10.408  0.00  0.00    -0.355 OA
HETATM   11  H   UNK N   1      36.229  16.748  10.616  0.00  0.00     0.218 HD
ENDBRANCH   5  10
TORSDOF 1
ENDMDL
MODEL 2
REMARK VINA RESULT:      -4.7     11.011     12.442
REMARK  1 active torsions:
REMARK  status: ('A' for Active; 'I' for Inactive)
REMARK    1  A    between atoms: C_5  and  O_8 
ROOT
HETATM    1  N   UNK N   1      22.158  12.672   9.675  0.00  0.00    -0.362 N 
HETATM    2  C   UNK N   1      21.182  12.408  10.588  0.00  0.00     0.094 A 
HETATM    3  C   UNK N   1      21.511  12.058  11.897  0.00  0.00     0.075 A 
HETATM    4  C   UNK N   1      23.484  12.599  10.017  0.00  0.00     0.044 A 
HETATM    5  C   UNK N   1      23.850  12.248  11.328  0.00  0.00     0.138 A 
HETATM    6  C   UNK N   1      22.850  11.978  12.268  0.00  0.00     0.208 A 
HETATM    7  O   UNK N   1      23.143  11.672  13.410  0.00  0.00    -0.285 OA
HETATM    8  C   UNK N   1      24.557  12.889   9.011  0.00  0.00     0.071 C 
HETATM    9  C   UNK N   1      21.743  13.032   8.327  0.00  0.00     0.155 C 
ENDROOT
BRANCH   5  10
HETATM   10  O   UNK N   1      25.147  12.172  11.681  0.00  0.00    -0.355 OA
HETATM   11  H   UNK N   1      25.744  12.844  11.417  0.00  0.00     0.218 HD
ENDBRANCH   5  10
TORSDOF 1
ENDMDL
MODEL 3
REMARK VINA RESULT:      -4.6     12.961     13.860
REMARK  1 active torsions:
REMARK  status: ('A' for Active; 'I' for Inactive)
REMARK    1  A    between atoms: C_5  and  O_8 
ROOT
HETATM    1  N   UNK N   1      30.655  21.225  -5.135  0.00  0.00    -0.362 N 
HETATM    2  C   UNK N   1      29.701  22.149  -4.833  0.00  0.00     0.094 A 
HETATM    3  C   UNK N   1      29.701  22.789  -3.595  0.00  0.00     0.075 A 
HETATM    4  C   UNK N   1      31.636  20.901  -4.234  0.00  0.00     0.044 A 
HETATM    5  C   UNK N   1      31.665  21.528  -2.976  0.00  0.00     0.138 A 
HETATM    6  C   UNK N   1      30.687  22.477  -2.663  0.00  0.00     0.208 A 
HETATM    7  O   UNK N   1      30.692  23.034  -1.579  0.00  0.00    -0.285 OA
HETATM    8  C   UNK N   1      32.685  19.883  -4.568  0.00  0.00     0.071 C 
HETATM    9  C   UNK N   1      30.594  20.595  -6.447  0.00  0.00     0.155 C 
ENDROOT
BRANCH   5  10
HETATM   10  O   UNK N   1      32.621  21.221  -2.079  0.00  0.00    -0.355 OA
HETATM   11  H   UNK N   1      33.462  21.631  -2.133  0.00  0.00     0.218 HD
ENDBRANCH   5  10
TORSDOF 1
ENDMDL
MODEL 4
REMARK VINA RESULT:      -4.5     14.456     15.257
REMARK  1 active torsions:
REMARK  status: ('A' for Active; 'I' for Inactive)
REMARK    1  A    between atoms: C_5  and  O_8 
ROOT
HETATM    1  N   UNK N   1      20.391  17.460   2.890  0.00  0.00    -0.362 N 
HETATM    2  C   UNK N   1      20.770  18.266   3.919  0.00  0.00     0.094 A 
HETATM    3  C   UNK N   1      21.105  19.600   3.690  0.00  0.00     0.075 A 
HETATM    4  C   UNK N   1      20.329  17.936   1.605  0.00  0.00     0.044 A 
HETATM    5  C   UNK N   1      20.659  19.277   1.339  0.00  0.00     0.138 A 
HETATM    6  C   UNK N   1      21.049  20.107   2.395  0.00  0.00     0.208 A 
HETATM    7  O   UNK N   1      21.340  21.272   2.189  0.00  0.00    -0.285 OA
HETATM    8  C   UNK N   1      19.911  17.047   0.472  0.00  0.00     0.071 C 
HETATM    9  C   UNK N   1      20.056  16.078   3.201  0.00  0.00     0.155 C 
ENDROOT
BRANCH   5  10
HETATM   10  O   UNK N   1      20.603  19.760   0.084  0.00  0.00    -0.355 OA
HETATM   11  H   UNK N   1      20.258  19.230  -0.607  0.00  0.00     0.218 HD
ENDBRANCH   5  10
TORSDOF 1
ENDMDL
MODEL 5
REMARK VINA RESULT:      -4.4     13.104     14.240
REMARK  1 active torsions:
REMARK  status: ('A' for Active; 'I' for Inactive)
REMARK    1  A    between atoms: C_5  and  O_8 
ROOT
HETATM    1  N   UNK N   1      29.772  22.490  -4.874  0.00  0.00    -0.362 N 
HETATM    2  C   UNK N   1      30.828  21.698  -5.212  0.00  0.00     0.094 A 
HETATM    3  C   UNK N   1      31.782  21.344  -4.260  0.00  0.00     0.075 A 
HETATM    4  C   UNK N   1      29.620  22.956  -3.594  0.00  0.00     0.044 A 
HETATM    5  C   UNK N   1      30.564  22.617  -2.609  0.00  0.00     0.138 A 
HETATM    6  C   UNK N   1      31.649  21.805  -2.954  0.00  0.00     0.208 A 
HETATM    7  O   UNK N   1      32.480  21.498  -2.117  0.00  0.00    -0.285 OA
HETATM    8  C   UNK N   1      28.457  23.827  -3.223  0.00  0.00     0.071 C 
HETATM    9  C   UNK N   1      28.813  22.821  -5.919  0.00  0.00     0.155 C 
ENDROOT
BRANCH   5  10
HETATM   10  O   UNK N   1      30.430  23.067  -1.347  0.00  0.00    -0.355 OA
HETATM   11  H   UNK N   1      30.054  22.514  -0.691  0.00  0.00     0.218 HD
ENDBRANCH   5  10
TORSDOF 1
ENDMDL
MODEL 6
REMARK VINA RESULT:      -4.3      0.871      2.623
REMARK  1 active torsions:
REMARK  status: ('A' for Active; 'I' for Inactive)
REMARK    1  A    between atoms: C_5  and  O_8 
ROOT
HETATM    1  N   UNK N   1      33.252  15.684   7.602  0.00  0.00    -0.362 N 
HETATM    2  C   UNK N   1      33.533  15.111   8.804  0.00  0.00     0.094 A 
HETATM    3  C   UNK N   1      34.319  15.778   9.742  0.00  0.00     0.075 A 
HETATM    4  C   UNK N   1      33.732  16.928   7.282  0.00  0.00     0.044 A 
HETATM    5  C   UNK N   1      34.528  17.629   8.205  0.00  0.00     0.138 A 
HETATM    6  C   UNK N   1      34.818  17.042   9.441  0.00  0.00     0.208 A 
HETATM    7  O   UNK N   1      35.506  17.631  10.257  0.00  0.00    -0.285 OA
HETATM    8  C   UNK N   1      33.422  17.559   5.958  0.00  0.00     0.071 C 
HETATM    9  C   UNK N   1      32.425  14.930   6.670  0.00  0.00     0.155 C 
ENDROOT
BRANCH   5  10
HETATM   10  O   UNK N   1      35.007  18.851   7.908  0.00  0.00    -0.355 OA
HETATM   11  H   UNK N   1      35.927  18.975   7.778  0.00  0.00     0.218 HD
ENDBRANCH   5  10
TORSDOF 1
ENDMDL
MODEL 7
REMARK VINA RESULT:      -4.3     11.713     13.135
REMARK  1 active torsions:
REMARK  status: ('A' for Active; 'I' for Inactive)
REMARK    1  A    between atoms: C_5  and  O_8 
ROOT
HETATM    1  N   UNK N   1      23.507  12.995   9.632  0.00  0.00    -0.362 N 
HETATM    2  C   UNK N   1      23.623  12.239  10.760  0.00  0.00     0.094 A 
HETATM    3  C   UNK N   1      22.499  11.922  11.520  0.00  0.00     0.075 A 
HETATM    4  C   UNK N   1      22.287  13.462   9.217  0.00  0.00     0.044 A 
HETATM    5  C   UNK N   1      21.132  13.160   9.960  0.00  0.00     0.138 A 
HETATM    6  C   UNK N   1      21.249  12.385  11.118  0.00  0.00     0.208 A 
HETATM    7  O   UNK N   1      20.262  12.111  11.779  0.00  0.00    -0.285 OA
HETATM    8  C   UNK N   1      22.160  14.293   7.975  0.00  0.00     0.071 C 
HETATM    9  C   UNK N   1      24.723  13.288   8.887  0.00  0.00     0.155 C 
ENDROOT
BRANCH   5  10
HETATM   10  O   UNK N   1      19.926  13.611   9.567  0.00  0.00    -0.355 OA
HETATM   11  H   UNK N   1      19.147  13.269   9.959  0.00  0.00     0.218 HD
ENDBRANCH   5  10
TORSDOF 1
ENDMDL
MODEL 8
REMARK VINA RESULT:      -4.3     11.679     12.303
REMARK  1 active torsions:
REMARK  status: ('A' for Active; 'I' for Inactive)
REMARK    1  A    between atoms: C_5  and  O_8 
ROOT
HETATM    1  N   UNK N   1      43.445  20.145   2.675  0.00  0.00    -0.362 N 
HETATM    2  C   UNK N   1      42.411  21.011   2.482  0.00  0.00     0.094 A 
HETATM    3  C   UNK N   1      42.521  22.345   2.873  0.00  0.00     0.075 A 
HETATM    4  C   UNK N   1      44.615  20.560   3.257  0.00  0.00     0.044 A 
HETATM    5  C   UNK N   1      44.759  21.899   3.662  0.00  0.00     0.138 A 
HETATM    6  C   UNK N   1      43.699  22.790   3.465  0.00  0.00     0.208 A 
HETATM    7  O   UNK N   1      43.800  23.954   3.809  0.00  0.00    -0.285 OA
HETATM    8  C   UNK N   1      45.752  19.606   3.469  0.00  0.00     0.071 C 
HETATM    9  C   UNK N   1      43.262  18.767   2.243  0.00  0.00     0.155 C 
ENDROOT
BRANCH   5  10
HETATM   10  O   UNK N   1      45.901  22.323   4.235  0.00  0.00    -0.355 OA
HETATM   11  H   UNK N   1      46.664  21.779   4.216  0.00  0.00     0.218 HD
ENDBRANCH   5  10
TORSDOF 1
ENDMDL
MODEL 9
REMARK VINA RESULT:      -4.2     10.866     11.958
REMARK  1 active torsions:
REMARK  status: ('A' for Active; 'I' for Inactive)
REMARK    1  A    between atoms: C_5  and  O_8 
ROOT
HETATM    1  N   UNK N   1      42.647  20.530   2.918  0.00  0.00    -0.362 N 
HETATM    2  C   UNK N   1      43.887  20.671   3.463  0.00  0.00     0.094 A 
HETATM    3  C   UNK N   1      44.467  21.932   3.589  0.00  0.00     0.075 A 
HETATM    4  C   UNK N   1      41.939  21.620   2.480  0.00  0.00     0.044 A 
HETATM    5  C   UNK N   1      42.495  22.906   2.592  0.00  0.00     0.138 A 
HETATM    6  C   UNK N   1      43.769  23.054   3.151  0.00  0.00     0.208 A 
HETATM    7  O   UNK N   1      44.271  24.159   3.258  0.00  0.00    -0.285 OA
HETATM    8  C   UNK N   1      40.574  21.464   1.880  0.00  0.00     0.071 C 
HETATM    9  C   UNK N   1      42.101  19.184   2.818  0.00  0.00     0.155 C 
ENDROOT
BRANCH   5  10
HETATM   10  O   UNK N   1      41.814  23.987   2.167  0.00  0.00    -0.355 OA
HETATM   11  H   UNK N   1      41.275  24.466   2.765  0.00  0.00     0.218 HD
ENDBRANCH   5  10
TORSDOF 1
ENDMDL
