REMARK  8 active torsions:
REMARK  status: ('A' for Active; 'I' for Inactive)
REMARK    1  A    between atoms: C_2  and  C_17 
REMARK    2  A    between atoms: C_10  and  N_14 
REMARK    3  A    between atoms: C_11  and  C_18 
REMARK       I    between atoms: C_15  and  N_14 
REMARK    4  A    between atoms: C_17  and  C_15 
REMARK    5  A    between atoms: N_21  and  N_16 
REMARK    6  A    between atoms: N_19  and  N_16 
REMARK    7  A    between atoms: C_17  and  N_21 
REMARK    8  A    between atoms: O_24  and  C_18 
ROOT
HETATM    1  N   UNK N   1       2.611   1.170   1.145  0.00  0.00    -0.343 N 
HETATM    2  C   UNK N   1       2.134   1.059  -0.132  0.00  0.00     0.248 C 
HETATM    3  O   UNK N   1       2.732   0.443  -1.002  0.00  0.00    -0.271 OA
HETATM    4  H   UNK N   1       2.019   1.588   1.812  0.00  0.00     0.163 HD
ENDROOT
BRANCH   1   5
HETATM    5  C   UNK N   1       3.910   0.727   1.597  0.00  0.00     0.210 A 
HETATM    6  C   UNK N   1       5.042   1.115   0.495  0.00  0.00     0.183 A 
HETATM    7  N   UNK N   1       5.068  -0.259   0.183  0.00  0.00    -0.318 N 
HETATM    8  S   UNK N   1       6.763   1.400   0.959  0.00  0.00    -0.129 SA
HETATM    9  C   UNK N   1       4.196  -0.623   1.071  0.00  0.00     0.247 A 
HETATM   10  C   UNK N   1       6.121  -0.845  -0.561  0.00  0.00     0.204 C 
HETATM   11  O   UNK N   1       3.859  -1.747   1.405  0.00  0.00    -0.271 OA
HETATM   12  C   UNK N   1       7.332   0.064  -0.216  0.00  0.00     0.033 C 
HETATM   13  C   UNK N   1       8.479  -0.659   0.462  0.00  0.00     0.029 C 
HETATM   14  C   UNK N   1       7.810   0.711  -1.500  0.00  0.00     0.029 C 
BRANCH  10  15
HETATM   15  C   UNK N   1       6.212  -2.360  -0.491  0.00  0.00     0.165 C 
HETATM   16  O   UNK N   1       5.192  -3.031  -0.462  0.00  0.00    -0.648 OA
BRANCH  15  17
HETATM   17  O   UNK N   1       7.393  -2.982  -0.659  0.00  0.00    -0.775 OA
HETATM   18  H   UNK N   1       7.429  -3.911  -0.775  0.00  0.00     0.167 HD
ENDBRANCH  15  17
ENDBRANCH  10  15
ENDBRANCH   1   5
BRANCH   2  19
HETATM   19  C   UNK N   1       0.860   1.709  -0.476  0.00  0.00     0.239 C 
BRANCH  19  20
HETATM   20  C   UNK N   1      -0.307   0.791  -0.204  0.00  0.00    -0.024 A 
HETATM   21  C   UNK N   1      -1.606   1.235  -0.453  0.00  0.00     0.010 A 
HETATM   22  C   UNK N   1      -2.680   0.346  -0.365  0.00  0.00     0.001 A 
HETATM   23  C   UNK N   1      -2.460  -0.999  -0.053  0.00  0.00     0.000 A 
HETATM   24  C   UNK N   1      -1.167  -1.453   0.207  0.00  0.00     0.001 A 
HETATM   25  C   UNK N   1      -0.097  -0.565   0.132  0.00  0.00     0.010 A 
ENDBRANCH  19  20
BRANCH  19  26
HETATM   26  N   UNK N   1       0.817   2.984   0.202  0.00  0.00    -0.234 N 
ATOM     27  HN  UNK N   1       1.441   3.150   0.992  1.00  0.00     0.198 HD
BRANCH  26  28
HETATM   28  N   UNK N   1       0.053   3.862  -0.149  0.00  0.00    -0.247 NA
BRANCH  28  29
HETATM   29  N   UNK N   1      -0.733   4.724  -0.495  0.00  0.00    -0.261 N 
HETATM   30  H   UNK N   1      -0.447   5.623  -0.775  0.00  0.00     0.193 HD
ATOM     31  HN  UNK N   1      -1.729   4.506  -0.495  1.00  0.00     0.193 HD
ENDBRANCH  28  29
ENDBRANCH  26  28
ENDBRANCH  19  26
ENDBRANCH   2  19
TORSDOF 8
