REMARK  10 active torsions:
REMARK  status: ('A' for Active; 'I' for Inactive)
REMARK    1  A    between atoms: C_2  and  O_22 
REMARK    2  A    between atoms: C_8  and  O_19 
REMARK    3  A    between atoms: C_17  and  C_21 
REMARK    4  A    between atoms: C_21  and  C_24 
REMARK    5  A    between atoms: C_24  and  C_25 
REMARK    6  A    between atoms: C_25  and  C_26 
REMARK       I    between atoms: C_26  and  N_27 
REMARK    7  A    between atoms: N_27  and  C_28 
REMARK    8  A    between atoms: C_28  and  C_29 
REMARK    9  A    between atoms: C_29  and  S_30 
REMARK   10  A    between atoms: S_30  and  O_32 
ROOT
HETATM    1  C   UNK N   1      -6.446  -1.866  -1.442  0.00  0.00     0.032 C 
HETATM    2  C   UNK N   1      -6.807  -3.251  -0.901  0.00  0.00     0.118 C 
HETATM    3  C   UNK N   1      -5.588  -4.142  -0.618  0.00  0.00     0.037 C 
HETATM    4  C   UNK N   1      -4.395  -3.475   0.103  0.00  0.00    -0.001 C 
HETATM    5  C   UNK N   1      -4.627  -1.962   0.402  0.00  0.00    -0.036 C 
HETATM    6  C   UNK N   1      -5.159  -1.271  -0.868  0.00  0.00     0.012 C 
HETATM    7  C   UNK N   1      -3.167  -3.705  -0.796  0.00  0.00     0.037 C 
HETATM    8  C   UNK N   1      -1.898  -3.043  -0.249  0.00  0.00     0.123 C 
HETATM    9  C   UNK N   1      -2.150  -1.537  -0.121  0.00  0.00     0.024 C 
HETATM   10  C   UNK N   1      -3.328  -1.254   0.851  0.00  0.00     0.001 C 
HETATM   11  C   UNK N   1      -0.948  -0.733   0.405  0.00  0.00     0.001 C 
HETATM   12  C   UNK N   1      -1.223   0.760   0.249  0.00  0.00    -0.036 C 
HETATM   13  C   UNK N   1      -2.388   1.157   1.151  0.00  0.00     0.010 C 
HETATM   14  C   UNK N   1      -3.614   0.273   0.943  0.00  0.00     0.007 C 
HETATM   15  C   UNK N   1       0.411  -0.904  -0.243  0.00  0.00     0.006 C 
HETATM   16  C   UNK N   1       1.155   0.372   0.179  0.00  0.00     0.006 C 
HETATM   17  C   UNK N   1       0.089   1.320   0.747  0.00  0.00    -0.002 C 
HETATM   18  C   UNK N   1      -5.636  -1.800   1.545  0.00  0.00     0.016 C 
HETATM   19  C   UNK N   1      -1.461   1.157  -1.224  0.00  0.00     0.016 C 
ENDROOT
BRANCH  17  20
HETATM   20  C   UNK N   1       0.343   2.844   0.647  0.00  0.00    -0.013 C 
HETATM   21  C   UNK N   1      -0.738   3.661   1.333  0.00  0.00     0.010 C 
BRANCH  20  22
HETATM   22  C   UNK N   1       0.609   3.407  -0.755  0.00  0.00     0.014 C 
BRANCH  22  23
HETATM   23  C   UNK N   1       1.956   2.962  -1.328  0.00  0.00     0.103 C 
BRANCH  23  24
HETATM   24  C   UNK N   1       3.025   2.999  -0.282  0.00  0.00     0.217 C 
HETATM   25  N   UNK N   1       3.556   1.836   0.154  0.00  0.00    -0.360 N 
HETATM   26  H   UNK N   1       3.319   1.002  -0.313  0.00  0.00     0.162 HD
HETATM   27  O   UNK N   1       3.341   4.064   0.236  0.00  0.00    -0.274 OA
BRANCH  25  28
HETATM   28  C   UNK N   1       4.453   1.770   1.275  0.00  0.00     0.139 C 
BRANCH  28  29
HETATM   29  C   UNK N   1       5.754   1.092   0.876  0.00  0.00     0.175 C 
BRANCH  29  30
HETATM   30  S   UNK N   1       6.642   2.054  -0.392  0.00  0.00     0.095 S 
HETATM   31  O   UNK N   1       7.026   2.626   0.982  0.00  0.00    -0.601 OA
HETATM   32  O   UNK N   1       7.296   0.667  -0.295  0.00  0.00    -0.601 OA
BRANCH  30  33
HETATM   33  O   UNK N   1       8.304   2.438  -0.569  0.00  0.00    -0.296 OA
HETATM   34  H   UNK N   1       8.962   1.732  -0.668  0.00  0.00     0.232 HD
ENDBRANCH  30  33
ENDBRANCH  29  30
ENDBRANCH  28  29
ENDBRANCH  25  28
ENDBRANCH  23  24
ENDBRANCH  22  23
ENDBRANCH  20  22
ENDBRANCH  17  20
BRANCH   8  35
HETATM   35  O   UNK N   1      -1.520  -3.622   0.966  0.00  0.00    -0.395 OA
HETATM   36  H   UNK N   1      -1.737  -4.049   1.809  0.00  0.00     0.210 HD
ENDBRANCH   8  35
BRANCH   2  37
HETATM   37  O   UNK N   1      -7.626  -3.148   0.224  0.00  0.00    -0.396 OA
HETATM   38  H   UNK N   1      -7.849  -2.620   1.006  0.00  0.00     0.210 HD
ENDBRANCH   2  37
TORSDOF 10
