REMARK  9 active torsions:
REMARK  status: ('A' for Active; 'I' for Inactive)
REMARK    1  A    between atoms: C_13  and  C_9 
REMARK    2  A    between atoms: C_15  and  C_9 
REMARK    3  A    between atoms: C_19  and  C_11 
REMARK    4  A    between atoms: O_25  and  C_11 
REMARK    5  A    between atoms: C_23  and  C_14 
REMARK    6  A    between atoms: O_30  and  C_16 
REMARK    7  A    between atoms: C_17  and  O_30 
REMARK    8  A    between atoms: C_21  and  O_27 
REMARK    9  A    between atoms: C_22  and  O_28 
ROOT
HETATM    1  C   UNK N   1       5.016  13.417   0.795  0.00  0.00     0.177 C 
HETATM    2  C   UNK N   1       5.524  14.673   0.060  0.00  0.00     0.180 C 
HETATM    3  C   UNK N   1       4.606  15.835   0.446  0.00  0.00     0.181 C 
HETATM    4  C   UNK N   1       3.161  15.475   0.107  0.00  0.00     0.182 C 
HETATM    5  C   UNK N   1       2.769  14.111   0.741  0.00  0.00     0.186 C 
HETATM    6  O   UNK N   1       5.494  14.473  -1.326  0.00  0.00    -0.390 OA
HETATM    7  O   UNK N   1       3.701  13.097   0.371  0.00  0.00    -0.368 OA
HETATM    8  H   UNK N   1       5.365  14.422  -2.286  0.00  0.00     0.210 HD
ENDROOT
BRANCH   1   9
HETATM    9  C   UNK N   1       5.928  12.214   0.558  0.00  0.00     0.198 C 
BRANCH   9  10
HETATM   10  O   UNK N   1       5.889  11.799  -0.775  0.00  0.00    -0.398 OA
HETATM   11  H   UNK N   1       5.627  11.678  -1.701  0.00  0.00     0.209 HD
ENDBRANCH   9  10
ENDBRANCH   1   9
BRANCH   3  12
HETATM   12  O   UNK N   1       4.982  16.998  -0.233  0.00  0.00    -0.390 OA
HETATM   13  H   UNK N   1       5.811  17.175  -0.704  0.00  0.00     0.210 HD
ENDBRANCH   3  12
BRANCH   4  14
HETATM   14  O   UNK N   1       2.314  16.495   0.552  0.00  0.00    -0.390 OA
HETATM   15  H   UNK N   1       2.634  17.358   0.861  0.00  0.00     0.210 HD
ENDBRANCH   4  14
BRANCH   5  16
HETATM   16  C   UNK N   1       1.404  13.737   0.205  0.00  0.00    -0.026 A 
HETATM   17  C   UNK N   1       0.287  14.536   0.491  0.00  0.00     0.011 A 
HETATM   18  C   UNK N   1      -0.951  14.252  -0.085  0.00  0.00     0.025 A 
HETATM   19  C   UNK N   1      -1.091  13.167  -0.951  0.00  0.00     0.040 A 
HETATM   20  C   UNK N   1       0.021  12.346  -1.228  0.00  0.00    -0.032 A 
HETATM   21 Cl   UNK N   1      -2.664  12.865  -1.673  0.00  0.00    -0.084 Cl
HETATM   22  C   UNK N   1       1.257  12.637  -0.650  0.00  0.00     0.019 A 
BRANCH  20  23
HETATM   23  C   UNK N   1      -0.101  11.132  -2.093  0.00  0.00     0.078 C 
BRANCH  23  24
HETATM   24  C   UNK N   1      -0.723  10.059  -1.270  0.00  0.00    -0.054 A 
HETATM   25  C   UNK N   1      -2.028   9.640  -1.536  0.00  0.00     0.010 A 
HETATM   26  C   UNK N   1      -2.646   8.715  -0.693  0.00  0.00     0.037 A 
HETATM   27  C   UNK N   1      -1.959   8.217   0.423  0.00  0.00     0.069 A 
HETATM   28  C   UNK N   1      -0.651   8.629   0.681  0.00  0.00     0.037 A 
HETATM   29  C   UNK N   1      -0.032   9.547  -0.164  0.00  0.00     0.010 A 
BRANCH  27  30
HETATM   30  O   UNK N   1      -2.556   7.338   1.256  0.00  0.00    -0.344 OA
BRANCH  30  31
HETATM   31  C   UNK N   1      -2.786   6.009   0.949  0.00  0.00     0.154 C 
HETATM   32  C   UNK N   1      -4.239   5.729   0.775  0.00  0.00     0.061 C 
HETATM   33  C   UNK N   1      -4.226   4.532  -0.162  0.00  0.00     0.170 C 
HETATM   34  O   UNK N   1      -2.932   4.368  -0.701  0.00  0.00    -0.389 OA
HETATM   35  C   UNK N   1      -2.242   5.545  -0.382  0.00  0.00     0.200 C 
ENDBRANCH  30  31
ENDBRANCH  27  30
ENDBRANCH  23  24
ENDBRANCH  20  23
ENDBRANCH   5  16
TORSDOF 9
