REMARK  5 active torsions:
REMARK  status: ('A' for Active; 'I' for Inactive)
REMARK    1  A    between atoms: C_13  and  C_11 
REMARK    2  A    between atoms: C_14  and  C_12 
REMARK    3  A    between atoms: O_17  and  C_13 
REMARK    4  A    between atoms: O_18  and  C_14 
REMARK    5  A    between atoms: O_18  and  O_17 
ROOT
HETATM    1  O   UNK N   1       3.077   1.638   0.136  0.00  0.00    -0.144 OA
ENDROOT
BRANCH   1   2
HETATM    2  C   UNK N   1       1.807   1.162   0.122  0.00  0.00     0.323 C 
HETATM    3  O   UNK N   1       1.638  -0.046   0.071  0.00  0.00    -0.257 OA
BRANCH   2   4
HETATM    4  C   UNK N   1       0.622   2.063   0.150  0.00  0.00     0.042 A 
HETATM    5  C   UNK N   1      -0.665   1.525   0.005  0.00  0.00     0.017 A 
HETATM    6  C   UNK N   1      -1.786   2.361   0.016  0.00  0.00     0.001 A 
HETATM    7  C   UNK N   1      -1.630   3.739   0.182  0.00  0.00     0.000 A 
HETATM    8  C   UNK N   1      -0.354   4.283   0.338  0.00  0.00     0.001 A 
HETATM    9  C   UNK N   1       0.764   3.449   0.319  0.00  0.00     0.017 A 
ENDBRANCH   2   4
ENDBRANCH   1   2
BRANCH   1  10
HETATM   10  O   UNK N   1       3.345   2.878   0.071  0.00  0.00    -0.144 OA
BRANCH  10  11
HETATM   11  C   UNK N   1       4.613   3.360   0.034  0.00  0.00     0.323 C 
HETATM   12  O   UNK N   1       4.773   4.564  -0.081  0.00  0.00    -0.257 OA
BRANCH  11  13
HETATM   13  C   UNK N   1       5.805   2.473   0.120  0.00  0.00     0.042 A 
HETATM   14  C   UNK N   1       7.091   3.028   0.033  0.00  0.00     0.017 A 
HETATM   15  C   UNK N   1       8.221   2.209   0.108  0.00  0.00     0.001 A 
HETATM   16  C   UNK N   1       8.076   0.829   0.274  0.00  0.00     0.000 A 
HETATM   17  C   UNK N   1       6.802   0.267   0.365  0.00  0.00     0.001 A 
HETATM   18  C   UNK N   1       5.674   1.086   0.288  0.00  0.00     0.017 A 
ENDBRANCH  11  13
ENDBRANCH  10  11
ENDBRANCH   1  10
TORSDOF 5
