REMARK  4 active torsions:
REMARK  status: ('A' for Active; 'I' for Inactive)
REMARK    1  A    between atoms: N_2  and  C_5 
REMARK    2  A    between atoms: C_7  and  N_13 
REMARK    3  A    between atoms: C_12  and  C_16 
REMARK    4  A    between atoms: C_16  and  O_20 
ROOT
HETATM    1  C   UNK N   1      22.338 -16.517   0.042  0.00  0.00     0.072 A 
HETATM    2  N   UNK N   1      23.496 -17.293   0.071  0.00  0.00    -0.349 N 
HETATM    3  C   UNK N   1      20.997 -17.066   0.036  0.00  0.00     0.102 A 
HETATM    4  C   UNK N   1      22.475 -15.101  -0.000  0.00  0.00     0.047 A 
HETATM    5  C   UNK N   1      24.728 -16.688   0.046  0.00  0.00     0.114 A 
HETATM    6  C   UNK N   1      19.866 -16.188  -0.011  0.00  0.00     0.092 A 
HETATM    7  C   UNK N   1      23.740 -14.504  -0.027  0.00  0.00     0.202 A 
HETATM    8  C   UNK N   1      21.357 -14.280  -0.033  0.00  0.00     0.062 A 
HETATM    9  C   UNK N   1      24.885 -15.305  -0.007  0.00  0.00     0.104 A 
HETATM   10  C   UNK N   1      20.083 -14.797  -0.041  0.00  0.00     0.145 A 
HETATM   11  O   UNK N   1      23.839 -13.287  -0.073  0.00  0.00    -0.286 OA
HETATM   12  F   UNK N   1      19.052 -13.916  -0.053  0.00  0.00    -0.204 F 
HETATM   13  C   UNK N   1      20.753 -18.493  -0.032  0.00  0.00     0.104 C 
HETATM   14  N   UNK N   1      20.560 -19.632  -0.112  0.00  0.00    -0.191 NA
ENDROOT
BRANCH   6  15
HETATM   15  N   UNK N   1      18.513 -16.678  -0.044  0.00  0.00    -0.372 N 
HETATM   16  C   UNK N   1      17.423 -15.882  -0.566  0.00  0.00     0.157 C 
HETATM   17  C   UNK N   1      16.232 -16.453   0.150  0.00  0.00     0.163 C 
HETATM   18  O   UNK N   1      14.989 -16.206  -0.484  0.00  0.00    -0.381 OA
HETATM   19  C   UNK N   1      16.600 -17.927   0.226  0.00  0.00     0.125 C 
HETATM   20  C   UNK N   1      14.115 -17.330  -0.397  0.00  0.00     0.187 C 
HETATM   21  C   UNK N   1      14.294 -18.191   0.889  0.00  0.00     0.140 C 
HETATM   22  N   UNK N   1      15.694 -18.599   1.153  0.00  0.00    -0.411 N 
HETATM   23  H   UNK N   1      15.983 -19.256   1.878  0.00  0.00     0.153 HD
HETATM   24  C   UNK N   1      18.064 -17.887   0.619  0.00  0.00     0.150 C 
ENDBRANCH   6  15
BRANCH   2  25
HETATM   25  C   UNK N   1      23.448 -18.767   0.163  0.00  0.00     0.090 A 
HETATM   26  C   UNK N   1      24.804 -19.460   0.047  0.00  0.00     0.028 A 
HETATM   27  C   UNK N   1      23.879 -19.398  -1.149  0.00  0.00     0.028 A 
ENDBRANCH   2  25
BRANCH   9  28
HETATM   28  C   UNK N   1      26.257 -14.729  -0.037  0.00  0.00     0.181 C 
HETATM   29  O   UNK N   1      26.429 -13.521  -0.100  0.00  0.00    -0.646 OA
BRANCH  28  30
HETATM   30  O   UNK N   1      27.330 -15.542   0.004  0.00  0.00    -0.772 OA
HETATM   31  H   UNK N   1      27.213 -16.471   0.034  0.00  0.00     0.167 HD
ENDBRANCH  28  30
ENDBRANCH   9  28
TORSDOF 4
