REMARK  13 active torsions:
REMARK  status: ('A' for Active; 'I' for Inactive)
REMARK    1  A    between atoms: C_3  and  C_2 
REMARK    2  A    between atoms: C_4  and  C_3 
REMARK    3  A    between atoms: C_5  and  C_4 
REMARK    4  A    between atoms: C_6  and  C_5 
REMARK    5  A    between atoms: C_9  and  C_6 
REMARK    6  A    between atoms: C_22  and  C_9 
REMARK    7  A    between atoms: C_19  and  C_17 
REMARK    8  A    between atoms: N_26  and  C_17 
REMARK    9  A    between atoms: C_23  and  C_18 
REMARK   10  A    between atoms: C_23  and  C_19 
REMARK   11  A    between atoms: C_19  and  N_24 
REMARK   12  A    between atoms: C_22  and  O_27 
REMARK   13  A    between atoms: C_23  and  O_28 
ROOT
HETATM    1  C   UNK N   1      12.059   0.113   0.551  0.00  0.00     0.144 C 
ENDROOT
BRANCH   1   2
HETATM    2  C   UNK N   1      10.725  -0.506   0.079  0.00  0.00     0.300 C 
BRANCH   2   3
HETATM    3  N   UNK N   1      10.638  -1.937   0.347  0.00  0.00     0.090 N 
HETATM    4  C   UNK N   1       9.240  -2.252   0.591  0.00  0.00     0.272 C 
HETATM    5  C   UNK N   1       9.006  -3.666   0.095  0.00  0.00     0.032 C 
HETATM    6  C   UNK N   1      10.198  -3.979  -0.780  0.00  0.00     0.032 C 
HETATM    7  C   UNK N   1      10.947  -2.670  -0.870  0.00  0.00     0.272 C 
ENDBRANCH   2   3
ENDBRANCH   1   2
BRANCH   1   8
HETATM    8  C   UNK N   1      13.265  -0.345  -0.324  0.00  0.00     0.175 C 
BRANCH   8   9
HETATM    9  C   UNK N   1      14.543   0.436  -0.071  0.00  0.00    -0.025 A 
HETATM   10  C   UNK N   1      15.709  -0.189   0.407  0.00  0.00     0.013 A 
HETATM   11  C   UNK N   1      16.883   0.553   0.596  0.00  0.00     0.040 A 
HETATM   12  C   UNK N   1      16.899   1.922   0.307  0.00  0.00     0.102 A 
HETATM   13  C   UNK N   1      15.739   2.549  -0.162  0.00  0.00     0.102 A 
HETATM   14  O   UNK N   1      18.029   2.649   0.465  0.00  0.00    -0.346 OA
HETATM   15  C   UNK N   1      14.580   1.810  -0.363  0.00  0.00     0.049 A 
HETATM   16  O   UNK N   1      15.752   3.881  -0.405  0.00  0.00    -0.346 OA
HETATM   17  C   UNK N   1      16.793   4.685   0.026  0.00  0.00     0.202 C 
HETATM   18  C   UNK N   1      18.138   3.943  -0.027  0.00  0.00     0.202 C 
ENDBRANCH   8   9
BRANCH   8  19
HETATM   19  O   UNK N   1      13.497  -1.710  -0.122  0.00  0.00    -0.389 OA
HETATM   20  H   UNK N   1      12.759  -2.323   0.019  0.00  0.00     0.210 HD
ENDBRANCH   8  19
ENDBRANCH   1   8
BRANCH   1  21
HETATM   21  N   UNK N   1      12.030   1.572   0.641  0.00  0.00    -0.365 N 
HETATM   22  C   UNK N   1      11.260   2.450   0.083  0.00  0.00     0.111 C 
ATOM     23  HN  UNK N   1      12.745   1.969   1.251  1.00  0.00     0.161 HD
BRANCH  22  24
HETATM   24  C   UNK N   1      10.154   2.099  -0.859  0.00  0.00     0.083 C 
BRANCH  24  25
HETATM   25  C   UNK N   1       8.868   2.758  -0.399  0.00  0.00     0.008 C 
BRANCH  25  26
HETATM   26  C   UNK N   1       7.969   1.753   0.282  0.00  0.00     0.000 C 
BRANCH  26  27
HETATM   27  C   UNK N   1       6.624   1.804  -0.404  0.00  0.00     0.000 C 
BRANCH  27  28
HETATM   28  C   UNK N   1       5.650   0.875   0.281  0.00  0.00    -0.000 C 
BRANCH  28  29
HETATM   29  C   UNK N   1       4.281   1.083  -0.328  0.00  0.00    -0.005 C 
HETATM   30  C   UNK N   1       3.287   0.151   0.328  0.00  0.00     0.005 C 
ENDBRANCH  28  29
ENDBRANCH  27  28
ENDBRANCH  26  27
ENDBRANCH  25  26
ENDBRANCH  24  25
ENDBRANCH  22  24
BRANCH  22  31
HETATM   31  O   UNK N   1      11.496   3.754   0.326  0.00  0.00    -0.350 OA
HETATM   32  H   UNK N   1      12.364   4.065   0.495  0.00  0.00     0.219 HD
ENDBRANCH  22  31
ENDBRANCH   1  21
TORSDOF 13
