REMARK  20 active torsions:
REMARK  status: ('A' for Active; 'I' for Inactive)
REMARK    1  A    between atoms: C_1  and  C_2 
REMARK    2  A    between atoms: C_1  and  C_3 
REMARK    3  A    between atoms: C_1  and  N_4 
REMARK    4  A    between atoms: C_2  and  C_43 
REMARK    5  A    between atoms: C_3  and  C_5 
REMARK       I    between atoms: N_4  and  C_6 
REMARK    6  A    between atoms: C_5  and  C_7 
REMARK    7  A    between atoms: C_6  and  C_8 
REMARK    8  A    between atoms: C_7  and  C_10 
REMARK    9  A    between atoms: C_7  and  N_11 
REMARK   10  A    between atoms: C_8  and  N_12 
REMARK   11  A    between atoms: C_8  and  C_49 
REMARK   12  A    between atoms: C_10  and  C_13 
REMARK       I    between atoms: N_11  and  C_14 
REMARK       I    between atoms: N_12  and  C_15 
REMARK   13  A    between atoms: C_14  and  O_18 
REMARK       I    between atoms: C_15  and  N_20 
REMARK   14  A    between atoms: O_18  and  C_24 
REMARK   15  A    between atoms: N_20  and  C_25 
REMARK   16  A    between atoms: C_24  and  C_28 
REMARK   17  A    between atoms: C_25  and  C_29 
REMARK   18  A    between atoms: C_38  and  C_40 
REMARK   19  A    between atoms: C_49  and  C_50 
REMARK   20  A    between atoms: C_50  and  N_51 
ROOT
HETATM    1  C   UNK N   1      11.316  -6.414  -0.384  0.00  0.00     0.088 C 
ENDROOT
BRANCH   1   2
HETATM    2  C   UNK N   1      12.103  -7.224  -1.428  0.00  0.00     0.063 C 
BRANCH   2   3
HETATM    3  C   UNK N   1      13.057  -8.209  -0.820  0.00  0.00    -0.056 A 
HETATM    4  C   UNK N   1      12.584  -9.340  -0.144  0.00  0.00     0.007 A 
HETATM    5  C   UNK N   1      13.486 -10.236   0.438  0.00  0.00     0.001 A 
HETATM    6  C   UNK N   1      14.861 -10.002   0.347  0.00  0.00     0.000 A 
HETATM    7  C   UNK N   1      15.336  -8.876  -0.332  0.00  0.00     0.001 A 
HETATM    8  C   UNK N   1      14.435  -7.982  -0.917  0.00  0.00     0.007 A 
ENDBRANCH   2   3
ENDBRANCH   1   2
BRANCH   1   9
HETATM    9  C   UNK N   1      12.253  -5.741   0.621  0.00  0.00     0.027 C 
BRANCH   9  10
HETATM   10  C   UNK N   1      13.317  -4.902  -0.056  0.00  0.00     0.027 C 
BRANCH  10  11
HETATM   11  C   UNK N   1      14.143  -4.219   1.020  0.00  0.00     0.091 C 
BRANCH  11  12
HETATM   12  C   UNK N   1      13.868  -2.725   1.278  0.00  0.00     0.063 C 
BRANCH  12  13
HETATM   13  C   UNK N   1      13.220  -1.962   0.158  0.00  0.00    -0.056 A 
HETATM   14  C   UNK N   1      13.868  -0.858  -0.402  0.00  0.00     0.007 A 
HETATM   15  C   UNK N   1      13.247  -0.118  -1.416  0.00  0.00     0.001 A 
HETATM   16  C   UNK N   1      11.976  -0.481  -1.872  0.00  0.00     0.000 A 
HETATM   17  C   UNK N   1      11.324  -1.580  -1.312  0.00  0.00     0.001 A 
HETATM   18  C   UNK N   1      11.940  -2.310  -0.293  0.00  0.00     0.007 A 
ENDBRANCH  12  13
ENDBRANCH  11  12
BRANCH  11  19
HETATM   19  N   UNK N   1      15.547  -4.562   0.938  0.00  0.00    -0.332 N 
HETATM   20  C   UNK N   1      16.375  -4.187  -0.073  0.00  0.00     0.361 C 
HETATM   21  O   UNK N   1      15.963  -3.484  -0.983  0.00  0.00    -0.238 OA
HETATM   22  H   UNK N   1      15.930  -5.104   1.665  0.00  0.00     0.165 HD
BRANCH  20  23
HETATM   23  O   UNK N   1      17.669  -4.593  -0.082  0.00  0.00    -0.299 OA
BRANCH  23  24
HETATM   24  C   UNK N   1      18.173  -5.457   0.866  0.00  0.00     0.228 C 
BRANCH  24  25
HETATM   25  C   UNK N   1      19.136  -6.406   0.241  0.00  0.00     0.023 A 
HETATM   26  C   UNK N   1      19.008  -7.795   0.154  0.00  0.00     0.104 A 
HETATM   27  N   UNK N   1      20.073  -8.421  -0.461  0.00  0.00    -0.368 N 
HETATM   28  C   UNK N   1      21.050  -7.561  -0.861  0.00  0.00     0.138 A 
ATOM     29  HN  UNK N   1      20.123  -9.430  -0.602  1.00  0.00     0.165 HD
HETATM   30  S   UNK N   1      20.583  -6.027  -0.449  0.00  0.00    -0.086 SA
ENDBRANCH  24  25
ENDBRANCH  23  24
ENDBRANCH  20  23
ENDBRANCH  11  19
ENDBRANCH  10  11
ENDBRANCH   9  10
ENDBRANCH   1   9
BRANCH   1  31
HETATM   31  N   UNK N   1      10.411  -7.286   0.328  0.00  0.00    -0.354 N 
HETATM   32  C   UNK N   1       9.414  -6.903   1.173  0.00  0.00     0.240 C 
HETATM   33  O   UNK N   1       8.825  -7.774   1.793  0.00  0.00    -0.271 OA
HETATM   34  H   UNK N   1      10.527  -8.253   0.188  0.00  0.00     0.162 HD
BRANCH  32  35
HETATM   35  C   UNK N   1       8.991  -5.455   1.413  0.00  0.00     0.180 C 
BRANCH  35  36
HETATM   36  N   UNK N   1       7.560  -5.308   1.577  0.00  0.00    -0.330 N 
HETATM   37  C   UNK N   1       6.557  -5.338   0.650  0.00  0.00     0.319 C 
HETATM   38  N   UNK N   1       6.736  -5.667  -0.684  0.00  0.00    -0.333 N 
HETATM   39  O   UNK N   1       5.437  -5.043   1.042  0.00  0.00    -0.247 OA
HETATM   40  C   UNK N   1       8.001  -6.061  -1.241  0.00  0.00     0.154 C 
HETATM   41  H   UNK N   1       7.262  -5.163   2.504  0.00  0.00     0.165 HD
BRANCH  38  42
HETATM   42  C   UNK N   1       5.623  -5.623  -1.616  0.00  0.00     0.184 C 
BRANCH  42  43
HETATM   43  C   UNK N   1       4.458  -6.411  -1.121  0.00  0.00     0.034 A 
HETATM   44  N   UNK N   1       3.278  -5.779  -0.803  0.00  0.00    -0.355 N 
HETATM   45  C   UNK N   1       2.377  -6.619  -0.248  0.00  0.00     0.054 A 
ATOM     46  HN  UNK N   1       3.103  -4.788  -0.968  1.00  0.00     0.166 HD
HETATM   47  S   UNK N   1       3.041  -8.135  -0.164  0.00  0.00    -0.086 SA
HETATM   48  C   UNK N   1       4.521  -7.787  -0.827  0.00  0.00     0.078 A 
BRANCH  45  49
HETATM   49  C   UNK N   1       1.030  -6.170   0.232  0.00  0.00     0.035 C 
HETATM   50  C   UNK N   1       1.192  -5.045   1.238  0.00  0.00     0.016 C 
HETATM   51  C   UNK N   1       0.237  -7.294   0.873  0.00  0.00     0.016 C 
ENDBRANCH  45  49
ENDBRANCH  42  43
ENDBRANCH  38  42
ENDBRANCH  35  36
BRANCH  35  52
HETATM   52  C   UNK N   1       9.549  -4.294   0.588  0.00  0.00     0.065 C 
BRANCH  52  53
HETATM   53  C   UNK N   1       9.204  -2.975   1.280  0.00  0.00     0.275 C 
BRANCH  53  54
HETATM   54  N   UNK N   1       8.690  -1.988   0.339  0.00  0.00     0.092 N 
HETATM   55  C   UNK N   1       9.016  -0.672   0.897  0.00  0.00     0.298 C 
HETATM   56  C   UNK N   1       8.294   0.456   0.138  0.00  0.00     0.198 C 
HETATM   57  O   UNK N   1       7.499  -0.054  -0.905  0.00  0.00    -0.388 OA
HETATM   58  C   UNK N   1       6.548  -0.892  -0.300  0.00  0.00     0.198 C 
HETATM   59  C   UNK N   1       7.231  -2.156   0.249  0.00  0.00     0.298 C 
ENDBRANCH  53  54
ENDBRANCH  52  53
ENDBRANCH  35  52
ENDBRANCH  32  35
ENDBRANCH   1  31
TORSDOF 20
