REMARK  4 active torsions:
REMARK  status: ('A' for Active; 'I' for Inactive)
REMARK    1  A    between atoms: C_21  and  C_16 
REMARK    2  A    between atoms: N_34  and  C_17 
REMARK    3  A    between atoms: N_33  and  C_18 
REMARK    4  A    between atoms: N_30  and  C_20 
REMARK       I    between atoms: N_30  and  C_24 
ROOT
HETATM    1  C   UNK N   1       3.908   2.132  -0.075  0.00  0.00     0.050 C 
HETATM    2  C   UNK N   1       1.635   0.477  -0.289  0.00  0.00     0.122 A 
HETATM    3  C   UNK N   1       4.041   0.633  -0.108  0.00  0.00    -0.027 A 
HETATM    4  C   UNK N   1       2.882  -0.134  -0.216  0.00  0.00     0.032 A 
HETATM    5  C   UNK N   1       5.299  -0.009  -0.023  0.00  0.00     0.084 A 
HETATM    6  C   UNK N   1       2.943  -1.538  -0.250  0.00  0.00     0.138 A 
HETATM    7  C   UNK N   1       5.331  -1.437  -0.070  0.00  0.00     0.264 A 
HETATM    8  C   UNK N   1       0.572  -1.631  -0.367  0.00  0.00     0.685 A 
HETATM    9  N   UNK N   1       0.520  -0.273  -0.362  0.00  0.00    -0.201 N 
ATOM     10  HN  UNK N   1      -0.387   0.190  -0.414  1.00  0.00     0.183 HD
HETATM   11  N   UNK N   1      -0.638  -2.383  -0.395  0.00  0.00    -0.176 N 
HETATM   12  N   UNK N   1       1.778  -2.254  -0.335  0.00  0.00    -0.175 N 
ATOM     13  HN  UNK N   1       1.817  -3.272  -0.376  1.00  0.00     0.186 HD
HETATM   14  N   UNK N   1       4.153  -2.181  -0.187  0.00  0.00    -0.293 N 
HETATM   15  O   UNK N   1       6.404  -2.007  -0.003  0.00  0.00    -0.267 OA
HETATM   16  H   UNK N   1      -0.614  -3.345  -0.602  0.00  0.00     0.186 HD
ENDROOT
BRANCH  11  17
HETATM   17  C   UNK N   1      -1.880  -1.745  -0.125  0.00  0.00     0.120 A 
HETATM   18  C   UNK N   1      -3.083  -2.276  -0.602  0.00  0.00     0.051 A 
HETATM   19  C   UNK N   1      -4.269  -1.546  -0.419  0.00  0.00     0.034 A 
HETATM   20  C   UNK N   1      -4.237  -0.299   0.235  0.00  0.00     0.045 A 
HETATM   21  C   UNK N   1      -3.018   0.159   0.730  0.00  0.00     0.119 A 
HETATM   22  N   UNK N   1      -1.892  -0.559   0.543  0.00  0.00    -0.350 N 
ATOM     23  HN  UNK N   1      -1.014  -0.200   0.918  1.00  0.00     0.166 HD
BRANCH  20  24
HETATM   24  N   UNK N   1      -5.408   0.496   0.409  0.00  0.00    -0.377 N 
HETATM   25  C   UNK N   1      -6.705   0.047  -0.049  0.00  0.00     0.142 C 
HETATM   26  C   UNK N   1      -7.362   1.161  -0.869  0.00  0.00     0.133 C 
HETATM   27  N   UNK N   1      -7.380   2.410  -0.104  0.00  0.00    -0.418 N 
HETATM   28  C   UNK N   1      -6.000   2.828   0.137  0.00  0.00     0.133 C 
HETATM   29  H   UNK N   1      -8.216   2.906   0.209  0.00  0.00     0.153 HD
HETATM   30  C   UNK N   1      -5.320   1.801   1.036  0.00  0.00     0.142 C 
ENDBRANCH  20  24
ENDBRANCH  11  17
BRANCH  14  31
HETATM   31  C   UNK N   1       4.131  -3.669  -0.272  0.00  0.00     0.095 C 
HETATM   32  C   UNK N   1       3.405  -4.320   0.884  0.00  0.00     0.026 C 
HETATM   33  C   UNK N   1       3.731  -5.790   0.726  0.00  0.00     0.002 C 
HETATM   34  C   UNK N   1       5.073  -5.850   0.005  0.00  0.00     0.002 C 
HETATM   35  C   UNK N   1       5.446  -4.418  -0.336  0.00  0.00     0.026 C 
ENDBRANCH  14  31
BRANCH   5  36
HETATM   36  C   UNK N   1       6.572   0.803   0.115  0.00  0.00     0.161 C 
HETATM   37  C   UNK N   1       7.919   0.166   0.221  0.00  0.00     0.097 C 
HETATM   38  O   UNK N   1       6.532   2.023   0.152  0.00  0.00    -0.293 OA
ENDBRANCH   5  36
TORSDOF 4
