REMARK  12 active torsions:
REMARK  status: ('A' for Active; 'I' for Inactive)
REMARK    1  A    between atoms: C_1  and  N_7 
REMARK    2  A    between atoms: C_4  and  C_8 
REMARK    3  A    between atoms: C_9  and  C_10 
REMARK    4  A    between atoms: C_13  and  O_16 
REMARK    5  A    between atoms: O_16  and  C_17 
REMARK    6  A    between atoms: C_17  and  C_18 
REMARK    7  A    between atoms: C_18  and  O_19 
REMARK    8  A    between atoms: O_19  and  C_20 
REMARK    9  A    between atoms: C_20  and  C_21 
REMARK   10  A    between atoms: C_21  and  O_22 
REMARK   11  A    between atoms: O_22  and  C_23 
REMARK   12  A    between atoms: C_23  and  C_24 
ROOT
HETATM    1  C   UNK N   1      -1.834   0.650  -0.272  0.00  0.00    -0.036 A 
HETATM    2  C   UNK N   1      -1.875  -0.405   0.643  0.00  0.00     0.014 A 
HETATM    3  C   UNK N   1      -3.014  -1.180   0.771  0.00  0.00     0.037 A 
HETATM    4  C   UNK N   1      -4.130  -0.943  -0.034  0.00  0.00     0.068 A 
HETATM    5  C   UNK N   1      -4.122   0.157  -0.905  0.00  0.00     0.037 A 
HETATM    6  C   UNK N   1      -2.976   0.959  -1.021  0.00  0.00     0.014 A 
ENDROOT
BRANCH   1   7
HETATM    7  C   UNK N   1      -0.579   1.393  -0.451  0.00  0.00     0.012 C 
HETATM    8  C   UNK N   1       0.568   0.789  -0.114  0.00  0.00     0.012 C 
BRANCH   8   9
HETATM    9  C   UNK N   1       1.873   1.441  -0.044  0.00  0.00    -0.036 A 
HETATM   10  C   UNK N   1       2.996   0.649   0.206  0.00  0.00     0.013 A 
HETATM   11  C   UNK N   1       4.244   1.240   0.401  0.00  0.00     0.030 A 
HETATM   12  C   UNK N   1       4.374   2.630   0.365  0.00  0.00     0.027 A 
HETATM   13  C   UNK N   1       3.248   3.427   0.098  0.00  0.00     0.030 A 
HETATM   14  C   UNK N   1       2.000   2.834  -0.107  0.00  0.00     0.013 A 
BRANCH  12  15
HETATM   15  N   UNK N   1       5.637   3.213   0.632  0.00  0.00    -0.394 N 
HETATM   16  C   UNK N   1       5.816   4.639   0.728  0.00  0.00     0.146 C 
HETATM   17  H   UNK N   1       6.416   2.625   0.755  0.00  0.00     0.159 HD
ENDBRANCH  12  15
ENDBRANCH   8   9
ENDBRANCH   1   7
BRANCH   4  18
HETATM   18  O   UNK N   1      -5.202  -1.780  -0.025  0.00  0.00    -0.349 OA
BRANCH  18  19
HETATM   19  C   UNK N   1      -5.298  -3.057   0.531  0.00  0.00     0.201 C 
BRANCH  19  20
HETATM   20  C   UNK N   1      -3.981  -3.800   0.832  0.00  0.00     0.194 C 
BRANCH  20  21
HETATM   21  O   UNK N   1      -3.139  -3.853  -0.288  0.00  0.00    -0.387 OA
BRANCH  21  22
HETATM   22  C   UNK N   1      -1.944  -4.423   0.175  0.00  0.00     0.193 C 
BRANCH  22  23
HETATM   23  C   UNK N   1      -0.821  -3.393   0.197  0.00  0.00     0.193 C 
BRANCH  23  24
HETATM   24  O   UNK N   1       0.320  -3.918  -0.415  0.00  0.00    -0.387 OA
BRANCH  24  25
HETATM   25  C   UNK N   1       1.308  -2.943  -0.252  0.00  0.00     0.199 C 
BRANCH  25  26
HETATM   26  C   UNK N   1       2.552  -3.574   0.345  0.00  0.00     0.248 C 
HETATM   27  F   UNK N   1       3.574  -2.644   0.392  0.00  0.00    -0.253 F 
ENDBRANCH  25  26
ENDBRANCH  24  25
ENDBRANCH  23  24
ENDBRANCH  22  23
ENDBRANCH  21  22
ENDBRANCH  20  21
ENDBRANCH  19  20
ENDBRANCH  18  19
ENDBRANCH   4  18
TORSDOF 12
