REMARK  5 active torsions:
REMARK  status: ('A' for Active; 'I' for Inactive)
REMARK    1  A    between atoms: C_2  and  C_3 
REMARK       I    between atoms: C_3  and  N_5 
REMARK    2  A    between atoms: C_9  and  N_11 
REMARK    3  A    between atoms: C_20  and  O_23 
REMARK    4  A    between atoms: O_23  and  C_24 
REMARK    5  A    between atoms: C_30  and  N_36 
ROOT
HETATM    1  N   UNK N   1      -0.251  -2.093   0.343  0.00  0.00    -0.269 N 
HETATM    2  C   UNK N   1       0.995  -1.593   0.370  0.00  0.00     0.140 A 
HETATM    3  C   UNK N   1       0.945  -0.247   0.506  0.00  0.00     0.082 A 
HETATM    4  C   UNK N   1      -0.429   0.040   0.564  0.00  0.00     0.076 A 
HETATM    5  N   UNK N   1      -1.123  -1.110   0.444  0.00  0.00    -0.295 N 
ATOM      6  HN  UNK N   1      -2.139  -1.203   0.435  1.00  0.00     0.187 HD
HETATM    7  C   UNK N   1      -1.070   1.337   0.588  0.00  0.00    -0.007 C 
HETATM    8  C   UNK N   1      -2.276   1.534  -0.112  0.00  0.00     0.016 C 
HETATM    9  C   UNK N   1      -2.702   2.837  -0.403  0.00  0.00     0.038 C 
HETATM   10  C   UNK N   1      -1.918   3.913   0.028  0.00  0.00     0.076 C 
HETATM   11  C   UNK N   1      -0.817   3.679   0.868  0.00  0.00     0.038 C 
HETATM   12  C   UNK N   1      -0.390   2.408   1.122  0.00  0.00     0.016 C 
HETATM   13  C   UNK N   1       2.159   0.470   0.492  0.00  0.00     0.116 A 
HETATM   14  N   UNK N   1       3.323  -0.230   0.356  0.00  0.00    -0.338 N 
ATOM     15  HN  UNK N   1       4.210   0.274   0.343  1.00  0.00     0.168 HD
HETATM   16  C   UNK N   1       3.326  -1.593   0.237  0.00  0.00     0.183 A 
HETATM   17  N   UNK N   1       2.151  -2.285   0.242  0.00  0.00    -0.337 N 
ATOM     18  HN  UNK N   1       2.143  -3.301   0.150  1.00  0.00     0.168 HD
ENDROOT
BRANCH  13  19
HETATM   19  N   UNK N   1       2.211   1.874   0.574  0.00  0.00    -0.385 N 
HETATM   20  H   UNK N   1       3.079   2.334   0.631  0.00  0.00     0.157 HD
HETATM   21  H   UNK N   1       1.377   2.398   0.574  0.00  0.00     0.157 HD
ENDBRANCH  13  19
BRANCH   1  22
HETATM   22  C   UNK N   1      -0.585  -3.489   0.218  0.00  0.00     0.128 C 
HETATM   23  C   UNK N   1      -2.064  -3.833   0.342  0.00  0.00     0.030 C 
HETATM   24  C   UNK N   1      -2.181  -5.363   0.446  0.00  0.00     0.022 C 
HETATM   25  C   UNK N   1      -1.369  -6.097  -0.644  0.00  0.00     0.126 C 
HETATM   26  N   UNK N   1      -0.071  -5.467  -0.826  0.00  0.00    -0.347 N 
HETATM   27  C   UNK N   1       1.131  -6.088  -0.608  0.00  0.00     0.242 C 
HETATM   28  C   UNK N   1      -0.070  -4.060  -1.075  0.00  0.00     0.153 C 
HETATM   29  O   UNK N   1       2.168  -5.459  -0.780  0.00  0.00    -0.268 OA
BRANCH  27  30
HETATM   30  C   UNK N   1       1.261  -7.479  -0.118  0.00  0.00     0.064 C 
HETATM   31  C   UNK N   1       0.252  -8.211   0.345  0.00  0.00     0.017 C 
ENDBRANCH  27  30
ENDBRANCH   1  22
BRANCH  10  32
HETATM   32  O   UNK N   1      -2.097   5.164  -0.461  0.00  0.00    -0.311 OA
BRANCH  32  33
HETATM   33  C   UNK N   1      -0.974   5.906  -0.656  0.00  0.00     0.076 A 
HETATM   34  C   UNK N   1      -0.815   7.119   0.009  0.00  0.00     0.037 A 
HETATM   35  C   UNK N   1       0.433   7.751   0.008  0.00  0.00     0.003 A 
HETATM   36  C   UNK N   1       1.522   7.172  -0.655  0.00  0.00     0.000 A 
HETATM   37  C   UNK N   1       1.360   5.977  -1.355  0.00  0.00     0.003 A 
HETATM   38  C   UNK N   1       0.120   5.344  -1.354  0.00  0.00     0.037 A 
ENDBRANCH  32  33
ENDBRANCH  10  32
TORSDOF 5
