REMARK  12 active torsions:
REMARK  status: ('A' for Active; 'I' for Inactive)
REMARK    1  A    between atoms: O_2  and  C_8 
REMARK    2  A    between atoms: O_2  and  C_9 
REMARK    3  A    between atoms: O_3  and  C_10 
REMARK    4  A    between atoms: O_3  and  C_15 
REMARK    5  A    between atoms: O_4  and  C_11 
REMARK    6  A    between atoms: O_4  and  C_24 
REMARK    7  A    between atoms: N_5  and  C_14 
REMARK    8  A    between atoms: C_8  and  C_10 
REMARK    9  A    between atoms: C_9  and  C_11 
REMARK   10  A    between atoms: C_12  and  C_16 
REMARK   11  A    between atoms: C_13  and  C_19 
REMARK   12  A    between atoms: C_24  and  C_26 
ROOT
HETATM    1  N   UNK N   1      -2.046   1.106  -0.210  0.00  0.00    -0.346 N 
ATOM      2  HN  UNK N   1      -2.745   1.727  -0.619  1.00  0.00     0.167 HD
HETATM    3  C   UNK N   1      -1.476  -0.648   1.253  0.00  0.00    -0.021 A 
HETATM    4  C   UNK N   1      -0.752   1.201  -0.622  0.00  0.00     0.141 A 
HETATM    5  C   UNK N   1      -0.117  -0.490   0.950  0.00  0.00     0.017 A 
HETATM    6  C   UNK N   1       0.250   0.446   0.004  0.00  0.00     0.057 A 
HETATM    7  C   UNK N   1      -2.424   0.218   0.718  0.00  0.00     0.101 A 
ENDROOT
BRANCH   3   8
HETATM    8  C   UNK N   1      -1.886  -1.993   1.490  0.00  0.00     0.013 C 
HETATM    9  C   UNK N   1      -2.080  -2.604   0.304  0.00  0.00     0.012 C 
BRANCH   9  10
HETATM   10  C   UNK N   1      -1.965  -4.003   0.166  0.00  0.00    -0.036 A 
HETATM   11  C   UNK N   1      -2.986  -4.841   0.560  0.00  0.00     0.013 A 
HETATM   12  C   UNK N   1      -2.815  -6.209   0.444  0.00  0.00     0.030 A 
HETATM   13  C   UNK N   1      -1.593  -6.735  -0.047  0.00  0.00     0.027 A 
HETATM   14  C   UNK N   1      -0.576  -5.857  -0.449  0.00  0.00     0.030 A 
HETATM   15  C   UNK N   1      -0.771  -4.494  -0.362  0.00  0.00     0.013 A 
BRANCH  13  16
HETATM   16  N   UNK N   1      -1.344  -8.130  -0.108  0.00  0.00    -0.394 N 
HETATM   17  C   UNK N   1      -2.375  -9.134   0.006  0.00  0.00     0.146 C 
HETATM   18  H   UNK N   1      -0.371  -8.449  -0.232  0.00  0.00     0.159 HD
ENDBRANCH  13  16
ENDBRANCH   9  10
ENDBRANCH   3   8
BRANCH   4  19
HETATM   19  O   UNK N   1      -0.476   2.016  -1.639  0.00  0.00    -0.334 OA
BRANCH  19  20
HETATM   20  C   UNK N   1       0.052   3.248  -1.401  0.00  0.00     0.203 C 
BRANCH  20  21
HETATM   21  C   UNK N   1      -0.845   3.984  -0.384  0.00  0.00     0.194 C 
BRANCH  21  22
HETATM   22  O   UNK N   1      -0.379   5.286  -0.145  0.00  0.00    -0.387 OA
BRANCH  22  23
HETATM   23  C   UNK N   1       0.409   5.355   1.030  0.00  0.00     0.193 C 
BRANCH  23  24
HETATM   24  C   UNK N   1       1.834   4.837   0.796  0.00  0.00     0.193 C 
BRANCH  24  25
HETATM   25  O   UNK N   1       2.269   5.171  -0.512  0.00  0.00    -0.387 OA
BRANCH  25  26
HETATM   26  C   UNK N   1       3.185   6.239  -0.542  0.00  0.00     0.199 C 
BRANCH  26  27
HETATM   27  C   UNK N   1       2.465   7.583  -0.549  0.00  0.00     0.248 C 
HETATM   28  F   UNK N   1       3.386   8.600  -0.702  0.00  0.00    -0.253 F 
ENDBRANCH  26  27
ENDBRANCH  25  26
ENDBRANCH  24  25
ENDBRANCH  23  24
ENDBRANCH  22  23
ENDBRANCH  21  22
ENDBRANCH  20  21
ENDBRANCH  19  20
ENDBRANCH   4  19
TORSDOF 12
