REMARK  8 active torsions:
REMARK  status: ('A' for Active; 'I' for Inactive)
REMARK    1  A    between atoms: C_6  and  C_5 
REMARK    2  A    between atoms: N_14  and  C_6 
REMARK    3  A    between atoms: C_12  and  C_9 
REMARK    4  A    between atoms: N_14  and  C_9 
REMARK    5  A    between atoms: N_15  and  C_10 
REMARK    6  A    between atoms: C_13  and  C_11 
REMARK    7  A    between atoms: O_17  and  C_12 
REMARK    8  A    between atoms: O_19  and  C_13 
ROOT
HETATM    1  C   UNK N   1       6.103  -0.616  -0.487  0.00  0.00     0.138 C 
HETATM    2  N   UNK N   1       7.164  -0.949   0.172  0.00  0.00    -0.337 N 
ATOM      3  HN  UNK N   1       7.097  -1.782   0.756  1.00  0.00     0.168 HD
ENDROOT
BRANCH   2   4
HETATM    4  C   UNK N   1       8.415  -0.271   0.163  0.00  0.00     0.063 A 
HETATM    5  C   UNK N   1       8.600   1.155   0.178  0.00  0.00    -0.027 A 
HETATM    6  C   UNK N   1       7.504   2.162   0.237  0.00  0.00     0.051 C 
HETATM    7  C   UNK N   1       9.940   1.556   0.193  0.00  0.00     0.059 A 
HETATM    8  S   UNK N   1      10.832   0.155   0.191  0.00  0.00    -0.093 SA
HETATM    9  C   UNK N   1       9.623  -0.984   0.180  0.00  0.00     0.107 A 
BRANCH   9  10
HETATM   10  C   UNK N   1       9.755  -2.478   0.179  0.00  0.00     0.302 C 
HETATM   11  O   UNK N   1       8.740  -3.154   0.221  0.00  0.00    -0.259 OA
BRANCH  10  12
HETATM   12  O   UNK N   1      10.949  -3.128   0.129  0.00  0.00    -0.322 OA
HETATM   13  C   UNK N   1      12.179  -2.531   0.002  0.00  0.00     0.213 C 
ENDBRANCH  10  12
ENDBRANCH   9  10
ENDBRANCH   2   4
BRANCH   1  14
HETATM   14  C   UNK N   1       4.867  -1.442  -0.349  0.00  0.00     0.147 C 
HETATM   15  C   UNK N   1       5.138  -2.886  -0.748  0.00  0.00     0.040 C 
BRANCH  14  16
HETATM   16  N   UNK N   1       4.376  -1.372   1.023  0.00  0.00    -0.410 N 
HETATM   17  H   UNK N   1       4.947  -1.179   1.846  0.00  0.00     0.154 HD
BRANCH  16  18
HETATM   18  C   UNK N   1       2.939  -1.622   1.030  0.00  0.00     0.114 C 
BRANCH  18  19
HETATM   19  C   UNK N   1       2.178  -0.464   0.400  0.00  0.00     0.015 C 
HETATM   20  C   UNK N   1       1.785  -0.830  -1.019  0.00  0.00     0.006 C 
ENDBRANCH  18  19
ENDBRANCH  16  18
ENDBRANCH  14  16
ENDBRANCH   1  14
BRANCH   1  21
HETATM   21  O   UNK N   1       6.102   0.425  -1.342  0.00  0.00    -0.348 OA
HETATM   22  H   UNK N   1       6.729   0.788  -1.936  0.00  0.00     0.219 HD
ENDBRANCH   1  21
TORSDOF 8
