REMARK  3 active torsions:
REMARK  status: ('A' for Active; 'I' for Inactive)
REMARK    1  A    between atoms: C_2  and  C_10 
REMARK    2  A    between atoms: C_5  and  N_7 
REMARK    3  A    between atoms: C_17  and  O_20 
ROOT
HETATM    1  C   UNK N   1      -0.388   0.119   0.008  0.00  0.00     0.085 A 
HETATM    2  S   UNK N   1      -1.230  -1.318  -0.022  0.00  0.00    -0.069 SA
HETATM    3  C   UNK N   1      -2.739  -0.661  -0.011  0.00  0.00     0.036 A 
HETATM    4  C   UNK N   1      -2.575   0.724   0.016  0.00  0.00     0.050 A 
HETATM    5  N   UNK N   1      -1.269   1.164   0.025  0.00  0.00    -0.349 N 
ATOM      6  HN  UNK N   1      -0.994   2.146   0.043  1.00  0.00     0.166 HD
HETATM    7  C   UNK N   1      -3.987  -1.268  -0.022  0.00  0.00     0.057 A 
HETATM    8  C   UNK N   1      -5.118  -0.436  -0.006  0.00  0.00     0.067 A 
HETATM    9  C   UNK N   1      -4.970   0.969   0.021  0.00  0.00     0.039 A 
HETATM   10  C   UNK N   1      -3.691   1.558   0.032  0.00  0.00     0.034 A 
ENDROOT
BRANCH   1  11
HETATM   11  C   UNK N   1       1.076   0.265   0.014  0.00  0.00     0.001 A 
HETATM   12  C   UNK N   1       1.900  -0.869   0.006  0.00  0.00     0.059 A 
HETATM   13  C   UNK N   1       3.292  -0.734   0.002  0.00  0.00     0.143 A 
HETATM   14  C   UNK N   1       3.872   0.542   0.003  0.00  0.00     0.066 A 
HETATM   15  F   UNK N   1       4.074  -1.841  -0.006  0.00  0.00    -0.204 F 
HETATM   16  C   UNK N   1       3.046   1.677   0.016  0.00  0.00     0.033 A 
HETATM   17  C   UNK N   1       1.656   1.538   0.023  0.00  0.00     0.017 A 
BRANCH  14  18
HETATM   18  N   UNK N   1       5.283   0.669  -0.014  0.00  0.00    -0.392 N 
HETATM   19  C   UNK N   1       5.935   1.954  -0.021  0.00  0.00     0.146 C 
HETATM   20  H   UNK N   1       5.836  -0.146  -0.022  0.00  0.00     0.159 HD
ENDBRANCH  14  18
ENDBRANCH   1  11
BRANCH   8  21
HETATM   21  O   UNK N   1      -6.346  -0.979  -0.016  0.00  0.00    -0.361 OA
HETATM   22  H   UNK N   1      -7.102  -0.426  -0.023  0.00  0.00     0.217 HD
ENDBRANCH   8  21
TORSDOF 3
