REMARK  7 active torsions:
REMARK  status: ('A' for Active; 'I' for Inactive)
REMARK    1  A    between atoms: N_2  and  C_4 
REMARK    2  A    between atoms: C_4  and  C_5 
REMARK    3  A    between atoms: C_5  and  C_6 
REMARK    4  A    between atoms: C_6  and  O_7 
REMARK    5  A    between atoms: O_7  and  C_8 
REMARK    6  A    between atoms: N_11  and  C_12 
REMARK    7  A    between atoms: C_12  and  C_13 
ROOT
HETATM    1  C   UNK N   1       8.113   1.913  -0.082  0.00  0.00     0.170 A 
HETATM    2  N   UNK N   1       9.411   2.257   0.047  0.00  0.00    -0.276 N 
ATOM      3  HN  UNK N   1       9.768   3.212   0.097  1.00  0.00     0.189 HD
HETATM    4  N   UNK N   1      10.152   1.153   0.097  0.00  0.00    -0.285 N 
HETATM    5  C   UNK N   1       9.310   0.083   0.011  0.00  0.00     0.065 A 
HETATM    6  C   UNK N   1       9.574  -1.285   0.032  0.00  0.00     0.032 A 
HETATM    7  C   UNK N   1       8.502  -2.187  -0.073  0.00  0.00     0.002 A 
HETATM    8  C   UNK N   1       7.184  -1.710  -0.205  0.00  0.00     0.001 A 
HETATM    9  C   UNK N   1       6.935  -0.330  -0.226  0.00  0.00     0.018 A 
HETATM   10  C   UNK N   1       8.022   0.537  -0.110  0.00  0.00     0.044 A 
ENDROOT
BRANCH   1  11
HETATM   11  O   UNK N   1       7.116   2.828  -0.172  0.00  0.00    -0.334 OA
BRANCH  11  12
HETATM   12  C   UNK N   1       5.802   2.514  -0.442  0.00  0.00     0.179 C 
BRANCH  12  13
HETATM   13  C   UNK N   1       5.119   1.880   0.759  0.00  0.00     0.057 C 
BRANCH  13  14
HETATM   14  C   UNK N   1       4.016   0.966   0.241  0.00  0.00     0.273 C 
BRANCH  14  15
HETATM   15  N   UNK N   1       2.693   1.545   0.429  0.00  0.00     0.080 N 
HETATM   16  C   UNK N   1       1.747   0.569  -0.081  0.00  0.00     0.309 C 
HETATM   17  C   UNK N   1       2.558   2.723  -0.414  0.00  0.00     0.309 C 
ENDBRANCH  14  15
ENDBRANCH  13  14
ENDBRANCH  12  13
ENDBRANCH  11  12
ENDBRANCH   1  11
BRANCH   4  18
HETATM   18  C   UNK N   1      11.618   1.300   0.211  0.00  0.00     0.187 C 
BRANCH  18  19
HETATM   19  C   UNK N   1      12.613   0.164   0.123  0.00  0.00    -0.038 A 
HETATM   20  C   UNK N   1      13.965   0.517   0.013  0.00  0.00     0.009 A 
HETATM   21  C   UNK N   1      14.956  -0.466  -0.076  0.00  0.00     0.001 A 
HETATM   22  C   UNK N   1      14.604  -1.816  -0.050  0.00  0.00     0.000 A 
HETATM   23  C   UNK N   1      13.262  -2.179   0.068  0.00  0.00     0.001 A 
HETATM   24  C   UNK N   1      12.279  -1.191   0.155  0.00  0.00     0.009 A 
ENDBRANCH  18  19
ENDBRANCH   4  18
TORSDOF 7
