REMARK  10 active torsions:
REMARK  status: ('A' for Active; 'I' for Inactive)
REMARK    1  A    between atoms: C_2  and  C_4 
REMARK    2  A    between atoms: C_5  and  C_6 
REMARK    3  A    between atoms: C_6  and  C_7 
REMARK    4  A    between atoms: C_7  and  C_8 
REMARK    5  A    between atoms: C_8  and  C_9 
REMARK    6  A    between atoms: C_9  and  C_10 
REMARK       I    between atoms: C_10  and  N_12 
REMARK    7  A    between atoms: N_12  and  C_13 
REMARK    8  A    between atoms: C_13  and  C_14 
REMARK    9  A    between atoms: C_17  and  O_22 
REMARK   10  A    between atoms: C_18  and  O_20 
ROOT
HETATM    1  C   UNK N   1       0.099   1.454   0.176  0.00  0.00     0.217 C 
HETATM    2  O   UNK N   1       0.318   2.609  -0.149  0.00  0.00    -0.274 OA
HETATM    3  N   UNK N   1      -1.162   0.972   0.227  0.00  0.00    -0.357 N 
HETATM    4  H   UNK N   1      -1.284   0.028   0.478  0.00  0.00     0.162 HD
ENDROOT
BRANCH   3   5
HETATM    5  C   UNK N   1      -2.343   1.753  -0.065  0.00  0.00     0.161 C 
BRANCH   5   6
HETATM    6  C   UNK N   1      -3.550   0.858  -0.057  0.00  0.00    -0.038 A 
HETATM    7  C   UNK N   1      -4.835   1.406  -0.077  0.00  0.00     0.012 A 
HETATM    8  C   UNK N   1      -5.953   0.564  -0.055  0.00  0.00     0.040 A 
HETATM    9  C   UNK N   1      -5.796  -0.828  -0.020  0.00  0.00     0.099 A 
HETATM   10  C   UNK N   1      -4.494  -1.389  -0.009  0.00  0.00     0.101 A 
HETATM   11  C   UNK N   1      -3.396  -0.533  -0.024  0.00  0.00     0.048 A 
BRANCH   9  12
HETATM   12  O   UNK N   1      -6.893  -1.604   0.001  0.00  0.00    -0.358 OA
HETATM   13  H   UNK N   1      -7.744  -1.213   0.016  0.00  0.00     0.217 HD
ENDBRANCH   9  12
BRANCH  10  14
HETATM   14  O   UNK N   1      -4.243  -2.724   0.016  0.00  0.00    -0.353 OA
HETATM   15  C   UNK N   1      -5.195  -3.716   0.018  0.00  0.00     0.210 C 
ENDBRANCH  10  14
ENDBRANCH   5   6
ENDBRANCH   3   5
BRANCH   1  16
HETATM   16  C   UNK N   1       1.222   0.548   0.560  0.00  0.00     0.103 C 
BRANCH  16  17
HETATM   17  C   UNK N   1       2.117   0.229  -0.624  0.00  0.00     0.010 C 
BRANCH  17  18
HETATM   18  C   UNK N   1       3.114  -0.847  -0.226  0.00  0.00     0.004 C 
BRANCH  18  19
HETATM   19  C   UNK N   1       4.219  -0.272   0.645  0.00  0.00     0.027 C 
BRANCH  19  20
HETATM   20  C   UNK N   1       5.436  -0.028  -0.190  0.00  0.00    -0.030 C 
HETATM   21  C   UNK N   1       6.002   1.179  -0.324  0.00  0.00    -0.027 C 
BRANCH  21  22
HETATM   22  C   UNK N   1       5.489   2.426   0.334  0.00  0.00    -0.001 C 
HETATM   23  C   UNK N   1       6.453   3.559   0.052  0.00  0.00     0.013 C 
HETATM   24  C   UNK N   1       4.124   2.808  -0.209  0.00  0.00     0.013 C 
ENDBRANCH  21  22
ENDBRANCH  19  20
ENDBRANCH  18  19
ENDBRANCH  17  18
ENDBRANCH  16  17
ENDBRANCH   1  16
TORSDOF 10
