REMARK  4 active torsions:
REMARK  status: ('A' for Active; 'I' for Inactive)
REMARK    1  A    between atoms: C_10  and  C_9 
REMARK    2  A    between atoms: N_18  and  C_9 
REMARK    3  A    between atoms: N_18  and  C_12 
REMARK    4  A    between atoms: N_17  and  C_14 
ROOT
HETATM    1  C   UNK N   1      -0.618   0.646  -0.250  0.00  0.00     0.030 A 
HETATM    2  C   UNK N   1       0.299   2.844   0.132  0.00  0.00     0.040 A 
HETATM    3  C   UNK N   1       0.647   0.062  -0.117  0.00  0.00    -0.001 A 
HETATM    4  C   UNK N   1      -0.795   2.022  -0.122  0.00  0.00     0.013 A 
HETATM    5  C   UNK N   1       1.573   2.292   0.275  0.00  0.00     0.039 A 
HETATM    6  C   UNK N   1       1.761   0.901   0.164  0.00  0.00     0.051 A 
HETATM    7 Br   UNK N   1      -2.536   2.774  -0.298  0.00  0.00    -0.051 Br
HETATM    8 Br   UNK N   1       3.045   3.468   0.611  0.00  0.00    -0.049 Br
ENDROOT
BRANCH   3   9
HETATM    9  C   UNK N   1       0.688  -1.442  -0.306  0.00  0.00     0.313 C 
BRANCH   9  10
HETATM   10  N   UNK N   1       1.991  -2.106  -0.224  0.00  0.00     0.093 N 
HETATM   11  C   UNK N   1       2.688  -1.807  -1.471  0.00  0.00     0.310 C 
BRANCH  10  12
HETATM   12  C   UNK N   1       1.767  -3.561  -0.234  0.00  0.00     0.223 C 
HETATM   13  C   UNK N   1       3.078  -4.329  -0.028  0.00  0.00     0.036 C 
HETATM   14  C   UNK N   1       2.832  -5.827  -0.205  0.00  0.00     0.002 C 
HETATM   15  C   UNK N   1       1.774  -6.318   0.782  0.00  0.00     0.000 C 
HETATM   16  C   UNK N   1       0.481  -5.519   0.629  0.00  0.00     0.002 C 
HETATM   17  C   UNK N   1       0.759  -4.031   0.825  0.00  0.00     0.036 C 
ENDBRANCH  10  12
ENDBRANCH   9  10
ENDBRANCH   3   9
BRANCH   6  18
HETATM   18  N   UNK N   1       3.059   0.371   0.334  0.00  0.00    -0.398 N 
HETATM   19  H   UNK N   1       3.191  -0.598   0.452  0.00  0.00     0.156 HD
HETATM   20  H   UNK N   1       3.837   0.974   0.334  0.00  0.00     0.156 HD
ENDBRANCH   6  18
TORSDOF 4
