REMARK  6 active torsions:
REMARK  status: ('A' for Active; 'I' for Inactive)
REMARK    1  A    between atoms: C_2  and  N_26 
REMARK    2  A    between atoms: C_3  and  N_12 
REMARK    3  A    between atoms: C_6  and  C_7 
REMARK       I    between atoms: C_7  and  N_9 
REMARK       I    between atoms: N_12  and  C_13 
REMARK    4  A    between atoms: C_13  and  C_14 
REMARK       I    between atoms: C_14  and  N_16 
REMARK    5  A    between atoms: N_16  and  C_18 
REMARK       I    between atoms: N_26  and  C_27 
REMARK    6  A    between atoms: C_27  and  C_28 
ROOT
HETATM    1  C   UNK N   1      20.262 -24.495  -0.638  0.00  0.00     0.041 C 
HETATM    2  C   UNK N   1      20.145 -26.017  -0.679  0.00  0.00     0.108 C 
HETATM    3  C   UNK N   1      20.106 -26.632   0.736  0.00  0.00     0.107 C 
HETATM    4  C   UNK N   1      21.237 -26.126   1.640  0.00  0.00     0.028 C 
HETATM    5  C   UNK N   1      21.286 -24.604   1.654  0.00  0.00     0.016 C 
HETATM    6  C   UNK N   1      21.441 -24.071   0.229  0.00  0.00     0.080 C 
ENDROOT
BRANCH   3   7
HETATM    7  N   UNK N   1      20.064 -28.096   0.722  0.00  0.00    -0.346 N 
HETATM    8  C   UNK N   1      21.099 -28.922   0.371  0.00  0.00     0.310 C 
HETATM    9  O   UNK N   1      21.016 -30.112   0.614  0.00  0.00    -0.262 OA
HETATM   10  H   UNK N   1      19.218 -28.523   0.988  0.00  0.00     0.163 HD
BRANCH   8  11
HETATM   11  C   UNK N   1      22.366 -28.371  -0.164  0.00  0.00     0.315 C 
HETATM   12  N   UNK N   1      23.560 -28.914   0.191  0.00  0.00    -0.305 N 
HETATM   13  H   UNK N   1      23.606 -29.853   0.482  0.00  0.00     0.171 HD
HETATM   14  O   UNK N   1      22.345 -27.362  -0.841  0.00  0.00    -0.262 OA
BRANCH  12  15
HETATM   15  C   UNK N   1      24.749 -28.125   0.141  0.00  0.00     0.107 A 
HETATM   16  N   UNK N   1      25.972 -28.721   0.109  0.00  0.00    -0.351 N 
HETATM   17  C   UNK N   1      27.116 -27.978   0.135  0.00  0.00     0.113 A 
ATOM     18  HN  UNK N   1      26.034 -29.738   0.064  1.00  0.00     0.166 HD
HETATM   19  C   UNK N   1      27.051 -26.580   0.221  0.00  0.00     0.049 A 
HETATM   20  C   UNK N   1      25.815 -25.954   0.277  0.00  0.00     0.029 A 
HETATM   21 Cl   UNK N   1      28.505 -25.613   0.272  0.00  0.00    -0.083 Cl
HETATM   22  C   UNK N   1      24.666 -26.723   0.243  0.00  0.00     0.050 A 
ENDBRANCH  12  15
ENDBRANCH   8  11
ENDBRANCH   3   7
BRANCH   2  23
HETATM   23  N   UNK N   1      18.979 -26.490  -1.380  0.00  0.00    -0.349 N 
HETATM   24  C   UNK N   1      17.745 -25.991  -1.146  0.00  0.00     0.275 C 
HETATM   25  O   UNK N   1      17.581 -24.817  -0.851  0.00  0.00    -0.265 OA
HETATM   26  H   UNK N   1      19.084 -27.202  -2.052  0.00  0.00     0.163 HD
BRANCH  24  27
HETATM   27  C   UNK N   1      16.677 -26.940  -0.904  0.00  0.00     0.143 A 
HETATM   28  N   UNK N   1      15.527 -26.611  -0.262  0.00  0.00    -0.348 N 
HETATM   29  C   UNK N   1      14.843 -27.730   0.148  0.00  0.00     0.026 A 
ATOM     30  HN  UNK N   1      15.210 -25.655  -0.105  1.00  0.00     0.166 HD
HETATM   31  C   UNK N   1      15.451 -28.945  -0.165  0.00  0.00     0.035 A 
HETATM   32  C   UNK N   1      13.579 -27.674   0.941  0.00  0.00     0.088 C 
HETATM   33  S   UNK N   1      16.851 -28.590  -0.943  0.00  0.00    -0.068 SA
HETATM   34  C   UNK N   1      14.901 -30.269   0.229  0.00  0.00     0.320 C 
HETATM   35  N   UNK N   1      13.476 -30.121   0.548  0.00  0.00     0.089 N 
HETATM   36  C   UNK N   1      13.268 -29.057   1.539  0.00  0.00     0.278 C 
HETATM   37  C   UNK N   1      13.035 -31.369   1.137  0.00  0.00     0.310 C 
ENDBRANCH  24  27
ENDBRANCH   2  23
BRANCH   6  38
HETATM   38  C   UNK N   1      21.541 -22.573   0.225  0.00  0.00     0.223 C 
HETATM   39  O   UNK N   1      20.633 -21.910   0.712  0.00  0.00    -0.273 OA
HETATM   40  N   UNK N   1      22.616 -21.954  -0.339  0.00  0.00    -0.360 N 
HETATM   41  C   UNK N   1      23.684 -22.719  -0.932  0.00  0.00     0.152 C 
HETATM   42  C   UNK N   1      22.695 -20.516  -0.382  0.00  0.00     0.152 C 
ENDBRANCH   6  38
TORSDOF 6
