REMARK  0 active torsions:
REMARK  status: ('A' for Active; 'I' for Inactive)
ROOT
HETATM    1 Cl   UNK N   1       0.094  -0.327   0.000  0.00  0.00     0.000 Cl
HETATM    2 Cu   UNK N   1       1.955  -1.632   0.000  0.00  0.00     0.000 Cu
HETATM    3 Cl   UNK N   1       3.793  -0.297   0.000  0.00  0.00     0.000 Cl
ENDROOT
TORSDOF 0
