REMARK  1 active torsions:
REMARK  status: ('A' for Active; 'I' for Inactive)
REMARK    1  A    between atoms: B_10  and  O_11 
ROOT
HETATM    1  C   UNK N   1      14.709 -17.896   0.096  0.00  0.00     0.042 A 
HETATM    2  C   UNK N   1      14.763 -19.300  -0.017  0.00  0.00     0.117 A 
HETATM    3  C   UNK N   1      16.005 -19.955  -0.095  0.00  0.00     0.051 A 
HETATM    4  C   UNK N   1      17.167 -19.182  -0.052  0.00  0.00    -0.033 A 
HETATM    5  C   UNK N   1      17.106 -17.838   0.059  0.00  0.00    -0.024 A 
HETATM    6  C   UNK N   1      15.897 -17.148   0.132  0.00  0.00     0.004 A 
HETATM    7  F   UNK N   1      13.616 -20.020  -0.049  0.00  0.00    -0.206 F 
HETATM    8  C   UNK N   1      18.587 -19.668  -0.129  0.00  0.00     0.184 A 
HETATM    9  O   UNK N   1      19.457 -18.529  -0.058  0.00  0.00    -0.419 OA
HETATM   10  B   UNK N   1      18.534 -17.385   0.059  0.00  0.00     0.532 B 
ENDROOT
BRANCH  10  11
HETATM   11  O   UNK N   1      18.965 -15.992   0.015  0.00  0.00    -0.433 OA
HETATM   12  H   UNK N   1      19.910 -15.777  -0.015  0.00  0.00     0.185 HD
ENDBRANCH  10  11
TORSDOF 1
