REMARK  16 active torsions:
REMARK  status: ('A' for Active; 'I' for Inactive)
REMARK    1  A    between atoms: C_2  and  C_4 
REMARK    2  A    between atoms: C_2  and  O_7 
REMARK    3  A    between atoms: C_4  and  O_6 
REMARK    4  A    between atoms: O_7  and  N_8 
REMARK    5  A    between atoms: C_10  and  C_11 
REMARK    6  A    between atoms: C_10  and  C_19 
REMARK    7  A    between atoms: C_14  and  N_18 
REMARK       I    between atoms: C_19  and  N_21 
REMARK    8  A    between atoms: C_22  and  N_21 
REMARK    9  A    between atoms: C_27  and  C_46 
REMARK   10  A    between atoms: C_28  and  C_31 
REMARK   11  A    between atoms: C_31  and  N_32 
REMARK   12  A    between atoms: C_34  and  N_39 
REMARK   13  A    between atoms: C_35  and  N_38 
REMARK       I    between atoms: N_39  and  C_40 
REMARK       I    between atoms: C_40  and  N_42 
REMARK   14  A    between atoms: N_42  and  C_43 
REMARK   15  A    between atoms: C_43  and  C_44 
REMARK   16  A    between atoms: C_44  and  N_45 
ROOT
HETATM    1  C   UNK N   1      -3.126   8.236  -0.873  0.00  0.00     0.200 C 
HETATM    2  C   UNK N   1      -2.516   7.216   0.167  0.00  0.00     0.164 C 
HETATM    3  N   UNK N   1      -1.401   8.129   0.302  0.00  0.00    -0.195 NA
HETATM    4  C   UNK N   1      -2.001   9.078  -0.400  0.00  0.00     0.230 C 
HETATM    5  O   UNK N   1      -1.448   9.948  -1.052  0.00  0.00    -0.277 OA
HETATM    6  C   UNK N   1      -0.025   7.740   0.102  0.00  0.00     0.101 C 
HETATM    7  C   UNK N   1       0.215   6.398   0.028  0.00  0.00    -0.022 C 
HETATM    8  C   UNK N   1      -0.840   5.434   0.428  0.00  0.00     0.113 C 
HETATM    9  S   UNK N   1      -2.195   5.663  -0.695  0.00  0.00    -0.141 SA
ENDROOT
BRANCH   1  10
HETATM   10  N   UNK N   1      -4.502   8.519  -0.598  0.00  0.00    -0.340 N 
HETATM   11  C   UNK N   1      -5.149   8.328   0.572  0.00  0.00     0.274 C 
HETATM   12  O   UNK N   1      -4.543   8.194   1.624  0.00  0.00    -0.266 OA
HETATM   13  H   UNK N   1      -5.032   8.891  -1.339  0.00  0.00     0.163 HD
BRANCH  11  14
HETATM   14  C   UNK N   1      -6.497   7.802   0.442  0.00  0.00     0.166 C 
HETATM   15  N   UNK N   1      -7.532   8.573   0.386  0.00  0.00    -0.256 N 
ATOM     16  HN  UNK N   1      -8.436   8.162   0.154  1.00  0.00     0.194 HD
BRANCH  15  17
HETATM   17  O   UNK N   1      -7.466   9.882   0.618  0.00  0.00    -0.258 OA
BRANCH  17  18
HETATM   18  C   UNK N   1      -7.068  10.871  -0.282  0.00  0.00     0.166 C 
HETATM   19  C   UNK N   1      -7.582  10.591  -1.687  0.00  0.00     0.060 C 
HETATM   20  C   UNK N   1      -5.561  11.041  -0.313  0.00  0.00     0.060 C 
BRANCH  18  21
HETATM   21  C   UNK N   1      -7.607  12.189   0.204  0.00  0.00     0.178 C 
HETATM   22  O   UNK N   1      -7.341  13.223  -0.392  0.00  0.00    -0.648 OA
BRANCH  21  23
HETATM   23  O   UNK N   1      -8.357  12.244   1.322  0.00  0.00    -0.774 OA
HETATM   24  H   UNK N   1      -8.585  12.714   2.100  0.00  0.00     0.167 HD
ENDBRANCH  21  23
ENDBRANCH  18  21
ENDBRANCH  17  18
ENDBRANCH  15  17
BRANCH  14  25
HETATM   25  C   UNK N   1      -6.598   6.328   0.269  0.00  0.00     0.148 A 
HETATM   26  N   UNK N   1      -5.451   5.532   0.316  0.00  0.00    -0.320 N 
HETATM   27  C   UNK N   1      -5.742   4.223   0.162  0.00  0.00     0.160 A 
ATOM     28  HN  UNK N   1      -4.508   5.896   0.450  1.00  0.00     0.169 HD
HETATM   29  S   UNK N   1      -7.351   4.089  -0.019  0.00  0.00     0.024 SA
HETATM   30  N   UNK N   1      -7.791   5.673   0.081  0.00  0.00    -0.307 N 
ATOM     31  HN  UNK N   1      -8.727   6.073   0.018  1.00  0.00     0.176 HD
BRANCH  27  32
HETATM   32  N   UNK N   1      -4.792   3.180   0.182  0.00  0.00    -0.379 N 
HETATM   33  H   UNK N   1      -5.091   2.242   0.196  0.00  0.00     0.158 HD
HETATM   34  H   UNK N   1      -3.831   3.390   0.182  0.00  0.00     0.158 HD
ENDBRANCH  27  32
ENDBRANCH  14  25
ENDBRANCH  11  14
ENDBRANCH   1  10
BRANCH   6  35
HETATM   35  C   UNK N   1       1.052   8.759  -0.204  0.00  0.00     0.222 C 
HETATM   36  O   UNK N   1       2.183   8.405  -0.497  0.00  0.00    -0.643 OA
HETATM   37  O   UNK N   1       0.824  10.074  -0.028  0.00  0.00    -0.643 OA
ENDBRANCH   6  35
BRANCH   7  38
HETATM   38  C   UNK N   1       1.364   5.885  -0.754  0.00  0.00     0.185 C 
BRANCH  38  39
HETATM   39  N   UNK N   1       1.938   4.621  -0.357  0.00  0.00    -0.294 N 
HETATM   40  C   UNK N   1       3.238   4.566  -0.085  0.00  0.00     0.144 A 
HETATM   41  C   UNK N   1       3.580   3.251   0.095  0.00  0.00     0.099 A 
HETATM   42  C   UNK N   1       2.417   2.527  -0.079  0.00  0.00     0.144 A 
HETATM   43  N   UNK N   1       1.428   3.393  -0.369  0.00  0.00    -0.277 N 
HETATM   44  C   UNK N   1       0.065   3.012  -0.727  0.00  0.00     0.179 C 
BRANCH  41  45
HETATM   45  N   UNK N   1       4.910   2.787   0.284  0.00  0.00    -0.304 N 
HETATM   46  C   UNK N   1       5.946   3.662   0.458  0.00  0.00     0.320 C 
HETATM   47  O   UNK N   1       5.736   4.864   0.577  0.00  0.00    -0.247 OA
HETATM   48  N   UNK N   1       7.216   3.207   0.504  0.00  0.00    -0.341 N 
HETATM   49  H   UNK N   1       7.399   2.245   0.404  0.00  0.00     0.164 HD
HETATM   50  H   UNK N   1       5.088   1.819   0.291  0.00  0.00     0.171 HD
BRANCH  48  51
HETATM   51  C   UNK N   1       8.307   4.133   0.700  0.00  0.00     0.143 C 
BRANCH  51  52
HETATM   52  C   UNK N   1       9.453   3.826  -0.235  0.00  0.00     0.130 C 
BRANCH  52  53
HETATM   53  N   UNK N   1      10.441   4.884  -0.130  0.00  0.00    -0.429 N 
HETATM   54  H   UNK N   1      11.432   4.655  -0.055  0.00  0.00     0.149 HD
HETATM   55  H   UNK N   1      10.144   5.860  -0.130  0.00  0.00     0.149 HD
ENDBRANCH  52  53
ENDBRANCH  51  52
ENDBRANCH  48  51
ENDBRANCH  41  45
BRANCH  42  56
HETATM   56  N   UNK N   1       2.276   1.125  -0.042  0.00  0.00    -0.382 N 
HETATM   57  H   UNK N   1       1.379   0.720  -0.017  0.00  0.00     0.157 HD
HETATM   58  H   UNK N   1       3.076   0.550  -0.042  0.00  0.00     0.157 HD
ENDBRANCH  42  56
ENDBRANCH  38  39
ENDBRANCH   7  38
TORSDOF 16
