REMARK  10 active torsions:
REMARK  status: ('A' for Active; 'I' for Inactive)
REMARK    1  A    between atoms: C_2  and  C_3 
REMARK    2  A    between atoms: C_3  and  C_4 
REMARK    3  A    between atoms: C_3  and  C_20 
REMARK    4  A    between atoms: C_3  and  N_26 
REMARK    5  A    between atoms: C_4  and  O_5 
REMARK    6  A    between atoms: O_5  and  C_6 
REMARK    7  A    between atoms: C_6  and  C_8 
REMARK    8  A    between atoms: C_10  and  O_18 
REMARK    9  A    between atoms: C_11  and  O_16 
REMARK   10  A    between atoms: C_12  and  O_14 
ROOT
HETATM    1  O   UNK N   1       3.201  -1.151   1.144  0.00  0.00    -0.315 OA
ENDROOT
BRANCH   1   2
HETATM    2  C   UNK N   1       3.418  -0.367   0.033  0.00  0.00     0.226 C 
BRANCH   2   3
HETATM    3  C   UNK N   1       4.777  -0.604  -0.684  0.00  0.00     0.207 C 
BRANCH   3   4
HETATM    4  C   UNK N   1       4.504  -0.253  -2.166  0.00  0.00     0.045 C 
HETATM    5  C   UNK N   1       4.075   1.192  -2.394  0.00  0.00     0.008 C 
ENDBRANCH   3   4
BRANCH   3   6
HETATM    6  C   UNK N   1       5.880   0.314  -0.144  0.00  0.00    -0.018 A 
HETATM    7  C   UNK N   1       5.649   1.165   0.951  0.00  0.00     0.010 A 
HETATM    8  C   UNK N   1       6.672   1.981   1.441  0.00  0.00     0.001 A 
HETATM    9  C   UNK N   1       7.934   1.957   0.844  0.00  0.00     0.000 A 
HETATM   10  C   UNK N   1       8.175   1.119  -0.247  0.00  0.00     0.001 A 
HETATM   11  C   UNK N   1       7.155   0.302  -0.737  0.00  0.00     0.010 A 
ENDBRANCH   3   6
BRANCH   3  12
HETATM   12  N   UNK N   1       5.172  -2.039  -0.581  0.00  0.00     0.096 N 
HETATM   13  C   UNK N   1       5.729  -2.369   0.731  0.00  0.00     0.310 C 
HETATM   14  C   UNK N   1       6.175  -2.444  -1.564  0.00  0.00     0.310 C 
ENDBRANCH   3  12
ENDBRANCH   2   3
ENDBRANCH   1   2
BRANCH   1  15
HETATM   15  C   UNK N   1       2.041  -1.846   1.225  0.00  0.00     0.293 C 
HETATM   16  O   UNK N   1       1.021  -1.280   1.592  0.00  0.00    -0.259 OA
BRANCH  15  17
HETATM   17  C   UNK N   1       1.988  -3.245   0.754  0.00  0.00     0.045 A 
HETATM   18  C   UNK N   1       3.168  -3.895   0.425  0.00  0.00     0.057 A 
HETATM   19  C   UNK N   1       3.184  -5.191  -0.074  0.00  0.00     0.105 A 
HETATM   20  C   UNK N   1       1.953  -5.871  -0.268  0.00  0.00     0.135 A 
HETATM   21  C   UNK N   1       0.727  -5.203   0.048  0.00  0.00     0.105 A 
HETATM   22  C   UNK N   1       0.772  -3.904   0.570  0.00  0.00     0.057 A 
BRANCH  19  23
HETATM   23  O   UNK N   1       4.402  -5.731  -0.341  0.00  0.00    -0.353 OA
HETATM   24  C   UNK N   1       4.640  -7.000  -0.815  0.00  0.00     0.210 C 
ENDBRANCH  19  23
BRANCH  20  25
HETATM   25  O   UNK N   1       1.967  -7.135  -0.746  0.00  0.00    -0.351 OA
HETATM   26  C   UNK N   1       1.623  -8.202   0.051  0.00  0.00     0.210 C 
ENDBRANCH  20  25
BRANCH  21  27
HETATM   27  O   UNK N   1      -0.506  -5.739  -0.154  0.00  0.00    -0.353 OA
HETATM   28  C   UNK N   1      -0.785  -6.850  -0.916  0.00  0.00     0.210 C 
ENDBRANCH  21  27
ENDBRANCH  15  17
ENDBRANCH   1  15
TORSDOF 10
