REMARK  5 active torsions:
REMARK  status: ('A' for Active; 'I' for Inactive)
REMARK    1  A    between atoms: C_15  and  C_14 
REMARK    2  A    between atoms: C_21  and  C_14 
REMARK    3  A    between atoms: C_23  and  C_16 
REMARK    4  A    between atoms: C_24  and  C_19 
REMARK    5  A    between atoms: O_32  and  C_22 
REMARK       I    between atoms: N_30  and  C_23 
REMARK       I    between atoms: N_31  and  C_24 
ROOT
HETATM    1  C   UNK N   1       2.623   0.525   1.189  0.00  0.00     0.010 C 
HETATM    2  C   UNK N   1       3.853   1.100   0.985  0.00  0.00     0.044 C 
HETATM    3  C   UNK N   1       1.529   2.492   0.305  0.00  0.00     0.027 C 
HETATM    4  C   UNK N   1       1.458   1.171   0.774  0.00  0.00    -0.051 C 
HETATM    5  C   UNK N   1       2.778   3.144   0.196  0.00  0.00     0.071 C 
HETATM    6  C   UNK N   1       3.947   2.373   0.458  0.00  0.00     0.132 C 
HETATM    7  F   UNK N   1       5.185   2.778   0.137  0.00  0.00    -0.205 F 
ENDROOT
BRANCH   4   8
HETATM    8  C   UNK N   1       0.168   0.396   0.754  0.00  0.00     0.098 C 
BRANCH   8   9
HETATM    9  C   UNK N   1       0.345  -1.038   0.249  0.00  0.00     0.041 A 
HETATM   10  C   UNK N   1      -0.716  -1.951   0.270  0.00  0.00     0.003 A 
HETATM   11  C   UNK N   1      -2.004  -1.566   0.665  0.00  0.00     0.014 A 
HETATM   12  C   UNK N   1      -0.469  -3.293  -0.097  0.00  0.00     0.028 A 
HETATM   13  C   UNK N   1      -3.040  -2.504   0.683  0.00  0.00     0.001 A 
HETATM   14  C   UNK N   1      -2.792  -3.832   0.323  0.00  0.00     0.001 A 
HETATM   15  C   UNK N   1      -1.509  -4.228  -0.062  0.00  0.00     0.017 A 
HETATM   16  C   UNK N   1       0.823  -3.673  -0.476  0.00  0.00     0.166 A 
HETATM   17  N   UNK N   1       1.803  -2.740  -0.515  0.00  0.00    -0.279 N 
HETATM   18  N   UNK N   1       1.569  -1.477  -0.171  0.00  0.00    -0.302 N 
ATOM     19  HN  UNK N   1       2.739  -3.012  -0.815  1.00  0.00     0.189 HD
ATOM     20  HN  UNK N   1       2.336  -0.807  -0.223  1.00  0.00     0.186 HD
BRANCH  16  21
HETATM   21  O   UNK N   1       1.105  -4.946  -0.800  0.00  0.00    -0.344 OA
HETATM   22  H   UNK N   1       0.435  -5.560  -1.026  0.00  0.00     0.219 HD
ENDBRANCH  16  21
ENDBRANCH   8   9
ENDBRANCH   4   8
BRANCH   5  23
HETATM   23  C   UNK N   1       2.801   4.585  -0.257  0.00  0.00     0.257 C 
HETATM   24  N   UNK N   1       3.819   5.459   0.050  0.00  0.00    -0.345 N 
HETATM   25  C   UNK N   1       3.856   6.794  -0.511  0.00  0.00     0.146 C 
HETATM   26  C   UNK N   1       4.899   5.125   0.945  0.00  0.00     0.146 C 
HETATM   27  C   UNK N   1       5.176   6.955  -1.283  0.00  0.00     0.145 C 
HETATM   28  N   UNK N   1       6.299   6.457  -0.495  0.00  0.00    -0.349 N 
HETATM   29  C   UNK N   1       6.186   5.168   0.135  0.00  0.00     0.145 C 
HETATM   30  C   UNK N   1       7.457   7.161  -0.350  0.00  0.00     0.224 C 
HETATM   31  O   UNK N   1       8.398   6.665   0.258  0.00  0.00    -0.273 OA
HETATM   32  O   UNK N   1       1.838   5.001  -0.890  0.00  0.00    -0.267 OA
BRANCH  30  33
HETATM   33  C   UNK N   1       7.624   8.530  -0.937  0.00  0.00     0.078 A 
HETATM   34  C   UNK N   1       8.055   9.491   0.160  0.00  0.00     0.015 A 
HETATM   35  C   UNK N   1       6.622   9.485  -0.308  0.00  0.00     0.015 A 
ENDBRANCH  30  33
ENDBRANCH   5  23
TORSDOF 5
