REMARK WARNING: 32 MAX_TORS EXCEEDED!!!
REMARK  40 active torsions:
REMARK  status: ('A' for Active; 'I' for Inactive)
REMARK    1  A    between atoms: C_1  and  C_2 
REMARK    2  A    between atoms: C_1  and  N_26 
REMARK    3  A    between atoms: C_2  and  O_3 
REMARK    4  A    between atoms: O_3  and  P_4 
REMARK    5  A    between atoms: P_4  and  O_5 
REMARK    6  A    between atoms: O_5  and  C_6 
REMARK    7  A    between atoms: C_6  and  C_7 
REMARK    8  A    between atoms: C_7  and  C_8 
REMARK    9  A    between atoms: C_7  and  O_28 
REMARK   10  A    between atoms: C_8  and  O_9 
REMARK   11  A    between atoms: O_9  and  C_10 
REMARK   12  A    between atoms: C_10  and  C_11 
REMARK   13  A    between atoms: C_11  and  C_12 
REMARK   14  A    between atoms: C_12  and  C_13 
REMARK   15  A    between atoms: C_13  and  C_14 
REMARK   16  A    between atoms: C_14  and  C_15 
REMARK   17  A    between atoms: C_15  and  C_16 
REMARK   18  A    between atoms: C_16  and  C_17 
REMARK   19  A    between atoms: C_17  and  C_18 
REMARK   20  A    between atoms: C_18  and  C_19 
REMARK   21  A    between atoms: C_19  and  C_20 
REMARK   22  A    between atoms: C_20  and  C_21 
REMARK   23  A    between atoms: C_21  and  C_22 
REMARK   24  A    between atoms: C_22  and  C_23 
REMARK   25  A    between atoms: C_23  and  C_24 
REMARK   26  A    between atoms: O_28  and  C_29 
REMARK   27  A    between atoms: C_29  and  C_30 
REMARK   28  A    between atoms: C_30  and  C_31 
REMARK   29  A    between atoms: C_31  and  C_32 
REMARK   30  A    between atoms: C_32  and  C_33 
REMARK   31  A    between atoms: C_33  and  C_34 
REMARK   32  A    between atoms: C_34  and  C_35 
REMARK   33  A    between atoms: C_35  and  C_36 
REMARK   34  A    between atoms: C_36  and  C_37 
REMARK   35  A    between atoms: C_37  and  C_38 
REMARK   36  A    between atoms: C_38  and  C_39 
REMARK   37  A    between atoms: C_39  and  C_40 
REMARK   38  A    between atoms: C_40  and  C_41 
REMARK   39  A    between atoms: C_41  and  C_42 
REMARK   40  A    between atoms: C_42  and  C_43 
ROOT
HETATM    1  C   UNK N   1      -6.038  -2.316   1.207  0.00  0.00     0.180 C 
ENDROOT
BRANCH   1   2
HETATM    2  C   UNK N   1      -6.063  -3.834   1.042  0.00  0.00     0.216 C 
BRANCH   2   3
HETATM    3  O   UNK N   1      -6.058  -4.186  -0.311  0.00  0.00    -0.287 OA
BRANCH   3   4
HETATM    4  P   UNK N   1      -5.003  -5.554  -0.423  0.00  0.00     0.408 P 
HETATM    5  O   UNK N   1      -5.055  -6.019  -1.902  0.00  0.00    -0.624 OA
HETATM    6  O   UNK N   1      -5.628  -6.865   0.530  0.00  0.00    -0.624 OA
BRANCH   4   7
HETATM    7  O   UNK N   1      -3.336  -5.172  -0.072  0.00  0.00    -0.288 OA
BRANCH   7   8
HETATM    8  C   UNK N   1      -2.804  -6.321   0.521  0.00  0.00     0.209 C 
BRANCH   8   9
HETATM    9  C   UNK N   1      -2.278  -7.282  -0.552  0.00  0.00     0.262 C 
BRANCH   9  10
HETATM   10  N   UNK N   1      -2.298  -8.684  -0.124  0.00  0.00    -0.077 N 
HETATM   11  C   UNK N   1      -3.644  -9.118   0.216  0.00  0.00     0.271 C 
HETATM   12  C   UNK N   1      -1.417  -8.897   1.014  0.00  0.00     0.271 C 
HETATM   13  C   UNK N   1      -1.829  -9.504  -1.225  0.00  0.00     0.271 C 
ENDBRANCH   9  10
ENDBRANCH   8   9
ENDBRANCH   7   8
ENDBRANCH   4   7
ENDBRANCH   3   4
ENDBRANCH   2   3
ENDBRANCH   1   2
BRANCH   1  14
HETATM   14  C   UNK N   1      -4.859  -1.913   2.080  0.00  0.00     0.213 C 
BRANCH  14  15
HETATM   15  O   UNK N   1      -3.685  -2.267   1.450  0.00  0.00    -0.319 OA
BRANCH  15  16
HETATM   16  C   UNK N   1      -2.963  -1.386   0.722  0.00  0.00     0.258 C 
HETATM   17  O   UNK N   1      -2.008  -1.800   0.078  0.00  0.00    -0.265 OA
BRANCH  16  18
HETATM   18  C   UNK N   1      -3.341   0.079   0.676  0.00  0.00     0.111 C 
BRANCH  18  19
HETATM   19  C   UNK N   1      -2.403   0.931  -0.164  0.00  0.00     0.010 C 
BRANCH  19  20
HETATM   20  C   UNK N   1      -2.635   0.685  -1.644  0.00  0.00     0.000 C 
BRANCH  20  21
HETATM   21  C   UNK N   1      -1.473   1.228  -2.459  0.00  0.00     0.000 C 
BRANCH  21  22
HETATM   22  C   UNK N   1      -0.313   0.241  -2.492  0.00  0.00     0.000 C 
BRANCH  22  23
HETATM   23  C   UNK N   1       0.678   0.546  -1.382  0.00  0.00     0.000 C 
BRANCH  23  24
HETATM   24  C   UNK N   1       0.478  -0.412  -0.224  0.00  0.00     0.000 C 
BRANCH  24  25
HETATM   25  C   UNK N   1       0.803   0.270   1.095  0.00  0.00     0.000 C 
BRANCH  25  26
HETATM   26  C   UNK N   1       2.260   0.068   1.473  0.00  0.00     0.000 C 
BRANCH  26  27
HETATM   27  C   UNK N   1       3.160   0.955   0.630  0.00  0.00     0.000 C 
BRANCH  27  28
HETATM   28  C   UNK N   1       4.104   0.111  -0.206  0.00  0.00     0.000 C 
BRANCH  28  29
HETATM   29  C   UNK N   1       5.207  -0.463   0.667  0.00  0.00     0.000 C 
BRANCH  29  30
HETATM   30  C   UNK N   1       6.324  -1.018  -0.196  0.00  0.00    -0.000 C 
BRANCH  30  31
HETATM   31  C   UNK N   1       7.130   0.119  -0.796  0.00  0.00    -0.005 C 
HETATM   32  C   UNK N   1       8.220  -0.444  -1.682  0.00  0.00     0.005 C 
ENDBRANCH  30  31
ENDBRANCH  29  30
ENDBRANCH  28  29
ENDBRANCH  27  28
ENDBRANCH  26  27
ENDBRANCH  25  26
ENDBRANCH  24  25
ENDBRANCH  23  24
ENDBRANCH  22  23
ENDBRANCH  21  22
ENDBRANCH  20  21
ENDBRANCH  19  20
ENDBRANCH  18  19
ENDBRANCH  16  18
ENDBRANCH  15  16
ENDBRANCH  14  15
ENDBRANCH   1  14
BRANCH   1  33
HETATM   33  O   UNK N   1      -5.934  -1.704  -0.026  0.00  0.00    -0.312 OA
BRANCH  33  34
HETATM   34  C   UNK N   1      -6.982  -1.125  -0.654  0.00  0.00     0.259 C 
HETATM   35  O   UNK N   1      -6.841  -0.721  -1.797  0.00  0.00    -0.265 OA
BRANCH  34  36
HETATM   36  C   UNK N   1      -8.323  -1.002   0.016  0.00  0.00     0.111 C 
BRANCH  36  37
HETATM   37  C   UNK N   1      -8.755   0.454   0.113  0.00  0.00     0.010 C 
BRANCH  37  38
HETATM   38  C   UNK N   1      -7.787   1.243   0.982  0.00  0.00     0.000 C 
BRANCH  38  39
HETATM   39  C   UNK N   1      -7.363   2.525   0.285  0.00  0.00     0.000 C 
BRANCH  39  40
HETATM   40  C   UNK N   1      -6.533   2.217  -0.953  0.00  0.00     0.000 C 
BRANCH  40  41
HETATM   41  C   UNK N   1      -5.873   3.478  -1.480  0.00  0.00     0.000 C 
BRANCH  41  42
HETATM   42  C   UNK N   1      -4.487   3.636  -0.882  0.00  0.00     0.000 C 
BRANCH  42  43
HETATM   43  C   UNK N   1      -4.570   4.112   0.559  0.00  0.00     0.000 C 
BRANCH  43  44
HETATM   44  C   UNK N   1      -3.254   3.859   1.278  0.00  0.00     0.000 C 
BRANCH  44  45
HETATM   45  C   UNK N   1      -2.257   4.984   1.051  0.00  0.00     0.000 C 
BRANCH  45  46
HETATM   46  C   UNK N   1      -1.641   4.907  -0.338  0.00  0.00     0.000 C 
BRANCH  46  47
HETATM   47  C   UNK N   1      -2.034   6.129  -1.149  0.00  0.00     0.000 C 
BRANCH  47  48
HETATM   48  C   UNK N   1      -1.279   7.346  -0.651  0.00  0.00    -0.000 C 
BRANCH  48  49
HETATM   49  C   UNK N   1      -2.236   8.509  -0.500  0.00  0.00    -0.005 C 
HETATM   50  C   UNK N   1      -1.505   9.681   0.119  0.00  0.00     0.005 C 
ENDBRANCH  48  49
ENDBRANCH  47  48
ENDBRANCH  46  47
ENDBRANCH  45  46
ENDBRANCH  44  45
ENDBRANCH  43  44
ENDBRANCH  42  43
ENDBRANCH  41  42
ENDBRANCH  40  41
ENDBRANCH  39  40
ENDBRANCH  38  39
ENDBRANCH  37  38
ENDBRANCH  36  37
ENDBRANCH  34  36
ENDBRANCH  33  34
ENDBRANCH   1  33
TORSDOF 40
