REMARK  5 active torsions:
REMARK  status: ('A' for Active; 'I' for Inactive)
REMARK    1  A    between atoms: N_2  and  C_12 
REMARK    2  A    between atoms: C_7  and  N_14 
REMARK    3  A    between atoms: C_18  and  C_20 
REMARK    4  A    between atoms: C_20  and  N_21 
REMARK       I    between atoms: N_21  and  C_22 
REMARK    5  A    between atoms: C_22  and  C_25 
ROOT
HETATM    1  N   UNK N   1       3.430   0.721   0.441  0.00  0.00    -0.291 N 
HETATM    2  C   UNK N   1       3.000  -0.454  -0.049  0.00  0.00     0.368 C 
HETATM    3  C   UNK N   1       2.371   1.689   0.304  0.00  0.00     0.168 C 
HETATM    4  O   UNK N   1       1.795  -0.332  -0.629  0.00  0.00    -0.295 OA
HETATM    5  C   UNK N   1       1.590   1.026  -0.831  0.00  0.00     0.170 C 
HETATM    6  O   UNK N   1       3.687  -1.459  -0.138  0.00  0.00    -0.238 OA
ENDROOT
BRANCH   1   7
HETATM    7  C   UNK N   1       4.785   1.127   0.628  0.00  0.00     0.039 A 
HETATM    8  C   UNK N   1       5.021   2.479   0.879  0.00  0.00     0.032 A 
HETATM    9  C   UNK N   1       6.287   3.017   0.752  0.00  0.00     0.032 A 
HETATM   10  C   UNK N   1       7.374   2.229   0.363  0.00  0.00     0.037 A 
HETATM   11  C   UNK N   1       7.164   0.843   0.185  0.00  0.00     0.032 A 
HETATM   12  C   UNK N   1       5.873   0.296   0.302  0.00  0.00     0.032 A 
BRANCH  10  13
HETATM   13  N   UNK N   1       8.657   2.827   0.095  0.00  0.00    -0.314 N 
HETATM   14  C   UNK N   1       9.805   1.948  -0.125  0.00  0.00     0.158 C 
HETATM   15  C   UNK N   1      11.076   2.720  -0.514  0.00  0.00     0.188 C 
HETATM   16  O   UNK N   1      11.165   3.900   0.239  0.00  0.00    -0.380 OA
HETATM   17  C   UNK N   1      10.190   4.751  -0.296  0.00  0.00     0.271 C 
HETATM   18  C   UNK N   1       8.831   4.196   0.006  0.00  0.00     0.248 C 
HETATM   19  O   UNK N   1       7.899   4.975   0.136  0.00  0.00    -0.271 OA
ENDBRANCH  10  13
ENDBRANCH   1   7
BRANCH   5  20
HETATM   20  C   UNK N   1       0.193   1.522  -1.171  0.00  0.00     0.157 C 
BRANCH  20  21
HETATM   21  N   UNK N   1      -0.771   1.464  -0.105  0.00  0.00    -0.354 N 
HETATM   22  C   UNK N   1      -1.381   2.570   0.406  0.00  0.00     0.258 C 
HETATM   23  O   UNK N   1      -2.344   2.417   1.139  0.00  0.00    -0.267 OA
HETATM   24  H   UNK N   1      -1.002   0.584   0.272  0.00  0.00     0.162 HD
BRANCH  22  25
HETATM   25  C   UNK N   1      -0.931   3.963   0.112  0.00  0.00     0.074 A 
HETATM   26  S   UNK N   1      -1.738   5.340   0.575  0.00  0.00    -0.072 SA
HETATM   27  C   UNK N   1      -0.679   6.476   0.008  0.00  0.00     0.075 A 
HETATM   28  C   UNK N   1       0.391   5.799  -0.580  0.00  0.00     0.033 A 
HETATM   29 Cl   UNK N   1      -0.872   8.213   0.130  0.00  0.00    -0.076 Cl
HETATM   30  C   UNK N   1       0.250   4.379  -0.523  0.00  0.00     0.027 A 
ENDBRANCH  22  25
ENDBRANCH  20  21
ENDBRANCH   5  20
TORSDOF 5
