150
  Mrv0541 02231214282D          

 15 16  0  0  1  0            999 V2000
    5.9868    1.6183    0.0000 O   0  0  0  0  0  0  0  0  0  0  0  0
    4.6286    2.0622    0.0000 O   0  0  0  0  0  0  0  0  0  0  0  0
    3.8597   -1.6183    0.0000 N   0  0  0  0  0  0  0  0  0  0  0  0
    5.4742    0.0498    0.0000 N   0  0  0  0  0  0  0  0  0  0  0  0
    3.8597   -0.2904    0.0000 C   0  0  0  0  0  0  0  0  0  0  0  0
    4.1159    0.4938    0.0000 C   0  0  0  0  0  0  0  0  0  0  0  0
    3.0791   -0.5418    0.0000 C   0  0  0  0  0  0  0  0  0  0  0  0
    4.9232    0.6639    0.0000 C   0  0  1  0  0  0  0  0  0  0  0  0
    3.0791   -1.3668    0.0000 C   0  0  0  0  0  0  0  0  0  0  0  0
    4.3412   -0.9543    0.0000 C   0  0  0  0  0  0  0  0  0  0  0  0
    2.3645   -0.1293    0.0000 C   0  0  0  0  0  0  0  0  0  0  0  0
    2.3645   -1.7793    0.0000 C   0  0  0  0  0  0  0  0  0  0  0  0
    5.1795    1.4482    0.0000 C   0  0  0  0  0  0  0  0  0  0  0  0
    1.6500   -0.5418    0.0000 C   0  0  0  0  0  0  0  0  0  0  0  0
    1.6500   -1.3668    0.0000 C   0  0  0  0  0  0  0  0  0  0  0  0
  1 13  1  0  0  0  0
  2 13  2  0  0  0  0
  3  9  1  0  0  0  0
  3 10  1  0  0  0  0
  8  4  1  1  0  0  0
  5  6  1  0  0  0  0
  5  7  1  0  0  0  0
  5 10  2  0  0  0  0
  6  8  1  0  0  0  0
  7  9  1  0  0  0  0
  7 11  2  0  0  0  0
  8 13  1  0  0  0  0
  9 12  2  0  0  0  0
 11 14  1  0  0  0  0
 12 15  1  0  0  0  0
 14 15  2  0  0  0  0
M  END
> <DATABASE_ID>
DB00150

> <DATABASE_NAME>
drugbank

> <SMILES>
N[C@@H](CC1=CNC2=CC=CC=C12)C(O)=O

> <INCHI_IDENTIFIER>
InChI=1S/C11H12N2O2/c12-9(11(14)15)5-7-6-13-10-4-2-1-3-8(7)10/h1-4,6,9,13H,5,12H2,(H,14,15)/t9-/m0/s1

> <INCHI_KEY>
QIVBCDIJIAJPQS-VIFPVBQESA-N

> <FORMULA>
C11H12N2O2

> <MOLECULAR_WEIGHT>
204.2252

> <EXACT_MASS>
204.089877638

> <JCHEM_ACCEPTOR_COUNT>
3

> <JCHEM_AVERAGE_POLARIZABILITY>
21.04741401319241

> <JCHEM_BIOAVAILABILITY>
1

> <JCHEM_DONOR_COUNT>
3

> <JCHEM_FORMAL_CHARGE>
0

> <JCHEM_GHOSE_FILTER>
0

> <JCHEM_IUPAC>
(2S)-2-amino-3-(1H-indol-3-yl)propanoic acid

> <ALOGPS_LOGP>
-1.10

> <JCHEM_LOGP>
-1.0854569138833579

> <ALOGPS_LOGS>
-2.18

> <JCHEM_MDDR_LIKE_RULE>
0

> <JCHEM_NUMBER_OF_RINGS>
2

> <JCHEM_PHYSIOLOGICAL_CHARGE>
0

> <JCHEM_PKA>
16.1565885064574

> <JCHEM_PKA_STRONGEST_ACIDIC>
2.5439286383469866

> <JCHEM_PKA_STRONGEST_BASIC>
9.396082567807317

> <JCHEM_POLAR_SURFACE_AREA>
79.11

> <JCHEM_REFRACTIVITY>
56.20280000000001

> <JCHEM_ROTATABLE_BOND_COUNT>
3

> <JCHEM_RULE_OF_FIVE>
1

> <ALOGPS_SOLUBILITY>
1.36e+00 g/l

> <JCHEM_TRADITIONAL_IUPAC>
L-tryptophan

> <JCHEM_VEBER_RULE>
0

> <DRUGBANK_ID>
DB00150

> <SECONDARY_ACCESSION_NUMBERS>
NUTR00058; EXPT02064

> <DRUG_GROUPS>
approved; nutraceutical; withdrawn

> <GENERIC_NAME>
L-Tryptophan

> <SYNONYMS>
(2S)-2-amino-3-(1H-indol-3-yl)propanoic acid; (S)-alpha-Amino-beta-(3-indolyl)-propionic acid; (S)-Tryptophan; (S)-α-amino-1H-indole-3-propanoic acid; L-(-)-Tryptophan; L-(−)-tryptophan; L-β-3-indolylalanine; Trp; Tryptophan; W

> <PRODUCTS>
2.5% Travasol Amino Acid Injection With Electrolytes In 10% Dextrose; 2.5% Travasol Amino Acid Injection With Electrolytes In 10% Dextrose Clinimix; 2.5% Travasol Amino Acid Injection Without Electrolytes In 10% Dextrose Quickmix; 2.5%travasol Amino Acid InJ.W.eleC.W.25%dex; 2.75% Travas. Amino Acid InJ.W.elecw.25%dex; 2.75% Travasol Amino Acid Injection With Electrolytes In 25% Dextrose Quickmix; 2.75% Travasol Amino Acid Injection With Electrolytes In 5% Dextrose Quickmix; 2.75%travasol Amino Acid InJ.W.eleC.W.5%dex.; 4.25% Amino Acid Injection Without Electrolytes In 20% Dextrose Quickmix; 4.25% Travasol Amino Acid Injection With Electrolytes In 10% Dextrose; 4.25% Travasol Amino Acid Injection With Electrolytes In 20% Dextrose; 4.25% Travasol Amino Acid Injection With Electrolytes In 20% Dextrose Quickmix; 4.25% Travasol Amino Acid Injection With Electrolytes In 25% Dextrose; 4.25% Travasol Amino Acid Injection With Electrolytes In 5% Dextrose Quickmix; 4.25% Travasol Amino Acid Injection Without Electrlytes In 10% Dextrose; 4.25% Travasol Amino Acid Injection Without Electrolytes In 20% Dextrose; 4.25% Travasol Amino Acid Injection Without Electrolytes In 25% Dextrose; 4.25% Travasol Amino Acid Without Electrolytes In 5% Dextrose Quickmix; 4.25%trav. Amino Acid InJ.W.O.elect.5%dext.; 4.25%travasol Amino Acid InJ.W.elecw.5%dex.; 5% Travasol Amino Acid Injection With Electrolytes In 20% Dextrose; 5% Travasol Amino Acid Injection Without Electrolytes In 20% Dextrose; 5% Travasol Amino Acid Injection Without Electrolytes In 25% Dextrose; Aminosyn; Aminosyn 10%; Aminosyn 10% W Electrolytes; Aminosyn 3.5% M; Aminosyn 5%; Aminosyn 7%; Aminosyn 8.5%; Aminosyn 8.5% Injection With Electrolytes; Aminosyn II; Aminosyn II 10%; Aminosyn II 10% With Electrolytes; Aminosyn II 15%; Aminosyn II 5% Inj; Aminosyn II 7% Injection; Aminosyn II 7% M In 10% Dextrose(dual Chamber); Aminosyn II 7% With 10% Dextrose; Aminosyn II 7% With 50% Dextrose; Aminosyn II 8.5% Injection; Aminosyn II 8.5% M In 20% Dextrose (dual Chamber); Aminosyn II 8.5% With 50% Dextrose; Aminosyn II In Dextrose Injection; Aminosyn II with Electrolytes; Aminosyn RF; Aminosyn RF Injection; Aminosyn Sulfite Free; Aminosyn-PF; Aminosyn-PF 10%; Aminosyn-PF 7%; Apo-tryptophan; Clinimix; Clinimix 2.5% Travasol Aa Without Electrolytes In 10% Dextrose Injec; Clinimix E; Clinisol; Dom-tryptophan; FreAmine HBC; FreAmine III; HepatAmine; NephrAmine; Novamine; Olimel 3.3% E; Olimel 4.4%; Olimel 4.4% E; Olimel 5.7%; Olimel 5.7% E; PHL-tryptophan; PMS-tryptophan; Periolimel 2.5% E; Plenamine; Premasol - sulfite-free (Amino Acid); Primene 10%; Primene 10%-liq IV; ProSol; Quick Mix 2.5% Travasol Aa With Electrolytes With 25% Dextrose Injec; Renamin (amino Acids) Injection; Teva-tryptophan; Travasol; Travasol Amino Acid Inj 5.5%; Travasol Amino Acid Inj 8.5%; Travasol E; Travasol Inj Without Electrolytes 5.5%; TrophAmine; Tryptan Cap 500mg; Tryptan Tab 1000mg; Tryptan Tab 250mg; Tryptan Tab 500mg; Tryptan Tab 750mg; Vamin 18 Electrolyte-free; Vamin N

> <INTERNATIONAL_BRANDS>
Alti-Tryptophan

$$$$

  Mrv0541 04191212102D          

 10  9  0  0  0  0            999 V2000
    6.2861   -7.7655    0.0000 C   0  0  0  0  0  0  0  0  0  0  0  0
    6.9920   -7.3579    0.0000 C   0  0  0  0  0  0  0  0  0  0  0  0
    7.6978   -7.7655    0.0000 C   0  0  0  0  0  0  0  0  0  0  0  0
    8.4037   -7.3579    0.0000 C   0  0  0  0  0  0  0  0  0  0  0  0
    9.1202   -7.7717    0.0000 Cl  0  0  0  0  0  0  0  0  0  0  0  0
    8.4035   -6.5294    0.0000 H   0  0  0  0  0  0  0  0  0  0  0  0
    7.3967   -6.6390    0.0000 C   0  0  0  0  0  0  0  0  0  0  0  0
    6.5693   -6.6390    0.0000 O   0  0  0  0  0  0  0  0  0  0  0  0
    5.5724   -7.3469    0.0000 C   0  0  0  0  0  0  0  0  0  0  0  0
    7.8054   -5.9213    0.0000 C   0  0  0  0  0  0  0  0  0  0  0  0
  2  1  1  0  0  0  0
  3  2  1  0  0  0  0
  4  3  2  0  0  0  0
  4  5  1  0  0  0  0
  4  6  1  4  0  0  0
  2  7  1  0  0  0  0
  2  8  1  0  0  0  0
  1  9  1  0  0  0  0
  7 10  3  0  0  0  0
M  END
> <DATABASE_ID>
DB00189

> <DATABASE_NAME>
drugbank

> <SMILES>
[H]C(Cl)=CC(O)(CC)C#C

> <INCHI_IDENTIFIER>
InChI=1S/C7H9ClO/c1-3-7(9,4-2)5-6-8/h1,5-6,9H,4H2,2H3

> <INCHI_KEY>
ZEHYJZXQEQOSON-UHFFFAOYSA-N

> <FORMULA>
C7H9ClO

> <MOLECULAR_WEIGHT>
144.599

> <EXACT_MASS>
144.034192617

> <JCHEM_ACCEPTOR_COUNT>
1

> <JCHEM_AVERAGE_POLARIZABILITY>
14.766102172119936

> <JCHEM_BIOAVAILABILITY>
1

> <JCHEM_DONOR_COUNT>
1

> <JCHEM_FORMAL_CHARGE>
0

> <JCHEM_GHOSE_FILTER>
0

> <JCHEM_IUPAC>
1-chloro-3-ethylpent-1-en-4-yn-3-ol

> <ALOGPS_LOGP>
1.45

> <JCHEM_LOGP>
1.620819461

> <ALOGPS_LOGS>
-3.00

> <JCHEM_MDDR_LIKE_RULE>
0

> <JCHEM_NUMBER_OF_RINGS>
0

> <JCHEM_PHYSIOLOGICAL_CHARGE>
0

> <JCHEM_PKA_STRONGEST_ACIDIC>
12.877910831568652

> <JCHEM_PKA_STRONGEST_BASIC>
-3.7270018022718725

> <JCHEM_POLAR_SURFACE_AREA>
20.23

> <JCHEM_REFRACTIVITY>
38.6382

> <JCHEM_ROTATABLE_BOND_COUNT>
2

> <JCHEM_RULE_OF_FIVE>
1

> <ALOGPS_SOLUBILITY>
1.43e-01 g/l

> <JCHEM_TRADITIONAL_IUPAC>
etclorvinol

> <JCHEM_VEBER_RULE>
1

> <DRUGBANK_ID>
DB00189

> <SECONDARY_ACCESSION_NUMBERS>
APRD00958

> <DRUG_GROUPS>
approved; illicit; withdrawn

> <GENERIC_NAME>
Ethchlorvynol

> <SYNONYMS>
1-chloro-3-ethyl-1-penten-4-yn-3-ol; 1-Chloro-3-ethyl-pent-1-en-4-yn-3-ol; 3-(beta-chlorovinyl)-1-pentyn-3-ol; 3-(β-chlorovinyl)-1-pentyn-3-ol; ethyl β-chlorovinyl ethynyl carbinol; β-chlorovinyl ethyl ethynyl carbinol

> <PRODUCTS>
Placidyl Cap 200mg; Placidyl Cap 500mg; Placidyl Cap 750mg

> <INTERNATIONAL_BRANDS>
Arvynol; Nostel; Placidyl; Roeridorm; Serenesil

$$$$
197
  Mrv0541 02231214302D          

 31 34  0  0  1  0            999 V2000
   11.4977    0.4914    0.0000 S   0  0  0  0  0  0  0  0  0  0  0  0
    4.9739   -1.4254    0.0000 O   0  0  0  0  0  0  0  0  0  0  0  0
    6.9616   -0.2918    0.0000 O   0  0  0  0  0  0  0  0  0  0  0  0
    2.0929    0.2531    0.0000 O   0  0  0  0  0  0  0  0  0  0  0  0
    9.5379    1.3379    0.0000 O   0  0  0  0  0  0  0  0  0  0  0  0
   12.4273    1.6304    0.0000 O   0  0  0  0  0  0  0  0  0  0  0  0
   10.9595    1.7129    0.0000 N   0  0  0  0  0  0  0  0  0  0  0  0
    5.7214   -1.0015    0.0000 C   0  0  0  0  0  0  0  0  0  0  0  0
    5.7214   -0.1421    0.0000 C   0  0  0  0  0  0  0  0  0  0  0  0
    4.9739    0.2817    0.0000 C   0  0  0  0  0  0  0  0  0  0  0  0
    4.2364   -0.1594    0.0000 C   0  0  0  0  0  0  0  0  0  0  0  0
    4.2364   -0.9844    0.0000 C   0  0  0  0  0  0  0  0  0  0  0  0
    6.5464   -1.0047    0.0000 C   0  0  0  0  0  0  0  0  0  0  0  0
    6.1312   -1.7176    0.0000 C   0  0  0  0  0  0  0  0  0  0  0  0
    3.5219    0.2531    0.0000 C   0  0  0  0  0  0  0  0  0  0  0  0
    3.5219   -1.3969    0.0000 C   0  0  0  0  0  0  0  0  0  0  0  0
    2.8075   -0.9844    0.0000 C   0  0  0  0  0  0  0  0  0  0  0  0
    2.8075   -0.1594    0.0000 C   0  0  0  0  0  0  0  0  0  0  0  0
    3.5219    1.0781    0.0000 C   0  0  0  0  0  0  0  0  0  0  0  0
    3.5219   -2.2219    0.0000 C   0  0  0  0  0  0  0  0  0  0  0  0
    2.0929   -1.3969    0.0000 C   0  0  0  0  0  0  0  0  0  0  0  0
    7.7866   -0.2950    0.0000 C   0  0  0  0  0  0  0  0  0  0  0  0
    9.4366   -0.3014    0.0000 C   0  0  0  0  0  0  0  0  0  0  0  0
    8.1964   -1.0110    0.0000 C   0  0  0  0  0  0  0  0  0  0  0  0
    8.2019    0.4179    0.0000 C   0  0  0  0  0  0  0  0  0  0  0  0
   10.2616   -0.3046    0.0000 C   0  0  0  0  0  0  0  0  0  0  0  0
   10.6769    0.4083    0.0000 C   0  0  0  0  0  0  0  0  0  0  0  0
    9.0214   -1.0143    0.0000 C   0  0  0  0  0  0  0  0  0  0  0  0
    9.0269    0.4146    0.0000 C   0  0  0  0  0  0  0  0  0  0  0  0
   10.3442    1.1632    0.0000 C   0  0  0  0  0  0  0  0  0  0  0  0
   11.6723    1.2977    0.0000 C   0  0  0  0  0  0  0  0  0  0  0  0
  1 27  1  0  0  0  0
  1 31  1  0  0  0  0
  2  8  1  0  0  0  0
  2 12  1  0  0  0  0
  3 13  1  0  0  0  0
  3 22  1  0  0  0  0
  4 18  1  0  0  0  0
  5 30  2  0  0  0  0
  6 31  2  0  0  0  0
  7 30  1  0  0  0  0
  7 31  1  0  0  0  0
  8  9  1  0  0  0  0
  8 13  1  0  0  0  0
  8 14  1  0  0  0  0
  9 10  1  0  0  0  0
 10 11  1  0  0  0  0
 11 12  2  0  0  0  0
 11 15  1  0  0  0  0
 12 16  1  0  0  0  0
 15 18  2  0  0  0  0
 15 19  1  0  0  0  0
 16 17  2  0  0  0  0
 16 20  1  0  0  0  0
 17 18  1  0  0  0  0
 17 21  1  0  0  0  0
 22 24  2  0  0  0  0
 22 25  1  0  0  0  0
 23 26  1  0  0  0  0
 23 28  2  0  0  0  0
 23 29  1  0  0  0  0
 24 28  1  0  0  0  0
 25 29  2  0  0  0  0
 26 27  1  0  0  0  0
 27 30  1  0  0  0  0
M  END
> <DATABASE_ID>
DB00197

> <DATABASE_NAME>
drugbank

> <SMILES>
CC1=C(C)C2=C(CCC(C)(COC3=CC=C(CC4SC(=O)NC4=O)C=C3)O2)C(C)=C1O

> <INCHI_IDENTIFIER>
InChI=1S/C24H27NO5S/c1-13-14(2)21-18(15(3)20(13)26)9-10-24(4,30-21)12-29-17-7-5-16(6-8-17)11-19-22(27)25-23(28)31-19/h5-8,19,26H,9-12H2,1-4H3,(H,25,27,28)

> <INCHI_KEY>
GXPHKUHSUJUWKP-UHFFFAOYSA-N

> <FORMULA>
C24H27NO5S

> <MOLECULAR_WEIGHT>
441.54

> <EXACT_MASS>
441.160993669

> <JCHEM_ACCEPTOR_COUNT>
5

> <JCHEM_AVERAGE_POLARIZABILITY>
47.07923558471997

> <JCHEM_BIOAVAILABILITY>
1

> <JCHEM_DONOR_COUNT>
2

> <JCHEM_FORMAL_CHARGE>
0

> <JCHEM_GHOSE_FILTER>
1

> <JCHEM_IUPAC>
5-({4-[(6-hydroxy-2,5,7,8-tetramethyl-3,4-dihydro-2H-1-benzopyran-2-yl)methoxy]phenyl}methyl)-1,3-thiazolidine-2,4-dione

> <ALOGPS_LOGP>
4.16

> <JCHEM_LOGP>
5.495204457666666

> <ALOGPS_LOGS>
-5.56

> <JCHEM_MDDR_LIKE_RULE>
0

> <JCHEM_NUMBER_OF_RINGS>
4

> <JCHEM_PHYSIOLOGICAL_CHARGE>
-1

> <JCHEM_PKA>
10.79429140046759

> <JCHEM_PKA_STRONGEST_ACIDIC>
6.61355777563998

> <JCHEM_PKA_STRONGEST_BASIC>
-4.558161720453246

> <JCHEM_POLAR_SURFACE_AREA>
84.86

> <JCHEM_REFRACTIVITY>
120.9914

> <JCHEM_ROTATABLE_BOND_COUNT>
5

> <JCHEM_RULE_OF_FIVE>
0

> <ALOGPS_SOLUBILITY>
1.21e-03 g/l

> <JCHEM_TRADITIONAL_IUPAC>
troglitazone

> <JCHEM_VEBER_RULE>
0

> <DRUGBANK_ID>
DB00197

> <SECONDARY_ACCESSION_NUMBERS>
APRD00488

> <DRUG_GROUPS>
withdrawn

> <GENERIC_NAME>
Troglitazone

> <INTERNATIONAL_BRANDS>
Noscal; Resulin; Rezulin; Romozin

$$$$
269
  Mrv0541 02231214332D          

 27 29  0  0  0  0            999 V2000
    1.6500   -0.2063    0.0000 Cl  0  0  0  0  0  0  0  0  0  0  0  0
    5.9370    1.4438    0.0000 O   0  0  0  0  0  0  0  0  0  0  0  0
    3.0791   -3.5063    0.0000 O   0  0  0  0  0  0  0  0  0  0  0  0
    2.3645    3.5063    0.0000 O   0  0  0  0  0  0  0  0  0  0  0  0
    3.0791   -0.2063    0.0000 C   0  0  0  0  0  0  0  0  0  0  0  0
    3.7935    0.2063    0.0000 C   0  0  0  0  0  0  0  0  0  0  0  0
    3.0791   -1.0313    0.0000 C   0  0  0  0  0  0  0  0  0  0  0  0
    2.3645    0.2063    0.0000 C   0  0  0  0  0  0  0  0  0  0  0  0
    2.3645    1.0313    0.0000 C   0  0  0  0  0  0  0  0  0  0  0  0
    3.7935    1.0313    0.0000 C   0  0  0  0  0  0  0  0  0  0  0  0
    3.7935   -1.4438    0.0000 C   0  0  0  0  0  0  0  0  0  0  0  0
    4.5080   -0.2063    0.0000 C   0  0  0  0  0  0  0  0  0  0  0  0
    2.3645   -1.4438    0.0000 C   0  0  0  0  0  0  0  0  0  0  0  0
    4.5080    1.4438    0.0000 C   0  0  0  0  0  0  0  0  0  0  0  0
    3.7935   -2.2688    0.0000 C   0  0  0  0  0  0  0  0  0  0  0  0
    5.2224    0.2063    0.0000 C   0  0  0  0  0  0  0  0  0  0  0  0
    2.3645   -2.2688    0.0000 C   0  0  0  0  0  0  0  0  0  0  0  0
    1.6500    1.4438    0.0000 C   0  0  0  0  0  0  0  0  0  0  0  0
    3.0791    1.4438    0.0000 C   0  0  0  0  0  0  0  0  0  0  0  0
    5.2224    1.0313    0.0000 C   0  0  0  0  0  0  0  0  0  0  0  0
    3.0791   -2.6813    0.0000 C   0  0  0  0  0  0  0  0  0  0  0  0
    1.6500    2.2688    0.0000 C   0  0  0  0  0  0  0  0  0  0  0  0
    3.0791    2.2688    0.0000 C   0  0  0  0  0  0  0  0  0  0  0  0
    2.3645    2.6813    0.0000 C   0  0  0  0  0  0  0  0  0  0  0  0
    6.6515    1.0313    0.0000 C   0  0  0  0  0  0  0  0  0  0  0  0
    2.3645   -3.9188    0.0000 C   0  0  0  0  0  0  0  0  0  0  0  0
    1.6500    3.9188    0.0000 C   0  0  0  0  0  0  0  0  0  0  0  0
  1  8  1  0  0  0  0
  2 20  1  0  0  0  0
  2 25  1  0  0  0  0
  3 21  1  0  0  0  0
  3 26  1  0  0  0  0
  4 24  1  0  0  0  0
  4 27  1  0  0  0  0
  5  6  1  0  0  0  0
  5  7  1  0  0  0  0
  5  8  2  0  0  0  0
  6 10  2  0  0  0  0
  6 12  1  0  0  0  0
  7 11  2  0  0  0  0
  7 13  1  0  0  0  0
  8  9  1  0  0  0  0
  9 18  2  0  0  0  0
  9 19  1  0  0  0  0
 10 14  1  0  0  0  0
 11 15  1  0  0  0  0
 12 16  2  0  0  0  0
 13 17  2  0  0  0  0
 14 20  2  0  0  0  0
 15 21  2  0  0  0  0
 16 20  1  0  0  0  0
 17 21  1  0  0  0  0
 18 22  1  0  0  0  0
 19 23  2  0  0  0  0
 22 24  2  0  0  0  0
 23 24  1  0  0  0  0
M  END
> <DATABASE_ID>
DB00269

> <DATABASE_NAME>
drugbank

> <SMILES>
COC1=CC=C(C=C1)C(Cl)=C(C1=CC=C(OC)C=C1)C1=CC=C(OC)C=C1

> <INCHI_IDENTIFIER>
InChI=1S/C23H21ClO3/c1-25-19-10-4-16(5-11-19)22(17-6-12-20(26-2)13-7-17)23(24)18-8-14-21(27-3)15-9-18/h4-15H,1-3H3

> <INCHI_KEY>
BFPSDSIWYFKGBC-UHFFFAOYSA-N

> <FORMULA>
C23H21ClO3

> <MOLECULAR_WEIGHT>
380.864

> <EXACT_MASS>
380.117922245

> <JCHEM_ACCEPTOR_COUNT>
3

> <JCHEM_AVERAGE_POLARIZABILITY>
41.6042539099155

> <JCHEM_BIOAVAILABILITY>
1

> <JCHEM_DONOR_COUNT>
0

> <JCHEM_FORMAL_CHARGE>
0

> <JCHEM_GHOSE_FILTER>
1

> <JCHEM_IUPAC>
1-[1-chloro-2,2-bis(4-methoxyphenyl)ethenyl]-4-methoxybenzene

> <ALOGPS_LOGP>
5.95

> <JCHEM_LOGP>
5.427334731

> <ALOGPS_LOGS>
-6.28

> <JCHEM_MDDR_LIKE_RULE>
1

> <JCHEM_NUMBER_OF_RINGS>
3

> <JCHEM_PHYSIOLOGICAL_CHARGE>
0

> <JCHEM_PKA_STRONGEST_BASIC>
-4.35168051124204

> <JCHEM_POLAR_SURFACE_AREA>
27.69

> <JCHEM_REFRACTIVITY>
119.17130000000003

> <JCHEM_ROTATABLE_BOND_COUNT>
6

> <JCHEM_RULE_OF_FIVE>
0

> <ALOGPS_SOLUBILITY>
1.99e-04 g/l

> <JCHEM_TRADITIONAL_IUPAC>
chlorotrianisene

> <JCHEM_VEBER_RULE>
1

> <DRUGBANK_ID>
DB00269

> <SECONDARY_ACCESSION_NUMBERS>
APRD00715

> <DRUG_GROUPS>
withdrawn

> <GENERIC_NAME>
Chlorotrianisene

> <SYNONYMS>
Chloortrianisestrol; Chlorestrolo; Chlorotrianisenum; Chlorotrianisine; Chlorotrianizen; Chlortrianisen; Chlortrianisestrol; Chlortrianisoestrolum; Chlortrianizen; Clorotrianiseno

> <INTERNATIONAL_BRANDS>
Merbentul; Tace; Tace FN; Triagen

$$$$
311
  Mrv0541 02231214352D          

 16 17  0  0  0  0            999 V2000
    7.3097    0.0000    0.0000 S   0  0  0  0  0  0  0  0  0  0  0  0
    6.0031    0.6639    0.0000 S   0  0  0  0  0  0  0  0  0  0  0  0
    3.0791    0.8250    0.0000 O   0  0  0  0  0  0  0  0  0  0  0  0
    7.3097    0.8250    0.0000 O   0  0  0  0  0  0  0  0  0  0  0  0
    7.3097   -0.8250    0.0000 O   0  0  0  0  0  0  0  0  0  0  0  0
    6.0031   -0.6639    0.0000 N   0  0  0  0  0  0  0  0  0  0  0  0
    8.1347    0.0000    0.0000 N   0  0  0  0  0  0  0  0  0  0  0  0
    5.2224    0.4125    0.0000 C   0  0  0  0  0  0  0  0  0  0  0  0
    5.2224   -0.4125    0.0000 C   0  0  0  0  0  0  0  0  0  0  0  0
    6.4846    0.0000    0.0000 C   0  0  0  0  0  0  0  0  0  0  0  0
    4.5080    0.8250    0.0000 C   0  0  0  0  0  0  0  0  0  0  0  0
    3.7935    0.4125    0.0000 C   0  0  0  0  0  0  0  0  0  0  0  0
    4.5080   -0.8250    0.0000 C   0  0  0  0  0  0  0  0  0  0  0  0
    3.7935   -0.4125    0.0000 C   0  0  0  0  0  0  0  0  0  0  0  0
    2.3645    0.4125    0.0000 C   0  0  0  0  0  0  0  0  0  0  0  0
    1.6500    0.8250    0.0000 C   0  0  0  0  0  0  0  0  0  0  0  0
  1  4  2  0  0  0  0
  1  5  2  0  0  0  0
  1  7  1  0  0  0  0
  1 10  1  0  0  0  0
  2  8  1  0  0  0  0
  2 10  1  0  0  0  0
  3 12  1  0  0  0  0
  3 15  1  0  0  0  0
  6  9  1  0  0  0  0
  6 10  2  0  0  0  0
  8  9  2  0  0  0  0
  8 11  1  0  0  0  0
  9 13  1  0  0  0  0
 11 12  2  0  0  0  0
 12 14  1  0  0  0  0
 13 14  2  0  0  0  0
 15 16  1  0  0  0  0
M  END
> <DATABASE_ID>
DB00311

> <DATABASE_NAME>
drugbank

> <SMILES>
CCOC1=CC2=C(C=C1)N=C(S2)S(N)(=O)=O

> <INCHI_IDENTIFIER>
InChI=1S/C9H10N2O3S2/c1-2-14-6-3-4-7-8(5-6)15-9(11-7)16(10,12)13/h3-5H,2H2,1H3,(H2,10,12,13)

> <INCHI_KEY>
OUZWUKMCLIBBOG-UHFFFAOYSA-N

> <FORMULA>
C9H10N2O3S2

> <MOLECULAR_WEIGHT>
258.317

> <EXACT_MASS>
258.013283576

> <JCHEM_ACCEPTOR_COUNT>
4

> <JCHEM_AVERAGE_POLARIZABILITY>
25.269498813380597

> <JCHEM_BIOAVAILABILITY>
1

> <JCHEM_DONOR_COUNT>
1

> <JCHEM_FORMAL_CHARGE>
0

> <JCHEM_GHOSE_FILTER>
1

> <JCHEM_IUPAC>
6-ethoxy-1,3-benzothiazole-2-sulfonamide

> <ALOGPS_LOGP>
1.87

> <JCHEM_LOGP>
1.6028892289999999

> <ALOGPS_LOGS>
-2.57

> <JCHEM_MDDR_LIKE_RULE>
0

> <JCHEM_NUMBER_OF_RINGS>
2

> <JCHEM_PHYSIOLOGICAL_CHARGE>
0

> <JCHEM_PKA_STRONGEST_ACIDIC>
7.511271617325915

> <JCHEM_PKA_STRONGEST_BASIC>
-1.9316959203012112

> <JCHEM_POLAR_SURFACE_AREA>
82.28

> <JCHEM_REFRACTIVITY>
59.97170000000001

> <JCHEM_ROTATABLE_BOND_COUNT>
3

> <JCHEM_RULE_OF_FIVE>
1

> <ALOGPS_SOLUBILITY>
6.88e-01 g/l

> <JCHEM_TRADITIONAL_IUPAC>
ethoxzolamide

> <JCHEM_VEBER_RULE>
0

> <DRUGBANK_ID>
DB00311

> <SECONDARY_ACCESSION_NUMBERS>
APRD00732; DB07727

> <DRUG_GROUPS>
withdrawn

> <GENERIC_NAME>
Ethoxzolamide

> <SYNONYMS>
6-Ethoxy-1,3-benzothiazole-2-sulfonamide; Ethoxazolamide; Ethoxyzolamide

> <INTERNATIONAL_BRANDS>
Cardrase; Ethamide

$$$$
323
  Mrv0541 02231214362D          

 20 21  0  0  0  0            999 V2000
    5.6655    0.6188    0.0000 O   0  0  0  0  0  0  0  0  0  0  0  0
    2.0930    0.2063    0.0000 O   0  0  0  0  0  0  0  0  0  0  0  0
    2.0930    1.8563    0.0000 O   0  0  0  0  0  0  0  0  0  0  0  0
    4.2365    3.0938    0.0000 O   0  5  0  0  0  0  0  0  0  0  0  0
    2.8075    3.0938    0.0000 O   0  0  0  0  0  0  0  0  0  0  0  0
    3.5220    2.6813    0.0000 N   0  3  0  0  0  0  0  0  0  0  0  0
    4.2365    0.6188    0.0000 C   0  0  0  0  0  0  0  0  0  0  0  0
    4.9509   -0.6188    0.0000 C   0  0  0  0  0  0  0  0  0  0  0  0
    4.9509    0.2063    0.0000 C   0  0  0  0  0  0  0  0  0  0  0  0
    4.2365    1.4438    0.0000 C   0  0  0  0  0  0  0  0  0  0  0  0
    3.5220    0.2063    0.0000 C   0  0  0  0  0  0  0  0  0  0  0  0
    3.5220    1.8563    0.0000 C   0  0  0  0  0  0  0  0  0  0  0  0
    2.8075    0.6188    0.0000 C   0  0  0  0  0  0  0  0  0  0  0  0
    4.9509   -2.2688    0.0000 C   0  0  0  0  0  0  0  0  0  0  0  0
    4.2365   -1.0313    0.0000 C   0  0  0  0  0  0  0  0  0  0  0  0
    5.6655   -1.0313    0.0000 C   0  0  0  0  0  0  0  0  0  0  0  0
    2.8075    1.4438    0.0000 C   0  0  0  0  0  0  0  0  0  0  0  0
    4.2365   -1.8563    0.0000 C   0  0  0  0  0  0  0  0  0  0  0  0
    5.6655   -1.8563    0.0000 C   0  0  0  0  0  0  0  0  0  0  0  0
    4.9509   -3.0938    0.0000 C   0  0  0  0  0  0  0  0  0  0  0  0
  1  9  2  0  0  0  0
  2 13  1  0  0  0  0
  3 17  1  0  0  0  0
  4  6  1  0  0  0  0
  5  6  2  0  0  0  0
  6 12  1  0  0  0  0
  7  9  1  0  0  0  0
  7 10  2  0  0  0  0
  7 11  1  0  0  0  0
  8  9  1  0  0  0  0
  8 15  2  0  0  0  0
  8 16  1  0  0  0  0
 10 12  1  0  0  0  0
 11 13  2  0  0  0  0
 12 17  2  0  0  0  0
 13 17  1  0  0  0  0
 14 18  2  0  0  0  0
 14 19  1  0  0  0  0
 14 20  1  0  0  0  0
 15 18  1  0  0  0  0
 16 19  2  0  0  0  0
M  CHG  2   4  -1   6   1
M  END
> <DATABASE_ID>
DB00323

> <DATABASE_NAME>
drugbank

> <SMILES>
CC1=CC=C(C=C1)C(=O)C1=CC(=C(O)C(O)=C1)[N+]([O-])=O

> <INCHI_IDENTIFIER>
InChI=1S/C14H11NO5/c1-8-2-4-9(5-3-8)13(17)10-6-11(15(19)20)14(18)12(16)7-10/h2-7,16,18H,1H3

> <INCHI_KEY>
MIQPIUSUKVNLNT-UHFFFAOYSA-N

> <FORMULA>
C14H11NO5

> <MOLECULAR_WEIGHT>
273.2408

> <EXACT_MASS>
273.063722467

> <JCHEM_ACCEPTOR_COUNT>
5

> <JCHEM_AVERAGE_POLARIZABILITY>
26.436268450204295

> <JCHEM_BIOAVAILABILITY>
1

> <JCHEM_DONOR_COUNT>
2

> <JCHEM_FORMAL_CHARGE>
0

> <JCHEM_GHOSE_FILTER>
1

> <JCHEM_IUPAC>
5-(4-methylbenzoyl)-3-nitrobenzene-1,2-diol

> <ALOGPS_LOGP>
2.63

> <JCHEM_LOGP>
3.278873788666666

> <ALOGPS_LOGS>
-3.68

> <JCHEM_MDDR_LIKE_RULE>
0

> <JCHEM_NUMBER_OF_RINGS>
2

> <JCHEM_PHYSIOLOGICAL_CHARGE>
-1

> <JCHEM_PKA>
10.630671159623375

> <JCHEM_PKA_STRONGEST_ACIDIC>
5.167245045370144

> <JCHEM_PKA_STRONGEST_BASIC>
-6.417683701145976

> <JCHEM_POLAR_SURFACE_AREA>
103.35

> <JCHEM_REFRACTIVITY>
72.96120000000002

> <JCHEM_ROTATABLE_BOND_COUNT>
3

> <JCHEM_RULE_OF_FIVE>
1

> <ALOGPS_SOLUBILITY>
5.69e-02 g/l

> <JCHEM_TRADITIONAL_IUPAC>
tolcapone

> <JCHEM_VEBER_RULE>
0

> <DRUGBANK_ID>
DB00323

> <SECONDARY_ACCESSION_NUMBERS>
APRD00445

> <DRUG_GROUPS>
approved; withdrawn

> <GENERIC_NAME>
Tolcapone

> <SYNONYMS>
(3,4-dihydroxy-5-nitrophenyl)(4-methylphenyl)methanone; Tolcapon; Tolcapona; Tolcapone; Tolcaponum

> <PRODUCTS>
Tasmar; Tolcapone

> <INTERNATIONAL_BRANDS>
Sen De Ning

$$$$
342
  Mrv0541 02231214362D          

 35 38  0  0  1  0            999 V2000
    3.4115    3.3001    0.0000 O   0  0  0  0  0  0  0  0  0  0  0  0
    2.0930   -1.2375    0.0000 O   0  0  0  0  0  0  0  0  0  0  0  0
    4.2365    0.8250    0.0000 N   0  0  0  0  0  0  0  0  0  0  0  0
    4.2365    2.4751    0.0000 C   0  0  0  0  0  0  0  0  0  0  0  0
    4.9509    2.0625    0.0000 C   0  0  0  0  0  0  0  0  0  0  0  0
    3.5220    2.0625    0.0000 C   0  0  0  0  0  0  0  0  0  0  0  0
    4.2365    3.3001    0.0000 C   0  0  0  0  0  0  0  0  0  0  0  0
    4.9509    1.2375    0.0000 C   0  0  0  0  0  0  0  0  0  0  0  0
    3.5220    1.2375    0.0000 C   0  0  0  0  0  0  0  0  0  0  0  0
    4.2365    0.0000    0.0000 C   0  0  0  0  0  0  0  0  0  0  0  0
    5.0615    3.3001    0.0000 C   0  0  0  0  0  0  0  0  0  0  0  0
    4.2365    4.1251    0.0000 C   0  0  0  0  0  0  0  0  0  0  0  0
    3.5220   -0.4125    0.0000 C   0  0  0  0  0  0  0  0  0  0  0  0
    3.5220   -1.2375    0.0000 C   0  0  0  0  0  0  0  0  0  0  0  0
    5.4740    4.0145    0.0000 C   0  0  0  0  0  0  0  0  0  0  0  0
    3.5220    4.5376    0.0000 C   0  0  0  0  0  0  0  0  0  0  0  0
    5.4740    2.5856    0.0000 C   0  0  0  0  0  0  0  0  0  0  0  0
    4.9509    4.5376    0.0000 C   0  0  0  0  0  0  0  0  0  0  0  0
    2.8075   -1.6500    0.0000 C   0  0  0  0  0  0  0  0  0  0  0  0
    6.2990    4.0145    0.0000 C   0  0  0  0  0  0  0  0  0  0  0  0
    3.5220    5.3626    0.0000 C   0  0  0  0  0  0  0  0  0  0  0  0
    6.2990    2.5856    0.0000 C   0  0  0  0  0  0  0  0  0  0  0  0
    4.9509    5.3626    0.0000 C   0  0  0  0  0  0  0  0  0  0  0  0
    2.8075   -2.4751    0.0000 C   0  0  0  0  0  0  0  0  0  0  0  0
    6.7115    3.3001    0.0000 C   0  0  0  0  0  0  0  0  0  0  0  0
    4.2365    5.7751    0.0000 C   0  0  0  0  0  0  0  0  0  0  0  0
    2.8075   -4.9501    0.0000 C   0  0  0  0  0  0  0  0  0  0  0  0
    2.8075   -4.1251    0.0000 C   0  0  0  0  0  0  0  0  0  0  0  0
    3.5220   -2.8876    0.0000 C   0  0  0  0  0  0  0  0  0  0  0  0
    2.0930   -2.8876    0.0000 C   0  0  0  0  0  0  0  0  0  0  0  0
    3.5220   -3.7126    0.0000 C   0  0  0  0  0  0  0  0  0  0  0  0
    2.0930   -3.7126    0.0000 C   0  0  0  0  0  0  0  0  0  0  0  0
    3.6326   -4.9501    0.0000 C   0  0  0  0  0  0  0  0  0  0  0  0
    1.9825   -4.9501    0.0000 C   0  0  0  0  0  0  0  0  0  0  0  0
    2.8075   -5.7751    0.0000 C   0  0  0  0  0  0  0  0  0  0  0  0
  1  7  1  0  0  0  0
  2 19  1  0  0  0  0
  3  8  1  0  0  0  0
  3  9  1  0  0  0  0
  3 10  1  0  0  0  0
  4  5  1  0  0  0  0
  4  6  1  0  0  0  0
  4  7  1  0  0  0  0
  5  8  1  0  0  0  0
  6  9  1  0  0  0  0
  7 11  1  0  0  0  0
  7 12  1  0  0  0  0
 10 13  1  0  0  0  0
 11 15  2  0  0  0  0
 11 17  1  0  0  0  0
 12 16  2  0  0  0  0
 12 18  1  0  0  0  0
 13 14  1  0  0  0  0
 14 19  1  0  0  0  0
 15 20  1  0  0  0  0
 16 21  1  0  0  0  0
 17 22  2  0  0  0  0
 18 23  2  0  0  0  0
 19 24  1  0  0  0  0
 20 25  2  0  0  0  0
 21 26  2  0  0  0  0
 22 25  1  0  0  0  0
 23 26  1  0  0  0  0
 24 29  2  0  0  0  0
 24 30  1  0  0  0  0
 27 28  1  0  0  0  0
 27 33  1  0  0  0  0
 27 34  1  0  0  0  0
 27 35  1  0  0  0  0
 28 31  2  0  0  0  0
 28 32  1  0  0  0  0
 29 31  1  0  0  0  0
 30 32  2  0  0  0  0
M  END
> <DATABASE_ID>
DB00342

> <DATABASE_NAME>
drugbank

> <SMILES>
CC(C)(C)C1=CC=C(C=C1)C(O)CCCN1CCC(CC1)C(O)(C1=CC=CC=C1)C1=CC=CC=C1

> <INCHI_IDENTIFIER>
InChI=1S/C32H41NO2/c1-31(2,3)26-18-16-25(17-19-26)30(34)15-10-22-33-23-20-29(21-24-33)32(35,27-11-6-4-7-12-27)28-13-8-5-9-14-28/h4-9,11-14,16-19,29-30,34-35H,10,15,20-24H2,1-3H3

> <INCHI_KEY>
GUGOEEXESWIERI-UHFFFAOYSA-N

> <FORMULA>
C32H41NO2

> <MOLECULAR_WEIGHT>
471.6734

> <EXACT_MASS>
471.313729561

> <JCHEM_ACCEPTOR_COUNT>
3

> <JCHEM_AVERAGE_POLARIZABILITY>
56.44921245706173

> <JCHEM_BIOAVAILABILITY>
1

> <JCHEM_DONOR_COUNT>
2

> <JCHEM_FORMAL_CHARGE>
0

> <JCHEM_GHOSE_FILTER>
0

> <JCHEM_IUPAC>
1-(4-tert-butylphenyl)-4-[4-(hydroxydiphenylmethyl)piperidin-1-yl]butan-1-ol

> <ALOGPS_LOGP>
5.89

> <JCHEM_LOGP>
6.4791090759999985

> <ALOGPS_LOGS>
-6.01

> <JCHEM_MDDR_LIKE_RULE>
1

> <JCHEM_NUMBER_OF_RINGS>
4

> <JCHEM_PHYSIOLOGICAL_CHARGE>
1

> <JCHEM_PKA>
14.524962934427215

> <JCHEM_PKA_STRONGEST_ACIDIC>
13.197068104137273

> <JCHEM_PKA_STRONGEST_BASIC>
9.02298591531735

> <JCHEM_POLAR_SURFACE_AREA>
43.7

> <JCHEM_REFRACTIVITY>
146.26740000000007

> <JCHEM_ROTATABLE_BOND_COUNT>
9

> <JCHEM_RULE_OF_FIVE>
0

> <ALOGPS_SOLUBILITY>
4.58e-04 g/l

> <JCHEM_TRADITIONAL_IUPAC>
terfenadine

> <JCHEM_VEBER_RULE>
0

> <DRUGBANK_ID>
DB00342

> <SECONDARY_ACCESSION_NUMBERS>
APRD00606

> <DRUG_GROUPS>
withdrawn

> <GENERIC_NAME>
Terfenadine

> <SYNONYMS>
(RS)-1-(4-tert-butylphenyl)-4-{4-[hydroxy(diphenyl)methyl]piperidin-1-yl}-butan-1-ol; Terfenadin; Terfenadina; Terfénadine; Terfenadine; Terfenadinum

> <PRODUCTS>
Allergy Relief; Apo-terfenadine Tab 120mg; Apo-terfenadine Tablets 60mg; Novo-terfenadine Tab 60mg; Pharmaplus Once A Day Allergy Caplet 120mg; Seldane - Sus 30mg/5ml; Seldane - Tab 60mg; Seldane 120mg Once-A-day Caplets; Seldane Sus 6mg/ml; Seldane Tab 120mg; Seldane Tab 60mg

> <INTERNATIONAL_BRANDS>
Bronal; Daylert; Seldane; Servinin; Teldane; Terfed; Terfenadin AL; Terfenadine FLX; Terfin; Ternadin; Trexyl; Triludan

$$$$
365
  Mrv0541 02231214382D          

 26 29  0  0  1  0            999 V2000
    7.1488    1.4608    0.0000 F   0  0  0  0  0  0  0  0  0  0  0  0
    4.2364    2.2658    0.0000 O   0  0  0  0  0  0  0  0  0  0  0  0
    2.0930    1.0283    0.0000 O   0  0  0  0  0  0  0  0  0  0  0  0
    2.8075    2.2658    0.0000 O   0  0  0  0  0  0  0  0  0  0  0  0
    4.2364   -0.2092    0.0000 N   0  0  0  0  0  0  0  0  0  0  0  0
    7.1488   -0.2291    0.0000 N   0  0  0  0  0  0  0  0  0  0  0  0
    8.5746   -1.0596    0.0000 N   0  0  0  0  0  0  0  0  0  0  0  0
    4.2364   -1.0342    0.0000 C   0  0  0  0  0  0  0  0  0  0  0  0
    4.6489   -1.7487    0.0000 C   0  0  0  0  0  0  0  0  0  0  0  0
    3.8239   -1.7487    0.0000 C   0  0  0  0  0  0  0  0  0  0  0  0
    4.9509    0.2033    0.0000 C   0  0  0  0  0  0  0  0  0  0  0  0
    3.5220    0.2033    0.0000 C   0  0  0  0  0  0  0  0  0  0  0  0
    4.9509    1.0283    0.0000 C   0  0  0  0  0  0  0  0  0  0  0  0
    6.4359    0.1861    0.0000 C   0  0  0  0  0  0  0  0  0  0  0  0
    7.1456   -1.0541    0.0000 C   0  0  0  0  0  0  0  0  0  0  0  0
    5.6884   -0.2378    0.0000 C   0  0  0  0  0  0  0  0  0  0  0  0
    7.8585   -1.4693    0.0000 C   0  0  0  0  0  0  0  0  0  0  0  0
    7.8649    0.1806    0.0000 C   0  0  0  0  0  0  0  0  0  0  0  0
    8.5778   -0.2346    0.0000 C   0  0  0  0  0  0  0  0  0  0  0  0
    5.6884    1.4694    0.0000 C   0  0  0  0  0  0  0  0  0  0  0  0
    3.5220    1.0283    0.0000 C   0  0  0  0  0  0  0  0  0  0  0  0
    4.2364    1.4408    0.0000 C   0  0  0  0  0  0  0  0  0  0  0  0
    6.4359    1.0455    0.0000 C   0  0  0  0  0  0  0  0  0  0  0  0
    7.8553   -2.2943    0.0000 C   0  0  0  0  0  0  0  0  0  0  0  0
    5.6789    2.2943    0.0000 C   0  0  0  0  0  0  0  0  0  0  0  0
    2.8075    1.4408    0.0000 C   0  0  0  0  0  0  0  0  0  0  0  0
  1 23  1  0  0  0  0
  2 22  2  0  0  0  0
  3 26  1  0  0  0  0
  4 26  2  0  0  0  0
  5  8  1  0  0  0  0
  5 11  1  0  0  0  0
  5 12  1  0  0  0  0
  6 14  1  0  0  0  0
  6 15  1  0  0  0  0
  6 18  1  0  0  0  0
  7 17  1  0  0  0  0
  7 19  1  0  0  0  0
  8  9  1  0  0  0  0
  8 10  1  0  0  0  0
  9 10  1  0  0  0  0
 11 13  1  0  0  0  0
 11 16  2  0  0  0  0
 12 21  2  0  0  0  0
 13 20  2  0  0  0  0
 13 22  1  0  0  0  0
 14 16  1  0  0  0  0
 14 23  2  0  0  0  0
 15 17  1  0  0  0  0
 17 24  1  0  0  0  0
 18 19  1  0  0  0  0
 20 23  1  0  0  0  0
 20 25  1  0  0  0  0
 21 22  1  0  0  0  0
 21 26  1  0  0  0  0
M  END
> <DATABASE_ID>
DB00365

> <DATABASE_NAME>
drugbank

> <SMILES>
CC1CN(CCN1)C1=C(F)C(C)=C2C(=O)C(=CN(C3CC3)C2=C1)C(O)=O

> <INCHI_IDENTIFIER>
InChI=1S/C19H22FN3O3/c1-10-8-22(6-5-21-10)15-7-14-16(11(2)17(15)20)18(24)13(19(25)26)9-23(14)12-3-4-12/h7,9-10,12,21H,3-6,8H2,1-2H3,(H,25,26)

> <INCHI_KEY>
AIJTTZAVMXIJGM-UHFFFAOYSA-N

> <FORMULA>
C19H22FN3O3

> <MOLECULAR_WEIGHT>
359.3947

> <EXACT_MASS>
359.16451979

> <JCHEM_ACCEPTOR_COUNT>
6

> <JCHEM_AVERAGE_POLARIZABILITY>
37.692870910728004

> <JCHEM_BIOAVAILABILITY>
1

> <JCHEM_DONOR_COUNT>
2

> <JCHEM_FORMAL_CHARGE>
0

> <JCHEM_GHOSE_FILTER>
1

> <JCHEM_IUPAC>
1-cyclopropyl-6-fluoro-5-methyl-7-(3-methylpiperazin-1-yl)-4-oxo-1,4-dihydroquinoline-3-carboxylic acid

> <ALOGPS_LOGP>
-0.12

> <JCHEM_LOGP>
0.11811200672493903

> <ALOGPS_LOGS>
-2.76

> <JCHEM_MDDR_LIKE_RULE>
0

> <JCHEM_NUMBER_OF_RINGS>
4

> <JCHEM_PHYSIOLOGICAL_CHARGE>
0

> <JCHEM_PKA_STRONGEST_ACIDIC>
5.876593176832228

> <JCHEM_PKA_STRONGEST_BASIC>
8.770720290866418

> <JCHEM_POLAR_SURFACE_AREA>
72.88

> <JCHEM_REFRACTIVITY>
97.39939999999999

> <JCHEM_ROTATABLE_BOND_COUNT>
3

> <JCHEM_RULE_OF_FIVE>
1

> <ALOGPS_SOLUBILITY>
6.32e-01 g/l

> <JCHEM_TRADITIONAL_IUPAC>
grepafloxacin

> <JCHEM_VEBER_RULE>
0

> <DRUGBANK_ID>
DB00365

> <SECONDARY_ACCESSION_NUMBERS>
APRD01003

> <DRUG_GROUPS>
withdrawn

> <GENERIC_NAME>
Grepafloxacin

> <PRODUCTS>
Raxar

> <SALTS>
Grepafloxacin hydrochloride

$$$$
372
  Mrv0541 02231214382D          

 27 30  0  0  0  0            999 V2000
    5.2216   -2.6666    0.0000 S   0  0  0  0  0  0  0  0  0  0  0  0
    8.1336   -0.9969    0.0000 S   0  0  0  0  0  0  0  0  0  0  0  0
    3.7929    1.4578    0.0000 N   0  0  0  0  0  0  0  0  0  0  0  0
    2.3641    2.2827    0.0000 N   0  0  0  0  0  0  0  0  0  0  0  0
    5.2216   -1.0169    0.0000 N   0  0  0  0  0  0  0  0  0  0  0  0
    3.0786    1.0454    0.0000 C   0  0  0  0  0  0  0  0  0  0  0  0
    3.7929    2.2827    0.0000 C   0  0  0  0  0  0  0  0  0  0  0  0
    4.5073    1.0454    0.0000 C   0  0  0  0  0  0  0  0  0  0  0  0
    2.3641    1.4578    0.0000 C   0  0  0  0  0  0  0  0  0  0  0  0
    3.0786    2.6951    0.0000 C   0  0  0  0  0  0  0  0  0  0  0  0
    4.5073    0.2205    0.0000 C   0  0  0  0  0  0  0  0  0  0  0  0
    5.2216   -0.1920    0.0000 C   0  0  0  0  0  0  0  0  0  0  0  0
    1.6498    2.6951    0.0000 C   0  0  0  0  0  0  0  0  0  0  0  0
    5.9361   -1.4293    0.0000 C   0  0  0  0  0  0  0  0  0  0  0  0
    4.5073   -1.4293    0.0000 C   0  0  0  0  0  0  0  0  0  0  0  0
    5.9361   -2.2542    0.0000 C   0  0  0  0  0  0  0  0  0  0  0  0
    4.5073   -2.2542    0.0000 C   0  0  0  0  0  0  0  0  0  0  0  0
    6.6734   -0.9883    0.0000 C   0  0  0  0  0  0  0  0  0  0  0  0
    3.7699   -0.9883    0.0000 C   0  0  0  0  0  0  0  0  0  0  0  0
    6.6734   -2.6951    0.0000 C   0  0  0  0  0  0  0  0  0  0  0  0
    7.4209   -1.4121    0.0000 C   0  0  0  0  0  0  0  0  0  0  0  0
    3.7699   -2.6951    0.0000 C   0  0  0  0  0  0  0  0  0  0  0  0
    7.4209   -2.2713    0.0000 C   0  0  0  0  0  0  0  0  0  0  0  0
    3.0225   -1.4121    0.0000 C   0  0  0  0  0  0  0  0  0  0  0  0
    3.0225   -2.2713    0.0000 C   0  0  0  0  0  0  0  0  0  0  0  0
    8.8496   -1.4066    0.0000 C   0  0  0  0  0  0  0  0  0  0  0  0
    9.5623   -0.9914    0.0000 C   0  0  0  0  0  0  0  0  0  0  0  0
  1 16  1  0  0  0  0
  1 17  1  0  0  0  0
  2 21  1  0  0  0  0
  2 26  1  0  0  0  0
  3  6  1  0  0  0  0
  3  7  1  0  0  0  0
  3  8  1  0  0  0  0
  4  9  1  0  0  0  0
  4 10  1  0  0  0  0
  4 13  1  0  0  0  0
  5 12  1  0  0  0  0
  5 14  1  0  0  0  0
  5 15  1  0  0  0  0
  6  9  1  0  0  0  0
  7 10  1  0  0  0  0
  8 11  1  0  0  0  0
 11 12  1  0  0  0  0
 14 16  2  0  0  0  0
 14 18  1  0  0  0  0
 15 17  1  0  0  0  0
 15 19  2  0  0  0  0
 16 20  1  0  0  0  0
 17 22  2  0  0  0  0
 18 21  2  0  0  0  0
 19 24  1  0  0  0  0
 20 23  2  0  0  0  0
 21 23  1  0  0  0  0
 22 25  1  0  0  0  0
 24 25  2  0  0  0  0
 26 27  1  0  0  0  0
M  END
> <DATABASE_ID>
DB00372

> <DATABASE_NAME>
drugbank

> <SMILES>
CCSC1=CC2=C(SC3=CC=CC=C3N2CCCN2CCN(C)CC2)C=C1

> <INCHI_IDENTIFIER>
InChI=1S/C22H29N3S2/c1-3-26-18-9-10-22-20(17-18)25(19-7-4-5-8-21(19)27-22)12-6-11-24-15-13-23(2)14-16-24/h4-5,7-10,17H,3,6,11-16H2,1-2H3

> <INCHI_KEY>
XCTYLCDETUVOIP-UHFFFAOYSA-N

> <FORMULA>
C22H29N3S2

> <MOLECULAR_WEIGHT>
399.616

> <EXACT_MASS>
399.180289323

> <JCHEM_ACCEPTOR_COUNT>
3

> <JCHEM_AVERAGE_POLARIZABILITY>
46.52630828989337

> <JCHEM_BIOAVAILABILITY>
1

> <JCHEM_DONOR_COUNT>
0

> <JCHEM_FORMAL_CHARGE>
0

> <JCHEM_GHOSE_FILTER>
1

> <JCHEM_IUPAC>
2-(ethylsulfanyl)-10-[3-(4-methylpiperazin-1-yl)propyl]-10H-phenothiazine

> <ALOGPS_LOGP>
5.12

> <JCHEM_LOGP>
4.659322273666666

> <ALOGPS_LOGS>
-4.91

> <JCHEM_MDDR_LIKE_RULE>
1

> <JCHEM_NUMBER_OF_RINGS>
4

> <JCHEM_PHYSIOLOGICAL_CHARGE>
1

> <JCHEM_PKA_STRONGEST_BASIC>
8.395003084839797

> <JCHEM_POLAR_SURFACE_AREA>
9.72

> <JCHEM_REFRACTIVITY>
122.55830000000003

> <JCHEM_ROTATABLE_BOND_COUNT>
6

> <JCHEM_RULE_OF_FIVE>
1

> <ALOGPS_SOLUBILITY>
4.87e-03 g/l

> <JCHEM_TRADITIONAL_IUPAC>
thiethylperazine

> <JCHEM_VEBER_RULE>
1

> <DRUGBANK_ID>
DB00372

> <SECONDARY_ACCESSION_NUMBERS>
APRD00323

> <DRUG_GROUPS>
withdrawn

> <GENERIC_NAME>
Thiethylperazine

> <SYNONYMS>
2-(ethylthio)-10-[3-(4-methylpiperazin-1-yl)propyl]-10H-phenothiazine; Norzine; Thiethylperazin; Thiéthylpérazine; Thiethylperazine; Thiethylperazinum; Tietilperazina

> <INTERNATIONAL_BRANDS>
Torecan

> <SALTS>
Thiethylperazine malate; Thiethylperazine maleate

$$$$
378
  Mrv0541 02231214382D          

 26 29  0  0  1  0            999 V2000
    6.5848    2.1027    0.0000 O   0  0  0  0  0  0  0  0  0  0  0  0
    1.6499   -2.0649    0.0000 O   0  0  0  0  0  0  0  0  0  0  0  0
    6.0989    0.4532    0.0000 C   0  0  1  0  0  0  0  0  0  0  0  0
    6.0989   -0.3718    0.0000 C   0  0  2  0  0  0  0  0  0  0  0  0
    5.3846   -0.7843    0.0000 C   0  0  1  0  0  0  0  0  0  0  0  0
    4.6700   -0.3718    0.0000 C   0  0  1  0  0  0  0  0  0  0  0  0
    6.8795    0.7046    0.0000 C   0  0  2  0  0  0  0  0  0  0  0  0
    5.3846    0.8656    0.0000 C   0  0  0  0  0  0  0  0  0  0  0  0
    6.8795   -0.6232    0.0000 C   0  0  0  0  0  0  0  0  0  0  0  0
    4.6700    0.4532    0.0000 C   0  0  0  0  0  0  0  0  0  0  0  0
    3.9194   -0.7899    0.0000 C   0  0  1  0  0  0  0  0  0  0  0  0
    7.3609    0.0407    0.0000 C   0  0  0  0  0  0  0  0  0  0  0  0
    6.0989    1.2781    0.0000 C   0  0  0  0  0  0  0  0  0  0  0  0
    5.3978   -1.6435    0.0000 C   0  0  0  0  0  0  0  0  0  0  0  0
    3.9128   -1.6492    0.0000 C   0  0  0  0  0  0  0  0  0  0  0  0
    3.1548   -0.3246    0.0000 C   0  0  0  0  0  0  0  0  0  0  0  0
    7.1359    1.4887    0.0000 C   0  0  0  0  0  0  0  0  0  0  0  0
    3.9257    0.0350    0.0000 C   0  0  0  0  0  0  0  0  0  0  0  0
    4.6569   -2.0789    0.0000 C   0  0  0  0  0  0  0  0  0  0  0  0
    2.3728   -0.7602    0.0000 C   0  0  0  0  0  0  0  0  0  0  0  0
    3.1411   -2.1027    0.0000 C   0  0  0  0  0  0  0  0  0  0  0  0
    2.3659   -1.6552    0.0000 C   0  0  0  0  0  0  0  0  0  0  0  0
    7.9430    1.6588    0.0000 C   0  0  0  0  0  0  0  0  0  0  0  0
    6.1687   -1.0280    0.0000 H   0  0  0  0  0  0  0  0  0  0  0  0
    5.9585   -1.1098    0.0000 H   0  0  0  0  0  0  0  0  0  0  0  0
    5.2417   -0.0418    0.0000 H   0  0  0  0  0  0  0  0  0  0  0  0
  1 17  2  0  0  0  0
  2 22  2  0  0  0  0
  3  4  1  0  0  0  0
  3  7  1  0  0  0  0
  3  8  1  0  0  0  0
  3 13  1  1  0  0  0
  4  5  1  0  0  0  0
  4  9  1  0  0  0  0
  4 24  1  6  0  0  0
  5  6  1  0  0  0  0
  5 14  1  0  0  0  0
  5 25  1  1  0  0  0
  6 10  1  0  0  0  0
  6 11  1  0  0  0  0
  6 26  1  1  0  0  0
  7 12  1  0  0  0  0
  7 17  1  1  0  0  0
  8 10  1  0  0  0  0
  9 12  1  0  0  0  0
 11 15  1  0  0  0  0
 11 16  1  0  0  0  0
 11 18  1  6  0  0  0
 14 19  2  0  0  0  0
 15 19  1  0  0  0  0
 15 21  2  0  0  0  0
 16 20  1  0  0  0  0
 17 23  1  0  0  0  0
 20 22  1  0  0  0  0
 21 22  1  0  0  0  0
M  END
> <DATABASE_ID>
DB00378

> <DATABASE_NAME>
drugbank

> <SMILES>
[H][C@@]12CC[C@H](C(C)=O)[C@@]1(C)CC[C@]1([H])[C@@]2([H])C=CC2=CC(=O)CC[C@@]12C

> <INCHI_IDENTIFIER>
InChI=1S/C21H28O2/c1-13(22)17-6-7-18-16-5-4-14-12-15(23)8-10-20(14,2)19(16)9-11-21(17,18)3/h4-5,12,16-19H,6-11H2,1-3H3/t16-,17+,18-,19+,20+,21+/m0/s1

> <INCHI_KEY>
JGMOKGBVKVMRFX-HQZYFCCVSA-N

> <FORMULA>
C21H28O2

> <MOLECULAR_WEIGHT>
312.4458

> <EXACT_MASS>
312.20893014

> <JCHEM_ACCEPTOR_COUNT>
2

> <JCHEM_AVERAGE_POLARIZABILITY>
36.389065588816806

> <JCHEM_BIOAVAILABILITY>
1

> <JCHEM_DONOR_COUNT>
0

> <JCHEM_FORMAL_CHARGE>
0

> <JCHEM_GHOSE_FILTER>
1

> <JCHEM_IUPAC>
(1R,2S,10S,11S,14S,15S)-14-acetyl-2,15-dimethyltetracyclo[8.7.0.0²,⁷.0¹¹,¹⁵]heptadeca-6,8-dien-5-one

> <ALOGPS_LOGP>
3.27

> <JCHEM_LOGP>
3.7866827440000006

> <ALOGPS_LOGS>
-4.81

> <JCHEM_MDDR_LIKE_RULE>
0

> <JCHEM_NUMBER_OF_RINGS>
4

> <JCHEM_PHYSIOLOGICAL_CHARGE>
0

> <JCHEM_PKA_STRONGEST_ACIDIC>
19.291890325972762

> <JCHEM_PKA_STRONGEST_BASIC>
-4.772697382905662

> <JCHEM_POLAR_SURFACE_AREA>
34.14

> <JCHEM_REFRACTIVITY>
93.8219

> <JCHEM_ROTATABLE_BOND_COUNT>
1

> <JCHEM_RULE_OF_FIVE>
1

> <ALOGPS_SOLUBILITY>
4.86e-03 g/l

> <JCHEM_TRADITIONAL_IUPAC>
dydrogesterone

> <JCHEM_VEBER_RULE>
1

> <DRUGBANK_ID>
DB00378

> <SECONDARY_ACCESSION_NUMBERS>
APRD00941

> <DRUG_GROUPS>
approved; withdrawn

> <GENERIC_NAME>
Dydrogesterone

> <SYNONYMS>
(9β,10α)-pregna-4,6-diene-3,20-dione; 10alpha-Isopregnenone; 9β,10α-pregna-4,6-diene-3,20-dione; Didrogesterone; Dydrogesterona; Dydrogestérone ; Dydrogesterone; Dydrogesteronum; Gestatron; Hydrogesterone; Hydrogestrone; Isopregnenone

> <INTERNATIONAL_BRANDS>
Dabroston; Dufaston; Duphaston; Terolut

$$$$
380
  Mrv0541 02231214382D          

 19 20  0  0  1  0            999 V2000
    5.2224    2.6813    0.0000 O   0  0  0  0  0  0  0  0  0  0  0  0
    2.3645    2.6813    0.0000 O   0  0  0  0  0  0  0  0  0  0  0  0
    4.5080   -2.6813    0.0000 O   0  0  0  0  0  0  0  0  0  0  0  0
    1.6500   -2.6813    0.0000 O   0  0  0  0  0  0  0  0  0  0  0  0
    3.7935    1.0313    0.0000 N   0  0  0  0  0  0  0  0  0  0  0  0
    3.0791   -1.0313    0.0000 N   0  0  0  0  0  0  0  0  0  0  0  0
    3.7935    2.6813    0.0000 N   0  0  0  0  0  0  0  0  0  0  0  0
    3.0791   -2.6813    0.0000 N   0  0  0  0  0  0  0  0  0  0  0  0
    3.7935    0.2063    0.0000 C   0  0  2  0  0  0  0  0  0  0  0  0
    3.0791   -0.2063    0.0000 C   0  0  0  0  0  0  0  0  0  0  0  0
    4.5080    1.4438    0.0000 C   0  0  0  0  0  0  0  0  0  0  0  0
    3.0791    1.4438    0.0000 C   0  0  0  0  0  0  0  0  0  0  0  0
    4.5080   -0.2063    0.0000 C   0  0  0  0  0  0  0  0  0  0  0  0
    3.7935   -1.4438    0.0000 C   0  0  0  0  0  0  0  0  0  0  0  0
    2.3645   -1.4438    0.0000 C   0  0  0  0  0  0  0  0  0  0  0  0
    4.5080    2.2688    0.0000 C   0  0  0  0  0  0  0  0  0  0  0  0
    3.0791    2.2688    0.0000 C   0  0  0  0  0  0  0  0  0  0  0  0
    3.7935   -2.2688    0.0000 C   0  0  0  0  0  0  0  0  0  0  0  0
    2.3645   -2.2688    0.0000 C   0  0  0  0  0  0  0  0  0  0  0  0
  1 16  2  0  0  0  0
  2 17  2  0  0  0  0
  3 18  2  0  0  0  0
  4 19  2  0  0  0  0
  5  9  1  0  0  0  0
  5 11  1  0  0  0  0
  5 12  1  0  0  0  0
  6 10  1  0  0  0  0
  6 14  1  0  0  0  0
  6 15  1  0  0  0  0
  7 16  1  0  0  0  0
  7 17  1  0  0  0  0
  8 18  1  0  0  0  0
  8 19  1  0  0  0  0
  9 10  1  0  0  0  0
  9 13  1  1  0  0  0
 11 16  1  0  0  0  0
 12 17  1  0  0  0  0
 14 18  1  0  0  0  0
 15 19  1  0  0  0  0
M  END
> <DATABASE_ID>
DB00380

> <DATABASE_NAME>
drugbank

> <SMILES>
C[C@@H](CN1CC(=O)NC(=O)C1)N1CC(=O)NC(=O)C1

> <INCHI_IDENTIFIER>
InChI=1S/C11H16N4O4/c1-7(15-5-10(18)13-11(19)6-15)2-14-3-8(16)12-9(17)4-14/h7H,2-6H2,1H3,(H,12,16,17)(H,13,18,19)/t7-/m0/s1

> <INCHI_KEY>
BMKDZUISNHGIBY-ZETCQYMHSA-N

> <FORMULA>
C11H16N4O4

> <MOLECULAR_WEIGHT>
268.2691

> <EXACT_MASS>
268.11715502

> <JCHEM_ACCEPTOR_COUNT>
6

> <JCHEM_AVERAGE_POLARIZABILITY>
26.12181075550423

> <JCHEM_BIOAVAILABILITY>
1

> <JCHEM_DONOR_COUNT>
2

> <JCHEM_FORMAL_CHARGE>
0

> <JCHEM_GHOSE_FILTER>
0

> <JCHEM_IUPAC>
4-[(2S)-2-(3,5-dioxopiperazin-1-yl)propyl]piperazine-2,6-dione

> <ALOGPS_LOGP>
-1.05

> <JCHEM_LOGP>
-2.6526549413333336

> <ALOGPS_LOGS>
-1.41

> <JCHEM_MDDR_LIKE_RULE>
0

> <JCHEM_NUMBER_OF_RINGS>
2

> <JCHEM_PHYSIOLOGICAL_CHARGE>
0

> <JCHEM_PKA>
11.800852844190322

> <JCHEM_PKA_STRONGEST_ACIDIC>
11.198792840713974

> <JCHEM_PKA_STRONGEST_BASIC>
3.595816919458805

> <JCHEM_POLAR_SURFACE_AREA>
98.82

> <JCHEM_REFRACTIVITY>
64.2532

> <JCHEM_ROTATABLE_BOND_COUNT>
3

> <JCHEM_RULE_OF_FIVE>
1

> <ALOGPS_SOLUBILITY>
1.04e+01 g/l

> <JCHEM_TRADITIONAL_IUPAC>
dexrazoxane

> <JCHEM_VEBER_RULE>
0

> <DRUGBANK_ID>
DB00380

> <SECONDARY_ACCESSION_NUMBERS>
APRD00090; DB02444

> <DRUG_GROUPS>
approved; withdrawn

> <GENERIC_NAME>
Dexrazoxane

> <SYNONYMS>
(+)-(S)-4,4'-Propylenedi-2,6-piperazinedione; 4-[(2S)-2-(3,5-dioxopiperazin-1-yl)propyl]piperazine-2,6-dione; Dexrazoxan; Dexrazoxane; Dexrazoxano; Dexrazoxanum

> <PRODUCTS>
Dexrazoxane; Dexrazoxane Hydrochloride; Savene; Totect; Zinecard

> <INTERNATIONAL_BRANDS>
Ao Nuo Xian; Cardioxane; Dexrazoxane; Savene; Totect

> <SALTS>
Dexrazoxane hydrochloride

$$$$
382
  Mrv0541 02231214382D          

 15 17  0  0  0  0            999 V2000
    3.6958   -1.2972    0.0000 N   0  0  0  0  0  0  0  0  0  0  0  0
    3.6958    1.0790    0.0000 N   0  0  0  0  0  0  0  0  0  0  0  0
    1.5842   -0.0926    0.0000 C   0  0  0  0  0  0  0  0  0  0  0  0
    2.3019    0.3145    0.0000 C   0  0  0  0  0  0  0  0  0  0  0  0
    1.5842   -0.9176    0.0000 C   0  0  0  0  0  0  0  0  0  0  0  0
    3.0099   -0.1091    0.0000 C   0  0  0  0  0  0  0  0  0  0  0  0
    2.3019   -1.3246    0.0000 C   0  0  0  0  0  0  0  0  0  0  0  0
    3.0099   -0.9011    0.0000 C   0  0  0  0  0  0  0  0  0  0  0  0
    3.6958    0.2870    0.0000 C   0  0  0  0  0  0  0  0  0  0  0  0
    4.3819   -0.1091    0.0000 C   0  0  0  0  0  0  0  0  0  0  0  0
    4.3819   -0.9011    0.0000 C   0  0  0  0  0  0  0  0  0  0  0  0
    5.0899    0.3145    0.0000 C   0  0  0  0  0  0  0  0  0  0  0  0
    5.0899   -1.3246    0.0000 C   0  0  0  0  0  0  0  0  0  0  0  0
    5.8076   -0.0926    0.0000 C   0  0  0  0  0  0  0  0  0  0  0  0
    5.8076   -0.9176    0.0000 C   0  0  0  0  0  0  0  0  0  0  0  0
  1  8  2  0  0  0  0
  1 11  1  0  0  0  0
  2  9  1  0  0  0  0
  3  4  1  0  0  0  0
  3  5  1  0  0  0  0
  4  6  1  0  0  0  0
  5  7  1  0  0  0  0
  6  8  1  0  0  0  0
  6  9  2  0  0  0  0
  7  8  1  0  0  0  0
  9 10  1  0  0  0  0
 10 11  1  0  0  0  0
 10 12  2  0  0  0  0
 11 13  2  0  0  0  0
 12 14  1  0  0  0  0
 13 15  1  0  0  0  0
 14 15  2  0  0  0  0
M  END
> <DATABASE_ID>
DB00382

> <DATABASE_NAME>
drugbank

> <SMILES>
NC1=C2CCCCC2=NC2=CC=CC=C12

> <INCHI_IDENTIFIER>
InChI=1S/C13H14N2/c14-13-9-5-1-3-7-11(9)15-12-8-4-2-6-10(12)13/h1,3,5,7H,2,4,6,8H2,(H2,14,15)

> <INCHI_KEY>
YLJREFDVOIBQDA-UHFFFAOYSA-N

> <FORMULA>
C13H14N2

> <MOLECULAR_WEIGHT>
198.2637

> <EXACT_MASS>
198.115698458

> <JCHEM_ACCEPTOR_COUNT>
2

> <JCHEM_AVERAGE_POLARIZABILITY>
22.79015707088682

> <JCHEM_BIOAVAILABILITY>
1

> <JCHEM_DONOR_COUNT>
1

> <JCHEM_FORMAL_CHARGE>
0

> <JCHEM_GHOSE_FILTER>
1

> <JCHEM_IUPAC>
1,2,3,4-tetrahydroacridin-9-amine

> <ALOGPS_LOGP>
3.13

> <JCHEM_LOGP>
2.628144685

> <ALOGPS_LOGS>
-3.16

> <JCHEM_MDDR_LIKE_RULE>
0

> <JCHEM_NUMBER_OF_RINGS>
3

> <JCHEM_PHYSIOLOGICAL_CHARGE>
1

> <JCHEM_PKA_STRONGEST_BASIC>
8.953831978668072

> <JCHEM_POLAR_SURFACE_AREA>
38.91

> <JCHEM_REFRACTIVITY>
61.73810000000002

> <JCHEM_ROTATABLE_BOND_COUNT>
0

> <JCHEM_RULE_OF_FIVE>
1

> <ALOGPS_SOLUBILITY>
1.36e-01 g/l

> <JCHEM_TRADITIONAL_IUPAC>
tacrine

> <JCHEM_VEBER_RULE>
1

> <DRUGBANK_ID>
DB00382

> <SECONDARY_ACCESSION_NUMBERS>
APRD00690

> <DRUG_GROUPS>
withdrawn

> <GENERIC_NAME>
Tacrine

> <SYNONYMS>
1,2,3,4-tetrahydro-9-acridinamine; 1,2,3,4-tetrahydro-9-aminoacridine; 1,2,3,4-tetrahydroacridin-9-amine; 5-amino-6,7,8,9-tetrahydroacridine; 9-amino-1,2,3,4-tetrahydroacridine; Tacrin; Tacrine; Tacrinum; Tetrahydroaminacrine; Tetrahydroaminoacridine; THA

> <INTERNATIONAL_BRANDS>
Cognex; Talem

> <SALTS>
Tacrine Hydrochloride

$$$$
26934
  Mrv0541 02231214392D          

 11 11  0  0  1  0            999 V2000
    1.6500    0.9034    0.0000 O   0  0  0  0  0  0  0  0  0  0  0  0
    3.0790    1.7284    0.0000 N   0  0  0  0  0  0  0  0  0  0  0  0
    2.3645    0.4909    0.0000 C   0  0  2  0  0  0  0  0  0  0  0  0
    3.0790    0.9034    0.0000 C   0  0  1  0  0  0  0  0  0  0  0  0
    2.3645   -0.3341    0.0000 C   0  0  0  0  0  0  0  0  0  0  0  0
    3.7935    0.4909    0.0000 C   0  0  0  0  0  0  0  0  0  0  0  0
    3.0790   -0.7466    0.0000 C   0  0  0  0  0  0  0  0  0  0  0  0
    1.6500   -0.7466    0.0000 C   0  0  0  0  0  0  0  0  0  0  0  0
    3.0790   -1.5717    0.0000 C   0  0  0  0  0  0  0  0  0  0  0  0
    1.6500   -1.5717    0.0000 C   0  0  0  0  0  0  0  0  0  0  0  0
    2.3645   -1.9842    0.0000 C   0  0  0  0  0  0  0  0  0  0  0  0
  3  1  1  6  0  0  0
  4  2  1  6  0  0  0
  3  4  1  0  0  0  0
  3  5  1  0  0  0  0
  4  6  1  0  0  0  0
  5  7  2  0  0  0  0
  5  8  1  0  0  0  0
  7  9  1  0  0  0  0
  8 10  2  0  0  0  0
  9 11  2  0  0  0  0
 10 11  1  0  0  0  0
M  END
> <DATABASE_ID>
DB00397

> <DATABASE_NAME>
drugbank

> <SMILES>
C[C@@H](N)[C@@H](O)C1=CC=CC=C1

> <INCHI_IDENTIFIER>
InChI=1S/C9H13NO/c1-7(10)9(11)8-5-3-2-4-6-8/h2-7,9,11H,10H2,1H3/t7-,9-/m1/s1

> <INCHI_KEY>
DLNKOYKMWOXYQA-VXNVDRBHSA-N

> <FORMULA>
C9H13NO

> <MOLECULAR_WEIGHT>
151.2056

> <EXACT_MASS>
151.099714043

> <JCHEM_ACCEPTOR_COUNT>
2

> <JCHEM_AVERAGE_POLARIZABILITY>
16.984056567849528

> <JCHEM_BIOAVAILABILITY>
1

> <JCHEM_DONOR_COUNT>
2

> <JCHEM_FORMAL_CHARGE>
0

> <JCHEM_GHOSE_FILTER>
0

> <JCHEM_IUPAC>
(1S,2R)-2-amino-1-phenylpropan-1-ol

> <ALOGPS_LOGP>
0.57

> <JCHEM_LOGP>
0.8852543346666666

> <ALOGPS_LOGS>
-0.87

> <JCHEM_MDDR_LIKE_RULE>
0

> <JCHEM_NUMBER_OF_RINGS>
1

> <JCHEM_PHYSIOLOGICAL_CHARGE>
1

> <JCHEM_PKA_STRONGEST_ACIDIC>
13.896164133633945

> <JCHEM_PKA_STRONGEST_BASIC>
9.370138989147625

> <JCHEM_POLAR_SURFACE_AREA>
46.25

> <JCHEM_REFRACTIVITY>
44.9127

> <JCHEM_ROTATABLE_BOND_COUNT>
2

> <JCHEM_RULE_OF_FIVE>
1

> <ALOGPS_SOLUBILITY>
2.06e+01 g/l

> <JCHEM_TRADITIONAL_IUPAC>
phenylpropanolamine

> <JCHEM_VEBER_RULE>
0

> <DRUGBANK_ID>
DB00397

> <SECONDARY_ACCESSION_NUMBERS>
APRD00457; DB09441

> <DRUG_GROUPS>
approved; vet_approved; withdrawn

> <GENERIC_NAME>
Phenylpropanolamine

> <SYNONYMS>
2-amino-1-phenylpropan-1-ol; Fenilpropanolamina; Norephedrin; Phenylpropanolamin; Phénylpropanolamine; Phenylpropanolaminum; PPA; β-hydroxyamphetamine

> <PRODUCTS>
Antitussive Decong Antihistamine Syr; Bronchodex D Cap; Bronchosirum Pour Enfants; Caldomine Dh Adulte; Caldomine Dh Enfant; Centracol DM - Syr; Chlor Tripolon Decongest Syr; Cold & Allergy Relief - Liq; Cold Decongestant Long Acting Cap; Cold Relief; Cold Relief DM; Contac Cold Capsules; Contac Cold Extra Strength Capsules; Contac Cough  Cold and Flu Caplets; Contact C Src; Coricidin D Long Acting Tab; Coricidin D Tab; Coricidin Nd Tab; Coricidin Sinus Headache Tab; Corsym Suspension; Cough, Cold & Allergy Relief; Counteract Sinus and Allergy; Decongestant Antihistaminic Syrup; Dilotab; Dimetane Expectorant Liq; Dimetane Expectorant-C Syr; Dimetane Expectorant-DC Syr; Dimetapp Chewable Tablets; Dimetapp Children's Cold & Allergy Tablets; Dimetapp Children's Cold & Fever; Dimetapp Clear; Dimetapp Cold & Sinus; Dimetapp Cough & Cold Liqui-gels  -  Cap; Dimetapp Cough, Cold & Flu; Dimetapp DM Elixir; Dimetapp DM Tab; Dimetapp Elixir; Dimetapp Extentabs; Dimetapp Liqui-gels Cap; Dimetapp Oral Infant Drops; Dimetapp Tab; Dimetapp-C Syr; Dristan Capsules; Emercidin D Tab; Emertabs Tab; Entex LA; Entex LA Tablets Srt; Extra Strength Contac C - Src; Oradrine 2 Tab; Oradrine Tablets; Ornade AF Liquid; Ornade AF Spansule Src; Ornade DM 10 Liq; Ornade DM 15 Liq; Ornade DM 30 Liq; Ornade Expectorant Cough Formula; Ornade Liquid; Ornade Spansule  Src; Pharmacol DM Syr; Pharmetapp Elixir; Pharminicol DM Syrup; Sine Off Nd Extra Strength Caplet; Sine-off Allergy Tab; Sine-off N.D. Tab; Sine-off N.D. Tablet; Sinutab Sa Tab; Tantacol DM Syr; Tantapp Elixir; Tavist-D Tablets; Triaminic Cold and Allergy Syrup; Triaminic DM Daytime Syr; Triaminic Expectorant Dh Syrup; Triaminic Time Release Tab; Triaminicin Colds & Flu Caplets; Trisulfaminic Sus; Trisulfaminic Tab; Tussaminic C Forte Syrup; Tussaminic C Pediatric Syrup; Tussaminic Dh Forte Syrup; Tussaminic Dh Pediatric Syrup

> <INTERNATIONAL_BRANDS>
Acutrim; Boxogetten; Dexatrim; Disudrin; Naldec; Nasadec; Nasathera; Propagest; Recatol mono; Rhindecon; Rinexin

> <SALTS>
Phenylpropanolamine hydrochloride

$$$$
409
  Mrv0541 02231214392D          

 22 23  0  0  1  0            999 V2000
    2.3645   -2.5585    0.0000 Br  0  0  0  0  0  0  0  0  0  0  0  0
    3.0791    0.3290    0.0000 O   0  0  0  0  0  0  0  0  0  0  0  0
    2.3645   -0.9085    0.0000 O   0  0  0  0  0  0  0  0  0  0  0  0
    5.2224   -0.9085    0.0000 O   0  0  0  0  0  0  0  0  0  0  0  0
    5.9762    1.2309    0.0000 N   0  0  0  0  0  0  0  0  0  0  0  0
    4.5080    0.3290    0.0000 N   0  0  0  0  0  0  0  0  0  0  0  0
    5.2224    1.5665    0.0000 C   0  0  1  0  0  0  0  0  0  0  0  0
    5.3087    2.3870    0.0000 C   0  0  0  0  0  0  0  0  0  0  0  0
    6.1157    2.5585    0.0000 C   0  0  0  0  0  0  0  0  0  0  0  0
    6.5282    1.8441    0.0000 C   0  0  0  0  0  0  0  0  0  0  0  0
    4.5080    1.1540    0.0000 C   0  0  0  0  0  0  0  0  0  0  0  0
    6.1477    0.4240    0.0000 C   0  0  0  0  0  0  0  0  0  0  0  0
    6.9323    0.1690    0.0000 C   0  0  0  0  0  0  0  0  0  0  0  0
    3.7935   -0.0835    0.0000 C   0  0  0  0  0  0  0  0  0  0  0  0
    3.7935   -0.9085    0.0000 C   0  0  0  0  0  0  0  0  0  0  0  0
    3.0791   -1.3210    0.0000 C   0  0  0  0  0  0  0  0  0  0  0  0
    4.5080   -1.3210    0.0000 C   0  0  0  0  0  0  0  0  0  0  0  0
    3.0791   -2.1460    0.0000 C   0  0  0  0  0  0  0  0  0  0  0  0
    4.5080   -2.1460    0.0000 C   0  0  0  0  0  0  0  0  0  0  0  0
    3.7935   -2.5585    0.0000 C   0  0  0  0  0  0  0  0  0  0  0  0
    1.6500   -1.3210    0.0000 C   0  0  0  0  0  0  0  0  0  0  0  0
    5.9370   -1.3210    0.0000 C   0  0  0  0  0  0  0  0  0  0  0  0
  1 18  1  0  0  0  0
  2 14  2  0  0  0  0
  3 16  1  0  0  0  0
  3 21  1  0  0  0  0
  4 17  1  0  0  0  0
  4 22  1  0  0  0  0
  5  7  1  0  0  0  0
  5 10  1  0  0  0  0
  5 12  1  0  0  0  0
  6 11  1  0  0  0  0
  6 14  1  0  0  0  0
  7  8  1  0  0  0  0
  7 11  1  6  0  0  0
  8  9  1  0  0  0  0
  9 10  1  0  0  0  0
 12 13  1  0  0  0  0
 14 15  1  0  0  0  0
 15 16  1  0  0  0  0
 15 17  2  0  0  0  0
 16 18  2  0  0  0  0
 17 19  1  0  0  0  0
 18 20  1  0  0  0  0
 19 20  2  0  0  0  0
M  END
> <DATABASE_ID>
DB00409

> <DATABASE_NAME>
drugbank

> <SMILES>
CCN1CCC[C@H]1CNC(=O)C1=C(OC)C=CC(Br)=C1OC

> <INCHI_IDENTIFIER>
InChI=1S/C16H23BrN2O3/c1-4-19-9-5-6-11(19)10-18-16(20)14-13(21-2)8-7-12(17)15(14)22-3/h7-8,11H,4-6,9-10H2,1-3H3,(H,18,20)/t11-/m0/s1

> <INCHI_KEY>
GUJRSXAPGDDABA-NSHDSACASA-N

> <FORMULA>
C16H23BrN2O3

> <MOLECULAR_WEIGHT>
371.269

> <EXACT_MASS>
370.089205259

> <JCHEM_ACCEPTOR_COUNT>
4

> <JCHEM_AVERAGE_POLARIZABILITY>
36.246314685981304

> <JCHEM_BIOAVAILABILITY>
1

> <JCHEM_DONOR_COUNT>
1

> <JCHEM_FORMAL_CHARGE>
0

> <JCHEM_GHOSE_FILTER>
1

> <JCHEM_IUPAC>
3-bromo-N-{[(2S)-1-ethylpyrrolidin-2-yl]methyl}-2,6-dimethoxybenzamide

> <ALOGPS_LOGP>
2.94

> <JCHEM_LOGP>
2.341989283666666

> <ALOGPS_LOGS>
-3.47

> <JCHEM_MDDR_LIKE_RULE>
0

> <JCHEM_NUMBER_OF_RINGS>
2

> <JCHEM_PHYSIOLOGICAL_CHARGE>
1

> <JCHEM_PKA_STRONGEST_ACIDIC>
13.061706116917048

> <JCHEM_PKA_STRONGEST_BASIC>
8.399395861757496

> <JCHEM_POLAR_SURFACE_AREA>
50.800000000000004

> <JCHEM_REFRACTIVITY>
90.56120000000001

> <JCHEM_ROTATABLE_BOND_COUNT>
6

> <JCHEM_RULE_OF_FIVE>
1

> <ALOGPS_SOLUBILITY>
1.27e-01 g/l

> <JCHEM_TRADITIONAL_IUPAC>
remoxipride

> <JCHEM_VEBER_RULE>
0

> <DRUGBANK_ID>
DB00409

> <SECONDARY_ACCESSION_NUMBERS>
APRD00316

> <DRUG_GROUPS>
approved; withdrawn

> <GENERIC_NAME>
Remoxipride

> <SYNONYMS>
Remoxiprida; Remoxipride; Remoxipridum

> <INTERNATIONAL_BRANDS>
Roxiam

> <SALTS>
Remoxipride hydrochloride

$$$$
414
  Mrv0541 02231214402D          

 22 23  0  0  0  0            999 V2000
    2.4751    0.0000    0.0000 S   0  0  0  0  0  0  0  0  0  0  0  0
    3.9041    0.8250    0.0000 O   0  0  0  0  0  0  0  0  0  0  0  0
    1.6500    0.0000    0.0000 O   0  0  0  0  0  0  0  0  0  0  0  0
    3.3001    0.0000    0.0000 O   0  0  0  0  0  0  0  0  0  0  0  0
    3.1895   -3.7126    0.0000 O   0  0  0  0  0  0  0  0  0  0  0  0
    3.1895    2.0625    0.0000 N   0  0  0  0  0  0  0  0  0  0  0  0
    2.4751    0.8250    0.0000 N   0  0  0  0  0  0  0  0  0  0  0  0
    3.9041    2.4751    0.0000 C   0  0  0  0  0  0  0  0  0  0  0  0
    3.9041    3.3001    0.0000 C   0  0  0  0  0  0  0  0  0  0  0  0
    4.6185    2.0625    0.0000 C   0  0  0  0  0  0  0  0  0  0  0  0
    4.6185    3.7126    0.0000 C   0  0  0  0  0  0  0  0  0  0  0  0
    5.3330    2.4751    0.0000 C   0  0  0  0  0  0  0  0  0  0  0  0
    5.3330    3.3001    0.0000 C   0  0  0  0  0  0  0  0  0  0  0  0
    3.1895    1.2375    0.0000 C   0  0  0  0  0  0  0  0  0  0  0  0
    2.4751   -0.8250    0.0000 C   0  0  0  0  0  0  0  0  0  0  0  0
    1.7606   -1.2375    0.0000 C   0  0  0  0  0  0  0  0  0  0  0  0
    3.1895   -1.2375    0.0000 C   0  0  0  0  0  0  0  0  0  0  0  0
    2.4751   -2.4751    0.0000 C   0  0  0  0  0  0  0  0  0  0  0  0
    1.7606   -2.0625    0.0000 C   0  0  0  0  0  0  0  0  0  0  0  0
    3.1895   -2.0625    0.0000 C   0  0  0  0  0  0  0  0  0  0  0  0
    2.4751   -3.3001    0.0000 C   0  0  0  0  0  0  0  0  0  0  0  0
    1.7606   -3.7126    0.0000 C   0  0  0  0  0  0  0  0  0  0  0  0
  1  3  2  0  0  0  0
  1  4  2  0  0  0  0
  1  7  1  0  0  0  0
  1 15  1  0  0  0  0
  2 14  2  0  0  0  0
  5 21  2  0  0  0  0
  6  8  1  0  0  0  0
  6 14  1  0  0  0  0
  7 14  1  0  0  0  0
  8  9  1  0  0  0  0
  8 10  1  0  0  0  0
  9 11  1  0  0  0  0
 10 12  1  0  0  0  0
 11 13  1  0  0  0  0
 12 13  1  0  0  0  0
 15 16  2  0  0  0  0
 15 17  1  0  0  0  0
 16 19  1  0  0  0  0
 17 20  2  0  0  0  0
 18 19  2  0  0  0  0
 18 20  1  0  0  0  0
 18 21  1  0  0  0  0
 21 22  1  0  0  0  0
M  END
> <DATABASE_ID>
DB00414

> <DATABASE_NAME>
drugbank

> <SMILES>
CC(=O)C1=CC=C(C=C1)S(=O)(=O)NC(=O)NC1CCCCC1

> <INCHI_IDENTIFIER>
InChI=1S/C15H20N2O4S/c1-11(18)12-7-9-14(10-8-12)22(20,21)17-15(19)16-13-5-3-2-4-6-13/h7-10,13H,2-6H2,1H3,(H2,16,17,19)

> <INCHI_KEY>
VGZSUPCWNCWDAN-UHFFFAOYSA-N

> <FORMULA>
C15H20N2O4S

> <MOLECULAR_WEIGHT>
324.395

> <EXACT_MASS>
324.114377828

> <JCHEM_ACCEPTOR_COUNT>
4

> <JCHEM_AVERAGE_POLARIZABILITY>
33.965402081078516

> <JCHEM_BIOAVAILABILITY>
1

> <JCHEM_DONOR_COUNT>
2

> <JCHEM_FORMAL_CHARGE>
0

> <JCHEM_GHOSE_FILTER>
1

> <JCHEM_IUPAC>
3-(4-acetylbenzenesulfonyl)-1-cyclohexylurea

> <ALOGPS_LOGP>
1.72

> <JCHEM_LOGP>
1.8149334736666671

> <ALOGPS_LOGS>
-3.83

> <JCHEM_MDDR_LIKE_RULE>
0

> <JCHEM_NUMBER_OF_RINGS>
2

> <JCHEM_PHYSIOLOGICAL_CHARGE>
-1

> <JCHEM_PKA>
15.767579752295735

> <JCHEM_PKA_STRONGEST_ACIDIC>
4.313317626025074

> <JCHEM_PKA_STRONGEST_BASIC>
-7.419213725695492

> <JCHEM_POLAR_SURFACE_AREA>
92.34

> <JCHEM_REFRACTIVITY>
82.7722

> <JCHEM_ROTATABLE_BOND_COUNT>
3

> <JCHEM_RULE_OF_FIVE>
1

> <ALOGPS_SOLUBILITY>
4.83e-02 g/l

> <JCHEM_TRADITIONAL_IUPAC>
acetohexamide

> <JCHEM_VEBER_RULE>
0

> <DRUGBANK_ID>
DB00414

> <SECONDARY_ACCESSION_NUMBERS>
APRD00773

> <DRUG_GROUPS>
withdrawn

> <GENERIC_NAME>
Acetohexamide

> <SYNONYMS>
1-((p-Acetylphenyl)sulfonyl)-3-cyclohexylurea; 1-[(4-acetylbenzene)sulfonyl]-3-cyclohexylurea 4-acetyl-N-(cyclohexylcarbamoyl)benzenesulfonamide; Acetohexamid; Acetohexamida; Acétohexamide; Acetohexamide; Acetohexamidum; N-(p-Acetylphenylsulfonyl)-N'-cyclohexylurea

> <PRODUCTS>
Dimelor Tablet 1843 500mg

> <INTERNATIONAL_BRANDS>
Acetohexamide; Dimelin; Dymelor; Gamadiabet

$$$$
24244
  Mrv0541 02231214402D          

 52 56  0  0  1  0            999 V2000
    9.1370    3.7174    0.0000 I   0  5  0  0  0  0  0  0  0  0  0  0
    9.1370    5.7939    0.0000 I   0  5  0  0  0  0  0  0  0  0  0  0
    3.4756    6.1314    0.0000 O   0  0  0  0  0  0  0  0  0  0  0  0
    4.8937    3.1151    0.0000 O   0  0  0  0  0  0  0  0  0  0  0  0
    1.8283    6.9254    0.0000 O   0  0  0  0  0  0  0  0  0  0  0  0
    1.8283    8.5810    0.0000 O   0  0  0  0  0  0  0  0  0  0  0  0
    5.0620    1.3259    0.0000 O   0  0  0  0  0  0  0  0  0  0  0  0
    6.1301    3.2687    0.0000 O   0  0  0  0  0  0  0  0  0  0  0  0
    5.4054    7.3406    0.0000 N   0  3  0  0  0  0  0  0  0  0  0  0
    1.3259    1.9379    0.0000 N   0  3  0  0  0  0  0  0  0  0  0  0
    4.6910    6.9282    0.0000 C   0  0  1  0  0  0  0  0  0  0  0  0
    1.9594    2.4662    0.0000 C   0  0  2  0  0  0  0  0  0  0  0  0
    5.4054    8.1657    0.0000 C   0  0  0  0  0  0  0  0  0  0  0  0
    1.4665    1.1251    0.0000 C   0  0  0  0  0  0  0  0  0  0  0  0
    3.9765    7.3406    0.0000 C   0  0  0  0  0  0  0  0  0  0  0  0
    4.6910    8.5782    0.0000 C   0  0  0  0  0  0  0  0  0  0  0  0
    2.7339    2.1817    0.0000 C   0  0  0  0  0  0  0  0  0  0  0  0
    4.4774    6.1314    0.0000 C   0  0  0  0  0  0  0  0  0  0  0  0
    3.9765    8.1657    0.0000 C   0  0  0  0  0  0  0  0  0  0  0  0
    2.2409    0.8405    0.0000 C   0  0  0  0  0  0  0  0  0  0  0  0
    6.2359    7.3406    0.0000 C   0  0  0  0  0  0  0  0  0  0  0  0
    5.8207    6.6214    0.0000 C   0  0  0  0  0  0  0  0  0  0  0  0
    1.8256    3.2736    0.0000 C   0  0  0  0  0  0  0  0  0  0  0  0
    2.8744    1.3688    0.0000 C   0  0  0  0  0  0  0  0  0  0  0  0
    0.5075    1.7963    0.0000 C   0  0  0  0  0  0  0  0  0  0  0  0
    0.7939    2.5760    0.0000 C   0  0  0  0  0  0  0  0  0  0  0  0
    3.2621    6.9282    0.0000 C   0  0  0  0  0  0  0  0  0  0  0  0
    4.8899    5.4169    0.0000 C   0  0  0  0  0  0  0  0  0  0  0  0
    3.3674    2.7100    0.0000 C   0  0  0  0  0  0  0  0  0  0  0  0
    3.2621    8.5782    0.0000 C   0  0  0  0  0  0  0  0  0  0  0  0
    2.2381    3.9880    0.0000 C   0  0  0  0  0  0  0  0  0  0  0  0
    3.6489    1.0842    0.0000 C   0  0  0  0  0  0  0  0  0  0  0  0
    2.5476    7.3406    0.0000 C   0  0  0  0  0  0  0  0  0  0  0  0
    4.1417    2.4253    0.0000 C   0  0  0  0  0  0  0  0  0  0  0  0
    2.5476    8.1657    0.0000 C   0  0  0  0  0  0  0  0  0  0  0  0
    4.2824    1.6125    0.0000 C   0  0  0  0  0  0  0  0  0  0  0  0
    4.4774    4.7025    0.0000 C   0  0  0  0  0  0  0  0  0  0  0  0
    5.7149    5.4169    0.0000 C   0  0  0  0  0  0  0  0  0  0  0  0
    1.8256    4.7025    0.0000 C   0  0  0  0  0  0  0  0  0  0  0  0
    3.0631    3.9880    0.0000 C   0  0  0  0  0  0  0  0  0  0  0  0
    3.0631    5.4169    0.0000 C   0  0  0  0  0  0  0  0  0  0  0  0
    4.8899    3.9880    0.0000 C   0  0  0  0  0  0  0  0  0  0  0  0
    2.2381    5.4169    0.0000 C   0  0  0  0  0  0  0  0  0  0  0  0
    3.4756    4.7025    0.0000 C   0  0  0  0  0  0  0  0  0  0  0  0
    6.1273    4.7025    0.0000 C   0  0  0  0  0  0  0  0  0  0  0  0
    5.7149    3.9880    0.0000 C   0  0  0  0  0  0  0  0  0  0  0  0
    1.1090    7.3406    0.0000 C   0  0  0  0  0  0  0  0  0  0  0  0
    1.8283    9.4116    0.0000 C   0  0  0  0  0  0  0  0  0  0  0  0
    5.2036    0.5075    0.0000 C   0  0  0  0  0  0  0  0  0  0  0  0
    6.9608    3.2687    0.0000 C   0  0  0  0  0  0  0  0  0  0  0  0
    5.2565    6.5056    0.0000 H   0  0  0  0  0  0  0  0  0  0  0  0
    1.2977    2.7122    0.0000 H   0  0  0  0  0  0  0  0  0  0  0  0
  3 27  1  0  0  0  0
  3 41  1  0  0  0  0
  4 34  1  0  0  0  0
  4 42  1  0  0  0  0
  5 33  1  0  0  0  0
  5 47  1  0  0  0  0
  6 35  1  0  0  0  0
  6 48  1  0  0  0  0
  7 36  1  0  0  0  0
  7 49  1  0  0  0  0
  8 46  1  0  0  0  0
  8 50  1  0  0  0  0
  9 11  1  0  0  0  0
  9 13  1  0  0  0  0
  9 21  1  0  0  0  0
  9 22  1  0  0  0  0
 10 12  1  0  0  0  0
 10 14  1  0  0  0  0
 10 25  1  0  0  0  0
 10 26  1  0  0  0  0
 11 15  1  0  0  0  0
 11 18  1  0  0  0  0
 11 51  1  1  0  0  0
 12 17  1  0  0  0  0
 12 23  1  0  0  0  0
 12 52  1  6  0  0  0
 13 16  1  0  0  0  0
 14 20  1  0  0  0  0
 15 19  1  0  0  0  0
 15 27  2  0  0  0  0
 16 19  1  0  0  0  0
 17 24  1  0  0  0  0
 17 29  2  0  0  0  0
 18 28  1  0  0  0  0
 19 30  2  0  0  0  0
 20 24  1  0  0  0  0
 23 31  1  0  0  0  0
 24 32  2  0  0  0  0
 27 33  1  0  0  0  0
 28 37  2  0  0  0  0
 28 38  1  0  0  0  0
 29 34  1  0  0  0  0
 30 35  1  0  0  0  0
 31 39  2  0  0  0  0
 31 40  1  0  0  0  0
 32 36  1  0  0  0  0
 33 35  2  0  0  0  0
 34 36  2  0  0  0  0
 37 42  1  0  0  0  0
 38 45  2  0  0  0  0
 39 43  1  0  0  0  0
 40 44  2  0  0  0  0
 41 43  2  0  0  0  0
 41 44  1  0  0  0  0
 42 46  2  0  0  0  0
 45 46  1  0  0  0  0
M  CHG  4   1  -1   2  -1   9   1  10   1
M  END
> <DATABASE_ID>
DB00416

> <DATABASE_NAME>
drugbank

> <SMILES>
[I-].[I-].[H][C@@]12CC3=CC=C(OC4=C5C(CC[N+](C)(C)[C@]5([H])CC5=CC(OC6=C(OC)C=C(CC[N+]1(C)C)C2=C6)=C(OC)C=C5)=CC(OC)=C4OC)C=C3

> <INCHI_IDENTIFIER>
InChI=1S/C40H48N2O6.2HI/c1-41(2)17-15-27-22-34(44-6)36-24-30(27)31(41)19-25-9-12-29(13-10-25)47-40-38-28(23-37(45-7)39(40)46-8)16-18-42(3,4)32(38)20-26-11-14-33(43-5)35(21-26)48-36;;/h9-14,21-24,31-32H,15-20H2,1-8H3;2*1H/q+2;;/p-2/t31-,32+;;/m0../s1

> <INCHI_KEY>
DIGFQJFCDPKEPF-OIUSMDOTSA-L

> <FORMULA>
C40H48I2N2O6

> <MOLECULAR_WEIGHT>
906.6279

> <EXACT_MASS>
906.160174118

> <JCHEM_ACCEPTOR_COUNT>
4

> <JCHEM_AVERAGE_POLARIZABILITY>
73.46490080021722

> <JCHEM_BIOAVAILABILITY>
1

> <JCHEM_DONOR_COUNT>
0

> <JCHEM_FORMAL_CHARGE>
0

> <JCHEM_GHOSE_FILTER>
0

> <JCHEM_IUPAC>
(1S,16R)-9,10,21,25-tetramethoxy-15,15,30,30-tetramethyl-7,23-dioxa-15,30-diazaheptacyclo[22.6.2.2³,⁶.1⁸,¹².1¹⁸,²².0²⁷,³¹.0¹⁶,³⁴]hexatriaconta-3,5,8(34),9,11,18(33),19,21,24,26,31,35-dodecaene-15,30-diium diiodide

> <ALOGPS_LOGP>
0.81

> <JCHEM_LOGP>
-1.8464105982768224

> <ALOGPS_LOGS>
-6.87

> <JCHEM_MDDR_LIKE_RULE>
0

> <JCHEM_NUMBER_OF_RINGS>
7

> <JCHEM_PHYSIOLOGICAL_CHARGE>
2

> <JCHEM_PKA>
14.521151981799651

> <JCHEM_PKA_STRONGEST_ACIDIC>
12.994155045322369

> <JCHEM_PKA_STRONGEST_BASIC>
-4.314769252011788

> <JCHEM_POLAR_SURFACE_AREA>
55.38000000000001

> <JCHEM_REFRACTIVITY>
211.94179999999983

> <JCHEM_ROTATABLE_BOND_COUNT>
4

> <JCHEM_RULE_OF_FIVE>
0

> <ALOGPS_SOLUBILITY>
1.23e-04 g/l

> <JCHEM_TRADITIONAL_IUPAC>
metocurine diiodide

> <JCHEM_VEBER_RULE>
0

> <DRUGBANK_ID>
DB00416

> <SECONDARY_ACCESSION_NUMBERS>
APRD01318

> <DRUG_GROUPS>
withdrawn

> <GENERIC_NAME>
Metocurine Iodide

> <SYNONYMS>
Dimethyltubocurarinium iodide; Metocurine iodide

> <PRODUCTS>
Metubine Iodide Inj 2mg/ml

> <INTERNATIONAL_BRANDS>
Metubine iodide

$$$$

  Mrv0541 04191212122D          

 12 12  0  0  1  0            999 V2000
   -0.7145   -0.4125    0.0000 C   0  0  2  0  0  0  0  0  0  0  0  0
    0.0000   -0.8250    0.0000 C   0  0  2  0  0  0  0  0  0  0  0  0
    0.7145   -0.4125    0.0000 C   0  0  1  0  0  0  0  0  0  0  0  0
   -0.7145    0.4125    0.0000 C   0  0  2  0  0  0  0  0  0  0  0  0
    0.7145    0.4125    0.0000 C   0  0  1  0  0  0  0  0  0  0  0  0
    0.0000    0.8250    0.0000 C   0  0  1  0  0  0  0  0  0  0  0  0
    1.4289   -0.8250    0.0000 Cl  0  0  0  0  0  0  0  0  0  0  0  0
    0.0000    1.6500    0.0000 Cl  0  0  0  0  0  0  0  0  0  0  0  0
   -1.4289   -0.8250    0.0000 Cl  0  0  0  0  0  0  0  0  0  0  0  0
    0.0000   -1.6500    0.0000 Cl  0  0  0  0  0  0  0  0  0  0  0  0
   -1.4289    0.8250    0.0000 Cl  0  0  0  0  0  0  0  0  0  0  0  0
    1.4289    0.8250    0.0000 Cl  0  0  0  0  0  0  0  0  0  0  0  0
  2  1  1  0  0  0  0
  3  2  1  0  0  0  0
  4  1  1  0  0  0  0
  5  3  1  0  0  0  0
  6  4  1  0  0  0  0
  5  6  1  0  0  0  0
  3  7  1  1  0  0  0
  6  8  1  6  0  0  0
  1  9  1  1  0  0  0
  2 10  1  6  0  0  0
  4 11  1  1  0  0  0
  5 12  1  1  0  0  0
M  END
> <DATABASE_ID>
DB00431

> <DATABASE_NAME>
drugbank

> <SMILES>
Cl[C@H]1[C@H](Cl)[C@@H](Cl)[C@@H](Cl)[C@H](Cl)[C@H]1Cl

> <INCHI_IDENTIFIER>
InChI=1S/C6H6Cl6/c7-1-2(8)4(10)6(12)5(11)3(1)9/h1-6H/t1-,2-,3-,4+,5+,6+

> <INCHI_KEY>
JLYXXMFPNIAWKQ-GNIYUCBRSA-N

> <FORMULA>
C6H6Cl6

> <MOLECULAR_WEIGHT>
290.83

> <EXACT_MASS>
287.860066434

> <JCHEM_ACCEPTOR_COUNT>
0

> <JCHEM_AVERAGE_POLARIZABILITY>
23.083626690760646

> <JCHEM_BIOAVAILABILITY>
1

> <JCHEM_DONOR_COUNT>
0

> <JCHEM_FORMAL_CHARGE>
0

> <JCHEM_GHOSE_FILTER>
0

> <JCHEM_IUPAC>
(1R,2S,3r,4R,5S,6r)-1,2,3,4,5,6-hexachlorocyclohexane

> <ALOGPS_LOGP>
3.94

> <JCHEM_LOGP>
4.345541484

> <ALOGPS_LOGS>
-4.73

> <JCHEM_MDDR_LIKE_RULE>
0

> <JCHEM_NUMBER_OF_RINGS>
1

> <JCHEM_PHYSIOLOGICAL_CHARGE>
0

> <JCHEM_POLAR_SURFACE_AREA>
0

> <JCHEM_REFRACTIVITY>
54.081

> <JCHEM_ROTATABLE_BOND_COUNT>
0

> <JCHEM_RULE_OF_FIVE>
1

> <ALOGPS_SOLUBILITY>
5.47e-03 g/l

> <JCHEM_TRADITIONAL_IUPAC>
β-hexachlorobenzene

> <JCHEM_VEBER_RULE>
1

> <DRUGBANK_ID>
DB00431

> <SECONDARY_ACCESSION_NUMBERS>
APRD01072

> <DRUG_GROUPS>
approved; withdrawn

> <GENERIC_NAME>
Lindane

> <SYNONYMS>
gamma-BHC; gamma-HCH; gamma-Hexachlorocyclohexane; Gammallin; Gammaxene; Lindan; γ-hexachlorocyclohexane; γ-Hexachlorzyklohexan; γ-lindane

> <PRODUCTS>
Dom-lindane Lotion  -  1%; Hexit Lotion; Hexit Shampoo 1.0%; Kwellada Lotion 1%; Kwellada Shampoo 1%; Lindane; Lindane Lotion USP 1%; Lindane Shampoo USP 1%; PMS-lindane Lot 1%; PMS-lindane Shp 1%

> <INTERNATIONAL_BRANDS>
Gamene; Kwell; Scabene

$$$$
439
  Mrv0541 02231214412D          

 33 34  0  0  1  0            999 V2000
    8.5234    2.9833    0.0000 F   0  0  0  0  0  0  0  0  0  0  0  0
   10.6668   -0.7293    0.0000 O   0  0  0  0  0  0  0  0  0  0  0  0
    5.6655    0.5082    0.0000 O   0  0  0  0  0  0  0  0  0  0  0  0
    4.2365    0.5082    0.0000 O   0  0  0  0  0  0  0  0  0  0  0  0
    2.0930   -0.7293    0.0000 O   0  0  0  0  0  0  0  0  0  0  0  0
    2.8075    0.5082    0.0000 O   0  0  0  0  0  0  0  0  0  0  0  0
    8.5234   -1.9668    0.0000 N   0  0  0  0  0  0  0  0  0  0  0  0
    9.2379   -1.5543    0.0000 C   0  0  0  0  0  0  0  0  0  0  0  0
    7.8089   -1.5543    0.0000 C   0  0  0  0  0  0  0  0  0  0  0  0
    9.2379   -0.7293    0.0000 C   0  0  0  0  0  0  0  0  0  0  0  0
    7.8089   -0.7293    0.0000 C   0  0  0  0  0  0  0  0  0  0  0  0
    8.5234   -0.3168    0.0000 C   0  0  0  0  0  0  0  0  0  0  0  0
    7.3964   -2.2688    0.0000 C   0  0  0  0  0  0  0  0  0  0  0  0
    9.9524   -1.9668    0.0000 C   0  0  0  0  0  0  0  0  0  0  0  0
    9.9524   -0.3168    0.0000 C   0  0  0  0  0  0  0  0  0  0  0  0
    8.5234    0.5082    0.0000 C   0  0  0  0  0  0  0  0  0  0  0  0
    7.0944   -0.3168    0.0000 C   0  0  0  0  0  0  0  0  0  0  0  0
    5.6655   -0.3168    0.0000 C   0  0  1  0  0  0  0  0  0  0  0  0
    6.5714   -2.2687    0.0000 C   0  0  0  0  0  0  0  0  0  0  0  0
    7.8090   -2.9833    0.0000 C   0  0  0  0  0  0  0  0  0  0  0  0
   10.6668   -1.5543    0.0000 C   0  0  0  0  0  0  0  0  0  0  0  0
    9.9524   -2.7919    0.0000 C   0  0  0  0  0  0  0  0  0  0  0  0
    4.9509   -0.7293    0.0000 C   0  0  0  0  0  0  0  0  0  0  0  0
    6.3799   -0.7293    0.0000 C   0  0  0  0  0  0  0  0  0  0  0  0
    4.2365   -0.3168    0.0000 C   0  0  2  0  0  0  0  0  0  0  0  0
    7.8089    0.9207    0.0000 C   0  0  0  0  0  0  0  0  0  0  0  0
    9.2379    0.9207    0.0000 C   0  0  0  0  0  0  0  0  0  0  0  0
    3.5220   -0.7293    0.0000 C   0  0  0  0  0  0  0  0  0  0  0  0
    7.8089    1.7457    0.0000 C   0  0  0  0  0  0  0  0  0  0  0  0
    9.2379    1.7457    0.0000 C   0  0  0  0  0  0  0  0  0  0  0  0
    8.5234    2.1582    0.0000 C   0  0  0  0  0  0  0  0  0  0  0  0
   11.3814   -0.3168    0.0000 C   0  0  0  0  0  0  0  0  0  0  0  0
    2.8075   -0.3168    0.0000 C   0  0  0  0  0  0  0  0  0  0  0  0
  1 31  1  0  0  0  0
  2 15  1  0  0  0  0
  2 32  1  0  0  0  0
 18  3  1  6  0  0  0
 25  4  1  6  0  0  0
  5 33  1  0  0  0  0
  6 33  2  0  0  0  0
  7  8  2  0  0  0  0
  7  9  1  0  0  0  0
  8 10  1  0  0  0  0
  8 14  1  0  0  0  0
  9 11  2  0  0  0  0
  9 13  1  0  0  0  0
 10 12  2  0  0  0  0
 10 15  1  0  0  0  0
 11 12  1  0  0  0  0
 11 17  1  0  0  0  0
 12 16  1  0  0  0  0
 13 19  1  0  0  0  0
 13 20  1  0  0  0  0
 14 21  1  0  0  0  0
 14 22  1  0  0  0  0
 16 26  2  0  0  0  0
 16 27  1  0  0  0  0
 17 24  2  0  0  0  0
 18 23  1  0  0  0  0
 18 24  1  0  0  0  0
 23 25  1  0  0  0  0
 25 28  1  0  0  0  0
 26 29  1  0  0  0  0
 27 30  2  0  0  0  0
 28 33  1  0  0  0  0
 29 31  2  0  0  0  0
 30 31  1  0  0  0  0
M  END
> <DATABASE_ID>
DB00439

> <DATABASE_NAME>
drugbank

> <SMILES>
COCC1=C(C2=CC=C(F)C=C2)C(\C=C\[C@@H](O)C[C@@H](O)CC(O)=O)=C(C(C)C)N=C1C(C)C

> <INCHI_IDENTIFIER>
InChI=1S/C26H34FNO5/c1-15(2)25-21(11-10-19(29)12-20(30)13-23(31)32)24(17-6-8-18(27)9-7-17)22(14-33-5)26(28-25)16(3)4/h6-11,15-16,19-20,29-30H,12-14H2,1-5H3,(H,31,32)/b11-10+/t19-,20-/m1/s1

> <INCHI_KEY>
SEERZIQQUAZTOL-ANMDKAQQSA-N

> <FORMULA>
C26H34FNO5

> <MOLECULAR_WEIGHT>
459.5503

> <EXACT_MASS>
459.242101408

> <JCHEM_ACCEPTOR_COUNT>
6

> <JCHEM_AVERAGE_POLARIZABILITY>
50.23378509258512

> <JCHEM_BIOAVAILABILITY>
1

> <JCHEM_DONOR_COUNT>
3

> <JCHEM_FORMAL_CHARGE>
0

> <JCHEM_GHOSE_FILTER>
1

> <JCHEM_IUPAC>
(3R,5S,6E)-7-[4-(4-fluorophenyl)-5-(methoxymethyl)-2,6-bis(propan-2-yl)pyridin-3-yl]-3,5-dihydroxyhept-6-enoic acid

> <ALOGPS_LOGP>
4.15

> <JCHEM_LOGP>
2.6681542381694316

> <ALOGPS_LOGS>
-5.04

> <JCHEM_MDDR_LIKE_RULE>
0

> <JCHEM_NUMBER_OF_RINGS>
2

> <JCHEM_PHYSIOLOGICAL_CHARGE>
-1

> <JCHEM_PKA>
14.649338048923237

> <JCHEM_PKA_STRONGEST_ACIDIC>
4.049301817086692

> <JCHEM_PKA_STRONGEST_BASIC>
5.579559433437144

> <JCHEM_POLAR_SURFACE_AREA>
99.88000000000001

> <JCHEM_REFRACTIVITY>
126.82320000000003

> <JCHEM_ROTATABLE_BOND_COUNT>
11

> <JCHEM_RULE_OF_FIVE>
1

> <ALOGPS_SOLUBILITY>
4.19e-03 g/l

> <JCHEM_TRADITIONAL_IUPAC>
cerivastatin

> <JCHEM_VEBER_RULE>
0

> <DRUGBANK_ID>
DB00439

> <SECONDARY_ACCESSION_NUMBERS>
APRD00102

> <DRUG_GROUPS>
withdrawn

> <GENERIC_NAME>
Cerivastatin

> <PRODUCTS>
Baycol; Baycol (0.2mg); Baycol (0.3mg)

> <INTERNATIONAL_BRANDS>
Lipobay; Rivastatin

> <SALTS>
Cerivastatin sodium

$$$$

  Mrv0541 04191212122D          

 24 26  0  0  1  0            999 V2000
    4.2917   -3.6917    0.0000 N   0  0  0  0  0  0  0  0  0  0  0  0
    3.4667   -3.6917    0.0000 C   0  0  0  0  0  0  0  0  0  0  0  0
    3.4667   -2.8667    0.0000 C   0  0  2  0  0  0  0  0  0  0  0  0
    5.0042   -4.1042    0.0000 C   0  0  0  0  0  0  0  0  0  0  0  0
    4.2917   -2.8667    0.0000 C   0  0  1  0  0  0  0  0  0  0  0  0
    2.8917   -2.2917    0.0000 N   0  0  0  0  0  0  0  0  0  0  0  0
    3.1042   -1.5042    0.0000 C   0  0  0  0  0  0  0  0  0  0  0  0
    5.0042   -4.9292    0.0000 C   0  0  0  0  0  0  0  0  0  0  0  0
    5.7250   -3.6917    0.0000 C   0  0  0  0  0  0  0  0  0  0  0  0
    2.5167   -0.9167    0.0000 C   0  0  2  0  0  0  0  0  0  0  0  0
    5.0042   -2.4542    0.0000 C   0  0  0  0  0  0  0  0  0  0  0  0
    2.8917   -4.2750    0.0000 O   0  0  0  0  0  0  0  0  0  0  0  0
    2.7292   -0.1292    0.0000 N   0  0  0  0  0  0  0  0  0  0  0  0
    3.9042   -1.2917    0.0000 O   0  0  0  0  0  0  0  0  0  0  0  0
    5.7250   -2.8667    0.0000 C   0  0  0  0  0  0  0  0  0  0  0  0
    5.7250   -5.3417    0.0000 O   0  0  0  0  0  0  0  0  0  0  0  0
    4.2917   -5.3417    0.0000 O   0  0  0  0  0  0  0  0  0  0  0  0
    1.7167   -1.1292    0.0000 C   0  0  0  0  0  0  0  0  0  0  0  0
    6.4417   -4.1042    0.0000 Cl  0  0  0  0  0  0  0  0  0  0  0  0
    1.5042   -1.9125    0.0000 C   0  0  0  0  0  0  0  0  0  0  0  0
    1.1375   -0.5417    0.0000 C   0  0  0  0  0  0  0  0  0  0  0  0
    0.3500   -0.7500    0.0000 C   0  0  0  0  0  0  0  0  0  0  0  0
    0.7042   -2.1250    0.0000 C   0  0  0  0  0  0  0  0  0  0  0  0
    0.1292   -1.5417    0.0000 C   0  0  0  0  0  0  0  0  0  0  0  0
  2  1  1  0  0  0  0
  3  5  1  0  0  0  0
  4  1  1  0  0  0  0
  5  1  1  0  0  0  0
  3  6  1  1  0  0  0
  7  6  1  0  0  0  0
  8  4  1  0  0  0  0
  9  4  2  0  0  0  0
 10  7  1  0  0  0  0
  5 11  1  1  0  0  0
 12  2  2  0  0  0  0
 10 13  1  1  0  0  0
 14  7  2  0  0  0  0
 15 11  1  0  0  0  0
 16  8  1  0  0  0  0
 17  8  2  0  0  0  0
 18 10  1  0  0  0  0
 19  9  1  0  0  0  0
 20 18  1  0  0  0  0
 21 18  2  0  0  0  0
 22 21  1  0  0  0  0
 23 20  2  0  0  0  0
 24 22  2  0  0  0  0
  3  2  1  0  0  0  0
 15  9  1  0  0  0  0
 23 24  1  0  0  0  0
M  END
> <DATABASE_ID>
DB00447

> <DATABASE_NAME>
drugbank

> <SMILES>
N[C@@H](C(=O)N[C@H]1[C@H]2CCC(Cl)=C(N2C1=O)C(O)=O)C1=CC=CC=C1

> <INCHI_IDENTIFIER>
InChI=1S/C16H16ClN3O4/c17-9-6-7-10-12(15(22)20(10)13(9)16(23)24)19-14(21)11(18)8-4-2-1-3-5-8/h1-5,10-12H,6-7,18H2,(H,19,21)(H,23,24)/t10-,11-,12+/m1/s1

> <INCHI_KEY>
JAPHQRWPEGVNBT-UTUOFQBUSA-N

> <FORMULA>
C16H16ClN3O4

> <MOLECULAR_WEIGHT>
349.769

> <EXACT_MASS>
349.082933722

> <JCHEM_ACCEPTOR_COUNT>
5

> <JCHEM_AVERAGE_POLARIZABILITY>
32.60508513430199

> <JCHEM_BIOAVAILABILITY>
1

> <JCHEM_DONOR_COUNT>
3

> <JCHEM_FORMAL_CHARGE>
0

> <JCHEM_GHOSE_FILTER>
0

> <JCHEM_IUPAC>
(6R,7S)-7-[(2R)-2-amino-2-phenylacetamido]-3-chloro-8-oxo-1-azabicyclo[4.2.0]oct-2-ene-2-carboxylic acid

> <ALOGPS_LOGP>
0.55

> <JCHEM_LOGP>
-2.399644435030454

> <ALOGPS_LOGS>
-3.03

> <JCHEM_MDDR_LIKE_RULE>
0

> <JCHEM_NUMBER_OF_RINGS>
3

> <JCHEM_PHYSIOLOGICAL_CHARGE>
0

> <JCHEM_PKA>
11.45187646319562

> <JCHEM_PKA_STRONGEST_ACIDIC>
3.12617361557546

> <JCHEM_PKA_STRONGEST_BASIC>
7.438256529944699

> <JCHEM_POLAR_SURFACE_AREA>
112.73000000000002

> <JCHEM_REFRACTIVITY>
86.63750000000002

> <JCHEM_ROTATABLE_BOND_COUNT>
4

> <JCHEM_RULE_OF_FIVE>
1

> <ALOGPS_SOLUBILITY>
3.25e-01 g/l

> <JCHEM_TRADITIONAL_IUPAC>
loracabef

> <JCHEM_VEBER_RULE>
0

> <DRUGBANK_ID>
DB00447

> <SECONDARY_ACCESSION_NUMBERS>
APRD01077

> <DRUG_GROUPS>
withdrawn

> <GENERIC_NAME>
Loracarbef

> <SYNONYMS>
Anhydrous loracarbef; Loracarbef; Loracarbef, anhydrous; Loracarbefum

> <INTERNATIONAL_BRANDS>
Lorabid; Lorafem; Lorbef

> <SALTS>
Loracarbef monohydrate

$$$$
463
  Mrv0541 02231214422D          

 14 14  0  0  0  0            999 V2000
    1.6500    0.5231    0.0000 O   0  0  0  0  0  0  0  0  0  0  0  0
    4.5080    0.5231    0.0000 O   0  0  0  0  0  0  0  0  0  0  0  0
    3.0791   -1.9520    0.0000 O   0  0  0  0  0  0  0  0  0  0  0  0
    2.3645   -0.7145    0.0000 N   0  0  0  0  0  0  0  0  0  0  0  0
    3.7935   -0.7145    0.0000 N   0  0  0  0  0  0  0  0  0  0  0  0
    3.0791    0.5231    0.0000 C   0  0  0  0  0  0  0  0  0  0  0  0
    3.4916    1.2375    0.0000 C   0  0  0  0  0  0  0  0  0  0  0  0
    2.6665    1.2375    0.0000 C   0  0  0  0  0  0  0  0  0  0  0  0
    2.3645    0.1106    0.0000 C   0  0  0  0  0  0  0  0  0  0  0  0
    3.7935    0.1106    0.0000 C   0  0  0  0  0  0  0  0  0  0  0  0
    3.0791    1.9520    0.0000 C   0  0  0  0  0  0  0  0  0  0  0  0
    1.8415    1.2375    0.0000 C   0  0  0  0  0  0  0  0  0  0  0  0
    3.0791   -1.1270    0.0000 C   0  0  0  0  0  0  0  0  0  0  0  0
    1.6500   -1.1270    0.0000 C   0  0  0  0  0  0  0  0  0  0  0  0
  1  9  2  0  0  0  0
  2 10  2  0  0  0  0
  3 13  2  0  0  0  0
  4  9  1  0  0  0  0
  4 13  1  0  0  0  0
  4 14  1  0  0  0  0
  5 10  1  0  0  0  0
  5 13  1  0  0  0  0
  6  7  1  0  0  0  0
  6  8  1  0  0  0  0
  6  9  1  0  0  0  0
  6 10  1  0  0  0  0
  7 11  1  0  0  0  0
  8 12  1  0  0  0  0
M  END
> <DATABASE_ID>
DB00463

> <DATABASE_NAME>
drugbank

> <SMILES>
CCC1(CC)C(=O)NC(=O)N(C)C1=O

> <INCHI_IDENTIFIER>
InChI=1S/C9H14N2O3/c1-4-9(5-2)6(12)10-8(14)11(3)7(9)13/h4-5H2,1-3H3,(H,10,12,14)

> <INCHI_KEY>
FWJKNZONDWOGMI-UHFFFAOYSA-N

> <FORMULA>
C9H14N2O3

> <MOLECULAR_WEIGHT>
198.2191

> <EXACT_MASS>
198.100442324

> <JCHEM_ACCEPTOR_COUNT>
3

> <JCHEM_AVERAGE_POLARIZABILITY>
19.59640491517473

> <JCHEM_BIOAVAILABILITY>
1

> <JCHEM_DONOR_COUNT>
1

> <JCHEM_FORMAL_CHARGE>
0

> <JCHEM_GHOSE_FILTER>
1

> <JCHEM_IUPAC>
5,5-diethyl-1-methyl-1,3-diazinane-2,4,6-trione

> <ALOGPS_LOGP>
1.18

> <JCHEM_LOGP>
0.9407708859999994

> <ALOGPS_LOGS>
-1.01

> <JCHEM_MDDR_LIKE_RULE>
0

> <JCHEM_NUMBER_OF_RINGS>
1

> <JCHEM_PHYSIOLOGICAL_CHARGE>
0

> <JCHEM_PKA_STRONGEST_ACIDIC>
8.74714049403917

> <JCHEM_POLAR_SURFACE_AREA>
66.48

> <JCHEM_REFRACTIVITY>
49.148999999999994

> <JCHEM_ROTATABLE_BOND_COUNT>
2

> <JCHEM_RULE_OF_FIVE>
1

> <ALOGPS_SOLUBILITY>
1.95e+01 g/l

> <JCHEM_TRADITIONAL_IUPAC>
metharbital

> <JCHEM_VEBER_RULE>
0

> <DRUGBANK_ID>
DB00463

> <SECONDARY_ACCESSION_NUMBERS>
APRD00757

> <DRUG_GROUPS>
withdrawn

> <GENERIC_NAME>
Metharbital

> <SYNONYMS>
Metarbital; Metharbital; Metharbitalum

> <INTERNATIONAL_BRANDS>
Gemonil

$$$$
473
  Mrv0541 02231214422D          

 19 20  0  0  1  0            999 V2000
    3.0787   -0.4125    0.0000 O   0  0  0  0  0  0  0  0  0  0  0  0
    1.6498   -0.4125    0.0000 O   0  0  0  0  0  0  0  0  0  0  0  0
    3.7930    1.6498    0.0000 N   0  0  0  0  0  0  0  0  0  0  0  0
    4.5075    2.0623    0.0000 C   0  0  0  0  0  0  0  0  0  0  0  0
    5.2218    1.6498    0.0000 C   0  0  0  0  0  0  0  0  0  0  0  0
    4.5075    2.8873    0.0000 C   0  0  0  0  0  0  0  0  0  0  0  0
    5.9363    2.0623    0.0000 C   0  0  0  0  0  0  0  0  0  0  0  0
    5.2218    3.2997    0.0000 C   0  0  0  0  0  0  0  0  0  0  0  0
    5.9363    2.8873    0.0000 C   0  0  0  0  0  0  0  0  0  0  0  0
    3.7930    0.8249    0.0000 C   0  0  0  0  0  0  0  0  0  0  0  0
    3.0787    0.4125    0.0000 C   0  0  0  0  0  0  0  0  0  0  0  0
    2.3642    0.8249    0.0000 C   0  0  0  0  0  0  0  0  0  0  0  0
    2.3642   -0.8249    0.0000 C   0  0  0  0  0  0  0  0  0  0  0  0
    2.3642   -1.6498    0.0000 C   0  0  0  0  0  0  0  0  0  0  0  0
    3.0787   -2.0623    0.0000 C   0  0  0  0  0  0  0  0  0  0  0  0
    1.6498   -2.0623    0.0000 C   0  0  0  0  0  0  0  0  0  0  0  0
    3.0787   -2.8873    0.0000 C   0  0  0  0  0  0  0  0  0  0  0  0
    1.6498   -2.8873    0.0000 C   0  0  0  0  0  0  0  0  0  0  0  0
    2.3642   -3.2997    0.0000 C   0  0  0  0  0  0  0  0  0  0  0  0
  1 11  1  0  0  0  0
  1 13  1  0  0  0  0
  2 13  2  0  0  0  0
  3  4  1  0  0  0  0
  3 10  1  0  0  0  0
  4  5  1  0  0  0  0
  4  6  1  0  0  0  0
  5  7  1  0  0  0  0
  6  8  1  0  0  0  0
  7  9  1  0  0  0  0
  8  9  1  0  0  0  0
 10 11  1  0  0  0  0
 11 12  1  0  0  0  0
 13 14  1  0  0  0  0
 14 15  2  0  0  0  0
 14 16  1  0  0  0  0
 15 17  1  0  0  0  0
 16 18  2  0  0  0  0
 17 19  2  0  0  0  0
 18 19  1  0  0  0  0
M  END
> <DATABASE_ID>
DB00473

> <DATABASE_NAME>
drugbank

> <SMILES>
CC(CNC1CCCCC1)OC(=O)C1=CC=CC=C1

> <INCHI_IDENTIFIER>
InChI=1S/C16H23NO2/c1-13(12-17-15-10-6-3-7-11-15)19-16(18)14-8-4-2-5-9-14/h2,4-5,8-9,13,15,17H,3,6-7,10-12H2,1H3

> <INCHI_KEY>
DKLKMKYDWHYZTD-UHFFFAOYSA-N

> <FORMULA>
C16H23NO2

> <MOLECULAR_WEIGHT>
261.3593

> <EXACT_MASS>
261.172878985

> <JCHEM_ACCEPTOR_COUNT>
2

> <JCHEM_AVERAGE_POLARIZABILITY>
30.29060176551161

> <JCHEM_BIOAVAILABILITY>
1

> <JCHEM_DONOR_COUNT>
1

> <JCHEM_FORMAL_CHARGE>
0

> <JCHEM_GHOSE_FILTER>
1

> <JCHEM_IUPAC>
1-(cyclohexylamino)propan-2-yl benzoate

> <ALOGPS_LOGP>
3.04

> <JCHEM_LOGP>
3.8281649213333333

> <ALOGPS_LOGS>
-4.43

> <JCHEM_MDDR_LIKE_RULE>
0

> <JCHEM_NUMBER_OF_RINGS>
2

> <JCHEM_PHYSIOLOGICAL_CHARGE>
1

> <JCHEM_PKA_STRONGEST_BASIC>
9.868668944072194

> <JCHEM_POLAR_SURFACE_AREA>
38.33

> <JCHEM_REFRACTIVITY>
76.24070000000002

> <JCHEM_ROTATABLE_BOND_COUNT>
6

> <JCHEM_RULE_OF_FIVE>
1

> <ALOGPS_SOLUBILITY>
9.71e-03 g/l

> <JCHEM_TRADITIONAL_IUPAC>
hexylcaine

> <JCHEM_VEBER_RULE>
1

> <DRUGBANK_ID>
DB00473

> <SECONDARY_ACCESSION_NUMBERS>
APRD01014

> <DRUG_GROUPS>
approved; withdrawn

> <GENERIC_NAME>
Hexylcaine

> <SYNONYMS>
Hexilcaina; Hexylcainum

> <INTERNATIONAL_BRANDS>
Cyclaine

> <SALTS>
Hexylcaine hydrochloride

$$$$
505
  Mrv0541 02231214442D          

 23 24  0  0  1  0            999 V2000
    1.9058    0.0000    0.0000 O   0  0  0  0  0  0  0  0  0  0  0  0
    4.7934   -0.7145    0.0000 N   0  3  0  0  0  0  0  0  0  0  0  0
    2.7308    0.8250    0.0000 C   0  0  0  0  0  0  0  0  0  0  0  0
    2.7308    0.0000    0.0000 C   0  0  0  0  0  0  0  0  0  0  0  0
    3.5558    0.0000    0.0000 C   0  0  0  0  0  0  0  0  0  0  0  0
    3.9683   -0.7145    0.0000 C   0  0  0  0  0  0  0  0  0  0  0  0
    3.4453    1.2375    0.0000 C   0  0  0  0  0  0  0  0  0  0  0  0
    2.0163    1.2375    0.0000 C   0  0  0  0  0  0  0  0  0  0  0  0
    3.4453    2.0625    0.0000 C   0  0  0  0  0  0  0  0  0  0  0  0
    2.0163    2.0625    0.0000 C   0  0  0  0  0  0  0  0  0  0  0  0
    2.7308    2.4751    0.0000 C   0  0  0  0  0  0  0  0  0  0  0  0
    4.7934    0.1106    0.0000 C   0  0  0  0  0  0  0  0  0  0  0  0
    4.7934   -1.5395    0.0000 C   0  0  0  0  0  0  0  0  0  0  0  0
    5.6184   -0.7145    0.0000 C   0  0  0  0  0  0  0  0  0  0  0  0
    2.7308   -0.8250    0.0000 C   0  0  0  0  0  0  0  0  0  0  0  0
    5.5078    0.5231    0.0000 C   0  0  0  0  0  0  0  0  0  0  0  0
    5.5078   -1.9520    0.0000 C   0  0  0  0  0  0  0  0  0  0  0  0
    6.0309   -1.4290    0.0000 C   0  0  0  0  0  0  0  0  0  0  0  0
    3.4453   -1.2375    0.0000 C   0  0  0  0  0  0  0  0  0  0  0  0
    2.0163   -1.2375    0.0000 C   0  0  0  0  0  0  0  0  0  0  0  0
    3.4453   -2.0625    0.0000 C   0  0  0  0  0  0  0  0  0  0  0  0
    2.0163   -2.0625    0.0000 C   0  0  0  0  0  0  0  0  0  0  0  0
    2.7308   -2.4751    0.0000 C   0  0  0  0  0  0  0  0  0  0  0  0
  1  4  1  0  0  0  0
  2  6  1  0  0  0  0
  2 12  1  0  0  0  0
  2 13  1  0  0  0  0
  2 14  1  0  0  0  0
  3  4  1  0  0  0  0
  3  7  1  0  0  0  0
  3  8  1  0  0  0  0
  4  5  1  0  0  0  0
  4 15  1  0  0  0  0
  5  6  1  0  0  0  0
  7  9  1  0  0  0  0
  8 10  1  0  0  0  0
  9 11  1  0  0  0  0
 10 11  1  0  0  0  0
 12 16  1  0  0  0  0
 13 17  1  0  0  0  0
 14 18  1  0  0  0  0
 15 19  2  0  0  0  0
 15 20  1  0  0  0  0
 19 21  1  0  0  0  0
 20 22  2  0  0  0  0
 21 23  2  0  0  0  0
 22 23  1  0  0  0  0
M  CHG  1   2   1
M  END
> <DATABASE_ID>
DB00505

> <DATABASE_NAME>
drugbank

> <SMILES>
CC[N+](CC)(CC)CCC(O)(C1CCCCC1)C1=CC=CC=C1

> <INCHI_IDENTIFIER>
InChI=1S/C21H36NO/c1-4-22(5-2,6-3)18-17-21(23,19-13-9-7-10-14-19)20-15-11-8-12-16-20/h7,9-10,13-14,20,23H,4-6,8,11-12,15-18H2,1-3H3/q+1

> <INCHI_KEY>
NPRHVSBSZMAEIN-UHFFFAOYSA-N

> <FORMULA>
C21H36NO

> <MOLECULAR_WEIGHT>
318.5166

> <EXACT_MASS>
318.279689779

> <JCHEM_ACCEPTOR_COUNT>
1

> <JCHEM_AVERAGE_POLARIZABILITY>
39.1692959678369

> <JCHEM_BIOAVAILABILITY>
1

> <JCHEM_DONOR_COUNT>
1

> <JCHEM_FORMAL_CHARGE>
1

> <JCHEM_GHOSE_FILTER>
1

> <JCHEM_IUPAC>
(3-cyclohexyl-3-hydroxy-3-phenylpropyl)triethylazanium

> <ALOGPS_LOGP>
2.31

> <JCHEM_LOGP>
0.2904066095282539

> <ALOGPS_LOGS>
-7.32

> <JCHEM_MDDR_LIKE_RULE>
0

> <JCHEM_NUMBER_OF_RINGS>
2

> <JCHEM_PHYSIOLOGICAL_CHARGE>
1

> <JCHEM_PKA_STRONGEST_ACIDIC>
13.689009313358827

> <JCHEM_PKA_STRONGEST_BASIC>
-3.372227326336848

> <JCHEM_POLAR_SURFACE_AREA>
20.23

> <JCHEM_REFRACTIVITY>
111.22260000000004

> <JCHEM_ROTATABLE_BOND_COUNT>
8

> <JCHEM_RULE_OF_FIVE>
1

> <ALOGPS_SOLUBILITY>
1.68e-05 g/l

> <JCHEM_TRADITIONAL_IUPAC>
tridihexethyl

> <JCHEM_VEBER_RULE>
1

> <DRUGBANK_ID>
DB00505

> <SECONDARY_ACCESSION_NUMBERS>
APRD00286

> <DRUG_GROUPS>
withdrawn

> <GENERIC_NAME>
Tridihexethyl

> <INTERNATIONAL_BRANDS>
Pathilon; Propethonum

> <SALTS>
Tridihexethyl chloride

$$$$

  Mrv0541 04191212132D          

 30 32  0  0  0  0            999 V2000
    4.3618   -5.6354    0.0000 C   0  0  0  0  0  0  0  0  0  0  0  0
    4.3618   -4.8103    0.0000 C   0  0  0  0  0  0  0  0  0  0  0  0
    5.0780   -4.3978    0.0000 C   0  0  0  0  0  0  0  0  0  0  0  0
    5.7899   -4.8103    0.0000 C   0  0  0  0  0  0  0  0  0  0  0  0
    5.7899   -5.6354    0.0000 C   0  0  0  0  0  0  0  0  0  0  0  0
    5.0780   -6.0479    0.0000 C   0  0  0  0  0  0  0  0  0  0  0  0
    3.6476   -6.0482    0.0000 O   0  0  0  0  0  0  0  0  0  0  0  0
    6.5047   -4.3983    0.0000 C   0  0  0  0  0  0  0  0  0  0  0  0
    7.2190   -4.8114    0.0000 C   0  0  1  0  0  0  0  0  0  0  0  0
    7.9338   -4.3994    0.0000 C   0  0  0  0  0  0  0  0  0  0  0  0
    8.6479   -4.8124    0.0000 N   0  0  0  0  0  0  0  0  0  0  0  0
    7.9343   -3.5744    0.0000 O   0  0  0  0  0  0  0  0  0  0  0  0
    9.3627   -4.4005    0.0000 C   0  0  0  0  0  0  0  0  0  0  0  0
    9.3624   -3.5771    0.0000 C   0  0  0  0  0  0  0  0  0  0  0  0
   10.0771   -3.1651    0.0000 C   0  0  0  0  0  0  0  0  0  0  0  0
   10.7913   -3.5782    0.0000 C   0  0  0  0  0  0  0  0  0  0  0  0
   10.7907   -4.4032    0.0000 C   0  0  0  0  0  0  0  0  0  0  0  0
   10.0759   -4.8151    0.0000 C   0  0  0  0  0  0  0  0  0  0  0  0
   11.5061   -3.1662    0.0000 C   0  0  0  0  0  0  0  0  0  0  0  0
   11.5067   -2.3412    0.0000 O   0  0  0  0  0  0  0  0  0  0  0  0
   12.2202   -3.5792    0.0000 O   0  0  0  0  0  0  0  0  0  0  0  0
    7.2183   -5.6364    0.0000 N   0  0  0  0  0  0  0  0  0  0  0  0
    7.9325   -6.0494    0.0000 C   0  0  0  0  0  0  0  0  0  0  0  0
    7.9319   -6.8744    0.0000 C   0  0  0  0  0  0  0  0  0  0  0  0
    8.6472   -5.6374    0.0000 O   0  0  0  0  0  0  0  0  0  0  0  0
    8.6455   -7.2828    0.0000 C   0  0  0  0  0  0  0  0  0  0  0  0
    8.6449   -8.1078    0.0000 C   0  0  0  0  0  0  0  0  0  0  0  0
    7.9300   -8.5197    0.0000 C   0  0  0  0  0  0  0  0  0  0  0  0
    7.2160   -8.1068    0.0000 C   0  0  0  0  0  0  0  0  0  0  0  0
    7.2166   -7.2818    0.0000 C   0  0  0  0  0  0  0  0  0  0  0  0
  4  8  1  0  0  0  0
  2  3  1  0  0  0  0
 13 14  2  0  0  0  0
 14 15  1  0  0  0  0
 15 16  2  0  0  0  0
 16 17  1  0  0  0  0
 17 18  2  0  0  0  0
 18 13  1  0  0  0  0
  8  9  1  0  0  0  0
 16 19  1  0  0  0  0
  3  4  2  0  0  0  0
 19 20  2  0  0  0  0
  9 10  1  0  0  0  0
 19 21  1  0  0  0  0
  4  5  1  0  0  0  0
  9 22  1  1  0  0  0
 10 11  1  0  0  0  0
 22 23  1  0  0  0  0
  5  6  2  0  0  0  0
 23 24  1  0  0  0  0
 10 12  2  0  0  0  0
 23 25  2  0  0  0  0
  6  1  1  0  0  0  0
 11 13  1  0  0  0  0
  1  7  1  0  0  0  0
  1  2  2  0  0  0  0
 24 26  2  0  0  0  0
 26 27  1  0  0  0  0
 27 28  2  0  0  0  0
 28 29  1  0  0  0  0
 29 30  2  0  0  0  0
 30 24  1  0  0  0  0
M  END
> <DATABASE_ID>
DB00522

> <DATABASE_NAME>
drugbank

> <SMILES>
OC(=O)C1=CC=C(NC(=O)[C@H](CC2=CC=C(O)C=C2)NC(=O)C2=CC=CC=C2)C=C1

> <INCHI_IDENTIFIER>
InChI=1S/C23H20N2O5/c26-19-12-6-15(7-13-19)14-20(25-21(27)16-4-2-1-3-5-16)22(28)24-18-10-8-17(9-11-18)23(29)30/h1-13,20,26H,14H2,(H,24,28)(H,25,27)(H,29,30)/t20-/m0/s1

> <INCHI_KEY>
SPPTWHFVYKCNNK-FQEVSTJZSA-N

> <FORMULA>
C23H20N2O5

> <MOLECULAR_WEIGHT>
404.4153

> <EXACT_MASS>
404.13722176

> <JCHEM_ACCEPTOR_COUNT>
5

> <JCHEM_AVERAGE_POLARIZABILITY>
42.16284740225868

> <JCHEM_BIOAVAILABILITY>
1

> <JCHEM_DONOR_COUNT>
4

> <JCHEM_FORMAL_CHARGE>
0

> <JCHEM_GHOSE_FILTER>
1

> <JCHEM_IUPAC>
4-[(2S)-3-(4-hydroxyphenyl)-2-(phenylformamido)propanamido]benzoic acid

> <ALOGPS_LOGP>
2.99

> <JCHEM_LOGP>
3.5389555783333333

> <ALOGPS_LOGS>
-4.99

> <JCHEM_MDDR_LIKE_RULE>
1

> <JCHEM_NUMBER_OF_RINGS>
3

> <JCHEM_PHYSIOLOGICAL_CHARGE>
-1

> <JCHEM_PKA>
9.503912519104427

> <JCHEM_PKA_STRONGEST_ACIDIC>
4.157471380782726

> <JCHEM_PKA_STRONGEST_BASIC>
-1.3006283420418332

> <JCHEM_POLAR_SURFACE_AREA>
115.73000000000002

> <JCHEM_REFRACTIVITY>
112.745

> <JCHEM_ROTATABLE_BOND_COUNT>
7

> <JCHEM_RULE_OF_FIVE>
1

> <ALOGPS_SOLUBILITY>
4.12e-03 g/l

> <JCHEM_TRADITIONAL_IUPAC>
bentiromide

> <JCHEM_VEBER_RULE>
0

> <DRUGBANK_ID>
DB00522

> <SECONDARY_ACCESSION_NUMBERS>
APRD00818

> <DRUG_GROUPS>
withdrawn

> <GENERIC_NAME>
Bentiromide

> <SYNONYMS>
Bentiromide; Bentiromido; Bentiromidum; BTPABA; PFT

> <INTERNATIONAL_BRANDS>
PFD

$$$$
532
  Mrv0541 02231214452D          

 16 17  0  0  1  0            999 V2000
    2.0082    1.2299    0.0000 O   0  0  0  0  0  0  0  0  0  0  0  0
    4.9124    1.2299    0.0000 O   0  0  0  0  0  0  0  0  0  0  0  0
    3.8728    0.1902    0.0000 N   0  0  0  0  0  0  0  0  0  0  0  0
    3.4603    1.4598    0.0000 N   0  0  0  0  0  0  0  0  0  0  0  0
    3.0478    0.1902    0.0000 C   0  0  0  0  0  0  0  0  0  0  0  0
    2.2631   -0.0647    0.0000 C   0  0  0  0  0  0  0  0  0  0  0  0
    2.7929    0.9748    0.0000 C   0  0  0  0  0  0  0  0  0  0  0  0
    3.0478   -0.6348    0.0000 C   0  0  0  0  0  0  0  0  0  0  0  0
    4.1277    0.9748    0.0000 C   0  0  0  0  0  0  0  0  0  0  0  0
    1.6500    0.4873    0.0000 C   0  0  0  0  0  0  0  0  0  0  0  0
    3.7622   -1.0473    0.0000 C   0  0  0  0  0  0  0  0  0  0  0  0
    2.3333   -1.0473    0.0000 C   0  0  0  0  0  0  0  0  0  0  0  0
    3.4603    2.2848    0.0000 C   0  0  0  0  0  0  0  0  0  0  0  0
    3.7622   -1.8723    0.0000 C   0  0  0  0  0  0  0  0  0  0  0  0
    2.3333   -1.8723    0.0000 C   0  0  0  0  0  0  0  0  0  0  0  0
    3.0478   -2.2848    0.0000 C   0  0  0  0  0  0  0  0  0  0  0  0
  1  7  2  0  0  0  0
  2  9  2  0  0  0  0
  3  5  1  0  0  0  0
  3  9  1  0  0  0  0
  4  7  1  0  0  0  0
  4  9  1  0  0  0  0
  4 13  1  0  0  0  0
  5  6  1  0  0  0  0
  5  7  1  0  0  0  0
  5  8  1  0  0  0  0
  6 10  1  0  0  0  0
  8 11  2  0  0  0  0
  8 12  1  0  0  0  0
 11 14  1  0  0  0  0
 12 15  2  0  0  0  0
 14 16  2  0  0  0  0
 15 16  1  0  0  0  0
M  END
> <DATABASE_ID>
DB00532

> <DATABASE_NAME>
drugbank

> <SMILES>
CCC1(NC(=O)N(C)C1=O)C1=CC=CC=C1

> <INCHI_IDENTIFIER>
InChI=1S/C12H14N2O2/c1-3-12(9-7-5-4-6-8-9)10(15)14(2)11(16)13-12/h4-8H,3H2,1-2H3,(H,13,16)

> <INCHI_KEY>
GMHKMTDVRCWUDX-UHFFFAOYSA-N

> <FORMULA>
C12H14N2O2

> <MOLECULAR_WEIGHT>
218.2518

> <EXACT_MASS>
218.105527702

> <JCHEM_ACCEPTOR_COUNT>
2

> <JCHEM_AVERAGE_POLARIZABILITY>
22.666201425874362

> <JCHEM_BIOAVAILABILITY>
1

> <JCHEM_DONOR_COUNT>
1

> <JCHEM_FORMAL_CHARGE>
0

> <JCHEM_GHOSE_FILTER>
1

> <JCHEM_IUPAC>
5-ethyl-3-methyl-5-phenylimidazolidine-2,4-dione

> <ALOGPS_LOGP>
1.64

> <JCHEM_LOGP>
1.6651732839999998

> <ALOGPS_LOGS>
-2.35

> <JCHEM_MDDR_LIKE_RULE>
0

> <JCHEM_NUMBER_OF_RINGS>
2

> <JCHEM_PHYSIOLOGICAL_CHARGE>
0

> <JCHEM_PKA_STRONGEST_ACIDIC>
11.179447259247729

> <JCHEM_PKA_STRONGEST_BASIC>
-8.139137354400296

> <JCHEM_POLAR_SURFACE_AREA>
49.410000000000004

> <JCHEM_REFRACTIVITY>
59.53800000000001

> <JCHEM_ROTATABLE_BOND_COUNT>
2

> <JCHEM_RULE_OF_FIVE>
1

> <ALOGPS_SOLUBILITY>
9.70e-01 g/l

> <JCHEM_TRADITIONAL_IUPAC>
mephenytoin

> <JCHEM_VEBER_RULE>
0

> <DRUGBANK_ID>
DB00532

> <SECONDARY_ACCESSION_NUMBERS>
APRD00512

> <DRUG_GROUPS>
investigational; withdrawn

> <GENERIC_NAME>
Mephenytoin

> <INTERNATIONAL_BRANDS>
Mesantoin

$$$$
533
  Mrv0541 02231214452D          

 22 24  0  0  0  0            999 V2000
    4.6713   -2.2060    0.0000 S   0  0  0  0  0  0  0  0  0  0  0  0
    5.0838    2.3636    0.0000 O   0  0  0  0  0  0  0  0  0  0  0  0
    3.7739    3.0310    0.0000 O   0  0  0  0  0  0  0  0  0  0  0  0
    3.8463   -2.2060    0.0000 O   0  0  0  0  0  0  0  0  0  0  0  0
    5.4963   -2.2060    0.0000 O   0  0  0  0  0  0  0  0  0  0  0  0
    4.6713    1.0940    0.0000 C   0  0  0  0  0  0  0  0  0  0  0  0
    4.6713    0.2690    0.0000 C   0  0  0  0  0  0  0  0  0  0  0  0
    4.0039    1.5790    0.0000 C   0  0  0  0  0  0  0  0  0  0  0  0
    5.3388    1.5790    0.0000 C   0  0  0  0  0  0  0  0  0  0  0  0
    4.6713   -1.3810    0.0000 C   0  0  0  0  0  0  0  0  0  0  0  0
    3.2192    1.3240    0.0000 C   0  0  0  0  0  0  0  0  0  0  0  0
    5.3858   -0.1435    0.0000 C   0  0  0  0  0  0  0  0  0  0  0  0
    3.9569   -0.1435    0.0000 C   0  0  0  0  0  0  0  0  0  0  0  0
    4.2588    2.3636    0.0000 C   0  0  0  0  0  0  0  0  0  0  0  0
    5.3858   -0.9685    0.0000 C   0  0  0  0  0  0  0  0  0  0  0  0
    3.9569   -0.9685    0.0000 C   0  0  0  0  0  0  0  0  0  0  0  0
    3.0477    0.5170    0.0000 C   0  0  0  0  0  0  0  0  0  0  0  0
    2.6062    1.8761    0.0000 C   0  0  0  0  0  0  0  0  0  0  0  0
    4.6713   -3.0310    0.0000 C   0  0  0  0  0  0  0  0  0  0  0  0
    2.2631    0.2621    0.0000 C   0  0  0  0  0  0  0  0  0  0  0  0
    1.8215    1.6211    0.0000 C   0  0  0  0  0  0  0  0  0  0  0  0
    1.6500    0.8141    0.0000 C   0  0  0  0  0  0  0  0  0  0  0  0
  1  4  2  0  0  0  0
  1  5  2  0  0  0  0
  1 10  1  0  0  0  0
  1 19  1  0  0  0  0
  2  9  1  0  0  0  0
  2 14  1  0  0  0  0
  3 14  2  0  0  0  0
  6  7  1  0  0  0  0
  6  8  2  0  0  0  0
  6  9  1  0  0  0  0
  7 12  2  0  0  0  0
  7 13  1  0  0  0  0
  8 11  1  0  0  0  0
  8 14  1  0  0  0  0
 10 15  2  0  0  0  0
 10 16  1  0  0  0  0
 11 17  2  0  0  0  0
 11 18  1  0  0  0  0
 12 15  1  0  0  0  0
 13 16  2  0  0  0  0
 17 20  1  0  0  0  0
 18 21  2  0  0  0  0
 20 22  2  0  0  0  0
 21 22  1  0  0  0  0
M  END
> <DATABASE_ID>
DB00533

> <DATABASE_NAME>
drugbank

> <SMILES>
CS(=O)(=O)C1=CC=C(C=C1)C1=C(C(=O)OC1)C1=CC=CC=C1

> <INCHI_IDENTIFIER>
InChI=1S/C17H14O4S/c1-22(19,20)14-9-7-12(8-10-14)15-11-21-17(18)16(15)13-5-3-2-4-6-13/h2-10H,11H2,1H3

> <INCHI_KEY>
RZJQGNCSTQAWON-UHFFFAOYSA-N

> <FORMULA>
C17H14O4S

> <MOLECULAR_WEIGHT>
314.356

> <EXACT_MASS>
314.061279626

> <JCHEM_ACCEPTOR_COUNT>
3

> <JCHEM_AVERAGE_POLARIZABILITY>
31.740003193897877

> <JCHEM_BIOAVAILABILITY>
1

> <JCHEM_DONOR_COUNT>
0

> <JCHEM_FORMAL_CHARGE>
0

> <JCHEM_GHOSE_FILTER>
1

> <JCHEM_IUPAC>
4-(4-methanesulfonylphenyl)-3-phenyl-2,5-dihydrofuran-2-one

> <ALOGPS_LOGP>
2.32

> <JCHEM_LOGP>
2.560910504

> <ALOGPS_LOGS>
-4.47

> <JCHEM_MDDR_LIKE_RULE>
0

> <JCHEM_NUMBER_OF_RINGS>
3

> <JCHEM_PHYSIOLOGICAL_CHARGE>
0

> <JCHEM_PKA>
19.70337896181357

> <JCHEM_PKA_STRONGEST_ACIDIC>
14.839776870549493

> <JCHEM_PKA_STRONGEST_BASIC>
-6.993318649694412

> <JCHEM_POLAR_SURFACE_AREA>
60.440000000000005

> <JCHEM_REFRACTIVITY>
84.08010000000003

> <JCHEM_ROTATABLE_BOND_COUNT>
3

> <JCHEM_RULE_OF_FIVE>
1

> <ALOGPS_SOLUBILITY>
1.06e-02 g/l

> <JCHEM_TRADITIONAL_IUPAC>
rofecoxib

> <JCHEM_VEBER_RULE>
0

> <DRUGBANK_ID>
DB00533

> <SECONDARY_ACCESSION_NUMBERS>
APRD00151

> <DRUG_GROUPS>
investigational; withdrawn

> <GENERIC_NAME>
Rofecoxib

> <PRODUCTS>
Vioxx Suspension  12.5mg/5ml; Vioxx Tab 12.5mg; Vioxx Tab 25mg

$$$$
534
  Mrv0541 02231214452D          

 11 10  0  0  1  0            999 V2000
    3.1019    0.8631    0.0000 Hg  0  0  0  0  0  0  0  0  0  0  0  0
    2.7440    1.6063    0.0000 Cl  0  0  0  0  0  0  0  0  0  0  0  0
    5.2456    0.4017    0.0000 O   0  0  0  0  0  0  0  0  0  0  0  0
    2.5876    0.2181    0.0000 O   0  0  0  0  0  0  0  0  0  0  0  0
    3.5143   -0.9442    0.0000 N   0  0  0  0  0  0  0  0  0  0  0  0
    2.1260   -1.1006    0.0000 N   0  0  0  0  0  0  0  0  0  0  0  0
    4.4412    0.2181    0.0000 C   0  0  0  0  0  0  0  0  0  0  0  0
    4.2577   -0.5863    0.0000 C   0  0  0  0  0  0  0  0  0  0  0  0
    3.9268    0.8631    0.0000 C   0  0  0  0  0  0  0  0  0  0  0  0
    2.7711   -0.5863    0.0000 C   0  0  0  0  0  0  0  0  0  0  0  0
    5.4887    1.1899    0.0000 C   0  0  0  0  0  0  0  0  0  0  0  0
  1  2  1  0  0  0  0
  1  9  1  0  0  0  0
  3  7  1  0  0  0  0
  3 11  1  0  0  0  0
  4 10  2  0  0  0  0
  5  8  1  0  0  0  0
  5 10  1  0  0  0  0
  6 10  1  0  0  0  0
  7  8  1  0  0  0  0
  7  9  1  0  0  0  0
M  END
> <DATABASE_ID>
DB00534

> <DATABASE_NAME>
drugbank

> <SMILES>
COC(CNC(N)=O)C[Hg]Cl

> <INCHI_IDENTIFIER>
InChI=1S/C5H11N2O2.ClH.Hg/c1-4(9-2)3-7-5(6)8;;/h4H,1,3H2,2H3,(H3,6,7,8);1H;/q;;+1/p-1

> <INCHI_KEY>
BJFGVYCULWBXKF-UHFFFAOYSA-M

> <FORMULA>
C5H11ClHgN2O2

> <MOLECULAR_WEIGHT>
367.2

> <EXACT_MASS>
368.021530917

> <JCHEM_ACCEPTOR_COUNT>
2

> <JCHEM_AVERAGE_POLARIZABILITY>
18.418085240221338

> <JCHEM_BIOAVAILABILITY>
1

> <JCHEM_DONOR_COUNT>
2

> <JCHEM_FORMAL_CHARGE>
0

> <JCHEM_GHOSE_FILTER>
0

> <JCHEM_IUPAC>
[3-(chloromercurio)-2-methoxypropyl]urea

> <ALOGPS_LOGP>
-0.50

> <JCHEM_LOGP>
-0.8584000000000003

> <ALOGPS_LOGS>
-1.10

> <JCHEM_MDDR_LIKE_RULE>
0

> <JCHEM_NUMBER_OF_RINGS>
0

> <JCHEM_PHYSIOLOGICAL_CHARGE>
0

> <JCHEM_PKA_STRONGEST_ACIDIC>
14.047456708629223

> <JCHEM_PKA_STRONGEST_BASIC>
-1.8296842932802875

> <JCHEM_POLAR_SURFACE_AREA>
64.35

> <JCHEM_REFRACTIVITY>
38.783

> <JCHEM_ROTATABLE_BOND_COUNT>
5

> <JCHEM_RULE_OF_FIVE>
1

> <ALOGPS_SOLUBILITY>
2.92e+01 g/l

> <JCHEM_TRADITIONAL_IUPAC>
chlormerodrin

> <JCHEM_VEBER_RULE>
0

> <DRUGBANK_ID>
DB00534

> <SECONDARY_ACCESSION_NUMBERS>
APRD00864

> <DRUG_GROUPS>
approved; withdrawn

> <GENERIC_NAME>
Chlormerodrin

> <INTERNATIONAL_BRANDS>
Mercloran; Ormerdan

$$$$
574
  Mrv0541 02231214472D          

 16 16  0  0  1  0            999 V2000
    3.6830    2.0625    0.0000 F   0  0  0  0  0  0  0  0  0  0  0  0
    5.3330    2.0625    0.0000 F   0  0  0  0  0  0  0  0  0  0  0  0
    4.5080    2.8876    0.0000 F   0  0  0  0  0  0  0  0  0  0  0  0
    2.3645   -1.6500    0.0000 N   0  0  0  0  0  0  0  0  0  0  0  0
    3.0791   -1.2375    0.0000 C   0  0  0  0  0  0  0  0  0  0  0  0
    3.0791   -0.4125    0.0000 C   0  0  0  0  0  0  0  0  0  0  0  0
    3.7935    0.0000    0.0000 C   0  0  0  0  0  0  0  0  0  0  0  0
    3.7935   -1.6500    0.0000 C   0  0  0  0  0  0  0  0  0  0  0  0
    2.3645   -2.4751    0.0000 C   0  0  0  0  0  0  0  0  0  0  0  0
    3.7935    0.8250    0.0000 C   0  0  0  0  0  0  0  0  0  0  0  0
    4.5080   -0.4125    0.0000 C   0  0  0  0  0  0  0  0  0  0  0  0
    4.5080    1.2375    0.0000 C   0  0  0  0  0  0  0  0  0  0  0  0
    5.2224    0.0000    0.0000 C   0  0  0  0  0  0  0  0  0  0  0  0
    5.2224    0.8250    0.0000 C   0  0  0  0  0  0  0  0  0  0  0  0
    1.6500   -2.8876    0.0000 C   0  0  0  0  0  0  0  0  0  0  0  0
    4.5080    2.0625    0.0000 C   0  0  0  0  0  0  0  0  0  0  0  0
  1 16  1  0  0  0  0
  2 16  1  0  0  0  0
  3 16  1  0  0  0  0
  4  5  1  0  0  0  0
  4  9  1  0  0  0  0
  5  6  1  0  0  0  0
  5  8  1  0  0  0  0
  6  7  1  0  0  0  0
  7 10  2  0  0  0  0
  7 11  1  0  0  0  0
  9 15  1  0  0  0  0
 10 12  1  0  0  0  0
 11 13  2  0  0  0  0
 12 14  2  0  0  0  0
 12 16  1  0  0  0  0
 13 14  1  0  0  0  0
M  END
> <DATABASE_ID>
DB00574

> <DATABASE_NAME>
drugbank

> <SMILES>
CCNC(C)CC1=CC(=CC=C1)C(F)(F)F

> <INCHI_IDENTIFIER>
InChI=1S/C12H16F3N/c1-3-16-9(2)7-10-5-4-6-11(8-10)12(13,14)15/h4-6,8-9,16H,3,7H2,1-2H3

> <INCHI_KEY>
DBGIVFWFUFKIQN-UHFFFAOYSA-N

> <FORMULA>
C12H16F3N

> <MOLECULAR_WEIGHT>
231.2573

> <EXACT_MASS>
231.123484132

> <JCHEM_ACCEPTOR_COUNT>
1

> <JCHEM_AVERAGE_POLARIZABILITY>
22.50663746353323

> <JCHEM_BIOAVAILABILITY>
1

> <JCHEM_DONOR_COUNT>
1

> <JCHEM_FORMAL_CHARGE>
0

> <JCHEM_GHOSE_FILTER>
1

> <JCHEM_IUPAC>
ethyl({1-[3-(trifluoromethyl)phenyl]propan-2-yl})amine

> <ALOGPS_LOGP>
3.30

> <JCHEM_LOGP>
3.4714873116666665

> <ALOGPS_LOGS>
-4.03

> <JCHEM_MDDR_LIKE_RULE>
0

> <JCHEM_NUMBER_OF_RINGS>
1

> <JCHEM_PHYSIOLOGICAL_CHARGE>
1

> <JCHEM_PKA_STRONGEST_BASIC>
10.215413995825989

> <JCHEM_POLAR_SURFACE_AREA>
12.03

> <JCHEM_REFRACTIVITY>
59.202099999999994

> <JCHEM_ROTATABLE_BOND_COUNT>
5

> <JCHEM_RULE_OF_FIVE>
1

> <ALOGPS_SOLUBILITY>
2.15e-02 g/l

> <JCHEM_TRADITIONAL_IUPAC>
redux

> <JCHEM_VEBER_RULE>
1

> <DRUGBANK_ID>
DB00574

> <SECONDARY_ACCESSION_NUMBERS>
APRD00319

> <DRUG_GROUPS>
illicit; withdrawn

> <GENERIC_NAME>
Fenfluramine

> <SYNONYMS>
Fenfluramina; Fenfluraminum

> <PRODUCTS>
Pondimin Tab 20mg

> <INTERNATIONAL_BRANDS>
Adifax; Ponderax; Pondimin

> <SALTS>
Fenfluramine hydrochloride

$$$$
580
  Mrv0541 02231214472D          

 22 24  0  0  0  0            999 V2000
    3.1021   -1.7444    0.0000 S   0  0  0  0  0  0  0  0  0  0  0  0
    2.6896    2.8251    0.0000 O   0  0  0  0  0  0  0  0  0  0  0  0
    3.9271   -1.7444    0.0000 O   0  0  0  0  0  0  0  0  0  0  0  0
    2.2771   -1.7444    0.0000 O   0  0  0  0  0  0  0  0  0  0  0  0
    3.5146    2.8251    0.0000 N   0  0  0  0  0  0  0  0  0  0  0  0
    3.1021   -2.5694    0.0000 N   0  0  0  0  0  0  0  0  0  0  0  0
    3.1021    1.5556    0.0000 C   0  0  0  0  0  0  0  0  0  0  0  0
    3.1021    0.7306    0.0000 C   0  0  0  0  0  0  0  0  0  0  0  0
    3.7695    2.0406    0.0000 C   0  0  0  0  0  0  0  0  0  0  0  0
    2.4347    2.0406    0.0000 C   0  0  0  0  0  0  0  0  0  0  0  0
    3.1021   -0.9194    0.0000 C   0  0  0  0  0  0  0  0  0  0  0  0
    3.8166    0.3181    0.0000 C   0  0  0  0  0  0  0  0  0  0  0  0
    2.3876    0.3181    0.0000 C   0  0  0  0  0  0  0  0  0  0  0  0
    4.5541    1.7856    0.0000 C   0  0  0  0  0  0  0  0  0  0  0  0
    3.8166   -0.5069    0.0000 C   0  0  0  0  0  0  0  0  0  0  0  0
    2.3876   -0.5069    0.0000 C   0  0  0  0  0  0  0  0  0  0  0  0
    1.6500    1.7856    0.0000 C   0  0  0  0  0  0  0  0  0  0  0  0
    5.1672    2.3376    0.0000 C   0  0  0  0  0  0  0  0  0  0  0  0
    4.7257    0.9786    0.0000 C   0  0  0  0  0  0  0  0  0  0  0  0
    5.9518    2.0827    0.0000 C   0  0  0  0  0  0  0  0  0  0  0  0
    5.5103    0.7237    0.0000 C   0  0  0  0  0  0  0  0  0  0  0  0
    6.1234    1.2757    0.0000 C   0  0  0  0  0  0  0  0  0  0  0  0
  1  3  2  0  0  0  0
  1  4  2  0  0  0  0
  1  6  1  0  0  0  0
  1 11  1  0  0  0  0
  2  5  1  0  0  0  0
  2 10  1  0  0  0  0
  5  9  2  0  0  0  0
  7  8  1  0  0  0  0
  7  9  1  0  0  0  0
  7 10  2  0  0  0  0
  8 12  2  0  0  0  0
  8 13  1  0  0  0  0
  9 14  1  0  0  0  0
 10 17  1  0  0  0  0
 11 15  2  0  0  0  0
 11 16  1  0  0  0  0
 12 15  1  0  0  0  0
 13 16  2  0  0  0  0
 14 18  2  0  0  0  0
 14 19  1  0  0  0  0
 18 20  1  0  0  0  0
 19 21  2  0  0  0  0
 20 22  2  0  0  0  0
 21 22  1  0  0  0  0
M  END
> <DATABASE_ID>
DB00580

> <DATABASE_NAME>
drugbank

> <SMILES>
CC1=C(C(=NO1)C1=CC=CC=C1)C1=CC=C(C=C1)S(N)(=O)=O

> <INCHI_IDENTIFIER>
InChI=1S/C16H14N2O3S/c1-11-15(12-7-9-14(10-8-12)22(17,19)20)16(18-21-11)13-5-3-2-4-6-13/h2-10H,1H3,(H2,17,19,20)

> <INCHI_KEY>
LNPDTQAFDNKSHK-UHFFFAOYSA-N

> <FORMULA>
C16H14N2O3S

> <MOLECULAR_WEIGHT>
314.359

> <EXACT_MASS>
314.072513014

> <JCHEM_ACCEPTOR_COUNT>
3

> <JCHEM_AVERAGE_POLARIZABILITY>
31.76425043343251

> <JCHEM_BIOAVAILABILITY>
1

> <JCHEM_DONOR_COUNT>
1

> <JCHEM_FORMAL_CHARGE>
0

> <JCHEM_GHOSE_FILTER>
1

> <JCHEM_IUPAC>
4-(5-methyl-3-phenyl-1,2-oxazol-4-yl)benzene-1-sulfonamide

> <ALOGPS_LOGP>
3.32

> <JCHEM_LOGP>
2.8236843580000004

> <ALOGPS_LOGS>
-3.96

> <JCHEM_MDDR_LIKE_RULE>
0

> <JCHEM_NUMBER_OF_RINGS>
3

> <JCHEM_PHYSIOLOGICAL_CHARGE>
0

> <JCHEM_PKA_STRONGEST_ACIDIC>
10.057539239950927

> <JCHEM_PKA_STRONGEST_BASIC>
0.41767462897919727

> <JCHEM_POLAR_SURFACE_AREA>
86.19

> <JCHEM_REFRACTIVITY>
84.70800000000001

> <JCHEM_ROTATABLE_BOND_COUNT>
3

> <JCHEM_RULE_OF_FIVE>
1

> <ALOGPS_SOLUBILITY>
3.48e-02 g/l

> <JCHEM_TRADITIONAL_IUPAC>
valdecoxib

> <JCHEM_VEBER_RULE>
0

> <DRUGBANK_ID>
DB00580

> <SECONDARY_ACCESSION_NUMBERS>
APRD00183; DB07576

> <DRUG_GROUPS>
investigational; withdrawn

> <GENERIC_NAME>
Valdecoxib

$$$$

  Mrv0541 04191212132D          

 32 34  0  0  1  0            999 V2000
    7.7581   -7.2907    0.0000 C   0  0  0  0  0  0  0  0  0  0  0  0
    8.4726   -6.8782    0.0000 C   0  0  0  0  0  0  0  0  0  0  0  0
    7.0436   -6.8782    0.0000 C   0  0  0  0  0  0  0  0  0  0  0  0
    9.1789   -7.2858    0.0000 N   0  0  0  0  0  0  0  0  0  0  0  0
    7.7581   -8.1157    0.0000 C   0  0  0  0  0  0  0  0  0  0  0  0
    6.3292   -7.2907    0.0000 C   0  0  0  0  0  0  0  0  0  0  0  0
    9.1781   -8.1108    0.0000 C   0  0  1  0  0  0  0  0  0  0  0  0
    7.0436   -8.5282    0.0000 C   0  0  0  0  0  0  0  0  0  0  0  0
    9.8922   -8.5240    0.0000 C   0  0  2  0  0  0  0  0  0  0  0  0
    6.3292   -8.1157    0.0000 C   0  0  0  0  0  0  0  0  0  0  0  0
    9.1766   -9.7608    0.0000 N   0  0  0  0  0  0  0  0  0  0  0  0
    9.8914   -9.3490    0.0000 C   0  0  0  0  0  0  0  0  0  0  0  0
    8.4633   -8.5226    0.0000 C   0  0  0  0  0  0  0  0  0  0  0  0
    8.4726   -6.0532    0.0000 O   0  0  0  0  0  0  0  0  0  0  0  0
    8.4625   -9.3476    0.0000 C   0  0  0  0  0  0  0  0  0  0  0  0
    5.6147   -8.5282    0.0000 N   0  0  0  0  0  0  0  0  0  0  0  0
    7.0436   -9.3532    0.0000 Cl  0  0  0  0  0  0  0  0  0  0  0  0
    7.0436   -6.0532    0.0000 O   0  0  0  0  0  0  0  0  0  0  0  0
   13.4634   -9.7650    0.0000 C   0  0  0  0  0  0  0  0  0  0  0  0
   10.6071   -8.1122    0.0000 O   0  0  0  0  0  0  0  0  0  0  0  0
   12.0337  -10.5886    0.0000 C   0  0  0  0  0  0  0  0  0  0  0  0
   14.1783   -9.3532    0.0000 F   0  0  0  0  0  0  0  0  0  0  0  0
   12.7493   -9.3517    0.0000 C   0  0  0  0  0  0  0  0  0  0  0  0
   13.4626  -10.5899    0.0000 C   0  0  0  0  0  0  0  0  0  0  0  0
   12.0345   -9.7636    0.0000 C   0  0  0  0  0  0  0  0  0  0  0  0
   12.7477  -11.0018    0.0000 C   0  0  0  0  0  0  0  0  0  0  0  0
    9.1758  -10.5858    0.0000 C   0  0  0  0  0  0  0  0  0  0  0  0
    9.8899  -10.9990    0.0000 C   0  0  0  0  0  0  0  0  0  0  0  0
   11.3188  -11.0004    0.0000 O   0  0  0  0  0  0  0  0  0  0  0  0
   10.6047  -10.5872    0.0000 C   0  0  0  0  0  0  0  0  0  0  0  0
    6.3292   -5.6407    0.0000 C   0  0  0  0  0  0  0  0  0  0  0  0
   11.3211   -8.5254    0.0000 C   0  0  0  0  0  0  0  0  0  0  0  0
  2  1  1  0  0  0  0
  3  1  1  0  0  0  0
  5  1  2  0  0  0  0
  4  2  1  0  0  0  0
 14  2  2  0  0  0  0
  6  3  2  0  0  0  0
 18  3  1  0  0  0  0
  7  4  1  1  0  0  0
  8  5  1  0  0  0  0
 10  6  1  0  0  0  0
  9  7  1  0  0  0  0
 13  7  1  0  0  0  0
 10  8  2  0  0  0  0
 17  8  1  0  0  0  0
 12  9  1  0  0  0  0
  9 20  1  1  0  0  0
 16 10  1  0  0  0  0
 15 11  1  0  0  0  0
 27 11  1  0  0  0  0
 12 11  1  0  0  0  0
 15 13  1  0  0  0  0
 31 18  1  0  0  0  0
 24 19  1  0  0  0  0
 22 19  1  0  0  0  0
 23 19  2  0  0  0  0
 32 20  1  0  0  0  0
 29 21  1  0  0  0  0
 25 21  2  0  0  0  0
 26 21  1  0  0  0  0
 25 23  1  0  0  0  0
 26 24  2  0  0  0  0
 28 27  1  0  0  0  0
 30 28  1  0  0  0  0
 30 29  1  0  0  0  0
M  END
> <DATABASE_ID>
DB00604

> <DATABASE_NAME>
drugbank

> <SMILES>
CO[C@H]1CN(CCCOC2=CC=C(F)C=C2)CC[C@H]1NC(=O)C1=CC(Cl)=C(N)C=C1OC

> <INCHI_IDENTIFIER>
InChI=1S/C23H29ClFN3O4/c1-30-21-13-19(26)18(24)12-17(21)23(29)27-20-8-10-28(14-22(20)31-2)9-3-11-32-16-6-4-15(25)5-7-16/h4-7,12-13,20,22H,3,8-11,14,26H2,1-2H3,(H,27,29)/t20-,22+/m1/s1

> <INCHI_KEY>
DCSUBABJRXZOMT-IRLDBZIGSA-N

> <FORMULA>
C23H29ClFN3O4

> <MOLECULAR_WEIGHT>
465.945

> <EXACT_MASS>
465.183062343

> <JCHEM_ACCEPTOR_COUNT>
6

> <JCHEM_AVERAGE_POLARIZABILITY>
49.11181362713439

> <JCHEM_BIOAVAILABILITY>
1

> <JCHEM_DONOR_COUNT>
2

> <JCHEM_FORMAL_CHARGE>
0

> <JCHEM_GHOSE_FILTER>
1

> <JCHEM_IUPAC>
4-amino-5-chloro-N-[(3S,4R)-1-[3-(4-fluorophenoxy)propyl]-3-methoxypiperidin-4-yl]-2-methoxybenzamide

> <ALOGPS_LOGP>
2.95

> <JCHEM_LOGP>
2.491358864666666

> <ALOGPS_LOGS>
-4.59

> <JCHEM_MDDR_LIKE_RULE>
1

> <JCHEM_NUMBER_OF_RINGS>
3

> <JCHEM_PHYSIOLOGICAL_CHARGE>
1

> <JCHEM_PKA>
18.768892546739217

> <JCHEM_PKA_STRONGEST_ACIDIC>
14.575677583907808

> <JCHEM_PKA_STRONGEST_BASIC>
8.239418549799563

> <JCHEM_POLAR_SURFACE_AREA>
86.05000000000001

> <JCHEM_REFRACTIVITY>
122.9349

> <JCHEM_ROTATABLE_BOND_COUNT>
9

> <JCHEM_RULE_OF_FIVE>
1

> <ALOGPS_SOLUBILITY>
1.20e-02 g/l

> <JCHEM_TRADITIONAL_IUPAC>
(+-)-cisapride

> <JCHEM_VEBER_RULE>
0

> <DRUGBANK_ID>
DB00604

> <SECONDARY_ACCESSION_NUMBERS>
APRD00454

> <DRUG_GROUPS>
approved; investigational; withdrawn

> <GENERIC_NAME>
Cisapride

> <SYNONYMS>
Cisaprid; Cisaprida; Cisapride; Cisapridum

> <PRODUCTS>
Prepulsid Sus 1mg/ml; Prepulsid Tab 10mg; Prepulsid Tab 20mg; Prepulsid Tab 5mg

> <INTERNATIONAL_BRANDS>
Enteropride; Kinestase; Prepulsid; Pridesia; Propulsid; Propulsid Quicksolv

> <SALTS>
Cisapride Monohydrate

$$$$
637
  Mrv0541 02231214502D          

 34 38  0  0  0  0            999 V2000
    1.9121    4.8101    0.0000 F   0  0  0  0  0  0  0  0  0  0  0  0
    9.2913   -4.8101    0.0000 O   0  0  0  0  0  0  0  0  0  0  0  0
    6.4037   -1.2377    0.0000 N   0  0  0  0  0  0  0  0  0  0  0  0
    5.1662    0.9058    0.0000 N   0  0  0  0  0  0  0  0  0  0  0  0
    3.8597    1.5697    0.0000 N   0  0  0  0  0  0  0  0  0  0  0  0
    3.8597    0.2418    0.0000 N   0  0  0  0  0  0  0  0  0  0  0  0
    5.5787    0.1912    0.0000 C   0  0  0  0  0  0  0  0  0  0  0  0
    5.1662   -0.5232    0.0000 C   0  0  0  0  0  0  0  0  0  0  0  0
    6.4037    0.1912    0.0000 C   0  0  0  0  0  0  0  0  0  0  0  0
    5.5787   -1.2377    0.0000 C   0  0  0  0  0  0  0  0  0  0  0  0
    6.8162   -0.5232    0.0000 C   0  0  0  0  0  0  0  0  0  0  0  0
    6.8162   -1.9522    0.0000 C   0  0  0  0  0  0  0  0  0  0  0  0
    7.6412   -1.9522    0.0000 C   0  0  0  0  0  0  0  0  0  0  0  0
    4.3412    0.9058    0.0000 C   0  0  0  0  0  0  0  0  0  0  0  0
    8.0537   -2.6667    0.0000 C   0  0  0  0  0  0  0  0  0  0  0  0
    3.0791    1.3183    0.0000 C   0  0  0  0  0  0  0  0  0  0  0  0
    4.1159    2.3539    0.0000 C   0  0  0  0  0  0  0  0  0  0  0  0
    3.0791    0.4933    0.0000 C   0  0  0  0  0  0  0  0  0  0  0  0
    2.3645    1.7308    0.0000 C   0  0  0  0  0  0  0  0  0  0  0  0
    3.5650    2.9679    0.0000 C   0  0  0  0  0  0  0  0  0  0  0  0
    8.8788   -2.6667    0.0000 C   0  0  0  0  0  0  0  0  0  0  0  0
    7.6412   -3.3812    0.0000 C   0  0  0  0  0  0  0  0  0  0  0  0
    2.3645    0.0808    0.0000 C   0  0  0  0  0  0  0  0  0  0  0  0
    1.6500    1.3183    0.0000 C   0  0  0  0  0  0  0  0  0  0  0  0
    1.6500    0.4933    0.0000 C   0  0  0  0  0  0  0  0  0  0  0  0
    9.2913   -3.3812    0.0000 C   0  0  0  0  0  0  0  0  0  0  0  0
    8.0537   -4.0956    0.0000 C   0  0  0  0  0  0  0  0  0  0  0  0
    2.7577    2.7978    0.0000 C   0  0  0  0  0  0  0  0  0  0  0  0
    3.8213    3.7521    0.0000 C   0  0  0  0  0  0  0  0  0  0  0  0
    8.8788   -4.0956    0.0000 C   0  0  0  0  0  0  0  0  0  0  0  0
    2.2067    3.4119    0.0000 C   0  0  0  0  0  0  0  0  0  0  0  0
    3.2703    4.3662    0.0000 C   0  0  0  0  0  0  0  0  0  0  0  0
    2.4630    4.1960    0.0000 C   0  0  0  0  0  0  0  0  0  0  0  0
   10.1163   -4.8101    0.0000 C   0  0  0  0  0  0  0  0  0  0  0  0
  1 33  1  0  0  0  0
  2 30  1  0  0  0  0
  2 34  1  0  0  0  0
  3 10  1  0  0  0  0
  3 11  1  0  0  0  0
  3 12  1  0  0  0  0
  4  7  1  0  0  0  0
  4 14  1  0  0  0  0
  5 14  1  0  0  0  0
  5 16  1  0  0  0  0
  5 17  1  0  0  0  0
  6 14  2  0  0  0  0
  6 18  1  0  0  0  0
  7  8  1  0  0  0  0
  7  9  1  0  0  0  0
  8 10  1  0  0  0  0
  9 11  1  0  0  0  0
 12 13  1  0  0  0  0
 13 15  1  0  0  0  0
 15 21  2  0  0  0  0
 15 22  1  0  0  0  0
 16 18  1  0  0  0  0
 16 19  2  0  0  0  0
 17 20  1  0  0  0  0
 18 23  2  0  0  0  0
 19 24  1  0  0  0  0
 20 28  2  0  0  0  0
 20 29  1  0  0  0  0
 21 26  1  0  0  0  0
 22 27  2  0  0  0  0
 23 25  1  0  0  0  0
 24 25  2  0  0  0  0
 26 30  2  0  0  0  0
 27 30  1  0  0  0  0
 28 31  1  0  0  0  0
 29 32  2  0  0  0  0
 31 33  2  0  0  0  0
 32 33  1  0  0  0  0
M  END
> <DATABASE_ID>
DB00637

> <DATABASE_NAME>
drugbank

> <SMILES>
COC1=CC=C(CCN2CCC(CC2)NC2=NC3=CC=CC=C3N2CC2=CC=C(F)C=C2)C=C1

> <INCHI_IDENTIFIER>
InChI=1S/C28H31FN4O/c1-34-25-12-8-21(9-13-25)14-17-32-18-15-24(16-19-32)30-28-31-26-4-2-3-5-27(26)33(28)20-22-6-10-23(29)11-7-22/h2-13,24H,14-20H2,1H3,(H,30,31)

> <INCHI_KEY>
GXDALQBWZGODGZ-UHFFFAOYSA-N

> <FORMULA>
C28H31FN4O

> <MOLECULAR_WEIGHT>
458.5703

> <EXACT_MASS>
458.248189839

> <JCHEM_ACCEPTOR_COUNT>
4

> <JCHEM_AVERAGE_POLARIZABILITY>
52.07564222487272

> <JCHEM_BIOAVAILABILITY>
1

> <JCHEM_DONOR_COUNT>
1

> <JCHEM_FORMAL_CHARGE>
0

> <JCHEM_GHOSE_FILTER>
0

> <JCHEM_IUPAC>
1-[(4-fluorophenyl)methyl]-N-{1-[2-(4-methoxyphenyl)ethyl]piperidin-4-yl}-1H-1,3-benzodiazol-2-amine

> <ALOGPS_LOGP>
5.92

> <JCHEM_LOGP>
5.389652434333334

> <ALOGPS_LOGS>
-5.58

> <JCHEM_MDDR_LIKE_RULE>
1

> <JCHEM_NUMBER_OF_RINGS>
5

> <JCHEM_PHYSIOLOGICAL_CHARGE>
1

> <JCHEM_PKA_STRONGEST_BASIC>
8.750819752026988

> <JCHEM_POLAR_SURFACE_AREA>
42.32

> <JCHEM_REFRACTIVITY>
135.64320000000004

> <JCHEM_ROTATABLE_BOND_COUNT>
8

> <JCHEM_RULE_OF_FIVE>
0

> <ALOGPS_SOLUBILITY>
1.20e-03 g/l

> <JCHEM_TRADITIONAL_IUPAC>
astemizole

> <JCHEM_VEBER_RULE>
0

> <DRUGBANK_ID>
DB00637

> <SECONDARY_ACCESSION_NUMBERS>
APRD00585

> <DRUG_GROUPS>
approved; withdrawn

> <GENERIC_NAME>
Astemizole

> <SYNONYMS>
Astemizol; Astémizole; Astemizolum

> <PRODUCTS>
Hismanal - Tab 10mg; Hismanal Suspension 2mg/ml; Hismanal Tab 10mg

> <INTERNATIONAL_BRANDS>
Acemiz; Alerkin; Astesen; Hismanal; Histalong; Lergibrumizol; Stemiz

$$$$

  Mrv0541 01151409102D          

 25 26  0  0  0  0            999 V2000
   -1.6205    3.0938    0.0000 C   0  0  0  0  0  0  0  0  0  0  0  0
   -2.3350    2.6812    0.0000 C   0  0  0  0  0  0  0  0  0  0  0  0
   -2.3350    1.8562    0.0000 C   0  0  0  0  0  0  0  0  0  0  0  0
   -1.6205    1.4437    0.0000 C   0  0  0  0  0  0  0  0  0  0  0  0
   -0.9061    1.8562    0.0000 C   0  0  0  0  0  0  0  0  0  0  0  0
   -0.9061    2.6812    0.0000 C   0  0  0  0  0  0  0  0  0  0  0  0
   -1.6205    0.6187    0.0000 C   0  0  2  0  0  0  0  0  0  0  0  0
   -2.3350    0.2062    0.0000 C   0  0  0  0  0  0  0  0  0  0  0  0
   -3.0495    0.6187    0.0000 C   0  0  0  0  0  0  0  0  0  0  0  0
   -3.7639    1.8563    0.0000 C   0  0  0  0  0  0  0  0  0  0  0  0
   -4.4784    1.4438    0.0000 C   0  0  0  0  0  0  0  0  0  0  0  0
   -4.4784    0.6187    0.0000 C   0  0  0  0  0  0  0  0  0  0  0  0
   -3.7639    0.2062    0.0000 C   0  0  0  0  0  0  0  0  0  0  0  0
   -3.0495    1.4438    0.0000 C   0  0  0  0  0  0  0  0  0  0  0  0
   -1.6205   -0.2063    0.0000 C   0  0  1  0  0  0  0  0  0  0  0  0
   -0.9061    0.2062    0.0000 O   0  0  0  0  0  0  0  0  0  0  0  0
   -0.1915    0.6187    0.0000 C   0  0  0  0  0  0  0  0  0  0  0  0
    0.5229    0.2062    0.0000 C   0  0  0  0  0  0  0  0  0  0  0  0
    1.2373    0.6187    0.0000 C   0  0  0  0  0  0  0  0  0  0  0  0
   -0.9061   -0.6188    0.0000 C   0  0  0  0  0  0  0  0  0  0  0  0
   -0.9061   -1.4438    0.0000 N   0  0  0  0  0  0  0  0  0  0  0  0
   -1.6205   -1.8563    0.0000 C   0  0  0  0  0  0  0  0  0  0  0  0
   -0.1915   -1.8563    0.0000 C   0  0  0  0  0  0  0  0  0  0  0  0
   -2.3350   -0.6188    0.0000 C   0  0  0  0  0  0  0  0  0  0  0  0
   -0.1915    1.4437    0.0000 O   0  0  0  0  0  0  0  0  0  0  0  0
  1  2  2  0  0  0  0
  1  6  1  0  0  0  0
  2  3  1  0  0  0  0
  3  4  2  0  0  0  0
  4  5  1  0  0  0  0
  5  6  2  0  0  0  0
  7  4  1  1  0  0  0
  7  8  1  6  0  0  0
  8  9  1  0  0  0  0
 13  9  2  0  0  0  0
  9 14  1  0  0  0  0
 10 11  1  0  0  0  0
 10 14  2  0  0  0  0
 11 12  2  0  0  0  0
 12 13  1  0  0  0  0
  7 15  1  0  0  0  0
  7 16  1  0  0  0  0
 16 17  1  0  0  0  0
 17 18  1  0  0  0  0
 18 19  1  0  0  0  0
 15 20  1  0  0  0  0
 20 21  1  0  0  0  0
 21 22  1  0  0  0  0
 21 23  1  0  0  0  0
 15 24  1  1  0  0  0
 17 25  2  0  0  0  0
M  END
> <DATABASE_ID>
DB00647

> <DATABASE_NAME>
drugbank

> <SMILES>
CCC(=O)O[C@@](CC1=CC=CC=C1)([C@H](C)CN(C)C)C1=CC=CC=C1

> <INCHI_IDENTIFIER>
InChI=1S/C22H29NO2/c1-5-21(24)25-22(18(2)17-23(3)4,20-14-10-7-11-15-20)16-19-12-8-6-9-13-19/h6-15,18H,5,16-17H2,1-4H3/t18-,22+/m1/s1

> <INCHI_KEY>
XLMALTXPSGQGBX-GCJKJVERSA-N

> <FORMULA>
C22H29NO2

> <MOLECULAR_WEIGHT>
339.4712

> <EXACT_MASS>
339.219829177

> <JCHEM_ACCEPTOR_COUNT>
2

> <JCHEM_AVERAGE_POLARIZABILITY>
38.858232426070884

> <JCHEM_BIOAVAILABILITY>
1

> <JCHEM_DONOR_COUNT>
0

> <JCHEM_FORMAL_CHARGE>
0

> <JCHEM_GHOSE_FILTER>
1

> <JCHEM_IUPAC>
(2S,3R)-4-(dimethylamino)-3-methyl-1,2-diphenylbutan-2-yl propanoate

> <ALOGPS_LOGP>
4.06

> <JCHEM_LOGP>
4.902155232666666

> <ALOGPS_LOGS>
-4.91

> <JCHEM_MDDR_LIKE_RULE>
0

> <JCHEM_NUMBER_OF_RINGS>
2

> <JCHEM_PHYSIOLOGICAL_CHARGE>
1

> <JCHEM_PKA_STRONGEST_BASIC>
9.517055044851146

> <JCHEM_POLAR_SURFACE_AREA>
29.54

> <JCHEM_REFRACTIVITY>
102.88059999999999

> <JCHEM_ROTATABLE_BOND_COUNT>
9

> <JCHEM_RULE_OF_FIVE>
1

> <ALOGPS_SOLUBILITY>
4.19e-03 g/l

> <JCHEM_TRADITIONAL_IUPAC>
propoxyphene

> <JCHEM_VEBER_RULE>
1

> <DRUGBANK_ID>
DB00647

> <SECONDARY_ACCESSION_NUMBERS>
APRD00548

> <DRUG_GROUPS>
approved; illicit; withdrawn

> <GENERIC_NAME>
Dextropropoxyphene

> <SYNONYMS>
d-Propoxyphene; Destropropossifene; Dextropropoxifeno; Dextropropoxyphen; Dextropropoxyphène; Dextropropoxyphenum

> <PRODUCTS>
642 Tab; 692 Tab; 692 Tablet; Darvon N Compound Pulvule 405; Darvon-N; Novo-propoxyn Cap 65mg; Novo-propoxyn Compound Cap; Propoxyphene; Propoxyphene Hydrochloride; Propoxyphene Hydrochloride and Acetaminophen

> <INTERNATIONAL_BRANDS>
Abalgin; Dacoton; Darvon; Deprancol; Depronal; Dolene; Doloxene

> <SALTS>
Dextropropoxyphene Hydrochloride; Dextropropoxyphene Napsylate

$$$$
664
  Mrv0541 02231214542D          

 19 20  0  0  0  0            999 V2000
    2.4751    0.1279    0.0000 S   0  0  0  0  0  0  0  0  0  0  0  0
    1.6500    0.1279    0.0000 O   0  0  0  0  0  0  0  0  0  0  0  0
    3.3001    0.1279    0.0000 O   0  0  0  0  0  0  0  0  0  0  0  0
    2.4751    2.6029    0.0000 O   0  0  0  0  0  0  0  0  0  0  0  0
    2.4751    0.9529    0.0000 N   0  0  0  0  0  0  0  0  0  0  0  0
    3.9041    0.9529    0.0000 N   0  0  0  0  0  0  0  0  0  0  0  0
    2.4751   -3.1722    0.0000 N   0  0  0  0  0  0  0  0  0  0  0  0
    3.9041    2.6029    0.0000 N   0  0  0  0  0  0  0  0  0  0  0  0
    2.4751   -0.6971    0.0000 C   0  0  0  0  0  0  0  0  0  0  0  0
    1.7606   -1.1096    0.0000 C   0  0  0  0  0  0  0  0  0  0  0  0
    3.1895   -1.1096    0.0000 C   0  0  0  0  0  0  0  0  0  0  0  0
    3.1895    1.3654    0.0000 C   0  0  0  0  0  0  0  0  0  0  0  0
    2.4751   -2.3472    0.0000 C   0  0  0  0  0  0  0  0  0  0  0  0
    1.7606   -1.9347    0.0000 C   0  0  0  0  0  0  0  0  0  0  0  0
    3.1895   -1.9347    0.0000 C   0  0  0  0  0  0  0  0  0  0  0  0
    3.1895    2.1904    0.0000 C   0  0  0  0  0  0  0  0  0  0  0  0
    4.6185    1.3654    0.0000 C   0  0  0  0  0  0  0  0  0  0  0  0
    4.6185    2.1904    0.0000 C   0  0  0  0  0  0  0  0  0  0  0  0
    2.4751    3.4280    0.0000 C   0  0  0  0  0  0  0  0  0  0  0  0
  1  2  2  0  0  0  0
  1  3  2  0  0  0  0
  1  5  1  0  0  0  0
  1  9  1  0  0  0  0
  4 16  1  0  0  0  0
  4 19  1  0  0  0  0
  5 12  1  0  0  0  0
  6 12  2  0  0  0  0
  6 17  1  0  0  0  0
  7 13  1  0  0  0  0
  8 16  2  0  0  0  0
  8 18  1  0  0  0  0
  9 10  2  0  0  0  0
  9 11  1  0  0  0  0
 10 14  1  0  0  0  0
 11 15  2  0  0  0  0
 12 16  1  0  0  0  0
 13 14  2  0  0  0  0
 13 15  1  0  0  0  0
 17 18  2  0  0  0  0
M  END
> <DATABASE_ID>
DB00664

> <DATABASE_NAME>
drugbank

> <SMILES>
COC1=NC=CN=C1NS(=O)(=O)C1=CC=C(N)C=C1

> <INCHI_IDENTIFIER>
InChI=1S/C11H12N4O3S/c1-18-11-10(13-6-7-14-11)15-19(16,17)9-4-2-8(12)3-5-9/h2-7H,12H2,1H3,(H,13,15)

> <INCHI_KEY>
KXRZBTAEDBELFD-UHFFFAOYSA-N

> <FORMULA>
C11H12N4O3S

> <MOLECULAR_WEIGHT>
280.303

> <EXACT_MASS>
280.06301096

> <JCHEM_ACCEPTOR_COUNT>
6

> <JCHEM_AVERAGE_POLARIZABILITY>
27.12127477105563

> <JCHEM_BIOAVAILABILITY>
1

> <JCHEM_DONOR_COUNT>
2

> <JCHEM_FORMAL_CHARGE>
0

> <JCHEM_GHOSE_FILTER>
1

> <JCHEM_IUPAC>
4-amino-N-(3-methoxypyrazin-2-yl)benzene-1-sulfonamide

> <ALOGPS_LOGP>
0.41

> <JCHEM_LOGP>
0.2278840863333335

> <ALOGPS_LOGS>
-2.84

> <JCHEM_MDDR_LIKE_RULE>
0

> <JCHEM_NUMBER_OF_RINGS>
2

> <JCHEM_PHYSIOLOGICAL_CHARGE>
-1

> <JCHEM_PKA_STRONGEST_ACIDIC>
5.914239766872234

> <JCHEM_PKA_STRONGEST_BASIC>
1.9754926220992646

> <JCHEM_POLAR_SURFACE_AREA>
107.2

> <JCHEM_REFRACTIVITY>
70.36700000000002

> <JCHEM_ROTATABLE_BOND_COUNT>
3

> <JCHEM_RULE_OF_FIVE>
1

> <ALOGPS_SOLUBILITY>
4.06e-01 g/l

> <JCHEM_TRADITIONAL_IUPAC>
longum

> <JCHEM_VEBER_RULE>
0

> <DRUGBANK_ID>
DB00664

> <SECONDARY_ACCESSION_NUMBERS>
APRD00517

> <DRUG_GROUPS>
approved; withdrawn

> <GENERIC_NAME>
Sulfametopyrazine

> <SYNONYMS>
Sulfalene; Sulfaleno; Sulfalenum

$$$$
677
  Mrv0541 02231214552D          

 11 10  0  0  0  0            999 V2000
    3.7935    0.0000    0.0000 P   0  0  0  0  0  0  0  0  0  0  0  0
    3.3810    0.7145    0.0000 F   0  0  0  0  0  0  0  0  0  0  0  0
    4.5080    0.4125    0.0000 O   0  0  0  0  0  0  0  0  0  0  0  0
    3.0791   -0.4125    0.0000 O   0  0  0  0  0  0  0  0  0  0  0  0
    4.2060   -0.7145    0.0000 O   0  0  0  0  0  0  0  0  0  0  0  0
    5.2224    0.0000    0.0000 C   0  0  0  0  0  0  0  0  0  0  0  0
    2.3645    0.0000    0.0000 C   0  0  0  0  0  0  0  0  0  0  0  0
    5.9370    0.4125    0.0000 C   0  0  0  0  0  0  0  0  0  0  0  0
    5.2224   -0.8250    0.0000 C   0  0  0  0  0  0  0  0  0  0  0  0
    1.6500   -0.4125    0.0000 C   0  0  0  0  0  0  0  0  0  0  0  0
    2.3645    0.8250    0.0000 C   0  0  0  0  0  0  0  0  0  0  0  0
  1  2  1  0  0  0  0
  1  3  1  0  0  0  0
  1  4  1  0  0  0  0
  1  5  2  0  0  0  0
  3  6  1  0  0  0  0
  4  7  1  0  0  0  0
  6  8  1  0  0  0  0
  6  9  1  0  0  0  0
  7 10  1  0  0  0  0
  7 11  1  0  0  0  0
M  END
> <DATABASE_ID>
DB00677

> <DATABASE_NAME>
drugbank

> <SMILES>
CC(C)OP(F)(=O)OC(C)C

> <INCHI_IDENTIFIER>
InChI=1S/C6H14FO3P/c1-5(2)9-11(7,8)10-6(3)4/h5-6H,1-4H3

> <INCHI_KEY>
MUCZHBLJLSDCSD-UHFFFAOYSA-N

> <FORMULA>
C6H14FO3P

> <MOLECULAR_WEIGHT>
184.1457

> <EXACT_MASS>
184.066459031

> <JCHEM_ACCEPTOR_COUNT>
1

> <JCHEM_AVERAGE_POLARIZABILITY>
16.75087214906687

> <JCHEM_BIOAVAILABILITY>
1

> <JCHEM_DONOR_COUNT>
0

> <JCHEM_FORMAL_CHARGE>
0

> <JCHEM_GHOSE_FILTER>
1

> <JCHEM_IUPAC>
bis(propan-2-yl) fluorophosphonate

> <ALOGPS_LOGP>
1.10

> <JCHEM_LOGP>
1.7603906453333336

> <ALOGPS_LOGS>
-1.43

> <JCHEM_MDDR_LIKE_RULE>
0

> <JCHEM_NUMBER_OF_RINGS>
0

> <JCHEM_PHYSIOLOGICAL_CHARGE>
0

> <JCHEM_PKA_STRONGEST_BASIC>
-9.64521439025244

> <JCHEM_POLAR_SURFACE_AREA>
35.53

> <JCHEM_REFRACTIVITY>
40.888000000000005

> <JCHEM_ROTATABLE_BOND_COUNT>
4

> <JCHEM_RULE_OF_FIVE>
1

> <ALOGPS_SOLUBILITY>
6.78e+00 g/l

> <JCHEM_TRADITIONAL_IUPAC>
isoflurophate

> <JCHEM_VEBER_RULE>
1

> <DRUGBANK_ID>
DB00677

> <SECONDARY_ACCESSION_NUMBERS>
APRD00763

> <DRUG_GROUPS>
approved; withdrawn

> <GENERIC_NAME>
Isoflurophate

> <SYNONYMS>
DFP; Diisopropoxyphosphoryl Fluoride; Diisopropyl Fluorophosphonate; Diisopropyl Phosphofluoridate; Diisopropyl Phosphorofluoridate; Diisopropylfluorophosphate; Diisopropylphosphofluoridate; Fluorodiisopropyl Phosphate; Fluorostigmine; Isoflurophosphate; Isopropyl Phosphorofluoridate

> <INTERNATIONAL_BRANDS>
Diflupyl; Floropryl; Fluopryl

$$$$
679
  Mrv0541 02231214552D          

 25 28  0  0  1  0            999 V2000
    3.8495   -2.6670    0.0000 S   0  0  0  0  0  0  0  0  0  0  0  0
    6.7619   -0.9970    0.0000 S   0  0  0  0  0  0  0  0  0  0  0  0
    2.4206    1.4580    0.0000 N   0  0  0  0  0  0  0  0  0  0  0  0
    3.8495   -1.0170    0.0000 N   0  0  0  0  0  0  0  0  0  0  0  0
    3.1350    1.0455    0.0000 C   0  0  0  0  0  0  0  0  0  0  0  0
    3.8495    1.4580    0.0000 C   0  0  0  0  0  0  0  0  0  0  0  0
    3.1350    0.2205    0.0000 C   0  0  0  0  0  0  0  0  0  0  0  0
    3.8495    2.2830    0.0000 C   0  0  0  0  0  0  0  0  0  0  0  0
    2.4206    2.2830    0.0000 C   0  0  0  0  0  0  0  0  0  0  0  0
    3.1350    2.6955    0.0000 C   0  0  0  0  0  0  0  0  0  0  0  0
    3.8495   -0.1920    0.0000 C   0  0  0  0  0  0  0  0  0  0  0  0
    1.7061    1.0455    0.0000 C   0  0  0  0  0  0  0  0  0  0  0  0
    4.5640   -1.4295    0.0000 C   0  0  0  0  0  0  0  0  0  0  0  0
    3.1350   -1.4295    0.0000 C   0  0  0  0  0  0  0  0  0  0  0  0
    4.5640   -2.2545    0.0000 C   0  0  0  0  0  0  0  0  0  0  0  0
    3.1350   -2.2545    0.0000 C   0  0  0  0  0  0  0  0  0  0  0  0
    5.3015   -0.9884    0.0000 C   0  0  0  0  0  0  0  0  0  0  0  0
    2.3975   -0.9884    0.0000 C   0  0  0  0  0  0  0  0  0  0  0  0
    5.3015   -2.6955    0.0000 C   0  0  0  0  0  0  0  0  0  0  0  0
    2.3975   -2.6955    0.0000 C   0  0  0  0  0  0  0  0  0  0  0  0
    6.0490   -1.4123    0.0000 C   0  0  0  0  0  0  0  0  0  0  0  0
    1.6500   -1.4123    0.0000 C   0  0  0  0  0  0  0  0  0  0  0  0
    6.0490   -2.2716    0.0000 C   0  0  0  0  0  0  0  0  0  0  0  0
    1.6500   -2.2716    0.0000 C   0  0  0  0  0  0  0  0  0  0  0  0
    7.4779   -1.4068    0.0000 C   0  0  0  0  0  0  0  0  0  0  0  0
  1 15  1  0  0  0  0
  1 16  1  0  0  0  0
  2 21  1  0  0  0  0
  2 25  1  0  0  0  0
  3  5  1  0  0  0  0
  3  9  1  0  0  0  0
  3 12  1  0  0  0  0
  4 11  1  0  0  0  0
  4 13  1  0  0  0  0
  4 14  1  0  0  0  0
  5  6  1  0  0  0  0
  5  7  1  0  0  0  0
  6  8  1  0  0  0  0
  7 11  1  0  0  0  0
  8 10  1  0  0  0  0
  9 10  1  0  0  0  0
 13 15  2  0  0  0  0
 13 17  1  0  0  0  0
 14 16  1  0  0  0  0
 14 18  2  0  0  0  0
 15 19  1  0  0  0  0
 16 20  2  0  0  0  0
 17 21  2  0  0  0  0
 18 22  1  0  0  0  0
 19 23  2  0  0  0  0
 20 24  1  0  0  0  0
 21 23  1  0  0  0  0
 22 24  2  0  0  0  0
M  END
> <DATABASE_ID>
DB00679

> <DATABASE_NAME>
drugbank

> <SMILES>
CSC1=CC2=C(SC3=CC=CC=C3N2CCC2CCCCN2C)C=C1

> <INCHI_IDENTIFIER>
InChI=1S/C21H26N2S2/c1-22-13-6-5-7-16(22)12-14-23-18-8-3-4-9-20(18)25-21-11-10-17(24-2)15-19(21)23/h3-4,8-11,15-16H,5-7,12-14H2,1-2H3

> <INCHI_KEY>
KLBQZWRITKRQQV-UHFFFAOYSA-N

> <FORMULA>
C21H26N2S2

> <MOLECULAR_WEIGHT>
370.575

> <EXACT_MASS>
370.153740222

> <JCHEM_ACCEPTOR_COUNT>
2

> <JCHEM_AVERAGE_POLARIZABILITY>
43.2570033792346

> <JCHEM_BIOAVAILABILITY>
1

> <JCHEM_DONOR_COUNT>
0

> <JCHEM_FORMAL_CHARGE>
0

> <JCHEM_GHOSE_FILTER>
1

> <JCHEM_IUPAC>
10-[2-(1-methylpiperidin-2-yl)ethyl]-2-(methylsulfanyl)-10H-phenothiazine

> <ALOGPS_LOGP>
5.93

> <JCHEM_LOGP>
5.469305906000001

> <ALOGPS_LOGS>
-5.64

> <JCHEM_MDDR_LIKE_RULE>
0

> <JCHEM_NUMBER_OF_RINGS>
4

> <JCHEM_PHYSIOLOGICAL_CHARGE>
1

> <JCHEM_PKA_STRONGEST_BASIC>
8.927985751271668

> <JCHEM_POLAR_SURFACE_AREA>
6.48

> <JCHEM_REFRACTIVITY>
113.52260000000001

> <JCHEM_ROTATABLE_BOND_COUNT>
4

> <JCHEM_RULE_OF_FIVE>
0

> <ALOGPS_SOLUBILITY>
8.55e-04 g/l

> <JCHEM_TRADITIONAL_IUPAC>
thioridazine

> <JCHEM_VEBER_RULE>
1

> <DRUGBANK_ID>
DB00679

> <SECONDARY_ACCESSION_NUMBERS>
APRD00596

> <DRUG_GROUPS>
withdrawn

> <GENERIC_NAME>
Thioridazine

> <SYNONYMS>
10-[2-(1-methyl-2-piperidyl)ethyl]-2-methylsulfanyl-phenothiazine; 2-Methylmercapto-10-(2-(N-methyl-2-piperidyl)ethyl)phenothiazine; 3-Methylmercapto-N-(2'-(N-methyl-2-piperidyl)ethyl)phenothiazine; Thioridazin; Thioridazinum; Tioridazina

> <PRODUCTS>
Mellaril; Mellaril Tab 100mg; Mellaril Tab 10mg; Mellaril Tab 200mg; Mellaril Tab 25mg; Mellaril Tab 50mg; Novo-ridazine (thioridazine Oral Suspension) - 2 mg/ml; Novo-ridazine 100mg; Novo-ridazine 10mg; Novo-ridazine 25mg; Novo-ridazine 50mg; Novo-ridazine Tab 200mg; PMS Thioridazine Tab 50mg; PMS-thioridazine 100mg/tab USP; PMS-thioridazine 10mg/tab USP; PMS-thioridazine Solution 30mg/ml; PMS-thioridazine Solution 5mg/ml; PMS-thioridazine Tab 25mg; Thioridazine Hydrochloride; Thioridazine Oral Sus 2mg/ml; Thioridazine Tab 10mg; Thioridazine Tab 25mg; Thioridazine Tab 50mg

> <INTERNATIONAL_BRANDS>
Aldazine; Mallorol; Malloryl; Meleril; Mellaril-S; Mellerets; Mellerette; Melleretten; Melleril; Novoridazine; Orsanil; Ridazin; Ridazine; Sonapax; Thioril

> <SALTS>
Thioridazine Hydrochloride

$$$$
680
  Mrv0541 02231214552D          

 30 33  0  0  0  0            999 V2000
    4.5073   -2.6666    0.0000 S   0  0  0  0  0  0  0  0  0  0  0  0
    1.6498    2.2827    0.0000 O   0  0  0  0  0  0  0  0  0  0  0  0
    5.2216    0.2205    0.0000 O   0  0  0  0  0  0  0  0  0  0  0  0
    8.8480   -0.9914    0.0000 O   0  0  0  0  0  0  0  0  0  0  0  0
    8.1384   -2.2315    0.0000 O   0  0  0  0  0  0  0  0  0  0  0  0
    3.0786    1.4578    0.0000 N   0  0  0  0  0  0  0  0  0  0  0  0
    4.5073   -1.0169    0.0000 N   0  0  0  0  0  0  0  0  0  0  0  0
    7.4192   -0.9969    0.0000 N   0  0  0  0  0  0  0  0  0  0  0  0
    3.7929    1.0454    0.0000 C   0  0  0  0  0  0  0  0  0  0  0  0
    3.0786    2.2827    0.0000 C   0  0  0  0  0  0  0  0  0  0  0  0
    2.3641    1.0454    0.0000 C   0  0  0  0  0  0  0  0  0  0  0  0
    3.7929    0.2205    0.0000 C   0  0  0  0  0  0  0  0  0  0  0  0
    2.3641    2.6951    0.0000 C   0  0  0  0  0  0  0  0  0  0  0  0
    1.6498    1.4578    0.0000 C   0  0  0  0  0  0  0  0  0  0  0  0
    4.5073   -0.1920    0.0000 C   0  0  0  0  0  0  0  0  0  0  0  0
    5.2216   -1.4293    0.0000 C   0  0  0  0  0  0  0  0  0  0  0  0
    3.7929   -1.4293    0.0000 C   0  0  0  0  0  0  0  0  0  0  0  0
    5.2216   -2.2542    0.0000 C   0  0  0  0  0  0  0  0  0  0  0  0
    3.7929   -2.2542    0.0000 C   0  0  0  0  0  0  0  0  0  0  0  0
    5.9591   -0.9883    0.0000 C   0  0  0  0  0  0  0  0  0  0  0  0
    3.0555   -0.9883    0.0000 C   0  0  0  0  0  0  0  0  0  0  0  0
    5.9591   -2.6951    0.0000 C   0  0  0  0  0  0  0  0  0  0  0  0
    6.7064   -1.4121    0.0000 C   0  0  0  0  0  0  0  0  0  0  0  0
    3.0555   -2.6951    0.0000 C   0  0  0  0  0  0  0  0  0  0  0  0
    6.7064   -2.2713    0.0000 C   0  0  0  0  0  0  0  0  0  0  0  0
    2.3081   -1.4121    0.0000 C   0  0  0  0  0  0  0  0  0  0  0  0
    2.3081   -2.2713    0.0000 C   0  0  0  0  0  0  0  0  0  0  0  0
    8.1352   -1.4066    0.0000 C   0  0  0  0  0  0  0  0  0  0  0  0
    9.5639   -1.4011    0.0000 C   0  0  0  0  0  0  0  0  0  0  0  0
   10.2767   -0.9859    0.0000 C   0  0  0  0  0  0  0  0  0  0  0  0
  1 18  1  0  0  0  0
  1 19  1  0  0  0  0
  2 13  1  0  0  0  0
  2 14  1  0  0  0  0
  3 15  2  0  0  0  0
  4 28  1  0  0  0  0
  4 29  1  0  0  0  0
  5 28  2  0  0  0  0
  6  9  1  0  0  0  0
  6 10  1  0  0  0  0
  6 11  1  0  0  0  0
  7 15  1  0  0  0  0
  7 16  1  0  0  0  0
  7 17  1  0  0  0  0
  8 23  1  0  0  0  0
  8 28  1  0  0  0  0
  9 12  1  0  0  0  0
 10 13  1  0  0  0  0
 11 14  1  0  0  0  0
 12 15  1  0  0  0  0
 16 18  2  0  0  0  0
 16 20  1  0  0  0  0
 17 19  1  0  0  0  0
 17 21  2  0  0  0  0
 18 22  1  0  0  0  0
 19 24  2  0  0  0  0
 20 23  2  0  0  0  0
 21 26  1  0  0  0  0
 22 25  2  0  0  0  0
 23 25  1  0  0  0  0
 24 27  1  0  0  0  0
 26 27  2  0  0  0  0
 29 30  1  0  0  0  0
M  END
> <DATABASE_ID>
DB00680

> <DATABASE_NAME>
drugbank

> <SMILES>
CCOC(=O)NC1=CC2=C(SC3=CC=CC=C3N2C(=O)CCN2CCOCC2)C=C1

> <INCHI_IDENTIFIER>
InChI=1S/C22H25N3O4S/c1-2-29-22(27)23-16-7-8-20-18(15-16)25(17-5-3-4-6-19(17)30-20)21(26)9-10-24-11-13-28-14-12-24/h3-8,15H,2,9-14H2,1H3,(H,23,27)

> <INCHI_KEY>
FUBVWMNBEHXPSU-UHFFFAOYSA-N

> <FORMULA>
C22H25N3O4S

> <MOLECULAR_WEIGHT>
427.517

> <EXACT_MASS>
427.156576993

> <JCHEM_ACCEPTOR_COUNT>
5

> <JCHEM_AVERAGE_POLARIZABILITY>
45.26945016074669

> <JCHEM_BIOAVAILABILITY>
1

> <JCHEM_DONOR_COUNT>
1

> <JCHEM_FORMAL_CHARGE>
0

> <JCHEM_GHOSE_FILTER>
1

> <JCHEM_IUPAC>
ethyl N-{10-[3-(morpholin-4-yl)propanoyl]-10H-phenothiazin-2-yl}carbamate

> <ALOGPS_LOGP>
3.04

> <JCHEM_LOGP>
3.0723045793333315

> <ALOGPS_LOGS>
-4.10

> <JCHEM_MDDR_LIKE_RULE>
1

> <JCHEM_NUMBER_OF_RINGS>
4

> <JCHEM_PHYSIOLOGICAL_CHARGE>
0

> <JCHEM_PKA>
18.467498121585702

> <JCHEM_PKA_STRONGEST_ACIDIC>
12.896780583485786

> <JCHEM_PKA_STRONGEST_BASIC>
6.733870128078027

> <JCHEM_POLAR_SURFACE_AREA>
71.11

> <JCHEM_REFRACTIVITY>
118.87870000000004

> <JCHEM_ROTATABLE_BOND_COUNT>
6

> <JCHEM_RULE_OF_FIVE>
1

> <ALOGPS_SOLUBILITY>
3.39e-02 g/l

> <JCHEM_TRADITIONAL_IUPAC>
moricizine

> <JCHEM_VEBER_RULE>
0

> <DRUGBANK_ID>
DB00680

> <SECONDARY_ACCESSION_NUMBERS>
APRD01124

> <DRUG_GROUPS>
approved; withdrawn

> <GENERIC_NAME>
Moricizine

> <SYNONYMS>
Ethmozin; Etmozin; Moracizin; Moracizina; Moracizine; Moracizinum

> <INTERNATIONAL_BRANDS>
Ethmozine; Etmozins

> <SALTS>
moricizine hydrochloride

$$$$

  Mrv1572004101616072D          

 32 36  0  0  0  0            999 V2000
    0.8739    0.8456    0.0000 C   0  0  0  0  0  0  0  0  0  0  0  0
    1.5752    0.4331    0.0000 N   0  0  0  0  0  0  0  0  0  0  0  0
    0.8739    1.6706    0.0000 C   0  0  0  0  0  0  0  0  0  0  0  0
    0.1315    0.4331    0.0000 N   0  0  0  0  0  0  0  0  0  0  0  0
    1.5752   -0.3918    0.0000 C   0  0  0  0  0  0  0  0  0  0  0  0
    2.2765    0.8456    0.0000 C   0  0  0  0  0  0  0  0  0  0  0  0
    1.5339    2.0832    0.0000 C   0  0  0  0  0  0  0  0  0  0  0  0
    0.1315    2.0832    0.0000 C   0  0  0  0  0  0  0  0  0  0  0  0
   -0.5698    0.8456    0.0000 C   0  0  0  0  0  0  0  0  0  0  0  0
    2.3177   -0.8043    0.0000 C   0  0  0  0  0  0  0  0  0  0  0  0
    0.8739   -0.8043    0.0000 C   0  0  0  0  0  0  0  0  0  0  0  0
    2.2765    1.6706    0.0000 C   0  0  0  0  0  0  0  0  0  0  0  0
    1.5339    2.9082    0.0000 O   0  0  0  0  0  0  0  0  0  0  0  0
   -0.5698    1.6706    0.0000 C   0  0  0  0  0  0  0  0  0  0  0  0
   -1.2710    0.3918    0.0000 N   0  0  0  0  0  0  0  0  0  0  0  0
    2.3177   -1.6706    0.0000 C   0  0  0  0  0  0  0  0  0  0  0  0
    3.0190   -0.3918    0.0000 F   0  0  0  0  0  0  0  0  0  0  0  0
    0.8739   -1.6294    0.0000 C   0  0  0  0  0  0  0  0  0  0  0  0
    2.9778    2.0832    0.0000 C   0  0  0  0  0  0  0  0  0  0  0  0
   -1.2710    2.0832    0.0000 F   0  0  0  0  0  0  0  0  0  0  0  0
    1.5752   -2.0419    0.0000 C   0  0  0  0  0  0  0  0  0  0  0  0
    3.6791    1.6706    0.0000 O   0  0  0  0  0  0  0  0  0  0  0  0
    2.9778    2.9082    0.0000 O   0  0  0  0  0  0  0  0  0  0  0  0
    1.5752   -2.9082    0.0000 F   0  0  0  0  0  0  0  0  0  0  0  0
   -2.0409    0.6888    0.0000 C   0  0  0  0  0  0  0  0  0  0  0  0
   -2.5611    0.0485    0.0000 C   0  0  1  0  0  0  0  0  0  0  0  0
   -2.1129   -0.6441    0.0000 C   0  0  1  0  0  0  0  0  0  0  0  0
   -1.2744   -0.4319    0.0000 C   0  0  0  0  0  0  0  0  0  0  0  0
   -2.9624   -0.6393    0.0000 C   0  0  2  0  0  0  0  0  0  0  0  0
   -3.1274    0.6393    0.0000 H   0  0  0  0  0  0  0  0  0  0  0  0
   -1.8898   -1.4232    0.0000 H   0  0  0  0  0  0  0  0  0  0  0  0
   -3.6791   -1.0483    0.0000 N   0  0  0  0  0  0  0  0  0  0  0  0
  1  2  1  0  0  0  0
  1  3  2  0  0  0  0
  1  4  1  0  0  0  0
  2  5  1  0  0  0  0
  2  6  1  0  0  0  0
  3  7  1  0  0  0  0
  3  8  1  0  0  0  0
  4  9  2  0  0  0  0
  5 10  2  0  0  0  0
  5 11  1  0  0  0  0
  6 12  2  0  0  0  0
  7 13  2  0  0  0  0
  8 14  2  0  0  0  0
  9 15  1  0  0  0  0
 10 16  1  0  0  0  0
 10 17  1  0  0  0  0
 11 18  2  0  0  0  0
 12 19  1  0  0  0  0
 14 20  1  0  0  0  0
 16 21  2  0  0  0  0
 19 22  1  0  0  0  0
 19 23  2  0  0  0  0
 21 24  1  0  0  0  0
  7 12  1  0  0  0  0
  9 14  1  0  0  0  0
 18 21  1  0  0  0  0
 15 25  1  0  0  0  0
 25 26  1  0  0  0  0
 26 27  1  0  0  0  0
 27 28  1  0  0  0  0
 15 28  1  0  0  0  0
 26 29  1  0  0  0  0
 29 27  1  0  0  0  0
 26 30  1  6  0  0  0
 27 31  1  6  0  0  0
 29 32  1  6  0  0  0
M  END
> <DATABASE_ID>
DB00685

> <DATABASE_NAME>
drugbank

> <SMILES>
[H][C@@]12CN(C[C@]1([H])[C@H]2N)C1=NC2=C(C=C1F)C(=O)C(=CN2C1=C(F)C=C(F)C=C1)C(O)=O

> <INCHI_IDENTIFIER>
InChI=1S/C20H15F3N4O3/c21-8-1-2-15(13(22)3-8)27-7-12(20(29)30)17(28)9-4-14(23)19(25-18(9)27)26-5-10-11(6-26)16(10)24/h1-4,7,10-11,16H,5-6,24H2,(H,29,30)/t10-,11+,16+

> <INCHI_KEY>
WVPSKSLAZQPAKQ-CDMJZVDBSA-N

> <FORMULA>
C20H15F3N4O3

> <MOLECULAR_WEIGHT>
416.36

> <EXACT_MASS>
416.109624848

> <JCHEM_ACCEPTOR_COUNT>
7

> <JCHEM_ATOM_COUNT>
45

> <JCHEM_AVERAGE_POLARIZABILITY>
38.11757279617303

> <JCHEM_BIOAVAILABILITY>
1

> <JCHEM_DONOR_COUNT>
2

> <JCHEM_FORMAL_CHARGE>
0

> <JCHEM_GHOSE_FILTER>
1

> <JCHEM_IUPAC>
7-[(1R,5S,6S)-6-amino-3-azabicyclo[3.1.0]hexan-3-yl]-1-(2,4-difluorophenyl)-6-fluoro-4-oxo-1,4-dihydro-1,8-naphthyridine-3-carboxylic acid

> <ALOGPS_LOGP>
0.86

> <JCHEM_LOGP>
0.13645476717269145

> <ALOGPS_LOGS>
-3.77

> <JCHEM_MDDR_LIKE_RULE>
0

> <JCHEM_NUMBER_OF_RINGS>
5

> <JCHEM_PHYSIOLOGICAL_CHARGE>
0

> <JCHEM_PKA_STRONGEST_ACIDIC>
5.4129478878424715

> <JCHEM_PKA_STRONGEST_BASIC>
9.440102776764602

> <JCHEM_POLAR_SURFACE_AREA>
99.76

> <JCHEM_REFRACTIVITY>
101.04039999999999

> <JCHEM_ROTATABLE_BOND_COUNT>
3

> <JCHEM_RULE_OF_FIVE>
1

> <ALOGPS_SOLUBILITY>
7.04e-02 g/l

> <JCHEM_TRADITIONAL_IUPAC>
7-[(1R,5S,6S)-6-amino-3-azabicyclo[3.1.0]hexan-3-yl]-1-(2,4-difluorophenyl)-6-fluoro-4-oxo-1,8-naphthyridine-3-carboxylic acid

> <JCHEM_VEBER_RULE>
0

> <DRUGBANK_ID>
DB00685

> <SECONDARY_ACCESSION_NUMBERS>
APRD01281

> <DRUG_GROUPS>
approved; withdrawn

> <GENERIC_NAME>
Trovafloxacin

> <PRODUCTS>
Trovan I.V.; Trovan Tablets 100mg; Trovan Tablets 200mg

> <INTERNATIONAL_BRANDS>
Trovan

> <SALTS>
Trovafloxacin hydrochloride; Trovafloxacin mesylate

$$$$
729
  Mrv0541 02231214572D          

 27 28  0  0  0  0            999 V2000
    2.0077    8.1586    0.0000 S   0  0  0  0  0  0  0  0  0  0  0  0
    2.7222    8.5711    0.0000 O   0  0  0  0  0  0  0  0  0  0  0  0
    1.2932    7.7461    0.0000 O   0  5  0  0  0  0  0  0  0  0  0  0
    2.4202    7.4441    0.0000 O   0  0  0  0  0  0  0  0  0  0  0  0
    1.5952    8.8731    0.0000 O   0  0  0  0  0  0  0  0  0  0  0  0
    2.5864    1.1575    0.0000 N   0  3  0  0  0  0  0  0  0  0  0  0
    1.8720    1.5700    0.0000 C   0  0  0  0  0  0  0  0  0  0  0  0
    3.3009    1.5700    0.0000 C   0  0  0  0  0  0  0  0  0  0  0  0
    1.8720    2.3950    0.0000 C   0  0  0  0  0  0  0  0  0  0  0  0
    3.3009    2.3950    0.0000 C   0  0  0  0  0  0  0  0  0  0  0  0
    2.5864    2.8075    0.0000 C   0  0  0  0  0  0  0  0  0  0  0  0
    2.1739    0.4430    0.0000 C   0  0  0  0  0  0  0  0  0  0  0  0
    2.9989    0.4430    0.0000 C   0  0  0  0  0  0  0  0  0  0  0  0
    2.5864    3.6326    0.0000 C   0  0  0  0  0  0  0  0  0  0  0  0
    3.3009    4.0451    0.0000 C   0  0  0  0  0  0  0  0  0  0  0  0
    1.8720    4.0451    0.0000 C   0  0  0  0  0  0  0  0  0  0  0  0
    3.3009    4.8701    0.0000 C   0  0  0  0  0  0  0  0  0  0  0  0
    1.1575    3.6326    0.0000 C   0  0  0  0  0  0  0  0  0  0  0  0
    4.0154    3.6326    0.0000 C   0  0  0  0  0  0  0  0  0  0  0  0
    1.8720    4.8701    0.0000 C   0  0  0  0  0  0  0  0  0  0  0  0
    4.0154    5.2826    0.0000 C   0  0  0  0  0  0  0  0  0  0  0  0
    0.4430    4.0451    0.0000 C   0  0  0  0  0  0  0  0  0  0  0  0
    4.7299    4.0451    0.0000 C   0  0  0  0  0  0  0  0  0  0  0  0
    1.1575    5.2826    0.0000 C   0  0  0  0  0  0  0  0  0  0  0  0
    4.7299    4.8701    0.0000 C   0  0  0  0  0  0  0  0  0  0  0  0
    0.4430    4.8701    0.0000 C   0  0  0  0  0  0  0  0  0  0  0  0
    3.4367    8.1586    0.0000 C   0  0  0  0  0  0  0  0  0  0  0  0
  1  2  1  0  0  0  0
  1  3  1  0  0  0  0
  1  4  2  0  0  0  0
  1  5  2  0  0  0  0
  2 27  1  0  0  0  0
  6  7  1  0  0  0  0
  6  8  1  0  0  0  0
  6 12  1  0  0  0  0
  6 13  1  0  0  0  0
  7  9  1  0  0  0  0
  8 10  1  0  0  0  0
  9 11  1  0  0  0  0
 10 11  1  0  0  0  0
 11 14  2  0  0  0  0
 14 15  1  0  0  0  0
 14 16  1  0  0  0  0
 15 17  2  0  0  0  0
 15 19  1  0  0  0  0
 16 18  2  0  0  0  0
 16 20  1  0  0  0  0
 17 21  1  0  0  0  0
 18 22  1  0  0  0  0
 19 23  2  0  0  0  0
 20 24  2  0  0  0  0
 21 25  2  0  0  0  0
 22 26  2  0  0  0  0
 23 25  1  0  0  0  0
 24 26  1  0  0  0  0
M  CHG  2   3  -1   6   1
M  END
> <DATABASE_ID>
DB00729

> <DATABASE_NAME>
drugbank

> <SMILES>
COS([O-])(=O)=O.C[N+]1(C)CCC(CC1)=C(C1=CC=CC=C1)C1=CC=CC=C1

> <INCHI_IDENTIFIER>
InChI=1S/C20H24N.CH4O4S/c1-21(2)15-13-19(14-16-21)20(17-9-5-3-6-10-17)18-11-7-4-8-12-18;1-5-6(2,3)4/h3-12H,13-16H2,1-2H3;1H3,(H,2,3,4)/q+1;/p-1

> <INCHI_KEY>
BREMLQBSKCSNNH-UHFFFAOYSA-M

> <FORMULA>
C21H27NO4S

> <MOLECULAR_WEIGHT>
389.508

> <EXACT_MASS>
389.166079047

> <JCHEM_ACCEPTOR_COUNT>
0

> <JCHEM_AVERAGE_POLARIZABILITY>
33.561245444595855

> <JCHEM_BIOAVAILABILITY>
1

> <JCHEM_DONOR_COUNT>
0

> <JCHEM_FORMAL_CHARGE>
0

> <JCHEM_GHOSE_FILTER>
1

> <JCHEM_IUPAC>
4-(diphenylmethylidene)-1,1-dimethylpiperidin-1-ium methyl sulfate

> <ALOGPS_LOGP>
1.12

> <JCHEM_LOGP>
-0.14609018880507812

> <ALOGPS_LOGS>
-6.28

> <JCHEM_MDDR_LIKE_RULE>
0

> <JCHEM_NUMBER_OF_RINGS>
3

> <JCHEM_PHYSIOLOGICAL_CHARGE>
1

> <JCHEM_POLAR_SURFACE_AREA>
0

> <JCHEM_REFRACTIVITY>
111.69100000000003

> <JCHEM_ROTATABLE_BOND_COUNT>
3

> <JCHEM_RULE_OF_FIVE>
1

> <ALOGPS_SOLUBILITY>
2.04e-04 g/l

> <JCHEM_TRADITIONAL_IUPAC>
4-(diphenylmethylidene)-1,1-dimethylpiperidin-1-ium methyl sulfate(1-)

> <JCHEM_VEBER_RULE>
1

> <DRUGBANK_ID>
DB00729

> <SECONDARY_ACCESSION_NUMBERS>
APRD00928

> <DRUG_GROUPS>
approved; vet_approved; withdrawn

> <GENERIC_NAME>
Diphemanil Methylsulfate

> <SYNONYMS>
Diphemanil methylsulfat; Diphemanili metilsulfas ; Métilsulfate de Diphémanil; Metilsulfato de difemanilo; Vagophemanil

> <INTERNATIONAL_BRANDS>
Demotil; Prantal; Prentol

$$$$
739
  Mrv0541 02231214582D          

 28 31  0  0  1  0            999 V2000
    7.4805    0.5950    0.0000 S   0  0  0  0  0  0  0  0  0  0  0  0
    5.2819   -1.0729    0.0000 O   0  0  0  0  0  0  0  0  0  0  0  0
    4.0907    0.0663    0.0000 O   0  0  0  0  0  0  0  0  0  0  0  0
    7.1834   -2.1376    0.0000 O   0  0  0  0  0  0  0  0  0  0  0  0
    8.5424   -1.6960    0.0000 O   0  0  0  0  0  0  0  0  0  0  0  0
    6.6959   -0.4849    0.0000 N   0  0  0  0  0  0  0  0  0  0  0  0
    5.2819    0.9280    0.0000 N   0  0  0  0  0  0  0  0  0  0  0  0
    4.6784    2.1187    0.0000 N   0  0  0  0  0  0  0  0  0  0  0  0
    6.6959    0.3401    0.0000 C   0  0  1  0  0  0  0  0  0  0  0  0
    5.8640    0.3435    0.0000 C   0  0  1  0  0  0  0  0  0  0  0  0
    7.4805   -0.7399    0.0000 C   0  0  2  0  0  0  0  0  0  0  0  0
    7.9654   -0.0724    0.0000 C   0  0  0  0  0  0  0  0  0  0  0  0
    5.8640   -0.4883    0.0000 C   0  0  0  0  0  0  0  0  0  0  0  0
    5.4126    1.7427    0.0000 C   0  0  0  0  0  0  0  0  0  0  0  0
    4.4668    0.8007    0.0000 C   0  0  0  0  0  0  0  0  0  0  0  0
    4.0938    1.5365    0.0000 C   0  0  1  0  0  0  0  0  0  0  0  0
    8.6329   -0.5574    0.0000 C   0  0  0  0  0  0  0  0  0  0  0  0
    8.6329    0.4125    0.0000 C   0  0  0  0  0  0  0  0  0  0  0  0
    7.7355   -1.5245    0.0000 C   0  0  0  0  0  0  0  0  0  0  0  0
    6.2272    1.6119    0.0000 C   0  0  0  0  0  0  0  0  0  0  0  0
    5.7886    2.4769    0.0000 C   0  0  0  0  0  0  0  0  0  0  0  0
    3.2791    1.6673    0.0000 C   0  0  0  0  0  0  0  0  0  0  0  0
    2.7586    1.0272    0.0000 C   0  0  0  0  0  0  0  0  0  0  0  0
    2.9851    2.4381    0.0000 C   0  0  0  0  0  0  0  0  0  0  0  0
    1.9440    1.1579    0.0000 C   0  0  0  0  0  0  0  0  0  0  0  0
    2.1705    2.5688    0.0000 C   0  0  0  0  0  0  0  0  0  0  0  0
    1.6500    1.9287    0.0000 C   0  0  0  0  0  0  0  0  0  0  0  0
    6.5940    0.9922    0.0000 H   0  0  0  0  0  0  0  0  0  0  0  0
  1  9  1  0  0  0  0
  1 12  1  0  0  0  0
  2 13  2  0  0  0  0
  3 15  2  0  0  0  0
  4 19  1  0  0  0  0
  5 19  2  0  0  0  0
  6  9  1  0  0  0  0
  6 11  1  0  0  0  0
  6 13  1  0  0  0  0
 10  7  1  1  0  0  0
  7 14  1  0  0  0  0
  7 15  1  0  0  0  0
  8 14  1  0  0  0  0
  8 16  1  0  0  0  0
  9 10  1  0  0  0  0
  9 28  1  6  0  0  0
 10 13  1  0  0  0  0
 11 12  1  0  0  0  0
 11 19  1  6  0  0  0
 12 17  1  0  0  0  0
 12 18  1  0  0  0  0
 14 20  1  0  0  0  0
 14 21  1  0  0  0  0
 15 16  1  0  0  0  0
 16 22  1  1  0  0  0
 22 23  2  0  0  0  0
 22 24  1  0  0  0  0
 23 25  1  0  0  0  0
 24 26  2  0  0  0  0
 25 27  2  0  0  0  0
 26 27  1  0  0  0  0
M  END
> <DATABASE_ID>
DB00739

> <DATABASE_NAME>
drugbank

> <SMILES>
[H][C@]12SC(C)(C)[C@@H](N1C(=O)[C@H]2N1C(=O)[C@H](NC1(C)C)C1=CC=CC=C1)C(O)=O

> <INCHI_IDENTIFIER>
InChI=1S/C19H23N3O4S/c1-18(2)13(17(25)26)21-15(24)12(16(21)27-18)22-14(23)11(20-19(22,3)4)10-8-6-5-7-9-10/h5-9,11-13,16,20H,1-4H3,(H,25,26)/t11-,12-,13+,16-/m1/s1

> <INCHI_KEY>
DXVUYOAEDJXBPY-NFFDBFGFSA-N

> <FORMULA>
C19H23N3O4S

> <MOLECULAR_WEIGHT>
389.469

> <EXACT_MASS>
389.140926929

> <JCHEM_ACCEPTOR_COUNT>
5

> <JCHEM_AVERAGE_POLARIZABILITY>
39.58154278946702

> <JCHEM_BIOAVAILABILITY>
1

> <JCHEM_DONOR_COUNT>
2

> <JCHEM_FORMAL_CHARGE>
0

> <JCHEM_GHOSE_FILTER>
0

> <JCHEM_IUPAC>
(2S,5R,6R)-6-[(4R)-2,2-dimethyl-5-oxo-4-phenylimidazolidin-1-yl]-3,3-dimethyl-7-oxo-4-thia-1-azabicyclo[3.2.0]heptane-2-carboxylic acid

> <ALOGPS_LOGP>
0.85

> <JCHEM_LOGP>
-0.015010228405816369

> <ALOGPS_LOGS>
-2.88

> <JCHEM_MDDR_LIKE_RULE>
0

> <JCHEM_NUMBER_OF_RINGS>
4

> <JCHEM_PHYSIOLOGICAL_CHARGE>
-1

> <JCHEM_PKA>
14.993524451963172

> <JCHEM_PKA_STRONGEST_ACIDIC>
3.626005434143019

> <JCHEM_PKA_STRONGEST_BASIC>
5.474500567056694

> <JCHEM_POLAR_SURFACE_AREA>
89.94999999999999

> <JCHEM_REFRACTIVITY>
99.89940000000003

> <JCHEM_ROTATABLE_BOND_COUNT>
3

> <JCHEM_RULE_OF_FIVE>
1

> <ALOGPS_SOLUBILITY>
5.12e-01 g/l

> <JCHEM_TRADITIONAL_IUPAC>
hetacillin

> <JCHEM_VEBER_RULE>
0

> <DRUGBANK_ID>
DB00739

> <SECONDARY_ACCESSION_NUMBERS>
APRD01012

> <DRUG_GROUPS>
approved; vet_approved; withdrawn

> <GENERIC_NAME>
Hetacillin

> <SYNONYMS>
Hetacilina; Hetacillin; Hétacilline; Hetacillinum; Phenazacillin

> <INTERNATIONAL_BRANDS>
Natacillin; Versapen

> <SALTS>
Hetacillin Potassium

$$$$
744
  Mrv0541 02231214582D          

 16 17  0  0  1  0            999 V2000
    3.8597    1.1874    0.0000 S   0  0  0  0  0  0  0  0  0  0  0  0
    5.1662   -0.9055    0.0000 O   0  0  0  0  0  0  0  0  0  0  0  0
    6.8162    0.5235    0.0000 O   0  0  0  0  0  0  0  0  0  0  0  0
    5.5787   -0.1910    0.0000 N   0  0  0  0  0  0  0  0  0  0  0  0
    6.8162   -0.9055    0.0000 N   0  0  0  0  0  0  0  0  0  0  0  0
    5.1662    0.5235    0.0000 C   0  0  0  0  0  0  0  0  0  0  0  0
    4.3412    0.5235    0.0000 C   0  0  0  0  0  0  0  0  0  0  0  0
    3.0791    0.1110    0.0000 C   0  0  0  0  0  0  0  0  0  0  0  0
    3.8597   -0.1404    0.0000 C   0  0  0  0  0  0  0  0  0  0  0  0
    3.0791    0.9360    0.0000 C   0  0  0  0  0  0  0  0  0  0  0  0
    5.5787    1.2379    0.0000 C   0  0  0  0  0  0  0  0  0  0  0  0
    2.3645   -0.3015    0.0000 C   0  0  0  0  0  0  0  0  0  0  0  0
    2.3645    1.3485    0.0000 C   0  0  0  0  0  0  0  0  0  0  0  0
    1.6500    0.1110    0.0000 C   0  0  0  0  0  0  0  0  0  0  0  0
    1.6500    0.9360    0.0000 C   0  0  0  0  0  0  0  0  0  0  0  0
    6.4037   -0.1910    0.0000 C   0  0  0  0  0  0  0  0  0  0  0  0
  1  7  1  0  0  0  0
  1 10  1  0  0  0  0
  2  4  1  0  0  0  0
  3 16  2  0  0  0  0
  4  6  1  0  0  0  0
  4 16  1  0  0  0  0
  5 16  1  0  0  0  0
  6  7  1  0  0  0  0
  6 11  1  0  0  0  0
  7  9  2  0  0  0  0
  8  9  1  0  0  0  0
  8 10  1  0  0  0  0
  8 12  2  0  0  0  0
 10 13  2  0  0  0  0
 12 14  1  0  0  0  0
 13 15  1  0  0  0  0
 14 15  2  0  0  0  0
M  END
> <DATABASE_ID>
DB00744

> <DATABASE_NAME>
drugbank

> <SMILES>
CC(N(O)C(N)=O)C1=CC2=CC=CC=C2S1

> <INCHI_IDENTIFIER>
InChI=1S/C11H12N2O2S/c1-7(13(15)11(12)14)10-6-8-4-2-3-5-9(8)16-10/h2-7,15H,1H3,(H2,12,14)

> <INCHI_KEY>
MWLSOWXNZPKENC-UHFFFAOYSA-N

> <FORMULA>
C11H12N2O2S

> <MOLECULAR_WEIGHT>
236.29

> <EXACT_MASS>
236.061948328

> <JCHEM_ACCEPTOR_COUNT>
2

> <JCHEM_AVERAGE_POLARIZABILITY>
24.13772048218238

> <JCHEM_BIOAVAILABILITY>
1

> <JCHEM_DONOR_COUNT>
2

> <JCHEM_FORMAL_CHARGE>
0

> <JCHEM_GHOSE_FILTER>
1

> <JCHEM_IUPAC>
1-[1-(1-benzothiophen-2-yl)ethyl]-1-hydroxyurea

> <ALOGPS_LOGP>
2.01

> <JCHEM_LOGP>
2.006172834999999

> <ALOGPS_LOGS>
-3.64

> <JCHEM_MDDR_LIKE_RULE>
0

> <JCHEM_NUMBER_OF_RINGS>
2

> <JCHEM_PHYSIOLOGICAL_CHARGE>
0

> <JCHEM_PKA_STRONGEST_ACIDIC>
8.837783092710643

> <JCHEM_PKA_STRONGEST_BASIC>
-5.494153581458328

> <JCHEM_POLAR_SURFACE_AREA>
66.56

> <JCHEM_REFRACTIVITY>
61.95950000000001

> <JCHEM_ROTATABLE_BOND_COUNT>
2

> <JCHEM_RULE_OF_FIVE>
1

> <ALOGPS_SOLUBILITY>
5.39e-02 g/l

> <JCHEM_TRADITIONAL_IUPAC>
zileuton

> <JCHEM_VEBER_RULE>
0

> <DRUGBANK_ID>
DB00744

> <SECONDARY_ACCESSION_NUMBERS>
APRD00265

> <DRUG_GROUPS>
approved; investigational; withdrawn

> <GENERIC_NAME>
Zileuton

> <SYNONYMS>
Leutrol; Zileuton; Zileutonum

> <PRODUCTS>
Zileuton; Zyflo; Zyflo CR

$$$$
756
  Mrv0541 02231214592D          

 21 22  0  0  0  0            999 V2000
    5.1469    0.1168    0.0000 Cl  0  0  0  0  0  0  0  0  0  0  0  0
    4.9509   -0.9947    0.0000 Cl  0  0  0  0  0  0  0  0  0  0  0  0
    3.0257    2.6447    0.0000 Cl  0  0  0  0  0  0  0  0  0  0  0  0
    2.0930   -2.6447    0.0000 Cl  0  0  0  0  0  0  0  0  0  0  0  0
    5.7112    1.6673    0.0000 Cl  0  0  0  0  0  0  0  0  0  0  0  0
    4.9509   -2.6447    0.0000 Cl  0  0  0  0  0  0  0  0  0  0  0  0
    2.4613    1.0943    0.0000 O   0  0  0  0  0  0  0  0  0  0  0  0
    2.0930   -0.9947    0.0000 O   0  0  0  0  0  0  0  0  0  0  0  0
    3.5220   -0.1697    0.0000 C   0  0  0  0  0  0  0  0  0  0  0  0
    3.8041    0.6056    0.0000 C   0  0  0  0  0  0  0  0  0  0  0  0
    3.5220   -0.9947    0.0000 C   0  0  0  0  0  0  0  0  0  0  0  0
    3.2738    1.2375    0.0000 C   0  0  0  0  0  0  0  0  0  0  0  0
    2.8075   -1.4072    0.0000 C   0  0  0  0  0  0  0  0  0  0  0  0
    4.6166    0.7488    0.0000 C   0  0  0  0  0  0  0  0  0  0  0  0
    4.2364   -1.4072    0.0000 C   0  0  0  0  0  0  0  0  0  0  0  0
    3.5560    2.0128    0.0000 C   0  0  0  0  0  0  0  0  0  0  0  0
    2.8075   -2.2322    0.0000 C   0  0  0  0  0  0  0  0  0  0  0  0
    4.8988    1.5240    0.0000 C   0  0  0  0  0  0  0  0  0  0  0  0
    4.2364   -2.2322    0.0000 C   0  0  0  0  0  0  0  0  0  0  0  0
    4.3684    2.1560    0.0000 C   0  0  0  0  0  0  0  0  0  0  0  0
    3.5220   -2.6447    0.0000 C   0  0  0  0  0  0  0  0  0  0  0  0
  1 14  1  0  0  0  0
  2 15  1  0  0  0  0
  3 16  1  0  0  0  0
  4 17  1  0  0  0  0
  5 18  1  0  0  0  0
  6 19  1  0  0  0  0
  7 12  1  0  0  0  0
  8 13  1  0  0  0  0
  9 10  1  0  0  0  0
  9 11  1  0  0  0  0
 10 12  2  0  0  0  0
 10 14  1  0  0  0  0
 11 13  2  0  0  0  0
 11 15  1  0  0  0  0
 12 16  1  0  0  0  0
 13 17  1  0  0  0  0
 14 18  2  0  0  0  0
 15 19  2  0  0  0  0
 16 20  2  0  0  0  0
 17 21  2  0  0  0  0
 18 20  1  0  0  0  0
 19 21  1  0  0  0  0
M  END
> <DATABASE_ID>
DB00756

> <DATABASE_NAME>
drugbank

> <SMILES>
OC1=C(CC2=C(O)C(Cl)=CC(Cl)=C2Cl)C(Cl)=C(Cl)C=C1Cl

> <INCHI_IDENTIFIER>
InChI=1S/C13H6Cl6O2/c14-6-2-8(16)12(20)4(10(6)18)1-5-11(19)7(15)3-9(17)13(5)21/h2-3,20-21H,1H2

> <INCHI_KEY>
ACGUYXCXAPNIKK-UHFFFAOYSA-N

> <FORMULA>
C13H6Cl6O2

> <MOLECULAR_WEIGHT>
406.904

> <EXACT_MASS>
403.849895678

> <JCHEM_ACCEPTOR_COUNT>
2

> <JCHEM_AVERAGE_POLARIZABILITY>
34.071855286150594

> <JCHEM_BIOAVAILABILITY>
1

> <JCHEM_DONOR_COUNT>
2

> <JCHEM_FORMAL_CHARGE>
0

> <JCHEM_GHOSE_FILTER>
0

> <JCHEM_IUPAC>
3,4,6-trichloro-2-[(2,3,5-trichloro-6-hydroxyphenyl)methyl]phenol

> <ALOGPS_LOGP>
6.77

> <JCHEM_LOGP>
7.082177257666666

> <ALOGPS_LOGS>
-5.97

> <JCHEM_MDDR_LIKE_RULE>
0

> <JCHEM_NUMBER_OF_RINGS>
2

> <JCHEM_PHYSIOLOGICAL_CHARGE>
-1

> <JCHEM_PKA>
8.794720213161474

> <JCHEM_PKA_STRONGEST_ACIDIC>
5.153372662291707

> <JCHEM_PKA_STRONGEST_BASIC>
-7.377815156118747

> <JCHEM_POLAR_SURFACE_AREA>
40.46

> <JCHEM_REFRACTIVITY>
88.58579999999999

> <JCHEM_ROTATABLE_BOND_COUNT>
2

> <JCHEM_RULE_OF_FIVE>
0

> <ALOGPS_SOLUBILITY>
4.33e-04 g/l

> <JCHEM_TRADITIONAL_IUPAC>
pre-op

> <JCHEM_VEBER_RULE>
0

> <DRUGBANK_ID>
DB00756

> <SECONDARY_ACCESSION_NUMBERS>
APRD00722

> <DRUG_GROUPS>
approved; withdrawn

> <GENERIC_NAME>
Hexachlorophene

> <SYNONYMS>
2,2'-dihydroxy-3,3',5,5',6,6'-hexachlorodiphenylmethane; 2,2'-dihydroxy-3,5,6,3',5',6'-hexachlorodiphenylmethane; 2,2'-methanediylbis(3,4,6-trichlorophenol); 2,2'-methylenebis(3,4,6-trichlorophenol); 2,2',3,3',5,5'-hexachloro-6,6'-dihydroxydiphenylmethane; bis(2-hydroxy-3,5,6-trichlorophenyl)methane; bis(3,5,6-trichloro-2-hydroxyphenyl)methane; hexachlorophène; Hexachlorophenum; Hexaclorofeno

> <PRODUCTS>
Phisohex; Sapoderm

> <INTERNATIONAL_BRANDS>
Aknefug; Dermisan; Pre-Op

$$$$

  Mrv0541 02231214592D          

  2  0  0  0  0  0            999 V2000
    0.0000    0.0000    0.0000 K   0  3  0  0  0  0  0  0  0  0  0  0
    1.0000    0.0000    0.0000 Cl  0  5  0  0  0  0  0  0  0  0  0  0
M  CHG  2   1   1   2  -1
M  END
> <DATABASE_ID>
DB00761

> <DATABASE_NAME>
drugbank

> <SMILES>
[Cl-].[K+]

> <INCHI_IDENTIFIER>
InChI=1S/ClH.K/h1H;/q;+1/p-1

> <INCHI_KEY>
WCUXLLCKKVVCTQ-UHFFFAOYSA-M

> <FORMULA>
ClK

> <MOLECULAR_WEIGHT>
74.551

> <EXACT_MASS>
73.932559568

> <JCHEM_ACCEPTOR_COUNT>
0

> <JCHEM_AVERAGE_POLARIZABILITY>
1.7784

> <JCHEM_BIOAVAILABILITY>
1

> <JCHEM_DONOR_COUNT>
0

> <JCHEM_FORMAL_CHARGE>
0

> <JCHEM_GHOSE_FILTER>
0

> <JCHEM_IUPAC>
potassium chloride

> <JCHEM_LOGP>
0.2

> <JCHEM_MDDR_LIKE_RULE>
0

> <JCHEM_NUMBER_OF_RINGS>
0

> <JCHEM_PHYSIOLOGICAL_CHARGE>
-1

> <JCHEM_PKA_STRONGEST_ACIDIC>
-7.000000000000001

> <JCHEM_POLAR_SURFACE_AREA>
0

> <JCHEM_REFRACTIVITY>
0

> <JCHEM_ROTATABLE_BOND_COUNT>
0

> <JCHEM_RULE_OF_FIVE>
1

> <JCHEM_TRADITIONAL_IUPAC>
potassium chloride

> <JCHEM_VEBER_RULE>
1

> <DRUGBANK_ID>
DB00761

> <SECONDARY_ACCESSION_NUMBERS>
APRD01322

> <DRUG_GROUPS>
approved; withdrawn

> <GENERIC_NAME>
Potassium Chloride

> <SYNONYMS>
Chlorid draselny; Chloride of potash; Kaliumchlorid; Monopotassium chloride; Muriate of potash; Sylvite

> <PRODUCTS>
(20 Mmol/l) Potassium Chloride In 3.3% Dextrose and 0.3% Sodium Chloride Injection USP; (20 Mmol/l) Potassium Chloride In 5% Dextrose Injection USP; (20 Mmol/l) Potassium Chloride In 5% Dextrose and 0.9% Sodium Chloride Injection USP; (20mmol/l) Potassium Chloride In 0.9% Sodium Chloride Injection USP; (20mmol/l) Potassium Chloride In 5% Dextrose and 0.2% Sodium Chloride Injection USP; (20mmol/l) Potassium Chloride In 5% Dextrose and 0.45% Sodium Chloride Injection USP; (40 Mmol/l) Potassium Chloride In 0.9% Sodium Chloride Injection USP; (40 Mmol/l) Potassium Chloride In 5% Dextrose Injection USP; (40 Mmols/l) Potassium Chloride In Lactated Ringer's Injection USP; (40mmol/l) Potassium Chloride In 3.3% Dextrose and 0.3% Sodium Chloride Injection USP; (40mmol/l)potassium Chloride In 5% Dextrose and 0.45% Sodium Chloride Injection USP; 0.15% Potassium Chloride In 3.3% Dextrose and 0.30% Sodium Chloride Injection; 0.15% Potassium Chloride In 5% Dextrose Injection USP; 0.15% Potassium Chloride In 5% Dextrose and 0.20% Sodium Chloride Injection USP; 0.15% Potassium Chloride In 5% Dextrose and 0.33% Sodium Chloride Injection USP; 0.15% Potassium Chloride In 5% Dextrose and 0.45% Sodium Chloride Injection; 0.15% Potassium Chloride In 5% Dextrose and 0.9% Sodium Chloride Injection; 0.30% Potassium Chloride In 5% Dextrose; 0.30% Potassium Chloride In 5% Dextrose and 0.45% Sodium Chloride Injection; 20 (meq)mmol/l Potassium Chloride In/et 0.9% Chlorure De Sodium/sodium Chloride Injection USP; 20(meq)mmol/l Potassium Chloride Plus 5% Dextrose & 0.9% Chlorure De Sodium/sodium Chloride Injection USP; 40 (meq)mmol/l Potassium Chloride Plus 5% Dextrose & 0.9% Chlorure De Sodium/sodium Chloride Injection USP; 40(meq)mmol/l Potassium Chloride In/et 0.9% Chlorure De Sodium/sodium Chloride Injection USP; 5% Dextrose In Lactated Ringer's Injection; Accusol 35 K2; Accusol 35 K4; Acetate Concentrate R07376; Acid Concentrate  D12028; Acid Concentrate  D12054; Acid Concentrate  D12092; Acid Concentrate  D12093; Acid Concentrate  D12095; Acid Concentrate  D12119; Acid Concentrate  D12132; Acid Concentrate  D12150; Acid Concentrate  D12247; Acid Concentrate  D12250; Acid Concentrate  D12261; Acid Concentrate  D12268; Acid Concentrate (r04938); Acid Concentrate (r04968); Acid Concentrate (r04969); Acid Concentrate (r04974); Acid Concentrate (r04975); Acid Concentrate (r04976); Acid Concentrate (r04981); Acid Concentrate (r04984); Acid Concentrate (ro4147); Acid Concentrate (ro4148); Acid Concentrate (ro9503); Acid Concentrate (rz262c); Acid Concentrate (rz271c); Acid Concentrate (rz272c); Acid Concentrate (rz274c); Acid Concentrate (rz275c); Acid Concentrate 2101; Acid Concentrate 2102; Acid Concentrate 2105; Acid Concentrate 2106; Acid Concentrate 2109; Acid Concentrate 2112; Acid Concentrate 2113; Acid Concentrate 2117; Acid Concentrate 2120; Acid Concentrate 2122; Acid Concentrate 2123; Acid Concentrate 2125; Acid Concentrate 2126; Acid Concentrate 2129; Acid Concentrate 2131; Acid Concentrate 2132; Acid Concentrate 2135; Acid Concentrate 2139; Acid Concentrate 2147; Acid Concentrate 2148; Acid Concentrate 2151; Acid Concentrate 2152; Acid Concentrate 2155; Acid Concentrate 2156; Acid Concentrate 2161; Acid Concentrate 2162; Acid Concentrate 2163; Acid Concentrate 2166; Acid Concentrate 2168; Acid Concentrate 2171; Acid Concentrate 2175; Acid Concentrate 2182; Acid Concentrate 2185; Acid Concentrate 2189; Acid Concentrate 2190; Acid Concentrate 2196; Acid Concentrate 2198; Acid Concentrate 3186; Acid Concentrate 3187; Acid Concentrate A1221; Acid Concentrate A1222; Acid Concentrate A1223; Acid Concentrate A1224; Acid Concentrate A1225; Acid Concentrate A1226; Acid Concentrate A1227; Acid Concentrate A1228; Acid Concentrate A1229; Acid Concentrate A1231; Acid Concentrate A1241; Acid Concentrate A1242; Acid Concentrate A1243; Acid Concentrate A1245; Acid Concentrate A1246; Acid Concentrate A1251; Acid Concentrate A1252; Acid Concentrate A1253; Acid Concentrate A1255; Acid Concentrate A1261; Acid Concentrate A1262; Acid Concentrate A1263; Acid Concentrate A1265; Acid Concentrate A1266; Acid Concentrate A1267; Acid Concentrate A1268; Acid Concentrate A1269; Acid Concentrate A1274; Acid Concentrate A1275; Acid Concentrate A1276; Acid Concentrate A1277; Acid Concentrate A1278; Acid Concentrate A1279; Acid Concentrate A1280; Acid Concentrate A1294; Acid Concentrate A1295; Acid Concentrate A1296; Acid Concentrate A1297; Acid Concentrate A1298; Acid Concentrate Bp Ro4151; Acid Concentrate Bp Ro9505; Acid Concentrate Bp Ro9506; Acid Concentrate Bp Ro9507; Acid Concentrate Bp Rz267c; Acid Concentrate Bp Rz278c; Acid Concentrate Bp Rz279c; Acid Concentrate D 12219 Liq; Acid Concentrate D-12287; Acid Concentrate D-18003; Acid Concentrate D-18006; Acid Concentrate D12067; Acid Concentrate D12094; Acid Concentrate D12112; Acid Concentrate D12117; Acid Concentrate D12135; Acid Concentrate D12143; Acid Concentrate D12167; Acid Concentrate D12184; Acid Concentrate D12185; Acid Concentrate D12188; Acid Concentrate D12196; Acid Concentrate D12197; Acid Concentrate D12200; Acid Concentrate D12201; Acid Concentrate D12204; Acid Concentrate D12205; Acid Concentrate D12207; Acid Concentrate D12209; Acid Concentrate D12220; Acid Concentrate D12221; Acid Concentrate D12236; Acid Concentrate D12248; Acid Concentrate D12252; Acid Concentrate D12255; Acid Concentrate D12259; Acid Concentrate D12262; Acid Concentrate D12264; Acid Concentrate D12265; Acid Concentrate D12267; Acid Concentrate D12269; Acid Concentrate D12272; Acid Concentrate D12275; Acid Concentrate D12282; Acid Concentrate D12284; Acid Concentrate D12285; Acid Concentrate D12286; Acid Concentrate D12290; Acid Concentrate D12291; Acid Concentrate D12292; Acid Concentrate D12293; Acid Concentrate D12294; Acid Concentrate D12299; Acid Concentrate D12300; Acid Concentrate D12301; Acid Concentrate D12302; Acid Concentrate D12303; Acid Concentrate D12305; Acid Concentrate D12308; Acid Concentrate D12309; Acid Concentrate D12310; Acid Concentrate D12311; Acid Concentrate D12315; Acid Concentrate D12316; Acid Concentrate D12318; Acid Concentrate D13001; Acid Concentrate D18001; Acid Concentrate D18009; Acid Concentrate Ro4137; Acid Concentrate Ro4138; Acid Concentrate Ro4144; Acid Concentrate Ro4145; Acid Concentrate Ro4947; Acid Concentrate Ro4979; Acid Concentrate Ro4983; Acid Concentrate Ro9500; Acid Concentrate Ro9501; Acid Concentrate Ro9502; Acid Concentrate Rx252c; Acid Concentrate Rx253c; Acid Concentrate Rz110c; Acid Concentrate Rz111c; Acid Concentrate Rz119c; Acid Concentrate Rz127c; Acid Concentrate Rz144c; Acid Concentrate Rz153c; Acid Concentrate Rz164c; Acid Concentrate Rz167c; Acid Concentrate Rz171c; Acid Concentrate Rz183c; Acid Concentrate Rz185c; Acid Concentrate Rz194c; Acid Concentrate Rz195c; Acid Concentrate Rz196c; Acid Concentrate Rz202c; Acid Concentrate Rz203c; Acid Concentrate Rz207c; Acid Concentrate Rz208c; Acid Concentrate Rz209c; Acid Concentrate Rz210c; Acid Concentrate Rz211c; Acid Concentrate Rz212c; Acid Concentrate Rz213c; Acid Concentrate Rz247c; Acid Concentrate Rz248c; Acid Concentrate Rz249c; Acid Concentrate Rz254c; Acid Concentrate Rz264c; Acid Concentrate Rz265c; Acid Concentrate(36.83x) R04900; Acid Concentrate(36.83x) R04906; Acid Concentrate-r04948 Liq; Acid Hemodialysis Conc Sb 1003; Adrenogist Tab; Aminosyn; Aminosyn II 10% With Electrolytes; Aminosyn II 7% M In 10% Dextrose(dual Chamber); Aminosyn II 8.5% M In 20% Dextrose (dual Chamber); Aminosyn II with Electrolytes; Amo Endosol Extra; Amo Endosol Solution; Artisial; Balanced Salt; Balanced Salt Solution; Bi-peglyte; Bicarb Hemodial Conc 36.83; Bicarbolyte Bicar Hemodialsis Conc; Bicarbolyte Bicar Hemodialysis Conc; Bss; Bss Plus; Cardioplegic; Citrasate C10125; Citrasate C1125; Citrasate C1150; Citrasate C2125; Citrasate C2150; Citrasate C3125; Citrasate C3150; Citrasate C4125; Colyte; Colyte with flavor packs; Concentrated Haemodialysis Solution Bp-rz266c; Concentrated Haemodialysis Solution Bp-rz270c; D-12043 Sol Conc Electrolyt Pour Dialy; D12006; D12046 Conc Electrolyte Renal Dialysis; D12230 Liq; Dextrose 2.5% In Half Strength Lactated Ringer's Injection, USP; Dextrose 5% In Lactated Ringers; Dextrose 5% and Electrolyte No75 Inj; Dextrose 50% Inj W Electrolytes PF Abbovac; Dialyte; Dioptic's Balanced Salt Solution; Effervescent Potassium Chloride; Electropeg Solution; Elliott's Solution A; Eye Stream; GaviLyte - C TM; GaviLyte - N; GaviLyte G TM; Glycerolyte 57 Solution; GoLYTELY; Golytely Gi Lavage Solution; H-706; H-710; H.E.L.P.bicel; HUMCO Potassium Chloride Oral Solution 10%; Haemosol H-200; Haemosol H-201; Haemosol H-206; Haemosol H-208; Haemosol H-223; Haemosol H-224; Haemosol H-225; Haemosol H-226; Haemosol H-227; Haemosol H-229; Haemosol H-230; Haemosol H-232; Haemosol H-250; Haemosol H-251; Haemosol H-252; Haemosol H-253; Haemosol H-254; Haemosol H-260; Haemosol H-320; Haemosol H-330; Haemosol H-331; Haemosol H-332; Haemosol H-401; Haemosol H-402; Haemosol H-404; Haemosol H-407; Haemosol H-408; Haemosol H-410; Haemosol H-602; Haemosol H-608; Haemosol H-615; Haemosol H-616; Haemosol H-617; Haemosol H-623; Haemosol H-624; Haemosol H-625; Haemosol H-630; Haemosol H-631; Haemosol H-661; Haemosol H-690; Hemasate Ultra Hs1125; Hemasate Ultra Hs1150; Hemasate Ultra Hs2125; Hemasate Ultra Hs2150; Hemasate Ultra Hs3125; Hemasate Ultra Hs3150; Hemasate Ultra Hs4125; Hemosate Ultra Hs1125; Hemosate Ultra Hs1150; Hemosate Ultra Hs2125; Hemosate Ultra Hs2150; Hemosate Ultra Hs3125; Hemosate Ultra Hs3150; Hemosate Ultra Hs4125; Hemosol Lg2; Hemosol Lg4; Hi Potency Potassium Chloride; Hyperlyte (multi-electrolyte Concentrate); Iocare Balanced Salt Solution; Ionosol and Dextrose; Isolyte H With Dextrose 5% Inj; Isolyte M In 5% Dextrose; Isolyte R In 5% Dextrose; Isolyte S; Isolyte S (multi-electrolyte Injection); Isolyte S Ph 7.4 (multi-electrolyte Injection); Isolyte S With 5% Dextrose Inj; Isolyte S in Dextrose; Isoplate; Jamp-electropeg; Jamp-electropeg With Flavour Packet; Jamplyte; Jamplyte 280; K + 45; K C1-rougier; K Lor Granules 20meq; K+36.8; K-Sol; K-Tab; K-dur; K-lyte Cl; K-med; K-med 900 Tab 900mg; K-tab; K1 Liq R04911; K1 Liq R04978; K2 Liq R04902; K2 With Glucose Liq R04977; Kalium Durules Srt 750mg; Kaochlor-10; Kaochlor-20; Kato Pws 1.5gm; Kcl Solution A 20%; Klean-prep; Klor Con M; Klor-Con; Klor-Con Extended-release; Klor-Con M; Klor-Con M10; Klor-Con M20; Klor-Con Sprinkle; Klor-con; Klor-con M; Klor-con/25; Lactated Ringer's Injection; Lactated Ringer's Injection USP; Lactated Ringer's Irrigation; Lactated Ringer's Irrigation Sol; Lactated Ringers; Lactated Ringers Inj USP; Lactated Ringers Inj W 5% Dextrose; Lactated Ringers Irrigation; Lypholyte; Lypholyte Multi-electrolyte Conc Inj; Lyteprep; Micro K Extencaps Src 600mg; Micro-K 10 Extencaps; Micro-K Extencaps; Micro-K-10 Extencaps Src 750mg; Moi-stir Oral Swabsticks; Moi-stir Spray; MoviPrep; Moviprep; Multiple Electrolyte Additive Inj; Multiple Electrolyte Additive Liq Formula 1; Naturalyte H-200; Naturalyte H-201; Naturalyte H-206; Naturalyte H-208; Naturalyte H-223; Naturalyte H-224; Naturalyte H-225; Naturalyte H-226; Naturalyte H-227; Naturalyte H-229; Naturalyte H-230; Naturalyte H-232; Naturalyte H-251; Naturalyte H-252; Naturalyte H-260; Naturalyte H-320; Naturalyte H-330; Naturalyte H-331; Naturalyte H-332; Naturalyte H-401; Naturalyte H-402; Naturalyte H-407; Naturalyte H-408; Naturalyte H-410; Naturalyte H-602; Naturalyte H-608; Naturalyte H-615; Naturalyte H-616; Naturalyte H-617; Naturalyte H-623; Naturalyte H-624; Naturalyte H-625; Naturalyte H-630; Naturalyte H-631; Naturalyte H-661; Naturalyte H-690; Naturalyte H-706; Navstel; Neo K; Normosol R; Normosol R With Dextrose 5% Injection; Normosol-R; Normosol-R and Dextrose; Novo-lente K Tab 600mg; NuLYTELY; Nutrilyte; Nxstage Pureflow Dialysate Concentrate (sak 303); Nxstage Pureflow Dialysate Concentrate (sak 304); Nxstage Pureflow Dialysate Concentrate (sak 305); Nxstage Pureflow Dialysate Concentrate (sak-301); Nxstage Pureflow Dialysate Concentrate (sak-302); Nxstage Pureflow Solution Rfp-204-can; Nxstage Pureflow Solution Rfp-207-can; Nxstage Pureflow Solution Rfp-209-can; Ocl Solution; Odan Balanced Salt Solution; Olimel 3.3% E; Olimel 4.4% E; Olimel 5.7% E; One A Day Advance Adults; One A Day Advance Adults 50+; PEG-3350 and Electrolytes; PEG-3350, sodium chloride, sodium bicarbonate and potassium chloride; Peglyte Powder; Peglyte Solution; Periolimel 2.5% E; Phoxillum Bk4/2.5; Physiolyte; Physiosol; Plasma-Lyte 148; Plasma-Lyte A; Plasma-lyte A Injection; Plasmalyte 148 In 5% Dextrose Inj; Plasmalyte 148 In Water; Plegisol; Polyethylene Glycol 3350 and Electrolytes; Polyethylene Glycol 3350, Sodium Chloride, Sodium Bicarbonate and Potassium Chloride - Unflavored; Polyethylene Glycol 3350, Sodium Chloride, Sodium Bicarbonate and Potassium Chloride with Lemon Flavor; Polyethylene Glycol 3350, Sodium Chloride, Sodium Bicarbonate and Potassium Chloride with Orange Flavor; Polyethylene Glycol-3350 and Electrolytes; Polyethylene Glycol-3350 and Electrolytes with Flavor Pack; Polyethylene Glycol-3350, Sodium Chloride, Potassium Chloride and Sodium Bicarbonate; Potas Chlor 20meq 5% Dex and Lactate Ringer; Potas Chlor 30meq 5% Dex and 0.2% Sod Chlor; Potass Chlor 10meq 5% Dex and 0.2% Sod Chlor; Potass Chlor 30meq 5% Dex and 0.33% Sod Chlor; Potass Chlor 30meq 5% Dex and 0.45% Sod Chlor; Potass Chlor 40meq 5% Dex and 0.2% Sod Chlor; Potass Chlor 40meq 5% Dex and 0.33% Sod Chlor; Potass Chlor 40meq 5% Dex and 0.9% Sod Chlor; Potass Chloride 10meq In 5% Dextrose Inj USP; Potass Chloride 30meq In 5% Dextrose Inj USP; Potass Chloride 5% Dextr 0.45% Sod Chlor Inj; Potassium 20meq 5% Dextrose and 0.33% Sodium Chloride; Potassium Chlor 40meq 5% Dex & Lac Ring; Potassium Chloride; Potassium Chloride 20 Meq In 3.3% Dextrose With 0.3% Sodium Chloride; Potassium Chloride 20 Meq In 5% Dextrose; Potassium Chloride 20 Meq In 5% Dextrose With 0.225% Sodium Chloride; Potassium Chloride 20 Meq In 5% Dextrose With 0.45% Sodium Chloride; Potassium Chloride 40 Meq In 3.3% Dextrose With 0.3% Sodium Chloride; Potassium Chloride 40 Meq In 5% Dextrose; Potassium Chloride 40 Meq In 5% Dextrose and 0.45% Sodium Chloride; Potassium Chloride Bp - Additive for Concentrated Haemodialysis Solutions; Potassium Chloride ER; Potassium Chloride Extended Release; Potassium Chloride Extended-Release; Potassium Chloride In Dextrose; Potassium Chloride In Lactated Ringer's Injection; Potassium Chloride In Sodium Chloride; Potassium Chloride In Sodium Chloride Injection USP; Potassium Chloride Inj; Potassium Chloride Inj 149mg/ml USP; Potassium Chloride Inj 2meq/ml; Potassium Chloride Inj 30meq; Potassium Chloride Inj 40meq; Potassium Chloride Inj USP Liq 149mg/ml; Potassium Chloride Injection; Potassium Chloride Injection 2meq/ml; Potassium Chloride for Injection Concentrate; Potassium Chloride for Injection Concentrate, USP (2 Meq/ml); Potassium Chloride for Oral Solution; Potassium Chloride in Dextrose and Sodium Chloride; Potassium Chloride in Sodium Chloride; Potassium SR 600mg Tablets; Potassium chloride extended release; Potassium-36.8  0.5-4.5 (code:k-30) - Powder; Potassium-novartis; Potrassium Chloride; Prismasol 2; Prismasol 4; Pro-600k Srt 600mg; Proception Sperm Nutrient Douche; Prolax - Pws; R04903 Liq; R04909 Liq; R04919 Liq; R04922 Liq; R04931 Liq; R04936 Liq; R04946 Liq; R04972 Liq; R04973 Liq; Ringer's Inj; Ringer's Injection USP; Ringers; Roychlor - 10% - Liq Orl; Rs-274; Salivart Aer; Salivart Oral Moisturizer; Sb 1000; Sb 1004; Sb-110; Sb-111; Sb-119; Sb-127; Sb-131; Sb-132; Selectbag One (ax125g); Selectbag One (ax150g); Selectbag One (ax200g); Selectbag One (ax225g); Selectbag One (ax250g); Selectbag One (ax2525g); Selectbag One (ax2550g); Selectbag One (ax275g); Selectbag One (ax325g); Selectbag One (ax350g); Selectbag One (ax450g); Slo-pot; Slow K; Strong Potass Chloride Inj 0.15gm/ml; Super Charged Energy; TPN Electrolytes; Tis-U-sol; Tis-U-sol Solution; Tpn Electrolytes; Tqm Acid Concentrate A1280; TriLyte with Flavor Packs; Trilyte With Flavor Packs; Vamin N; Vivia Acid

> <INTERNATIONAL_BRANDS>
Kaon Cl; Klotrix; Micro-K; Sando-K; Slow-K

$$$$
767
  Mrv0541 02231214592D          

 29 31  0  0  1  0            999 V2000
    2.3660    0.6201    0.0000 O   0  0  0  0  0  0  0  0  0  0  0  0
    1.6500   -0.6601    0.0000 O   0  0  0  0  0  0  0  0  0  0  0  0
    6.0029    2.7198    0.0000 O   0  0  0  0  0  0  0  0  0  0  0  0
    7.4663    1.8748    0.0000 O   0  0  0  0  0  0  0  0  0  0  0  0
    3.0853    1.8548    0.0000 O   0  0  0  0  0  0  0  0  0  0  0  0
    4.5639   -0.6374    0.0000 N   0  0  0  0  0  0  0  0  0  0  0  0
    2.3692   -1.8948    0.0000 N   0  0  0  0  0  0  0  0  0  0  0  0
    4.5639    0.1876    0.0000 C   0  0  0  0  0  0  0  0  0  0  0  0
    3.0789   -0.6546    0.0000 C   0  0  0  0  0  0  0  0  0  0  0  0
    3.8264    0.6287    0.0000 C   0  0  0  0  0  0  0  0  0  0  0  0
    3.0789    0.2048    0.0000 C   0  0  0  0  0  0  0  0  0  0  0  0
    3.8264   -1.0784    0.0000 C   0  0  0  0  0  0  0  0  0  0  0  0
    5.2784   -1.0499    0.0000 C   0  0  0  0  0  0  0  0  0  0  0  0
    5.2784    0.6001    0.0000 C   0  0  0  0  0  0  0  0  0  0  0  0
    5.9929   -0.6374    0.0000 C   0  0  0  0  0  0  0  0  0  0  0  0
    5.9929    0.1876    0.0000 C   0  0  0  0  0  0  0  0  0  0  0  0
    2.3660   -1.0698    0.0000 C   0  0  0  0  0  0  0  0  0  0  0  0
    5.2651    1.4593    0.0000 C   0  0  0  0  0  0  0  0  0  0  0  0
    6.7436    0.6058    0.0000 C   0  0  0  0  0  0  0  0  0  0  0  0
    6.0060    1.8948    0.0000 C   0  0  0  0  0  0  0  0  0  0  0  0
    6.7502    1.4651    0.0000 C   0  0  0  0  0  0  0  0  0  0  0  0
    1.6564   -2.3100    0.0000 C   0  0  0  0  0  0  0  0  0  0  0  0
    3.0853   -2.3046    0.0000 C   0  0  0  0  0  0  0  0  0  0  0  0
    2.3692    1.4451    0.0000 C   0  0  0  0  0  0  0  0  0  0  0  0
    1.6596   -3.1350    0.0000 C   0  0  0  0  0  0  0  0  0  0  0  0
    3.0885   -3.1296    0.0000 C   0  0  0  0  0  0  0  0  0  0  0  0
    1.6564    1.8603    0.0000 C   0  0  0  0  0  0  0  0  0  0  0  0
    6.7157    3.1350    0.0000 C   0  0  0  0  0  0  0  0  0  0  0  0
    8.1792    1.4596    0.0000 C   0  0  0  0  0  0  0  0  0  0  0  0
  1 11  1  0  0  0  0
  1 24  1  0  0  0  0
  2 17  2  0  0  0  0
  3 20  1  0  0  0  0
  3 28  1  0  0  0  0
  4 21  1  0  0  0  0
  4 29  1  0  0  0  0
  5 24  2  0  0  0  0
  6  8  1  0  0  0  0
  6 12  1  0  0  0  0
  6 13  1  0  0  0  0
  7 17  1  0  0  0  0
  7 22  1  0  0  0  0
  7 23  1  0  0  0  0
  8 10  1  0  0  0  0
  8 14  1  0  0  0  0
  9 11  1  0  0  0  0
  9 12  1  0  0  0  0
  9 17  1  0  0  0  0
 10 11  1  0  0  0  0
 13 15  1  0  0  0  0
 14 16  1  0  0  0  0
 14 18  2  0  0  0  0
 15 16  1  0  0  0  0
 16 19  2  0  0  0  0
 18 20  1  0  0  0  0
 19 21  1  0  0  0  0
 20 21  2  0  0  0  0
 22 25  1  0  0  0  0
 23 26  1  0  0  0  0
 24 27  1  0  0  0  0
M  END
> <DATABASE_ID>
DB00767

> <DATABASE_NAME>
drugbank

> <SMILES>
CCN(CC)C(=O)C1CN2CCC3=CC(OC)=C(OC)C=C3C2CC1OC(C)=O

> <INCHI_IDENTIFIER>
InChI=1S/C22H32N2O5/c1-6-23(7-2)22(26)17-13-24-9-8-15-10-20(27-4)21(28-5)11-16(15)18(24)12-19(17)29-14(3)25/h10-11,17-19H,6-9,12-13H2,1-5H3

> <INCHI_KEY>
JSZILQVIPPROJI-UHFFFAOYSA-N

> <FORMULA>
C22H32N2O5

> <MOLECULAR_WEIGHT>
404.4999

> <EXACT_MASS>
404.231122144

> <JCHEM_ACCEPTOR_COUNT>
5

> <JCHEM_AVERAGE_POLARIZABILITY>
45.27184728373448

> <JCHEM_BIOAVAILABILITY>
1

> <JCHEM_DONOR_COUNT>
0

> <JCHEM_FORMAL_CHARGE>
0

> <JCHEM_GHOSE_FILTER>
1

> <JCHEM_IUPAC>
3-(diethylcarbamoyl)-9,10-dimethoxy-1H,2H,3H,4H,6H,7H,11bH-pyrido[2,1-a]isoquinolin-2-yl acetate

> <ALOGPS_LOGP>
2.49

> <JCHEM_LOGP>
1.419519497333333

> <ALOGPS_LOGS>
-2.92

> <JCHEM_MDDR_LIKE_RULE>
1

> <JCHEM_NUMBER_OF_RINGS>
3

> <JCHEM_PHYSIOLOGICAL_CHARGE>
1

> <JCHEM_PKA_STRONGEST_ACIDIC>
19.607785395751204

> <JCHEM_PKA_STRONGEST_BASIC>
7.503061934457392

> <JCHEM_POLAR_SURFACE_AREA>
68.31

> <JCHEM_REFRACTIVITY>
110.471

> <JCHEM_ROTATABLE_BOND_COUNT>
7

> <JCHEM_RULE_OF_FIVE>
1

> <ALOGPS_SOLUBILITY>
4.90e-01 g/l

> <JCHEM_TRADITIONAL_IUPAC>
benzquinamide

> <JCHEM_VEBER_RULE>
0

> <DRUGBANK_ID>
DB00767

> <SECONDARY_ACCESSION_NUMBERS>
APRD00820

> <DRUG_GROUPS>
withdrawn

> <GENERIC_NAME>
Benzquinamide

> <SYNONYMS>
BZQ

> <INTERNATIONAL_BRANDS>
Benzchinamide; Emete-con; Emeticon; Promecon; Quantril

> <SALTS>
Benzquinamide hydrochloride

$$$$

  Mrv0541 04191212142D          
 
 58 60  0  0  1  0            999 V2000
    1.4289   -0.4125    0.0000 C   0  0  1  0  0  0  0  0  0  0  0  0
    0.7145   -0.8250    0.0000 C   0  0  2  0  0  0  0  0  0  0  0  0
    0.7145    0.8250    0.0000 C   0  0  0  0  0  0  0  0  0  0  0  0
    0.7145   -1.6500    0.0000 C   0  0  1  0  0  0  0  0  0  0  0  0
    0.7145    1.6500    0.0000 C   0  0  2  0  0  0  0  0  0  0  0  0
    0.0000   -2.0625    0.0000 C   0  0  2  0  0  0  0  0  0  0  0  0
    0.0000    2.0625    0.0000 C   0  0  0  0  0  0  0  0  0  0  0  0
   -0.7145   -1.6500    0.0000 C   0  0  0  0  0  0  0  0  0  0  0  0
   -0.7145    1.6500    0.0000 C   0  0  1  0  0  0  0  0  0  0  0  0
   -0.7145   -0.8250    0.0000 O   0  0  0  0  0  0  0  0  0  0  0  0
   -0.7145    0.8250    0.0000 C   0  0  1  0  0  0  0  0  0  0  0  0
   -1.4289   -0.4125    0.0000 C   0  0  2  0  0  0  0  0  0  0  0  0
    2.1434   -0.8250    0.0000 O   0  0  0  0  0  0  0  0  0  0  0  0
    0.0000   -0.4125    0.0000 C   0  0  0  0  0  0  0  0  0  0  0  0
    2.8578   -0.4125    0.0000 C   0  0  1  0  0  0  0  0  0  0  0  0
    1.4289   -2.0625    0.0000 O   0  0  0  0  0  0  0  0  0  0  0  0
    3.5723   -0.8250    0.0000 C   0  0  1  0  0  0  0  0  0  0  0  0
    2.8578    0.4125    0.0000 O   0  0  0  0  0  0  0  0  0  0  0  0
    1.4289    2.0625    0.0000 C   0  0  0  0  0  0  0  0  0  0  0  0
    1.4289   -2.8875    0.0000 C   0  0  1  0  0  0  0  0  0  0  0  0
    0.0000   -2.8875    0.0000 C   0  0  0  0  0  0  0  0  0  0  0  0
    4.2868   -0.4125    0.0000 C   0  0  2  0  0  0  0  0  0  0  0  0
    3.5723   -1.6500    0.0000 O   0  0  0  0  0  0  0  0  0  0  0  0
    3.5723    0.8250    0.0000 C   0  0  1  0  0  0  0  0  0  0  0  0
    0.0000    2.8875    0.0000 N   0  0  0  0  0  0  0  0  0  0  0  0
    0.7144   -3.3000    0.0000 C   0  0  0  0  0  0  0  0  0  0  0  0
    2.1434   -3.3000    0.0000 O   0  0  0  0  0  0  0  0  0  0  0  0
   -1.4290   -2.0625    0.0000 O   0  0  0  0  0  0  0  0  0  0  0  0
    4.2868    0.4125    0.0000 C   0  0  0  0  0  0  0  0  0  0  0  0
    5.0013   -0.8250    0.0000 N   0  0  0  0  0  0  0  0  0  0  0  0
    3.5723    1.6500    0.0000 C   0  0  0  0  0  0  0  0  0  0  0  0
   -1.4290    2.0625    0.0000 C   0  0  0  0  0  0  0  0  0  0  0  0
    2.1434   -4.1250    0.0000 C   0  0  2  0  0  0  0  0  0  0  0  0
    5.7157   -0.4125    0.0000 C   0  0  0  0  0  0  0  0  0  0  0  0
    5.0013   -1.6500    0.0000 C   0  0  0  0  0  0  0  0  0  0  0  0
    0.0000    0.4125    0.0000 O   0  0  0  0  0  0  0  0  0  0  0  0
    1.4289   -4.5375    0.0000 C   0  0  2  0  0  0  0  0  0  0  0  0
    2.8578   -4.5375    0.0000 C   0  0  0  0  0  0  0  0  0  0  0  0
    1.4289   -5.3625    0.0000 O   0  0  0  0  0  0  0  0  0  0  0  0
    0.7144   -4.1250    0.0000 C   0  0  2  0  0  0  0  0  0  0  0  0
    0.7144    3.3000    0.0000 O   0  0  0  0  0  0  0  0  0  0  0  0
    1.4289    2.8875    0.0000 C   0  0  0  0  0  0  0  0  0  0  0  0
    2.1434    3.3000    0.0000 O   0  0  0  0  0  0  0  0  0  0  0  0
    2.8578    2.8875    0.0000 C   0  0  0  0  0  0  0  0  0  0  0  0
    3.5723    3.3000    0.0000 C   0  0  0  0  0  0  0  0  0  0  0  0
    4.2868    2.8875    0.0000 O   0  0  0  0  0  0  0  0  0  0  0  0
    5.0013    3.3000    0.0000 C   0  0  0  0  0  0  0  0  0  0  0  0
   -2.1435   -0.8250    0.0000 C   0  0  0  0  0  0  0  0  0  0  0  0
   -2.8579   -0.4125    0.0000 C   0  0  0  0  0  0  0  0  0  0  0  0
    0.7144   -4.9500    0.0000 O   0  0  0  0  0  0  0  0  0  0  0  0
   -0.0001   -5.3625    0.0000 C   0  0  0  0  0  0  0  0  0  0  0  0
    0.0000   -4.5375    0.0000 C   0  0  0  0  0  0  0  0  0  0  0  0
   -1.4289    0.4125    0.0000 C   0  0  1  0  0  0  0  0  0  0  0  0
    1.4289    0.4125    0.0000 C   0  0  1  0  0  0  0  0  0  0  0  0
   -1.4289    1.2375    0.0000 O   0  0  0  0  0  0  0  0  0  0  0  0
    1.4289    1.2375    0.0000 O   0  0  0  0  0  0  0  0  0  0  0  0
   -2.1434    0.8249    0.0000 C   0  0  0  0  0  0  0  0  0  0  0  0
    2.1434    0.8250    0.0000 C   0  0  0  0  0  0  0  0  0  0  0  0
  1 13  1  6  0  0  0
  1 54  1  0  0  0  0
 54 58  1  6  0  0  0
  2  1  1  0  0  0  0
  2 14  1  6  0  0  0
 54  3  1  0  0  0  0
  2  4  1  0  0  0  0
  4 16  1  6  0  0  0
  3  5  1  0  0  0  0
  5 19  1  6  0  0  0
  4  6  1  0  0  0  0
  6 21  1  1  0  0  0
  5  7  1  0  0  0  0
  7 25  2  0  0  0  0
  6  8  1  0  0  0  0
  8 28  2  0  0  0  0
  9  7  1  0  0  0  0
  9 32  1  1  0  0  0
  8 10  1  0  0  0  0
 11  9  1  0  0  0  0
 11 36  1  1  0  0  0
 12 10  1  0  0  0  0
 12 48  1  6  0  0  0
 53 12  1  0  0  0  0
 11 53  1  0  0  0  0
 53 57  1  6  0  0  0
 15 13  1  6  0  0  0
 15 17  1  0  0  0  0
 15 18  1  0  0  0  0
 20 16  1  6  0  0  0
 17 22  1  0  0  0  0
 17 23  1  1  0  0  0
 18 24  1  0  0  0  0
 20 26  1  0  0  0  0
 20 27  1  0  0  0  0
 22 29  1  0  0  0  0
 22 30  1  6  0  0  0
 24 31  1  6  0  0  0
 24 29  1  0  0  0  0
 25 41  1  4  0  0  0
 26 40  1  0  0  0  0
 27 33  1  0  0  0  0
 30 34  1  0  0  0  0
 30 35  1  0  0  0  0
 33 38  1  1  0  0  0
 33 37  1  0  0  0  0
 40 37  1  0  0  0  0
 37 39  1  6  0  0  0
 40 50  1  6  0  0  0
 40 52  1  1  0  0  0
 41 42  1  0  0  0  0
 42 43  1  0  0  0  0
 43 44  1  0  0  0  0
 44 45  1  0  0  0  0
 45 46  1  0  0  0  0
 46 47  1  0  0  0  0
 48 49  1  0  0  0  0
 50 51  1  0  0  0  0
 53 55  1  1  0  0  0
 54 56  1  1  0  0  0
M  END
> <DATABASE_ID>
DB00778

> <DATABASE_NAME>
drugbank

> <SMILES>
CC[C@H]1OC(=O)[C@H](C)[C@@H](O[C@H]2C[C@@](C)(OC)[C@@H](O)[C@H](C)O2)[C@H](C)[C@@H](O[C@@H]2O[C@H](C)C[C@@H]([C@H]2O)N(C)C)[C@](C)(O)C[C@@H](C)C(=NOCOCCOC)[C@H](C)[C@@H](O)[C@]1(C)O

> <INCHI_IDENTIFIER>
InChI=1S/C41H76N2O15/c1-15-29-41(10,49)34(45)24(4)31(42-53-21-52-17-16-50-13)22(2)19-39(8,48)36(58-38-32(44)28(43(11)12)18-23(3)54-38)25(5)33(26(6)37(47)56-29)57-30-20-40(9,51-14)35(46)27(7)55-30/h22-30,32-36,38,44-46,48-49H,15-21H2,1-14H3/t22-,23-,24+,25+,26-,27+,28+,29-,30+,32-,33+,34-,35+,36-,38+,39-,40-,41-/m1/s1

> <INCHI_KEY>
RXZBMPWDPOLZGW-HITVVWEBSA-N

> <FORMULA>
C41H76N2O15

> <MOLECULAR_WEIGHT>
837.0465

> <EXACT_MASS>
836.524569772

> <JCHEM_ACCEPTOR_COUNT>
16

> <JCHEM_AVERAGE_POLARIZABILITY>
91.84204207809985

> <JCHEM_BIOAVAILABILITY>
0

> <JCHEM_DONOR_COUNT>
5

> <JCHEM_FORMAL_CHARGE>
0

> <JCHEM_GHOSE_FILTER>
0

> <JCHEM_IUPAC>
(3R,4S,5S,6R,7R,9R,11S,12R,13S,14R)-6-{[(2S,3R,4S,6R)-4-(dimethylamino)-3-hydroxy-6-methyloxan-2-yl]oxy}-14-ethyl-7,12,13-trihydroxy-4-{[(2R,4R,5S,6S)-5-hydroxy-4-methoxy-4,6-dimethyloxan-2-yl]oxy}-3,5,7,9,11,13-hexamethyl-10-(2,4,7-trioxa-1-azaoctan-1-ylidene)-1-oxacyclotetradecan-2-one

> <ALOGPS_LOGP>
2.90

> <JCHEM_LOGP>
2.9999792816666657

> <ALOGPS_LOGS>
-3.65

> <JCHEM_MDDR_LIKE_RULE>
1

> <JCHEM_NUMBER_OF_RINGS>
3

> <JCHEM_PHYSIOLOGICAL_CHARGE>
1

> <JCHEM_PKA>
12.92600080812036

> <JCHEM_PKA_STRONGEST_ACIDIC>
12.454023231880175

> <JCHEM_PKA_STRONGEST_BASIC>
9.07976724746385

> <JCHEM_POLAR_SURFACE_AREA>
216.88999999999993

> <JCHEM_REFRACTIVITY>
211.23760000000007

> <JCHEM_ROTATABLE_BOND_COUNT>
13

> <JCHEM_RULE_OF_FIVE>
0

> <ALOGPS_SOLUBILITY>
1.87e-01 g/l

> <JCHEM_TRADITIONAL_IUPAC>
roxiβ

> <JCHEM_VEBER_RULE>
0

> <DRUGBANK_ID>
DB00778

> <SECONDARY_ACCESSION_NUMBERS>
APRD01305

> <DRUG_GROUPS>
approved; withdrawn

> <GENERIC_NAME>
Roxithromycin

> <SYNONYMS>
Roxithromycin; Roxithromycine; Roxithromycinum; Roxitromicina

> <INTERNATIONAL_BRANDS>
Acevor; Actirox; Ai Luo Xin; Allolide; Ammirox; Anti-Bio; Ao Ge Shen; Aparox; Arbid; Aroxe; Asmetic; Assoral; Aswad; Azuril; Bazuctril; BD-Rox; Bei Ke; Bei Sha; Bi Ai Di; Biaxsig; Bicofen; Biostatik; Claramid; Coroxin; Delitroxin; Delos; Dorolid; Elrox; Erybros; Eslid; Guamil; Heng Te; Hycin; I-Throcin; Infectoroxit; Inrox; Ixor; Klomicina; Ladlid; Lang Su; Le Er Tai; Le Xi Qing; Li Fu; Lizhuxing; Ludin; Luo Jun Qing; Luo Shi Li; Luo Si Mei; Luprex; Macrol; Macrolid; Marulide; Neo-Suxigal; Nirox; Odirox; Overal; Pedilid; Pedrox; Pinsheng; Plethirox; Poliroxin; Pu Hong; Pymeroxitil; Qi Wei; Ramivan; Redotrin; Remora; Ren Su; Renicin; Ridinfect; Ritosin; Rocin; Rokithrid; Roksimin; Rolexit; Rolicyn; Romac; Romicin; Romycin; Romyk; Ropit; Rossitrol; Rothricin; Rotram; Rovenal; Roxamed; Roxar; Roxcin; Roxemicin; Roxeptin; Roxetomin; Roxi; Roxi-Fatol; Roxi-Puren; Roxi-Q; Roxi-saar; Roxibest; Roxibeta; Roxibron; Roxicin; Roxicur; Roxicure; Roxid; Roxide; Roxidura; Roxigamma; Roxigrün; Roxihexal; Roxikid; Roxil; Roxilan; Roximac; Roximain; Roximax; Roximed; Roximerck; Roximic; Roximin; Roximisan; Roximol; Roximycin; Roxinga; Roxinox; Roxiratio; Roxirocin; Roxisara; Roxistad; Roxitas; Roxitazon; Roxithrin; Roxithro; Roxithrostad; Roxitil; Roxitin; Roxitis; Roxitop; Roxitran; Roxitrom; Roxitromycine; Roxitron; Roxivar; Roxivinol; Roxivista; Roxl-150; Roxo; Roxomycin; Roxy; Roxy-150; Rulid; Rulide; Rulide D; Surlid; Tirabicin; Xthrocin

$$$$
793
  Mrv0541 02231215002D          

 14 14  0  0  0  0            999 V2000
    3.7934    3.0938    0.0000 I   0  0  0  0  0  0  0  0  0  0  0  0
    1.6500   -0.6188    0.0000 Cl  0  0  0  0  0  0  0  0  0  0  0  0
    4.5079   -2.2688    0.0000 Cl  0  0  0  0  0  0  0  0  0  0  0  0
    3.0790   -3.0938    0.0000 Cl  0  0  0  0  0  0  0  0  0  0  0  0
    3.0790    0.2063    0.0000 O   0  0  0  0  0  0  0  0  0  0  0  0
    3.0790   -0.6188    0.0000 C   0  0  0  0  0  0  0  0  0  0  0  0
    2.3644   -1.0313    0.0000 C   0  0  0  0  0  0  0  0  0  0  0  0
    3.7934   -1.0313    0.0000 C   0  0  0  0  0  0  0  0  0  0  0  0
    3.7934   -1.8563    0.0000 C   0  0  0  0  0  0  0  0  0  0  0  0
    2.3644   -1.8563    0.0000 C   0  0  0  0  0  0  0  0  0  0  0  0
    3.0790   -2.2688    0.0000 C   0  0  0  0  0  0  0  0  0  0  0  0
    3.7934    0.6188    0.0000 C   0  0  0  0  0  0  0  0  0  0  0  0
    3.7934    1.4438    0.0000 C   0  0  0  0  0  0  0  0  0  0  0  0
    3.7934    2.2688    0.0000 C   0  0  0  0  0  0  0  0  0  0  0  0
  1 14  1  0  0  0  0
  2  7  1  0  0  0  0
  3  9  1  0  0  0  0
  4 11  1  0  0  0  0
  5  6  1  0  0  0  0
  5 12  1  0  0  0  0
  6  7  1  0  0  0  0
  6  8  2  0  0  0  0
  7 10  2  0  0  0  0
  8  9  1  0  0  0  0
  9 11  2  0  0  0  0
 10 11  1  0  0  0  0
 12 13  1  0  0  0  0
 13 14  3  0  0  0  0
M  END
> <DATABASE_ID>
DB00793

> <DATABASE_NAME>
drugbank

> <SMILES>
ClC1=CC(Cl)=C(Cl)C=C1OCC#CI

> <INCHI_IDENTIFIER>
InChI=1S/C9H4Cl3IO/c10-6-4-8(12)9(5-7(6)11)14-3-1-2-13/h4-5H,3H2

> <INCHI_KEY>
CTETYYAZBPJBHE-UHFFFAOYSA-N

> <FORMULA>
C9H4Cl3IO

> <MOLECULAR_WEIGHT>
361.391

> <EXACT_MASS>
359.837241291

> <JCHEM_ACCEPTOR_COUNT>
1

> <JCHEM_AVERAGE_POLARIZABILITY>
26.81779081943042

> <JCHEM_BIOAVAILABILITY>
1

> <JCHEM_DONOR_COUNT>
0

> <JCHEM_FORMAL_CHARGE>
0

> <JCHEM_GHOSE_FILTER>
0

> <JCHEM_IUPAC>
1,2,4-trichloro-5-[(3-iodoprop-2-yn-1-yl)oxy]benzene

> <ALOGPS_LOGP>
4.69

> <JCHEM_LOGP>
4.8453

> <ALOGPS_LOGS>
-4.78

> <JCHEM_MDDR_LIKE_RULE>
0

> <JCHEM_NUMBER_OF_RINGS>
1

> <JCHEM_PHYSIOLOGICAL_CHARGE>
0

> <JCHEM_PKA_STRONGEST_BASIC>
-4.962264068206132

> <JCHEM_POLAR_SURFACE_AREA>
9.23

> <JCHEM_REFRACTIVITY>
66.87900000000002

> <JCHEM_ROTATABLE_BOND_COUNT>
3

> <JCHEM_RULE_OF_FIVE>
1

> <ALOGPS_SOLUBILITY>
6.01e-03 g/l

> <JCHEM_TRADITIONAL_IUPAC>
haloprogin

> <JCHEM_VEBER_RULE>
1

> <DRUGBANK_ID>
DB00793

> <SECONDARY_ACCESSION_NUMBERS>
APRD01011

> <DRUG_GROUPS>
approved; withdrawn

> <GENERIC_NAME>
Haloprogin

> <SYNONYMS>
Haloprogin; Haloprogina; Haloprogine; Haloproginum

> <INTERNATIONAL_BRANDS>
Aloprogen; Halotex; Mycanden; Mycilan; Polik

$$$$
801
  Mrv0541 02231215012D          

 24 26  0  0  0  0            999 V2000
    4.0267   -2.3989    0.0000 Cl  0  0  0  0  0  0  0  0  0  0  0  0
    2.8159    2.2807    0.0000 F   0  0  0  0  0  0  0  0  0  0  0  0
    1.6936    1.0712    0.0000 F   0  0  0  0  0  0  0  0  0  0  0  0
    1.6500    2.2371    0.0000 F   0  0  0  0  0  0  0  0  0  0  0  0
    4.2399    2.3989    0.0000 O   0  0  0  0  0  0  0  0  0  0  0  0
    3.6638    0.9312    0.0000 N   0  0  0  0  0  0  0  0  0  0  0  0
    5.5176    0.9312    0.0000 N   0  0  0  0  0  0  0  0  0  0  0  0
    3.8475    0.1269    0.0000 C   0  0  0  0  0  0  0  0  0  0  0  0
    4.5907   -0.2311    0.0000 C   0  0  0  0  0  0  0  0  0  0  0  0
    2.8595    1.1148    0.0000 C   0  0  0  0  0  0  0  0  0  0  0  0
    5.3340    0.1269    0.0000 C   0  0  0  0  0  0  0  0  0  0  0  0
    4.1782    1.5762    0.0000 C   0  0  0  0  0  0  0  0  0  0  0  0
    5.0032    1.5762    0.0000 C   0  0  0  0  0  0  0  0  0  0  0  0
    3.1301   -0.3462    0.0000 C   0  0  0  0  0  0  0  0  0  0  0  0
    4.6682   -1.0869    0.0000 C   0  0  0  0  0  0  0  0  0  0  0  0
    5.9790   -0.3875    0.0000 C   0  0  0  0  0  0  0  0  0  0  0  0
    2.2548    1.6759    0.0000 C   0  0  0  0  0  0  0  0  0  0  0  0
    3.1876   -1.2036    0.0000 C   0  0  0  0  0  0  0  0  0  0  0  0
    3.9619   -1.5765    0.0000 C   0  0  0  0  0  0  0  0  0  0  0  0
    6.7470   -0.0860    0.0000 C   0  0  0  0  0  0  0  0  0  0  0  0
    5.8561   -1.2033    0.0000 C   0  0  0  0  0  0  0  0  0  0  0  0
    7.3920   -0.6004    0.0000 C   0  0  0  0  0  0  0  0  0  0  0  0
    6.5011   -1.7176    0.0000 C   0  0  0  0  0  0  0  0  0  0  0  0
    7.2691   -1.4163    0.0000 C   0  0  0  0  0  0  0  0  0  0  0  0
  1 19  1  0  0  0  0
  2 17  1  0  0  0  0
  3 17  1  0  0  0  0
  4 17  1  0  0  0  0
  5 12  2  0  0  0  0
  6  8  1  0  0  0  0
  6 10  1  0  0  0  0
  6 12  1  0  0  0  0
  7 11  2  0  0  0  0
  7 13  1  0  0  0  0
  8  9  2  0  0  0  0
  8 14  1  0  0  0  0
  9 11  1  0  0  0  0
  9 15  1  0  0  0  0
 10 17  1  0  0  0  0
 11 16  1  0  0  0  0
 12 13  1  0  0  0  0
 14 18  2  0  0  0  0
 15 19  2  0  0  0  0
 16 20  2  0  0  0  0
 16 21  1  0  0  0  0
 18 19  1  0  0  0  0
 20 22  1  0  0  0  0
 21 23  2  0  0  0  0
 22 24  2  0  0  0  0
 23 24  1  0  0  0  0
M  END
> <DATABASE_ID>
DB00801

> <DATABASE_NAME>
drugbank

> <SMILES>
FC(F)(F)CN1C2=C(C=C(Cl)C=C2)C(=NCC1=O)C1=CC=CC=C1

> <INCHI_IDENTIFIER>
InChI=1S/C17H12ClF3N2O/c18-12-6-7-14-13(8-12)16(11-4-2-1-3-5-11)22-9-15(24)23(14)10-17(19,20)21/h1-8H,9-10H2

> <INCHI_KEY>
WYCLKVQLVUQKNZ-UHFFFAOYSA-N

> <FORMULA>
C17H12ClF3N2O

> <MOLECULAR_WEIGHT>
352.738

> <EXACT_MASS>
352.059025338

> <JCHEM_ACCEPTOR_COUNT>
2

> <JCHEM_AVERAGE_POLARIZABILITY>
31.824300722372104

> <JCHEM_BIOAVAILABILITY>
1

> <JCHEM_DONOR_COUNT>
0

> <JCHEM_FORMAL_CHARGE>
0

> <JCHEM_GHOSE_FILTER>
1

> <JCHEM_IUPAC>
7-chloro-5-phenyl-1-(2,2,2-trifluoroethyl)-2,3-dihydro-1H-1,4-benzodiazepin-2-one

> <ALOGPS_LOGP>
3.52

> <JCHEM_LOGP>
4.0311828043333335

> <ALOGPS_LOGS>
-5.32

> <JCHEM_MDDR_LIKE_RULE>
0

> <JCHEM_NUMBER_OF_RINGS>
3

> <JCHEM_PHYSIOLOGICAL_CHARGE>
0

> <JCHEM_PKA_STRONGEST_ACIDIC>
18.878327984730664

> <JCHEM_PKA_STRONGEST_BASIC>
2.3251494399058754

> <JCHEM_POLAR_SURFACE_AREA>
32.67

> <JCHEM_REFRACTIVITY>
85.26200000000001

> <JCHEM_ROTATABLE_BOND_COUNT>
3

> <JCHEM_RULE_OF_FIVE>
1

> <ALOGPS_SOLUBILITY>
1.70e-03 g/l

> <JCHEM_TRADITIONAL_IUPAC>
halazepam

> <JCHEM_VEBER_RULE>
1

> <DRUGBANK_ID>
DB00801

> <SECONDARY_ACCESSION_NUMBERS>
APRD01009

> <DRUG_GROUPS>
approved; illicit; withdrawn

> <GENERIC_NAME>
Halazepam

> <SYNONYMS>
Halazépam; Halazepam; Halazepamum

> <INTERNATIONAL_BRANDS>
Alapryl; Pacinone; Paxipam

$$$$
821
  Mrv0541 02231215022D          

 19 21  0  0  1  0            999 V2000
    1.5842   -1.3784    0.0000 Cl  0  0  0  0  0  0  0  0  0  0  0  0
    7.9413   -0.2544    0.0000 O   0  0  0  0  0  0  0  0  0  0  0  0
    6.9253   -1.1762    0.0000 O   0  0  0  0  0  0  0  0  0  0  0  0
    3.8588    0.8874    0.0000 N   0  0  0  0  0  0  0  0  0  0  0  0
    4.2548   -0.3315    0.0000 C   0  0  0  0  0  0  0  0  0  0  0  0
    4.4997    0.4218    0.0000 C   0  0  0  0  0  0  0  0  0  0  0  0
    3.4628   -0.3315    0.0000 C   0  0  0  0  0  0  0  0  0  0  0  0
    5.8607   -0.0031    0.0000 C   0  0  0  0  0  0  0  0  0  0  0  0
    3.2180    0.4218    0.0000 C   0  0  0  0  0  0  0  0  0  0  0  0
    6.6348    0.1646    0.0000 C   0  0  0  0  0  0  0  0  0  0  0  0
    5.3039    0.6058    0.0000 C   0  0  0  0  0  0  0  0  0  0  0  0
    4.7974   -0.9531    0.0000 C   0  0  0  0  0  0  0  0  0  0  0  0
    5.6057   -0.7878    0.0000 C   0  0  0  0  0  0  0  0  0  0  0  0
    2.9203   -0.9531    0.0000 C   0  0  0  0  0  0  0  0  0  0  0  0
    2.4137    0.6058    0.0000 C   0  0  0  0  0  0  0  0  0  0  0  0
    6.8767    0.9188    0.0000 C   0  0  0  0  0  0  0  0  0  0  0  0
    2.1119   -0.7878    0.0000 C   0  0  0  0  0  0  0  0  0  0  0  0
    7.1672   -0.4220    0.0000 C   0  0  0  0  0  0  0  0  0  0  0  0
    1.8570   -0.0031    0.0000 C   0  0  0  0  0  0  0  0  0  0  0  0
  1 17  1  0  0  0  0
  2 18  1  0  0  0  0
  3 18  2  0  0  0  0
  4  6  1  0  0  0  0
  4  9  1  0  0  0  0
  5  6  2  0  0  0  0
  5  7  1  0  0  0  0
  5 12  1  0  0  0  0
  6 11  1  0  0  0  0
  7  9  2  0  0  0  0
  7 14  1  0  0  0  0
  8 10  1  0  0  0  0
  8 11  2  0  0  0  0
  8 13  1  0  0  0  0
  9 15  1  0  0  0  0
 10 16  1  0  0  0  0
 10 18  1  0  0  0  0
 12 13  2  0  0  0  0
 14 17  2  0  0  0  0
 15 19  2  0  0  0  0
 17 19  1  0  0  0  0
M  END
> <DATABASE_ID>
DB00821

> <DATABASE_NAME>
drugbank

> <SMILES>
CC(C(O)=O)C1=CC2=C(C=C1)C1=C(N2)C=CC(Cl)=C1

> <INCHI_IDENTIFIER>
InChI=1S/C15H12ClNO2/c1-8(15(18)19)9-2-4-11-12-7-10(16)3-5-13(12)17-14(11)6-9/h2-8,17H,1H3,(H,18,19)

> <INCHI_KEY>
PUXBGTOOZJQSKH-UHFFFAOYSA-N

> <FORMULA>
C15H12ClNO2

> <MOLECULAR_WEIGHT>
273.714

> <EXACT_MASS>
273.05565634

> <JCHEM_ACCEPTOR_COUNT>
2

> <JCHEM_AVERAGE_POLARIZABILITY>
28.558252351664283

> <JCHEM_BIOAVAILABILITY>
1

> <JCHEM_DONOR_COUNT>
2

> <JCHEM_FORMAL_CHARGE>
0

> <JCHEM_GHOSE_FILTER>
1

> <JCHEM_IUPAC>
2-(6-chloro-9H-carbazol-2-yl)propanoic acid

> <ALOGPS_LOGP>
4.09

> <JCHEM_LOGP>
3.8756649333333324

> <ALOGPS_LOGS>
-4.86

> <JCHEM_MDDR_LIKE_RULE>
0

> <JCHEM_NUMBER_OF_RINGS>
3

> <JCHEM_PHYSIOLOGICAL_CHARGE>
-1

> <JCHEM_PKA>
14.80425798051407

> <JCHEM_PKA_STRONGEST_ACIDIC>
4.415797667111492

> <JCHEM_POLAR_SURFACE_AREA>
53.089999999999996

> <JCHEM_REFRACTIVITY>
74.15910000000001

> <JCHEM_ROTATABLE_BOND_COUNT>
2

> <JCHEM_RULE_OF_FIVE>
1

> <ALOGPS_SOLUBILITY>
3.79e-03 g/l

> <JCHEM_TRADITIONAL_IUPAC>
carprofen

> <JCHEM_VEBER_RULE>
0

> <DRUGBANK_ID>
DB00821

> <SECONDARY_ACCESSION_NUMBERS>
APRD00849

> <DRUG_GROUPS>
approved; vet_approved; withdrawn

> <GENERIC_NAME>
Carprofen

> <SYNONYMS>
Carprofen; Carprofène; Carprofeno; Carprofenum

> <INTERNATIONAL_BRANDS>
lmadyl; lmafen; Rimadyt

$$$$
827
  Mrv0541 02231215022D          

 19 21  0  0  0  0            999 V2000
    7.2157   -0.4535    0.0000 O   0  0  0  0  0  0  0  0  0  0  0  0
    7.2157    0.8743    0.0000 O   0  0  0  0  0  0  0  0  0  0  0  0
    4.2780    1.8890    0.0000 O   0  0  0  0  0  0  0  0  0  0  0  0
    2.0920    0.6456    0.0000 O   0  0  0  0  0  0  0  0  0  0  0  0
    2.8112    1.8803    0.0000 O   0  0  0  0  0  0  0  0  0  0  0  0
    4.2685   -0.6433    0.0000 N   0  0  0  0  0  0  0  0  0  0  0  0
    3.5210   -0.2193    0.0000 N   0  0  0  0  0  0  0  0  0  0  0  0
    5.0060   -0.2021    0.0000 C   0  0  0  0  0  0  0  0  0  0  0  0
    5.0060    0.6229    0.0000 C   0  0  0  0  0  0  0  0  0  0  0  0
    6.4350   -0.2021    0.0000 C   0  0  0  0  0  0  0  0  0  0  0  0
    5.7205   -0.6146    0.0000 C   0  0  0  0  0  0  0  0  0  0  0  0
    6.4350    0.6229    0.0000 C   0  0  0  0  0  0  0  0  0  0  0  0
    5.7205    1.0354    0.0000 C   0  0  0  0  0  0  0  0  0  0  0  0
    4.2780   -1.4682    0.0000 C   0  0  0  0  0  0  0  0  0  0  0  0
    4.2685    1.0640    0.0000 C   0  0  0  0  0  0  0  0  0  0  0  0
    3.5210    0.6400    0.0000 C   0  0  0  0  0  0  0  0  0  0  0  0
    7.6972    0.2104    0.0000 C   0  0  0  0  0  0  0  0  0  0  0  0
    3.5684   -1.8890    0.0000 C   0  0  0  0  0  0  0  0  0  0  0  0
    2.8081    1.0553    0.0000 C   0  0  0  0  0  0  0  0  0  0  0  0
  1 10  1  0  0  0  0
  1 17  1  0  0  0  0
  2 12  1  0  0  0  0
  2 17  1  0  0  0  0
  3 15  2  0  0  0  0
  4 19  1  0  0  0  0
  5 19  2  0  0  0  0
  6  7  1  0  0  0  0
  6  8  1  0  0  0  0
  6 14  1  0  0  0  0
  7 16  2  0  0  0  0
  8  9  1  0  0  0  0
  8 11  2  0  0  0  0
  9 13  2  0  0  0  0
  9 15  1  0  0  0  0
 10 11  1  0  0  0  0
 10 12  2  0  0  0  0
 12 13  1  0  0  0  0
 14 18  1  0  0  0  0
 15 16  1  0  0  0  0
 16 19  1  0  0  0  0
M  END
> <DATABASE_ID>
DB00827

> <DATABASE_NAME>
drugbank

> <SMILES>
CCN1N=C(C(O)=O)C(=O)C2=CC3=C(OCO3)C=C12

> <INCHI_IDENTIFIER>
InChI=1S/C12H10N2O5/c1-2-14-7-4-9-8(18-5-19-9)3-6(7)11(15)10(13-14)12(16)17/h3-4H,2,5H2,1H3,(H,16,17)

> <INCHI_KEY>
VDUWPHTZYNWKRN-UHFFFAOYSA-N

> <FORMULA>
C12H10N2O5

> <MOLECULAR_WEIGHT>
262.2182

> <EXACT_MASS>
262.05897144

> <JCHEM_ACCEPTOR_COUNT>
7

> <JCHEM_AVERAGE_POLARIZABILITY>
24.72192384473809

> <JCHEM_BIOAVAILABILITY>
1

> <JCHEM_DONOR_COUNT>
1

> <JCHEM_FORMAL_CHARGE>
0

> <JCHEM_GHOSE_FILTER>
1

> <JCHEM_IUPAC>
1-ethyl-4-oxo-1H,4H,7H-[1,3]dioxolo[4,5-g]cinnoline-3-carboxylic acid

> <ALOGPS_LOGP>
1.25

> <JCHEM_LOGP>
1.716116835333333

> <ALOGPS_LOGS>
-2.44

> <JCHEM_MDDR_LIKE_RULE>
0

> <JCHEM_NUMBER_OF_RINGS>
3

> <JCHEM_PHYSIOLOGICAL_CHARGE>
-1

> <JCHEM_PKA_STRONGEST_ACIDIC>
4.930532150363794

> <JCHEM_PKA_STRONGEST_BASIC>
-4.626802411018023

> <JCHEM_POLAR_SURFACE_AREA>
88.43

> <JCHEM_REFRACTIVITY>
73.6022

> <JCHEM_ROTATABLE_BOND_COUNT>
2

> <JCHEM_RULE_OF_FIVE>
1

> <ALOGPS_SOLUBILITY>
9.61e-01 g/l

> <JCHEM_TRADITIONAL_IUPAC>
cinoxacin

> <JCHEM_VEBER_RULE>
0

> <DRUGBANK_ID>
DB00827

> <SECONDARY_ACCESSION_NUMBERS>
APRD00873

> <DRUG_GROUPS>
approved; withdrawn

> <GENERIC_NAME>
Cinoxacin

> <SYNONYMS>
Cinoxacin; Cinoxacine; Cinoxacino; Cinoxacinum

> <INTERNATIONAL_BRANDS>
Cinobac; Mecicon; Tatsulexin; Urocinox

$$$$
848
  Mrv0541 02231215032D          

 14 16  0  0  1  0            999 V2000
    6.1753   -0.6639    0.0000 S   0  0  0  0  0  0  0  0  0  0  0  0
    5.3946    0.4125    0.0000 N   0  0  0  0  0  0  0  0  0  0  0  0
    4.6100   -0.6674    0.0000 N   0  0  0  0  0  0  0  0  0  0  0  0
    4.6100    0.6674    0.0000 C   0  0  0  0  0  0  0  0  0  0  0  0
    4.1251    0.0000    0.0000 C   0  0  2  0  0  0  0  0  0  0  0  0
    6.1753    0.6639    0.0000 C   0  0  0  0  0  0  0  0  0  0  0  0
    5.3946   -0.4125    0.0000 C   0  0  0  0  0  0  0  0  0  0  0  0
    6.6568    0.0000    0.0000 C   0  0  0  0  0  0  0  0  0  0  0  0
    3.3001    0.0000    0.0000 C   0  0  0  0  0  0  0  0  0  0  0  0
    2.8876   -0.7145    0.0000 C   0  0  0  0  0  0  0  0  0  0  0  0
    2.8876    0.7145    0.0000 C   0  0  0  0  0  0  0  0  0  0  0  0
    2.0625   -0.7145    0.0000 C   0  0  0  0  0  0  0  0  0  0  0  0
    2.0625    0.7145    0.0000 C   0  0  0  0  0  0  0  0  0  0  0  0
    1.6500    0.0000    0.0000 C   0  0  0  0  0  0  0  0  0  0  0  0
  1  7  1  0  0  0  0
  1  8  1  0  0  0  0
  2  4  1  0  0  0  0
  2  6  1  0  0  0  0
  2  7  1  0  0  0  0
  3  5  1  0  0  0  0
  3  7  2  0  0  0  0
  4  5  1  0  0  0  0
  5  9  1  1  0  0  0
  6  8  1  0  0  0  0
  9 10  2  0  0  0  0
  9 11  1  0  0  0  0
 10 12  1  0  0  0  0
 11 13  2  0  0  0  0
 12 14  2  0  0  0  0
 13 14  1  0  0  0  0
M  END
> <DATABASE_ID>
DB00848

> <DATABASE_NAME>
drugbank

> <SMILES>
C1CN2C[C@@H](N=C2S1)C1=CC=CC=C1

> <INCHI_IDENTIFIER>
InChI=1S/C11H12N2S/c1-2-4-9(5-3-1)10-8-13-6-7-14-11(13)12-10/h1-5,10H,6-8H2/t10-/m1/s1

> <INCHI_KEY>
HLFSDGLLUJUHTE-SNVBAGLBSA-N

> <FORMULA>
C11H12N2S

> <MOLECULAR_WEIGHT>
204.291

> <EXACT_MASS>
204.072119084

> <JCHEM_ACCEPTOR_COUNT>
2

> <JCHEM_AVERAGE_POLARIZABILITY>
22.352427742945707

> <JCHEM_BIOAVAILABILITY>
1

> <JCHEM_DONOR_COUNT>
0

> <JCHEM_FORMAL_CHARGE>
0

> <JCHEM_GHOSE_FILTER>
1

> <JCHEM_IUPAC>
(6S)-6-phenyl-2H,3H,5H,6H-imidazo[2,1-b][1,3]thiazole

> <ALOGPS_LOGP>
2.20

> <JCHEM_LOGP>
2.3582269016666664

> <ALOGPS_LOGS>
-2.15

> <JCHEM_MDDR_LIKE_RULE>
0

> <JCHEM_NUMBER_OF_RINGS>
3

> <JCHEM_PHYSIOLOGICAL_CHARGE>
0

> <JCHEM_PKA_STRONGEST_BASIC>
6.975299007898724

> <JCHEM_POLAR_SURFACE_AREA>
15.6

> <JCHEM_REFRACTIVITY>
60.078400000000016

> <JCHEM_ROTATABLE_BOND_COUNT>
1

> <JCHEM_RULE_OF_FIVE>
1

> <ALOGPS_SOLUBILITY>
1.44e+00 g/l

> <JCHEM_TRADITIONAL_IUPAC>
levamisole

> <JCHEM_VEBER_RULE>
1

> <DRUGBANK_ID>
DB00848

> <SECONDARY_ACCESSION_NUMBERS>
APRD01067

> <DRUG_GROUPS>
vet_approved; withdrawn

> <GENERIC_NAME>
Levamisole

> <SYNONYMS>
Levamisol; Levamisolum

> <PRODUCTS>
Ergamisol Tab 50mg; Novo-levamisole

> <INTERNATIONAL_BRANDS>
Ergamisol; Ketrax

> <SALTS>
Levamisole hydrochloride; Levamisole phosphate; Levamisole resinate

$$$$
856
  Mrv0541 02231215032D          

 13 13  0  0  1  0            999 V2000
    2.3645   -3.0154    0.0000 Cl  0  0  0  0  0  0  0  0  0  0  0  0
    2.3645    0.2846    0.0000 O   0  0  0  0  0  0  0  0  0  0  0  0
    2.3645    1.9346    0.0000 O   0  0  0  0  0  0  0  0  0  0  0  0
    3.7934    2.7596    0.0000 O   0  0  0  0  0  0  0  0  0  0  0  0
    3.0790    1.5221    0.0000 C   0  0  0  0  0  0  0  0  0  0  0  0
    3.0790    0.6971    0.0000 C   0  0  0  0  0  0  0  0  0  0  0  0
    3.7934    1.9346    0.0000 C   0  0  0  0  0  0  0  0  0  0  0  0
    2.3645   -0.5404    0.0000 C   0  0  0  0  0  0  0  0  0  0  0  0
    3.0790   -0.9529    0.0000 C   0  0  0  0  0  0  0  0  0  0  0  0
    1.6500   -0.9529    0.0000 C   0  0  0  0  0  0  0  0  0  0  0  0
    3.0790   -1.7779    0.0000 C   0  0  0  0  0  0  0  0  0  0  0  0
    1.6500   -1.7779    0.0000 C   0  0  0  0  0  0  0  0  0  0  0  0
    2.3645   -2.1904    0.0000 C   0  0  0  0  0  0  0  0  0  0  0  0
  1 13  1  0  0  0  0
  2  6  1  0  0  0  0
  2  8  1  0  0  0  0
  3  5  1  0  0  0  0
  4  7  1  0  0  0  0
  5  6  1  0  0  0  0
  5  7  1  0  0  0  0
  8  9  2  0  0  0  0
  8 10  1  0  0  0  0
  9 11  1  0  0  0  0
 10 12  2  0  0  0  0
 11 13  2  0  0  0  0
 12 13  1  0  0  0  0
M  END
> <DATABASE_ID>
DB00856

> <DATABASE_NAME>
drugbank

> <SMILES>
OCC(O)COC1=CC=C(Cl)C=C1

> <INCHI_IDENTIFIER>
InChI=1S/C9H11ClO3/c10-7-1-3-9(4-2-7)13-6-8(12)5-11/h1-4,8,11-12H,5-6H2

> <INCHI_KEY>
MXOAEAUPQDYUQM-UHFFFAOYSA-N

> <FORMULA>
C9H11ClO3

> <MOLECULAR_WEIGHT>
202.635

> <EXACT_MASS>
202.039671925

> <JCHEM_ACCEPTOR_COUNT>
3

> <JCHEM_AVERAGE_POLARIZABILITY>
20.104499702005157

> <JCHEM_BIOAVAILABILITY>
1

> <JCHEM_DONOR_COUNT>
2

> <JCHEM_FORMAL_CHARGE>
0

> <JCHEM_GHOSE_FILTER>
1

> <JCHEM_IUPAC>
3-(4-chlorophenoxy)propane-1,2-diol

> <ALOGPS_LOGP>
1.46

> <JCHEM_LOGP>
1.0991822726666667

> <ALOGPS_LOGS>
-1.29

> <JCHEM_MDDR_LIKE_RULE>
0

> <JCHEM_NUMBER_OF_RINGS>
1

> <JCHEM_PHYSIOLOGICAL_CHARGE>
0

> <JCHEM_PKA>
15.562425998831763

> <JCHEM_PKA_STRONGEST_ACIDIC>
13.624307810791905

> <JCHEM_PKA_STRONGEST_BASIC>
-2.9686164080737774

> <JCHEM_POLAR_SURFACE_AREA>
49.69

> <JCHEM_REFRACTIVITY>
49.58080000000002

> <JCHEM_ROTATABLE_BOND_COUNT>
4

> <JCHEM_RULE_OF_FIVE>
1

> <ALOGPS_SOLUBILITY>
1.04e+01 g/l

> <JCHEM_TRADITIONAL_IUPAC>
chlorphenesin

> <JCHEM_VEBER_RULE>
0

> <DRUGBANK_ID>
DB00856

> <SECONDARY_ACCESSION_NUMBERS>
APRD00867

> <DRUG_GROUPS>
approved; vet_approved; withdrawn

> <GENERIC_NAME>
Chlorphenesin

> <SYNONYMS>
Chlorphenesin; Chlorphénésine; Chlorphenesinum; Clorfenesina

> <PRODUCTS>
Anivy; Mycil Cream; Mycil Cream 1%; Mycil Powder; Mycil Powder 1%

> <INTERNATIONAL_BRANDS>
Kolpicortin; Maolate; Rinlaxer

> <SALTS>
Chlorphenesin carbamate

$$$$
866
  Mrv0541 02231215042D          

 18 18  0  0  1  0            999 V2000
    4.5080   -0.6188    0.0000 O   0  0  0  0  0  0  0  0  0  0  0  0
    4.5080    1.0313    0.0000 O   0  0  0  0  0  0  0  0  0  0  0  0
    5.9370    1.8563    0.0000 N   0  0  0  0  0  0  0  0  0  0  0  0
    5.2224    0.6188    0.0000 C   0  0  0  0  0  0  0  0  0  0  0  0
    5.9370    1.0313    0.0000 C   0  0  0  0  0  0  0  0  0  0  0  0
    6.6515    2.2688    0.0000 C   0  0  0  0  0  0  0  0  0  0  0  0
    5.2224   -0.2063    0.0000 C   0  0  0  0  0  0  0  0  0  0  0  0
    7.3659    1.8563    0.0000 C   0  0  0  0  0  0  0  0  0  0  0  0
    6.6515    3.0938    0.0000 C   0  0  0  0  0  0  0  0  0  0  0  0
    4.5080   -1.4438    0.0000 C   0  0  0  0  0  0  0  0  0  0  0  0
    3.7935   -1.8563    0.0000 C   0  0  0  0  0  0  0  0  0  0  0  0
    3.0791   -1.4438    0.0000 C   0  0  0  0  0  0  0  0  0  0  0  0
    5.2224   -1.8563    0.0000 C   0  0  0  0  0  0  0  0  0  0  0  0
    3.7935   -2.6813    0.0000 C   0  0  0  0  0  0  0  0  0  0  0  0
    5.2224   -2.6813    0.0000 C   0  0  0  0  0  0  0  0  0  0  0  0
    4.5080   -3.0938    0.0000 C   0  0  0  0  0  0  0  0  0  0  0  0
    2.3645   -1.8563    0.0000 C   0  0  0  0  0  0  0  0  0  0  0  0
    1.6500   -1.4438    0.0000 C   0  0  0  0  0  0  0  0  0  0  0  0
  1  7  1  0  0  0  0
  1 10  1  0  0  0  0
  2  4  1  0  0  0  0
  3  5  1  0  0  0  0
  3  6  1  0  0  0  0
  4  5  1  0  0  0  0
  4  7  1  0  0  0  0
  6  8  1  0  0  0  0
  6  9  1  0  0  0  0
 10 11  1  0  0  0  0
 10 13  2  0  0  0  0
 11 12  1  0  0  0  0
 11 14  2  0  0  0  0
 12 17  1  0  0  0  0
 13 15  1  0  0  0  0
 14 16  1  0  0  0  0
 15 16  2  0  0  0  0
 17 18  2  0  0  0  0
M  END
> <DATABASE_ID>
DB00866

> <DATABASE_NAME>
drugbank

> <SMILES>
CC(C)NCC(O)COC1=CC=CC=C1CC=C

> <INCHI_IDENTIFIER>
InChI=1S/C15H23NO2/c1-4-7-13-8-5-6-9-15(13)18-11-14(17)10-16-12(2)3/h4-6,8-9,12,14,16-17H,1,7,10-11H2,2-3H3

> <INCHI_KEY>
PAZJSJFMUHDSTF-UHFFFAOYSA-N

> <FORMULA>
C15H23NO2

> <MOLECULAR_WEIGHT>
249.3486

> <EXACT_MASS>
249.172878985

> <JCHEM_ACCEPTOR_COUNT>
3

> <JCHEM_AVERAGE_POLARIZABILITY>
29.383222905592554

> <JCHEM_BIOAVAILABILITY>
1

> <JCHEM_DONOR_COUNT>
2

> <JCHEM_FORMAL_CHARGE>
0

> <JCHEM_GHOSE_FILTER>
1

> <JCHEM_IUPAC>
1-[2-(prop-2-en-1-yl)phenoxy]-3-[(propan-2-yl)amino]propan-2-ol

> <ALOGPS_LOGP>
2.59

> <JCHEM_LOGP>
2.6927899056666664

> <ALOGPS_LOGS>
-3.12

> <JCHEM_MDDR_LIKE_RULE>
0

> <JCHEM_NUMBER_OF_RINGS>
1

> <JCHEM_PHYSIOLOGICAL_CHARGE>
1

> <JCHEM_PKA_STRONGEST_ACIDIC>
14.087952044634939

> <JCHEM_PKA_STRONGEST_BASIC>
9.666166510504235

> <JCHEM_POLAR_SURFACE_AREA>
41.49

> <JCHEM_REFRACTIVITY>
74.66280000000002

> <JCHEM_ROTATABLE_BOND_COUNT>
8

> <JCHEM_RULE_OF_FIVE>
1

> <ALOGPS_SOLUBILITY>
1.88e-01 g/l

> <JCHEM_TRADITIONAL_IUPAC>
1-(isopropylamino)-3-[2-(prop-2-en-1-yl)phenoxy]propan-2-ol

> <JCHEM_VEBER_RULE>
0

> <DRUGBANK_ID>
DB00866

> <SECONDARY_ACCESSION_NUMBERS>
APRD00736

> <DRUG_GROUPS>
approved; withdrawn

> <GENERIC_NAME>
Alprenolol

> <SYNONYMS>
(RS)-1-(2-allylphenoxy)-3-(isopropylamino)propan-2-ol; Alfeprol; Alprenolol; Alprénolol ; Alprenololum; Aprenololo

> <INTERNATIONAL_BRANDS>
Apllobal; Aptin; Aptine; Aptol Duriles; Atenenol; Elp; Gubernal; Regletin; Skajilol; Yobir

> <SALTS>
Alprenolol hydrochloride

$$$$
870
  Mrv0541 02231215042D          

 18 19  0  0  1  0            999 V2000
    3.8797    2.9274    0.0000 S   0  0  0  0  0  0  0  0  0  0  0  0
    2.3645   -2.8432    0.0000 O   0  0  0  0  0  0  0  0  0  0  0  0
    1.6500   -1.6056    0.0000 O   0  0  0  0  0  0  0  0  0  0  0  0
    2.3645    2.1069    0.0000 O   0  0  0  0  0  0  0  0  0  0  0  0
    3.0790   -1.6056    0.0000 C   0  0  0  0  0  0  0  0  0  0  0  0
    3.0790   -0.7806    0.0000 C   0  0  0  0  0  0  0  0  0  0  0  0
    2.3645   -0.3681    0.0000 C   0  0  0  0  0  0  0  0  0  0  0  0
    3.7935   -0.3681    0.0000 C   0  0  0  0  0  0  0  0  0  0  0  0
    3.0790    0.8694    0.0000 C   0  0  0  0  0  0  0  0  0  0  0  0
    3.7935   -2.0181    0.0000 C   0  0  0  0  0  0  0  0  0  0  0  0
    2.3645    0.4569    0.0000 C   0  0  0  0  0  0  0  0  0  0  0  0
    3.7935    0.4569    0.0000 C   0  0  0  0  0  0  0  0  0  0  0  0
    2.3645   -2.0181    0.0000 C   0  0  0  0  0  0  0  0  0  0  0  0
    3.0790    1.6944    0.0000 C   0  0  0  0  0  0  0  0  0  0  0  0
    3.7935    2.1069    0.0000 C   0  0  0  0  0  0  0  0  0  0  0  0
    4.5471    1.7713    0.0000 C   0  0  0  0  0  0  0  0  0  0  0  0
    5.0992    2.3845    0.0000 C   0  0  0  0  0  0  0  0  0  0  0  0
    4.6867    3.0989    0.0000 C   0  0  0  0  0  0  0  0  0  0  0  0
  1 15  1  0  0  0  0
  1 18  1  0  0  0  0
  2 13  1  0  0  0  0
  3 13  2  0  0  0  0
  4 14  2  0  0  0  0
  5  6  1  0  0  0  0
  5 10  1  0  0  0  0
  5 13  1  0  0  0  0
  6  7  2  0  0  0  0
  6  8  1  0  0  0  0
  7 11  1  0  0  0  0
  8 12  2  0  0  0  0
  9 11  2  0  0  0  0
  9 12  1  0  0  0  0
  9 14  1  0  0  0  0
 14 15  1  0  0  0  0
 15 16  2  0  0  0  0
 16 17  1  0  0  0  0
 17 18  2  0  0  0  0
M  END
> <DATABASE_ID>
DB00870

> <DATABASE_NAME>
drugbank

> <SMILES>
CC(C(O)=O)C1=CC=C(C=C1)C(=O)C1=CC=CS1

> <INCHI_IDENTIFIER>
InChI=1S/C14H12O3S/c1-9(14(16)17)10-4-6-11(7-5-10)13(15)12-3-2-8-18-12/h2-9H,1H3,(H,16,17)

> <INCHI_KEY>
MDKGKXOCJGEUJW-UHFFFAOYSA-N

> <FORMULA>
C14H12O3S

> <MOLECULAR_WEIGHT>
260.308

> <EXACT_MASS>
260.05071494

> <JCHEM_ACCEPTOR_COUNT>
3

> <JCHEM_AVERAGE_POLARIZABILITY>
26.838067657526643

> <JCHEM_BIOAVAILABILITY>
1

> <JCHEM_DONOR_COUNT>
1

> <JCHEM_FORMAL_CHARGE>
0

> <JCHEM_GHOSE_FILTER>
1

> <JCHEM_IUPAC>
2-[4-(thiophene-2-carbonyl)phenyl]propanoic acid

> <ALOGPS_LOGP>
3.16

> <JCHEM_LOGP>
3.526214794

> <ALOGPS_LOGS>
-3.79

> <JCHEM_MDDR_LIKE_RULE>
0

> <JCHEM_NUMBER_OF_RINGS>
2

> <JCHEM_PHYSIOLOGICAL_CHARGE>
-1

> <JCHEM_PKA_STRONGEST_ACIDIC>
4.011917248549982

> <JCHEM_PKA_STRONGEST_BASIC>
-7.805115519476987

> <JCHEM_POLAR_SURFACE_AREA>
54.37

> <JCHEM_REFRACTIVITY>
69.40550000000002

> <JCHEM_ROTATABLE_BOND_COUNT>
4

> <JCHEM_RULE_OF_FIVE>
1

> <ALOGPS_SOLUBILITY>
4.22e-02 g/l

> <JCHEM_TRADITIONAL_IUPAC>
suprofen

> <JCHEM_VEBER_RULE>
0

> <DRUGBANK_ID>
DB00870

> <SECONDARY_ACCESSION_NUMBERS>
APRD00230

> <DRUG_GROUPS>
approved; withdrawn

> <GENERIC_NAME>
Suprofen

> <SYNONYMS>
Suprofen; Suprofène; Suprofene; Suprofeno; Suprofenum

> <INTERNATIONAL_BRANDS>
Profenal; Srendam; Sulprotin; Topalgic

$$$$

  Mrv1572004221605162D          

 31 34  0  0  0  0            999 V2000
    3.5724    1.2375    0.0000 C   0  0  0  0  0  0  0  0  0  0  0  0
    3.5724    2.0625    0.0000 C   0  0  0  0  0  0  0  0  0  0  0  0
    0.7145   -0.4125    0.0000 C   0  0  0  0  0  0  0  0  0  0  0  0
    2.8579    0.8250    0.0000 C   0  0  0  0  0  0  0  0  0  0  0  0
    1.4289   -0.0000    0.0000 C   0  0  0  0  0  0  0  0  0  0  0  0
    2.8579    2.4750    0.0000 C   0  0  0  0  0  0  0  0  0  0  0  0
   -0.7145    2.0625    0.0000 C   0  0  0  0  0  0  0  0  0  0  0  0
    0.0000    2.4750    0.0000 C   0  0  0  0  0  0  0  0  0  0  0  0
    0.7145   -1.2375    0.0000 C   0  0  0  0  0  0  0  0  0  0  0  0
   -0.7145   -1.2375    0.0000 C   0  0  0  0  0  0  0  0  0  0  0  0
   -0.0000   -2.4750    0.0000 C   0  0  0  0  0  0  0  0  0  0  0  0
   -1.4289   -1.6500    0.0000 C   0  0  0  0  0  0  0  0  0  0  0  0
   -0.7145   -2.8875    0.0000 C   0  0  0  0  0  0  0  0  0  0  0  0
   -2.1434   -2.8875    0.0000 C   0  0  0  0  0  0  0  0  0  0  0  0
   -2.8579   -2.4750    0.0000 C   0  0  0  0  0  0  0  0  0  0  0  0
   -0.0000    0.8250    0.0000 C   0  0  0  0  0  0  0  0  0  0  0  0
   -0.7145    1.2375    0.0000 C   0  0  0  0  0  0  0  0  0  0  0  0
    1.4289    0.8250    0.0000 C   0  0  0  0  0  0  0  0  0  0  0  0
    2.1434    1.2375    0.0000 C   0  0  0  0  0  0  0  0  0  0  0  0
    0.7145    1.2375    0.0000 C   0  0  0  0  0  0  0  0  0  0  0  0
    2.1434    2.0625    0.0000 C   0  0  0  0  0  0  0  0  0  0  0  0
    0.7145    2.0625    0.0000 C   0  0  0  0  0  0  0  0  0  0  0  0
   -1.4289    0.8250    0.0000 C   0  0  0  0  0  0  0  0  0  0  0  0
   -2.1434    0.4125    0.0000 F   0  0  0  0  0  0  0  0  0  0  0  0
   -1.0164    0.1105    0.0000 F   0  0  0  0  0  0  0  0  0  0  0  0
   -1.8414    1.5395    0.0000 F   0  0  0  0  0  0  0  0  0  0  0  0
   -0.0000   -1.6500    0.0000 N   0  0  0  0  0  0  0  0  0  0  0  0
   -1.4289   -2.4750    0.0000 N   0  0  0  0  0  0  0  0  0  0  0  0
   -3.5724   -2.8875    0.0000 O   0  0  0  0  0  0  0  0  0  0  0  0
    1.4289    2.4750    0.0000 S   0  0  0  0  0  0  0  0  0  0  0  0
    2.1434   -0.4125    0.0000 H   0  0  0  0  0  0  0  0  0  0  0  0
  2  1  2  0  0  0  0
  4  1  1  0  0  0  0
  5  3  1  0  0  0  0
  6  2  1  0  0  0  0
  8  7  2  0  0  0  0
  9  3  1  0  0  0  0
 12 10  1  0  0  0  0
 13 11  1  0  0  0  0
 15 14  1  0  0  0  0
 17  7  1  0  0  0  0
 17 16  2  0  0  0  0
 18  5  2  0  0  0  0
 19  4  2  0  0  0  0
 19 18  1  0  0  0  0
 20 16  1  0  0  0  0
 20 18  1  0  0  0  0
 21  6  2  0  0  0  0
 21 19  1  0  0  0  0
 22  8  1  0  0  0  0
 22 20  2  0  0  0  0
 23 17  1  0  0  0  0
 24 23  1  0  0  0  0
 25 23  1  0  0  0  0
 26 23  1  0  0  0  0
 27  9  1  0  0  0  0
 27 10  1  0  0  0  0
 27 11  1  0  0  0  0
 28 12  1  0  0  0  0
 28 13  1  0  0  0  0
 28 14  1  0  0  0  0
 29 15  1  0  0  0  0
 30 21  1  0  0  0  0
 30 22  1  0  0  0  0
 31  5  1  0  0  0  0
M  END
> <DATABASE_ID>
DB00875

> <DATABASE_NAME>
drugbank

> <SMILES>
[H]\C(CCN1CCN(CCO)CC1)=C1/C2=CC=CC=C2SC2=C1C=C(C=C2)C(F)(F)F

> <INCHI_IDENTIFIER>
InChI=1S/C23H25F3N2OS/c24-23(25,26)17-7-8-22-20(16-17)18(19-4-1-2-6-21(19)30-22)5-3-9-27-10-12-28(13-11-27)14-15-29/h1-2,4-8,16,29H,3,9-15H2/b18-5-

> <INCHI_KEY>
NJMYODHXAKYRHW-DVZOWYKESA-N

> <FORMULA>
C23H25F3N2OS

> <MOLECULAR_WEIGHT>
434.52

> <EXACT_MASS>
434.163969096

> <JCHEM_ACCEPTOR_COUNT>
3

> <JCHEM_ATOM_COUNT>
55

> <JCHEM_AVERAGE_POLARIZABILITY>
44.78942344013997

> <JCHEM_BIOAVAILABILITY>
1

> <JCHEM_DONOR_COUNT>
1

> <JCHEM_FORMAL_CHARGE>
0

> <JCHEM_GHOSE_FILTER>
1

> <JCHEM_IUPAC>
2-(4-{3-[(9Z)-2-(trifluoromethyl)-9H-thioxanthen-9-ylidene]propyl}piperazin-1-yl)ethan-1-ol

> <ALOGPS_LOGP>
4.56

> <JCHEM_LOGP>
4.496787735333333

> <ALOGPS_LOGS>
-5.04

> <JCHEM_MDDR_LIKE_RULE>
1

> <JCHEM_NUMBER_OF_RINGS>
4

> <JCHEM_PHYSIOLOGICAL_CHARGE>
1

> <JCHEM_PKA_STRONGEST_ACIDIC>
15.593098171378148

> <JCHEM_PKA_STRONGEST_BASIC>
8.428423544962852

> <JCHEM_POLAR_SURFACE_AREA>
26.71

> <JCHEM_REFRACTIVITY>
128.16920000000002

> <JCHEM_ROTATABLE_BOND_COUNT>
6

> <JCHEM_RULE_OF_FIVE>
1

> <ALOGPS_SOLUBILITY>
3.99e-03 g/l

> <JCHEM_TRADITIONAL_IUPAC>
α-flupenthixol

> <JCHEM_VEBER_RULE>
1

> <DRUGBANK_ID>
DB00875

> <SECONDARY_ACCESSION_NUMBERS>
APRD00388

> <DRUG_GROUPS>
approved; withdrawn

> <GENERIC_NAME>
Flupentixol

> <SYNONYMS>
Flupenthixol; Flupenthixole; Flupentixol; Flupentixolo; Flupentixolum

> <PRODUCTS>
Fluanxol 0.5mg - Tab; Fluanxol 3mg - Tab; Fluanxol Depot 10%- Liq Im 100mg/ml; Fluanxol Depot 2% -liq Im 20mg/ml; Fluanxol Depot Inj 100mg/ml; Fluanxol Depot Inj 20mg/ml; Fluanxol Tab 0.5mg; Fluanxol Tab 3mg; Flupentixol Decanoate Injection BP

> <INTERNATIONAL_BRANDS>
Depixol; Fluanxol; Jexit

> <SALTS>
Flupentixol decanoate; Flupentixol dihydrochloride

$$$$
901
  Mrv0541 02231215052D          

 34 36  0  0  1  0            999 V2000
    8.7949   -1.2375    0.0000 O   0  0  0  0  0  0  0  0  0  0  0  0
    6.6515    0.8250    0.0000 O   0  0  0  0  0  0  0  0  0  0  0  0
    5.2224    0.0000    0.0000 O   0  0  0  0  0  0  0  0  0  0  0  0
    8.0804    0.8250    0.0000 O   0  0  0  0  0  0  0  0  0  0  0  0
    4.5080   -1.2375    0.0000 O   0  0  0  0  0  0  0  0  0  0  0  0
    8.7949   -2.8876    0.0000 N   0  0  0  0  0  0  0  0  0  0  0  0
    8.7949   -3.7126    0.0000 C   0  0  0  0  0  0  0  0  0  0  0  0
    8.0804   -2.4751    0.0000 C   0  0  0  0  0  0  0  0  0  0  0  0
    8.0804   -1.6500    0.0000 C   0  0  0  0  0  0  0  0  0  0  0  0
    8.7949   -4.5376    0.0000 C   0  0  0  0  0  0  0  0  0  0  0  0
    9.6200   -3.7126    0.0000 C   0  0  0  0  0  0  0  0  0  0  0  0
    7.9699   -3.7126    0.0000 C   0  0  0  0  0  0  0  0  0  0  0  0
    7.3659   -1.2375    0.0000 C   0  0  0  0  0  0  0  0  0  0  0  0
    7.3659   -0.4125    0.0000 C   0  0  0  0  0  0  0  0  0  0  0  0
    6.6515   -1.6500    0.0000 C   0  0  0  0  0  0  0  0  0  0  0  0
    6.6515    0.0000    0.0000 C   0  0  0  0  0  0  0  0  0  0  0  0
    5.9370   -1.2375    0.0000 C   0  0  0  0  0  0  0  0  0  0  0  0
    5.9370   -0.4125    0.0000 C   0  0  0  0  0  0  0  0  0  0  0  0
    7.3659    1.2375    0.0000 C   0  0  0  0  0  0  0  0  0  0  0  0
    4.5080   -0.4125    0.0000 C   0  0  0  0  0  0  0  0  0  0  0  0
    7.3659    2.0625    0.0000 C   0  0  0  0  0  0  0  0  0  0  0  0
    3.7935    0.0000    0.0000 C   0  0  0  0  0  0  0  0  0  0  0  0
    8.0804    2.4751    0.0000 C   0  0  0  0  0  0  0  0  0  0  0  0
    6.6515    2.4751    0.0000 C   0  0  0  0  0  0  0  0  0  0  0  0
    3.7935    0.8250    0.0000 C   0  0  0  0  0  0  0  0  0  0  0  0
    3.0791   -0.4125    0.0000 C   0  0  0  0  0  0  0  0  0  0  0  0
    7.3659    3.7126    0.0000 C   0  0  0  0  0  0  0  0  0  0  0  0
    2.3645    0.8250    0.0000 C   0  0  0  0  0  0  0  0  0  0  0  0
    8.0804    3.3001    0.0000 C   0  0  0  0  0  0  0  0  0  0  0  0
    6.6515    3.3001    0.0000 C   0  0  0  0  0  0  0  0  0  0  0  0
    3.0791    1.2375    0.0000 C   0  0  0  0  0  0  0  0  0  0  0  0
    2.3645    0.0000    0.0000 C   0  0  0  0  0  0  0  0  0  0  0  0
    7.3659    4.5376    0.0000 C   0  0  0  0  0  0  0  0  0  0  0  0
    1.6500    1.2375    0.0000 C   0  0  0  0  0  0  0  0  0  0  0  0
  1  9  1  0  0  0  0
  2 16  1  0  0  0  0
  2 19  1  0  0  0  0
  3 18  1  0  0  0  0
  3 20  1  0  0  0  0
  4 19  2  0  0  0  0
  5 20  2  0  0  0  0
  6  7  1  0  0  0  0
  6  8  1  0  0  0  0
  7 10  1  0  0  0  0
  7 11  1  0  0  0  0
  7 12  1  0  0  0  0
  8  9  1  0  0  0  0
  9 13  1  0  0  0  0
 13 14  2  0  0  0  0
 13 15  1  0  0  0  0
 14 16  1  0  0  0  0
 15 17  2  0  0  0  0
 16 18  2  0  0  0  0
 17 18  1  0  0  0  0
 19 21  1  0  0  0  0
 20 22  1  0  0  0  0
 21 23  2  0  0  0  0
 21 24  1  0  0  0  0
 22 25  2  0  0  0  0
 22 26  1  0  0  0  0
 23 29  1  0  0  0  0
 24 30  2  0  0  0  0
 25 31  1  0  0  0  0
 26 32  2  0  0  0  0
 27 29  2  0  0  0  0
 27 30  1  0  0  0  0
 27 33  1  0  0  0  0
 28 31  2  0  0  0  0
 28 32  1  0  0  0  0
 28 34  1  0  0  0  0
M  END
> <DATABASE_ID>
DB00901

> <DATABASE_NAME>
drugbank

> <SMILES>
CC1=CC=C(C=C1)C(=O)OC1=C(OC(=O)C2=CC=C(C)C=C2)C=C(C=C1)C(O)CNC(C)(C)C

> <INCHI_IDENTIFIER>
InChI=1S/C28H31NO5/c1-18-6-10-20(11-7-18)26(31)33-24-15-14-22(23(30)17-29-28(3,4)5)16-25(24)34-27(32)21-12-8-19(2)9-13-21/h6-16,23,29-30H,17H2,1-5H3

> <INCHI_KEY>
FZGVEKPRDOIXJY-UHFFFAOYSA-N

> <FORMULA>
C28H31NO5

> <MOLECULAR_WEIGHT>
461.5494

> <EXACT_MASS>
461.220223107

> <JCHEM_ACCEPTOR_COUNT>
4

> <JCHEM_AVERAGE_POLARIZABILITY>
50.90765366205686

> <JCHEM_BIOAVAILABILITY>
1

> <JCHEM_DONOR_COUNT>
2

> <JCHEM_FORMAL_CHARGE>
0

> <JCHEM_GHOSE_FILTER>
0

> <JCHEM_IUPAC>
4-[2-(tert-butylamino)-1-hydroxyethyl]-2-(4-methylbenzoyloxy)phenyl 4-methylbenzoate

> <ALOGPS_LOGP>
4.69

> <JCHEM_LOGP>
6.304932955333332

> <ALOGPS_LOGS>
-5.98

> <JCHEM_MDDR_LIKE_RULE>
1

> <JCHEM_NUMBER_OF_RINGS>
3

> <JCHEM_PHYSIOLOGICAL_CHARGE>
1

> <JCHEM_PKA_STRONGEST_ACIDIC>
13.996353628469908

> <JCHEM_PKA_STRONGEST_BASIC>
9.58701074563407

> <JCHEM_POLAR_SURFACE_AREA>
84.86

> <JCHEM_REFRACTIVITY>
132.7623

> <JCHEM_ROTATABLE_BOND_COUNT>
10

> <JCHEM_RULE_OF_FIVE>
0

> <ALOGPS_SOLUBILITY>
4.80e-04 g/l

> <JCHEM_TRADITIONAL_IUPAC>
bitolterol

> <JCHEM_VEBER_RULE>
0

> <DRUGBANK_ID>
DB00901

> <SECONDARY_ACCESSION_NUMBERS>
APRD00827

> <DRUG_GROUPS>
withdrawn

> <GENERIC_NAME>
Bitolterol

> <SYNONYMS>
Bitolterolum

$$$$

  Mrv0541 02231215062D          

 15 15  0  0  0  0            999 V2000
    1.5223    0.1612    0.0000 C   0  0  0  0  0  0  0  0  0  0  0  0
    0.8092    0.5760    0.0000 C   0  0  0  0  0  0  0  0  0  0  0  0
    1.5189   -0.6583    0.0000 C   0  0  0  0  0  0  0  0  0  0  0  0
    2.2355    0.5829    0.0000 C   0  0  0  0  0  0  0  0  0  0  0  0
    0.0961    0.1612    0.0000 C   0  0  0  0  0  0  0  0  0  0  0  0
    2.2355   -1.0663    0.0000 C   0  0  0  0  0  0  0  0  0  0  0  0
    2.9486    0.1680    0.0000 C   0  0  0  0  0  0  0  0  0  0  0  0
   -0.6172    0.5760    0.0000 N   0  0  0  0  0  0  0  0  0  0  0  0
    2.9486   -0.6583    0.0000 C   0  0  0  0  0  0  0  0  0  0  0  0
   -1.3303    0.1612    0.0000 C   0  0  0  0  0  0  0  0  0  0  0  0
   -2.0435    0.5760    0.0000 N   0  0  0  0  0  0  0  0  0  0  0  0
   -1.3303   -0.6617    0.0000 N   0  0  0  0  0  0  0  0  0  0  0  0
   -2.7601    0.1612    0.0000 C   0  0  0  0  0  0  0  0  0  0  0  0
   -3.4732    0.5760    0.0000 N   0  0  0  0  0  0  0  0  0  0  0  0
   -2.7601   -0.6617    0.0000 N   0  0  0  0  0  0  0  0  0  0  0  0
  1  2  1  0  0  0  0
  1  3  2  0  0  0  0
  1  4  1  0  0  0  0
  2  5  1  0  0  0  0
  3  6  1  0  0  0  0
  4  7  2  0  0  0  0
  5  8  1  0  0  0  0
  6  9  2  0  0  0  0
  8 10  1  0  0  0  0
 10 11  1  0  0  0  0
 10 12  2  0  0  0  0
 11 13  1  0  0  0  0
 13 14  1  0  0  0  0
 13 15  2  0  0  0  0
  7  9  1  0  0  0  0
M  END
> <DATABASE_ID>
DB00914

> <DATABASE_NAME>
drugbank

> <SMILES>
NC(=N)NC(=N)NCCC1=CC=CC=C1

> <INCHI_IDENTIFIER>
InChI=1S/C10H15N5/c11-9(12)15-10(13)14-7-6-8-4-2-1-3-5-8/h1-5H,6-7H2,(H6,11,12,13,14,15)

> <INCHI_KEY>
ICFJFFQQTFMIBG-UHFFFAOYSA-N

> <FORMULA>
C10H15N5

> <MOLECULAR_WEIGHT>
205.2596

> <EXACT_MASS>
205.132745505

> <JCHEM_ACCEPTOR_COUNT>
5

> <JCHEM_AVERAGE_POLARIZABILITY>
22.143145874480144

> <JCHEM_BIOAVAILABILITY>
1

> <JCHEM_DONOR_COUNT>
5

> <JCHEM_FORMAL_CHARGE>
0

> <JCHEM_GHOSE_FILTER>
1

> <JCHEM_IUPAC>
1-carbamimidamido-N-(2-phenylethyl)methanimidamide

> <ALOGPS_LOGP>
-0.72

> <JCHEM_LOGP>
0.8327289916666667

> <ALOGPS_LOGS>
-2.95

> <JCHEM_MDDR_LIKE_RULE>
0

> <JCHEM_NUMBER_OF_RINGS>
1

> <JCHEM_PHYSIOLOGICAL_CHARGE>
2

> <JCHEM_PKA_STRONGEST_BASIC>
11.973029263601745

> <JCHEM_POLAR_SURFACE_AREA>
97.78

> <JCHEM_REFRACTIVITY>
80.7156

> <JCHEM_ROTATABLE_BOND_COUNT>
3

> <JCHEM_RULE_OF_FIVE>
1

> <ALOGPS_SOLUBILITY>
2.32e-01 g/l

> <JCHEM_TRADITIONAL_IUPAC>
phenethylbiguanide

> <JCHEM_VEBER_RULE>
0

> <DRUGBANK_ID>
DB00914

> <SECONDARY_ACCESSION_NUMBERS>
APRD00511

> <DRUG_GROUPS>
approved; withdrawn

> <GENERIC_NAME>
Phenformin

> <SYNONYMS>
Fenformin; Fenformina; Phenformine; Phenforminum; β-Phenethybiguanide

> <INTERNATIONAL_BRANDS>
DBI

> <SALTS>
Phenformin Hydrochloride

$$$$
926
  Mrv0541 02231215062D          

 26 26  0  0  0  0            999 V2000
    3.0791   -4.7439    0.0000 O   0  0  0  0  0  0  0  0  0  0  0  0
    6.6515    3.9188    0.0000 O   0  0  0  0  0  0  0  0  0  0  0  0
    5.2224    3.9188    0.0000 O   0  0  0  0  0  0  0  0  0  0  0  0
    2.3645   -2.6813    0.0000 C   0  0  0  0  0  0  0  0  0  0  0  0
    3.0791   -2.2688    0.0000 C   0  0  0  0  0  0  0  0  0  0  0  0
    2.3645   -3.5063    0.0000 C   0  0  0  0  0  0  0  0  0  0  0  0
    3.7935   -2.6813    0.0000 C   0  0  0  0  0  0  0  0  0  0  0  0
    3.0791   -3.9188    0.0000 C   0  0  0  0  0  0  0  0  0  0  0  0
    3.7935   -3.5063    0.0000 C   0  0  0  0  0  0  0  0  0  0  0  0
    1.6500   -2.2688    0.0000 C   0  0  0  0  0  0  0  0  0  0  0  0
    3.0791   -1.4438    0.0000 C   0  0  0  0  0  0  0  0  0  0  0  0
    1.6500   -3.9188    0.0000 C   0  0  0  0  0  0  0  0  0  0  0  0
    4.5080   -2.2688    0.0000 C   0  0  0  0  0  0  0  0  0  0  0  0
    3.7935   -1.0313    0.0000 C   0  0  0  0  0  0  0  0  0  0  0  0
    3.7935   -0.2063    0.0000 C   0  0  0  0  0  0  0  0  0  0  0  0
    3.7935   -5.1564    0.0000 C   0  0  0  0  0  0  0  0  0  0  0  0
    3.0791    0.2063    0.0000 C   0  0  0  0  0  0  0  0  0  0  0  0
    4.5080    0.2063    0.0000 C   0  0  0  0  0  0  0  0  0  0  0  0
    4.5080    1.0313    0.0000 C   0  0  0  0  0  0  0  0  0  0  0  0
    5.2224    1.4438    0.0000 C   0  0  0  0  0  0  0  0  0  0  0  0
    5.2224    2.2688    0.0000 C   0  0  0  0  0  0  0  0  0  0  0  0
    4.5080    2.6813    0.0000 C   0  0  0  0  0  0  0  0  0  0  0  0
    5.9370    2.6813    0.0000 C   0  0  0  0  0  0  0  0  0  0  0  0
    5.9370    3.5063    0.0000 C   0  0  0  0  0  0  0  0  0  0  0  0
    6.6515    4.7439    0.0000 C   0  0  0  0  0  0  0  0  0  0  0  0
    7.3659    5.1564    0.0000 C   0  0  0  0  0  0  0  0  0  0  0  0
  1  8  1  0  0  0  0
  1 16  1  0  0  0  0
  2 24  1  0  0  0  0
  2 25  1  0  0  0  0
  3 24  2  0  0  0  0
  4  5  2  0  0  0  0
  4  6  1  0  0  0  0
  4 10  1  0  0  0  0
  5  7  1  0  0  0  0
  5 11  1  0  0  0  0
  6  8  2  0  0  0  0
  6 12  1  0  0  0  0
  7  9  2  0  0  0  0
  7 13  1  0  0  0  0
  8  9  1  0  0  0  0
 11 14  2  3  0  0  0
 14 15  1  0  0  0  0
 15 17  1  0  0  0  0
 15 18  2  3  0  0  0
 18 19  1  0  0  0  0
 19 20  2  3  0  0  0
 20 21  1  0  0  0  0
 21 22  1  0  0  0  0
 21 23  2  3  0  0  0
 23 24  1  0  0  0  0
 25 26  1  0  0  0  0
M  END
> <DATABASE_ID>
DB00926

> <DATABASE_NAME>
drugbank

> <SMILES>
CCOC(=O)C=C(C)C=CC=C(C)C=CC1=C(C)C(C)=C(OC)C=C1C

> <INCHI_IDENTIFIER>
InChI=1S/C23H30O3/c1-8-26-23(24)14-17(3)11-9-10-16(2)12-13-21-18(4)15-22(25-7)20(6)19(21)5/h9-15H,8H2,1-7H3

> <INCHI_KEY>
HQMNCQVAMBCHCO-UHFFFAOYSA-N

> <FORMULA>
C23H30O3

> <MOLECULAR_WEIGHT>
354.4825

> <EXACT_MASS>
354.219494826

> <JCHEM_ACCEPTOR_COUNT>
2

> <JCHEM_AVERAGE_POLARIZABILITY>
42.977397010032746

> <JCHEM_BIOAVAILABILITY>
1

> <JCHEM_DONOR_COUNT>
0

> <JCHEM_FORMAL_CHARGE>
0

> <JCHEM_GHOSE_FILTER>
0

> <JCHEM_IUPAC>
ethyl 9-(4-methoxy-2,3,6-trimethylphenyl)-3,7-dimethylnona-2,4,6,8-tetraenoate

> <ALOGPS_LOGP>
6.32

> <JCHEM_LOGP>
6.323084069666667

> <ALOGPS_LOGS>
-5.94

> <JCHEM_MDDR_LIKE_RULE>
0

> <JCHEM_NUMBER_OF_RINGS>
1

> <JCHEM_PHYSIOLOGICAL_CHARGE>
0

> <JCHEM_PKA_STRONGEST_BASIC>
-4.815754728353506

> <JCHEM_POLAR_SURFACE_AREA>
35.53

> <JCHEM_REFRACTIVITY>
113.6842

> <JCHEM_ROTATABLE_BOND_COUNT>
8

> <JCHEM_RULE_OF_FIVE>
0

> <ALOGPS_SOLUBILITY>
4.05e-04 g/l

> <JCHEM_TRADITIONAL_IUPAC>
etretinate

> <JCHEM_VEBER_RULE>
1

> <DRUGBANK_ID>
DB00926

> <SECONDARY_ACCESSION_NUMBERS>
APRD00966

> <DRUG_GROUPS>
withdrawn

> <GENERIC_NAME>
Etretinate

> <INTERNATIONAL_BRANDS>
Tigason

$$$$
969
  Mrv0541 02231215082D          

 22 25  0  0  0  0            999 V2000
    4.2709   -1.6687    0.0000 O   0  0  0  0  0  0  0  0  0  0  0  0
    5.3327   -0.7530    0.0000 N   0  0  0  0  0  0  0  0  0  0  0  0
    3.5859    0.9221    0.0000 N   0  0  0  0  0  0  0  0  0  0  0  0
    7.2223   -1.7142    0.0000 N   0  0  0  0  0  0  0  0  0  0  0  0
    7.7481   -0.5454    0.0000 N   0  0  0  0  0  0  0  0  0  0  0  0
    4.2266    0.4565    0.0000 C   0  0  0  0  0  0  0  0  0  0  0  0
    5.0309    0.6405    0.0000 C   0  0  0  0  0  0  0  0  0  0  0  0
    3.9819   -0.2967    0.0000 C   0  0  0  0  0  0  0  0  0  0  0  0
    5.5876    0.0317    0.0000 C   0  0  0  0  0  0  0  0  0  0  0  0
    3.1899   -0.2967    0.0000 C   0  0  0  0  0  0  0  0  0  0  0  0
    2.9450    0.4565    0.0000 C   0  0  0  0  0  0  0  0  0  0  0  0
    4.5243   -0.9183    0.0000 C   0  0  0  0  0  0  0  0  0  0  0  0
    5.8604   -1.3436    0.0000 C   0  0  0  0  0  0  0  0  0  0  0  0
    3.5859    1.7142    0.0000 C   0  0  0  0  0  0  0  0  0  0  0  0
    2.6473   -0.9183    0.0000 C   0  0  0  0  0  0  0  0  0  0  0  0
    2.1408    0.6405    0.0000 C   0  0  0  0  0  0  0  0  0  0  0  0
    6.6357   -1.1819    0.0000 C   0  0  0  0  0  0  0  0  0  0  0  0
    1.8391   -0.7530    0.0000 C   0  0  0  0  0  0  0  0  0  0  0  0
    1.5841    0.0317    0.0000 C   0  0  0  0  0  0  0  0  0  0  0  0
    6.9607   -0.4596    0.0000 C   0  0  0  0  0  0  0  0  0  0  0  0
    6.5673    0.2279    0.0000 C   0  0  0  0  0  0  0  0  0  0  0  0
    7.9098   -1.3208    0.0000 C   0  0  0  0  0  0  0  0  0  0  0  0
  1 12  2  0  0  0  0
  2  9  1  0  0  0  0
  2 12  1  0  0  0  0
  2 13  1  0  0  0  0
  3  6  1  0  0  0  0
  3 11  1  0  0  0  0
  3 14  1  0  0  0  0
  4 17  1  0  0  0  0
  4 22  2  0  0  0  0
  5 20  1  0  0  0  0
  5 22  1  0  0  0  0
  6  7  1  0  0  0  0
  6  8  2  0  0  0  0
  7  9  1  0  0  0  0
  8 10  1  0  0  0  0
  8 12  1  0  0  0  0
 10 11  1  0  0  0  0
 10 15  2  0  0  0  0
 11 16  2  0  0  0  0
 13 17  1  0  0  0  0
 15 18  1  0  0  0  0
 16 19  1  0  0  0  0
 17 20  2  0  0  0  0
 18 19  2  0  0  0  0
 20 21  1  0  0  0  0
M  END
> <DATABASE_ID>
DB00969

> <DATABASE_NAME>
drugbank

> <SMILES>
CN1C2=C(C3=CC=CC=C13)C(=O)N(CC1=C(C)NC=N1)CC2

> <INCHI_IDENTIFIER>
InChI=1S/C17H18N4O/c1-11-13(19-10-18-11)9-21-8-7-15-16(17(21)22)12-5-3-4-6-14(12)20(15)2/h3-6,10H,7-9H2,1-2H3,(H,18,19)

> <INCHI_KEY>
JSWZEAMFRNKZNL-UHFFFAOYSA-N

> <FORMULA>
C17H18N4O

> <MOLECULAR_WEIGHT>
294.351

> <EXACT_MASS>
294.148061218

> <JCHEM_ACCEPTOR_COUNT>
2

> <JCHEM_AVERAGE_POLARIZABILITY>
32.51709086196463

> <JCHEM_BIOAVAILABILITY>
1

> <JCHEM_DONOR_COUNT>
1

> <JCHEM_FORMAL_CHARGE>
0

> <JCHEM_GHOSE_FILTER>
1

> <JCHEM_IUPAC>
5-methyl-2-[(5-methyl-1H-imidazol-4-yl)methyl]-1H,2H,3H,4H,5H-pyrido[4,3-b]indol-1-one

> <ALOGPS_LOGP>
1.85

> <JCHEM_LOGP>
1.2119007720000001

> <ALOGPS_LOGS>
-2.83

> <JCHEM_MDDR_LIKE_RULE>
0

> <JCHEM_NUMBER_OF_RINGS>
4

> <JCHEM_PHYSIOLOGICAL_CHARGE>
0

> <JCHEM_PKA_STRONGEST_ACIDIC>
13.315838762552861

> <JCHEM_PKA_STRONGEST_BASIC>
6.809476550701925

> <JCHEM_POLAR_SURFACE_AREA>
53.92

> <JCHEM_REFRACTIVITY>
86.40540000000001

> <JCHEM_ROTATABLE_BOND_COUNT>
2

> <JCHEM_RULE_OF_FIVE>
1

> <ALOGPS_SOLUBILITY>
4.38e-01 g/l

> <JCHEM_TRADITIONAL_IUPAC>
alosetron

> <JCHEM_VEBER_RULE>
0

> <DRUGBANK_ID>
DB00969

> <SECONDARY_ACCESSION_NUMBERS>
APRD00580

> <DRUG_GROUPS>
approved; withdrawn

> <GENERIC_NAME>
Alosetron

> <PRODUCTS>
Alosetron Hydrochloride; Lotronex

> <SALTS>
Alosetron Hydrochloride

$$$$
1031
  Mrv0541 02231215112D          

 12 12  0  0  0  0            999 V2000
    3.1433    0.6035    0.0000 O   0  0  0  0  0  0  0  0  0  0  0  0
    4.3808   -0.1110    0.0000 O   0  0  0  0  0  0  0  0  0  0  0  0
    4.3808    1.3180    0.0000 N   0  0  0  0  0  0  0  0  0  0  0  0
    2.7308   -0.1110    0.0000 C   0  0  0  0  0  0  0  0  0  0  0  0
    2.0163   -0.5235    0.0000 C   0  0  0  0  0  0  0  0  0  0  0  0
    3.4453   -0.5235    0.0000 C   0  0  0  0  0  0  0  0  0  0  0  0
    2.0163   -1.3485    0.0000 C   0  0  0  0  0  0  0  0  0  0  0  0
    3.4453   -1.3485    0.0000 C   0  0  0  0  0  0  0  0  0  0  0  0
    2.7308   -1.7610    0.0000 C   0  0  0  0  0  0  0  0  0  0  0  0
    2.3183    0.6035    0.0000 C   0  0  0  0  0  0  0  0  0  0  0  0
    3.9683    0.6035    0.0000 C   0  0  0  0  0  0  0  0  0  0  0  0
    1.9058    1.3180    0.0000 C   0  0  0  0  0  0  0  0  0  0  0  0
  1  4  1  0  0  0  0
  1 11  1  0  0  0  0
  2 11  2  0  0  0  0
  3 11  1  0  0  0  0
  4  5  1  0  0  0  0
  4  6  1  0  0  0  0
  4 10  1  0  0  0  0
  5  7  1  0  0  0  0
  6  8  1  0  0  0  0
  7  9  1  0  0  0  0
  8  9  1  0  0  0  0
 10 12  3  0  0  0  0
M  END
> <DATABASE_ID>
DB01031

> <DATABASE_NAME>
drugbank

> <SMILES>
NC(=O)OC1(CCCCC1)C#C

> <INCHI_IDENTIFIER>
InChI=1S/C9H13NO2/c1-2-9(12-8(10)11)6-4-3-5-7-9/h1H,3-7H2,(H2,10,11)

> <INCHI_KEY>
GXRZIMHKGDIBEW-UHFFFAOYSA-N

> <FORMULA>
C9H13NO2

> <MOLECULAR_WEIGHT>
167.205

> <EXACT_MASS>
167.094628665

> <JCHEM_ACCEPTOR_COUNT>
1

> <JCHEM_AVERAGE_POLARIZABILITY>
17.726913510740403

> <JCHEM_BIOAVAILABILITY>
1

> <JCHEM_DONOR_COUNT>
1

> <JCHEM_FORMAL_CHARGE>
0

> <JCHEM_GHOSE_FILTER>
1

> <JCHEM_IUPAC>
1-ethynylcyclohexyl carbamate

> <ALOGPS_LOGP>
1.09

> <JCHEM_LOGP>
1.5401250993333333

> <ALOGPS_LOGS>
-3.20

> <JCHEM_MDDR_LIKE_RULE>
0

> <JCHEM_NUMBER_OF_RINGS>
1

> <JCHEM_PHYSIOLOGICAL_CHARGE>
0

> <JCHEM_PKA_STRONGEST_ACIDIC>
15.371112584590886

> <JCHEM_POLAR_SURFACE_AREA>
52.32

> <JCHEM_REFRACTIVITY>
44.573499999999996

> <JCHEM_ROTATABLE_BOND_COUNT>
2

> <JCHEM_RULE_OF_FIVE>
1

> <ALOGPS_SOLUBILITY>
1.06e-01 g/l

> <JCHEM_TRADITIONAL_IUPAC>
ethinamate

> <JCHEM_VEBER_RULE>
0

> <DRUGBANK_ID>
DB01031

> <SECONDARY_ACCESSION_NUMBERS>
APRD00959

> <DRUG_GROUPS>
approved; illicit; withdrawn

> <GENERIC_NAME>
Ethinamate

> <INTERNATIONAL_BRANDS>
Valamin; Valmid

$$$$

  Mrv1652307091705552D          

 30 33  0  0  0  0            999 V2000
   -1.4039    1.0107    0.0000 N   0  0  0  0  0  0  0  0  0  0  0  0
   -0.7043    1.4254    0.0000 C   0  0  0  0  0  0  0  0  0  0  0  0
   -1.4039    2.6702    0.0000 S   0  0  0  0  0  0  0  0  0  0  0  0
   -0.7043    2.2504    0.0000 C   0  0  0  0  0  0  0  0  0  0  0  0
   -2.1178    1.4254    0.0000 C   0  0  0  0  0  0  0  0  0  0  0  0
   -2.1178    2.2504    0.0000 C   0  0  0  0  0  0  0  0  0  0  0  0
   -0.0048    1.0107    0.0000 C   0  0  0  0  0  0  0  0  0  0  0  0
    0.7187    1.4254    0.0000 C   0  0  0  0  0  0  0  0  0  0  0  0
   -0.0048   -1.4352    0.0000 N   0  0  0  0  0  0  0  0  0  0  0  0
    1.4135   -2.2505    0.0000 N   0  0  0  0  0  0  0  0  0  0  0  0
    1.4135    1.0107    0.0000 C   0  0  0  0  0  0  0  0  0  0  0  0
   -0.0048    2.6702    0.0000 C   0  0  0  0  0  0  0  0  0  0  0  0
    0.7187    2.2504    0.0000 C   0  0  0  0  0  0  0  0  0  0  0  0
    1.4135    0.1857    0.0000 O   0  0  0  0  0  0  0  0  0  0  0  0
   -1.4039    0.1857    0.0000 C   0  0  0  0  0  0  0  0  0  0  0  0
    1.4135   -1.4352    0.0000 C   0  0  0  0  0  0  0  0  0  0  0  0
   -0.0048   -2.2505    0.0000 C   0  0  0  0  0  0  0  0  0  0  0  0
    0.7187   -1.0203    0.0000 C   0  0  0  0  0  0  0  0  0  0  0  0
    0.7187   -2.6702    0.0000 C   0  0  0  0  0  0  0  0  0  0  0  0
   -0.7043   -0.2099    0.0000 C   0  0  0  0  0  0  0  0  0  0  0  0
   -0.7043   -1.0203    0.0000 C   0  0  0  0  0  0  0  0  0  0  0  0
   -2.8414    1.0107    0.0000 C   0  0  0  0  0  0  0  0  0  0  0  0
    2.1371   -2.6702    0.0000 C   0  0  0  0  0  0  0  0  0  0  0  0
   -2.8414    2.6702    0.0000 C   0  0  0  0  0  0  0  0  0  0  0  0
    3.5554   -2.6702    0.0000 O   0  0  0  0  0  0  0  0  0  0  0  0
    2.1371    1.4254    0.0000 C   0  0  0  0  0  0  0  0  0  0  0  0
    2.8463   -2.2505    0.0000 C   0  0  0  0  0  0  0  0  0  0  0  0
    2.8463    1.0107    0.0000 C   0  0  0  0  0  0  0  0  0  0  0  0
   -3.5554    1.4254    0.0000 C   0  0  0  0  0  0  0  0  0  0  0  0
   -3.5554    2.2504    0.0000 C   0  0  0  0  0  0  0  0  0  0  0  0
  2  1  1  0  0  0  0
  3  6  1  0  0  0  0
  4  2  1  0  0  0  0
  5  1  1  0  0  0  0
  6  5  2  0  0  0  0
  7  2  2  0  0  0  0
  8  7  1  0  0  0  0
  9 21  1  0  0  0  0
 10 19  1  0  0  0  0
 11  8  1  0  0  0  0
 12  4  2  0  0  0  0
 13  8  2  0  0  0  0
 14 11  2  0  0  0  0
 15  1  1  0  0  0  0
 16 18  1  0  0  0  0
 17  9  1  0  0  0  0
 18  9  1  0  0  0  0
 19 17  1  0  0  0  0
 20 15  1  0  0  0  0
 21 20  1  0  0  0  0
 22  5  1  0  0  0  0
 23 10  1  0  0  0  0
 24  6  1  0  0  0  0
 25 27  1  0  0  0  0
 26 11  1  0  0  0  0
 27 23  1  0  0  0  0
 28 26  1  0  0  0  0
 29 22  2  0  0  0  0
 30 24  2  0  0  0  0
  4  3  1  0  0  0  0
 29 30  1  0  0  0  0
 12 13  1  0  0  0  0
 16 10  1  0  0  0  0
M  END
> <DATABASE_ID>
DB01038

> <DATABASE_NAME>
drugbank

> <SMILES>
CCC(=O)C1=CC=C2SC3=C(C=CC=C3)N(CCCN3CCN(CCO)CC3)C2=C1

> <INCHI_IDENTIFIER>
InChI=1S/C24H31N3O2S/c1-2-22(29)19-8-9-24-21(18-19)27(20-6-3-4-7-23(20)30-24)11-5-10-25-12-14-26(15-13-25)16-17-28/h3-4,6-9,18,28H,2,5,10-17H2,1H3

> <INCHI_KEY>
XZSMZRXAEFNJCU-UHFFFAOYSA-N

> <FORMULA>
C24H31N3O2S

> <MOLECULAR_WEIGHT>
425.59

> <EXACT_MASS>
425.213698424

> <JCHEM_ACCEPTOR_COUNT>
5

> <JCHEM_ATOM_COUNT>
61

> <JCHEM_AVERAGE_POLARIZABILITY>
49.224111231309145

> <JCHEM_BIOAVAILABILITY>
1

> <JCHEM_DONOR_COUNT>
1

> <JCHEM_FORMAL_CHARGE>
0

> <JCHEM_GHOSE_FILTER>
1

> <JCHEM_IUPAC>
1-(10-{3-[4-(2-hydroxyethyl)piperazin-1-yl]propyl}-10H-phenothiazin-2-yl)propan-1-one

> <ALOGPS_LOGP>
3.26

> <JCHEM_LOGP>
3.3461564986666668

> <ALOGPS_LOGS>
-4.06

> <JCHEM_MDDR_LIKE_RULE>
1

> <JCHEM_NUMBER_OF_RINGS>
4

> <JCHEM_PHYSIOLOGICAL_CHARGE>
1

> <JCHEM_PKA>
16.680092498664305

> <JCHEM_PKA_STRONGEST_ACIDIC>
15.556012646634006

> <JCHEM_PKA_STRONGEST_BASIC>
7.666166146203319

> <JCHEM_POLAR_SURFACE_AREA>
47.019999999999996

> <JCHEM_REFRACTIVITY>
126.3236

> <JCHEM_ROTATABLE_BOND_COUNT>
8

> <JCHEM_RULE_OF_FIVE>
1

> <ALOGPS_SOLUBILITY>
3.66e-02 g/l

> <JCHEM_TRADITIONAL_IUPAC>
carphenazine

> <JCHEM_VEBER_RULE>
0

> <DRUGBANK_ID>
DB01038

> <SECONDARY_ACCESSION_NUMBERS>
APRD00848

> <DRUG_GROUPS>
withdrawn

> <GENERIC_NAME>
Carphenazine

> <SYNONYMS>
carfenazina; carfénazine; Carfenazine; carfenazinum

> <INTERNATIONAL_BRANDS>
Proketazine

> <SALTS>
Carphenazine maleate

$$$$
1041
  Mrv0541 02231215122D          

 19 21  0  0  1  0            999 V2000
    5.1662   -1.4290    0.0000 O   0  0  0  0  0  0  0  0  0  0  0  0
    4.1159   -1.4482    0.0000 O   0  0  0  0  0  0  0  0  0  0  0  0
    4.1159    1.4482    0.0000 O   0  0  0  0  0  0  0  0  0  0  0  0
    7.6412    0.0000    0.0000 O   0  0  0  0  0  0  0  0  0  0  0  0
    4.3412    0.0000    0.0000 N   0  0  0  0  0  0  0  0  0  0  0  0
    6.4037   -0.7145    0.0000 N   0  0  0  0  0  0  0  0  0  0  0  0
    5.1662    0.0000    0.0000 C   0  0  0  0  0  0  0  0  0  0  0  0
    5.5787    0.7145    0.0000 C   0  0  0  0  0  0  0  0  0  0  0  0
    6.4037    0.7145    0.0000 C   0  0  0  0  0  0  0  0  0  0  0  0
    5.5787   -0.7145    0.0000 C   0  0  0  0  0  0  0  0  0  0  0  0
    3.8597   -0.6639    0.0000 C   0  0  0  0  0  0  0  0  0  0  0  0
    3.8597    0.6639    0.0000 C   0  0  0  0  0  0  0  0  0  0  0  0
    3.0791   -0.4125    0.0000 C   0  0  0  0  0  0  0  0  0  0  0  0
    3.0791    0.4125    0.0000 C   0  0  0  0  0  0  0  0  0  0  0  0
    6.8162    0.0000    0.0000 C   0  0  0  0  0  0  0  0  0  0  0  0
    2.3645   -0.8250    0.0000 C   0  0  0  0  0  0  0  0  0  0  0  0
    2.3645    0.8250    0.0000 C   0  0  0  0  0  0  0  0  0  0  0  0
    1.6500   -0.4125    0.0000 C   0  0  0  0  0  0  0  0  0  0  0  0
    1.6500    0.4125    0.0000 C   0  0  0  0  0  0  0  0  0  0  0  0
  1 10  2  0  0  0  0
  2 11  2  0  0  0  0
  3 12  2  0  0  0  0
  4 15  2  0  0  0  0
  5  7  1  0  0  0  0
  5 11  1  0  0  0  0
  5 12  1  0  0  0  0
  6 10  1  0  0  0  0
  6 15  1  0  0  0  0
  7  8  1  0  0  0  0
  7 10  1  0  0  0  0
  8  9  1  0  0  0  0
  9 15  1  0  0  0  0
 11 13  1  0  0  0  0
 12 14  1  0  0  0  0
 13 14  1  0  0  0  0
 13 16  2  0  0  0  0
 14 17  2  0  0  0  0
 16 18  1  0  0  0  0
 17 19  1  0  0  0  0
 18 19  2  0  0  0  0
M  END
> <DATABASE_ID>
DB01041

> <DATABASE_NAME>
drugbank

> <SMILES>
O=C1N(C2CCC(=O)NC2=O)C(=O)C2=CC=CC=C12

> <INCHI_IDENTIFIER>
InChI=1S/C13H10N2O4/c16-10-6-5-9(11(17)14-10)15-12(18)7-3-1-2-4-8(7)13(15)19/h1-4,9H,5-6H2,(H,14,16,17)

> <INCHI_KEY>
UEJJHQNACJXSKW-UHFFFAOYSA-N

> <FORMULA>
C13H10N2O4

> <MOLECULAR_WEIGHT>
258.2295

> <EXACT_MASS>
258.064056818

> <JCHEM_ACCEPTOR_COUNT>
4

> <JCHEM_AVERAGE_POLARIZABILITY>
24.42456996837572

> <JCHEM_BIOAVAILABILITY>
1

> <JCHEM_DONOR_COUNT>
1

> <JCHEM_FORMAL_CHARGE>
0

> <JCHEM_GHOSE_FILTER>
1

> <JCHEM_IUPAC>
2-(2,6-dioxopiperidin-3-yl)-2,3-dihydro-1H-isoindole-1,3-dione

> <ALOGPS_LOGP>
0.42

> <JCHEM_LOGP>
0.01570735600000027

> <ALOGPS_LOGS>
-2.00

> <JCHEM_MDDR_LIKE_RULE>
0

> <JCHEM_NUMBER_OF_RINGS>
3

> <JCHEM_PHYSIOLOGICAL_CHARGE>
0

> <JCHEM_PKA>
16.74270753163753

> <JCHEM_PKA_STRONGEST_ACIDIC>
11.593278965606643

> <JCHEM_PKA_STRONGEST_BASIC>
-6.448342644269868

> <JCHEM_POLAR_SURFACE_AREA>
83.55

> <JCHEM_REFRACTIVITY>
64.32480000000001

> <JCHEM_ROTATABLE_BOND_COUNT>
1

> <JCHEM_RULE_OF_FIVE>
1

> <ALOGPS_SOLUBILITY>
2.55e+00 g/l

> <JCHEM_TRADITIONAL_IUPAC>
thalidomide

> <JCHEM_VEBER_RULE>
0

> <DRUGBANK_ID>
DB01041

> <SECONDARY_ACCESSION_NUMBERS>
APRD01251

> <DRUG_GROUPS>
approved; investigational; withdrawn

> <GENERIC_NAME>
Thalidomide

> <SYNONYMS>
(+-)-N-(2,6-dioxo-3-Piperidyl)phthalimide; (+-)-Thalidomide; (±)-N-(2,6-dioxo-3-piperidyl)phthalimide; (±)-thalidomide; 1,3-dioxo-2-(2,6-dioxopiperidin-3-yl)isoindoline; 2,6-dioxo-3-phthalimidopiperidine; 3-Phthalimidoglutarimide; alpha-(N-Phthalimido)glutarimide; alpha-N-Phthalylglutaramide; N-(2,6-dioxo-3-piperidyl)phthalimide; N-Phthaloylglutamimide; N-Phthalyl-glutaminsaeure-imid; N-Phthalylglutamic acid imide; Talidomida; Thalidomidum; α-(N-phthalimido)glutarimide; α-N-phthalylglutaramide; α-phthalimidoglutarimide

> <PRODUCTS>
Thalidomide Celgene; Thalomid

> <INTERNATIONAL_BRANDS>
Contergan; Distaval; K-17; Sedalis; Softenon; Talimol; Thaled

$$$$

  Mrv1572003301621172D          

 22 23  0  0  0  0            999 V2000
   -3.1915    0.3148    0.0000 C   0  0  0  0  0  0  0  0  0  0  0  0
   -3.9452    0.6504    0.0000 C   0  0  0  0  0  0  0  0  0  0  0  0
   -4.6126    0.1655    0.0000 C   0  0  0  0  0  0  0  0  0  0  0  0
   -4.5264   -0.6549    0.0000 C   0  0  0  0  0  0  0  0  0  0  0  0
   -3.7727   -0.9905    0.0000 C   0  0  0  0  0  0  0  0  0  0  0  0
   -3.1053   -0.5055    0.0000 C   0  0  0  0  0  0  0  0  0  0  0  0
   -2.4379   -0.9905    0.0000 C   0  0  0  0  0  0  0  0  0  0  0  0
   -3.5178   -1.7751    0.0000 N   0  0  0  0  0  0  0  0  0  0  0  0
   -2.6928   -1.7751    0.0000 C   0  0  0  0  0  0  0  0  0  0  0  0
   -1.7234   -0.5780    0.0000 C   0  0  0  0  0  0  0  0  0  0  0  0
   -1.0560   -1.0629    0.0000 N   0  0  0  0  0  0  0  0  0  0  0  0
   -0.3415   -0.6504    0.0000 N   0  0  0  0  0  0  0  0  0  0  0  0
    0.3728   -1.0629    0.0000 C   0  0  0  0  0  0  0  0  0  0  0  0
    1.0873   -0.6504    0.0000 N   0  0  0  0  0  0  0  0  0  0  0  0
    1.8018   -1.0629    0.0000 C   0  0  0  0  0  0  0  0  0  0  0  0
    2.5163   -0.6504    0.0000 C   0  0  0  0  0  0  0  0  0  0  0  0
    3.2307   -1.0629    0.0000 C   0  0  0  0  0  0  0  0  0  0  0  0
    3.9452   -0.6504    0.0000 C   0  0  0  0  0  0  0  0  0  0  0  0
    4.6597   -1.0629    0.0000 C   0  0  0  0  0  0  0  0  0  0  0  0
    0.3728   -1.8879    0.0000 N   0  0  0  0  0  0  0  0  0  0  0  0
   -3.9452    1.4754    0.0000 O   0  0  0  0  0  0  0  0  0  0  0  0
   -4.6597    1.8879    0.0000 C   0  0  0  0  0  0  0  0  0  0  0  0
  1  2  2  0  0  0  0
  1  6  1  0  0  0  0
  2  3  1  0  0  0  0
  3  4  2  0  0  0  0
  4  5  1  0  0  0  0
  5  8  1  0  0  0  0
  6  5  2  0  0  0  0
  7  6  1  0  0  0  0
  7  9  2  0  0  0  0
  8  9  1  0  0  0  0
 10 11  2  0  0  0  0
 11 12  1  0  0  0  0
 12 13  1  0  0  0  0
 13 14  1  0  0  0  0
 14 15  1  0  0  0  0
 15 16  1  0  0  0  0
 16 17  1  0  0  0  0
 17 18  1  0  0  0  0
 18 19  1  0  0  0  0
 10  7  1  0  0  0  0
 13 20  2  0  0  0  0
  2 21  1  0  0  0  0
 21 22  1  0  0  0  0
M  END
> <DATABASE_ID>
DB01079

> <DATABASE_NAME>
drugbank

> <SMILES>
CCCCCNC(=N)N\N=C\C1=CNC2=C1C=C(OC)C=C2

> <INCHI_IDENTIFIER>
InChI=1S/C16H23N5O/c1-3-4-5-8-18-16(17)21-20-11-12-10-19-15-7-6-13(22-2)9-14(12)15/h6-7,9-11,19H,3-5,8H2,1-2H3,(H3,17,18,21)/b20-11+

> <INCHI_KEY>
IKBKZGMPCYNSLU-RGVLZGJSSA-N

> <FORMULA>
C16H23N5O

> <MOLECULAR_WEIGHT>
301.394

> <EXACT_MASS>
301.190260381

> <JCHEM_ACCEPTOR_COUNT>
5

> <JCHEM_ATOM_COUNT>
45

> <JCHEM_AVERAGE_POLARIZABILITY>
34.96184660086094

> <JCHEM_BIOAVAILABILITY>
1

> <JCHEM_DONOR_COUNT>
4

> <JCHEM_FORMAL_CHARGE>
0

> <JCHEM_GHOSE_FILTER>
1

> <JCHEM_IUPAC>
N'-[(E)-[(5-methoxy-1H-indol-3-yl)methylidene]amino]-N-pentylguanidine

> <ALOGPS_LOGP>
2.76

> <JCHEM_LOGP>
2.9544107576666665

> <ALOGPS_LOGS>
-4.02

> <JCHEM_MDDR_LIKE_RULE>
0

> <JCHEM_NUMBER_OF_RINGS>
2

> <JCHEM_PHYSIOLOGICAL_CHARGE>
1

> <JCHEM_PKA>
19.91484195141512

> <JCHEM_PKA_STRONGEST_ACIDIC>
15.243261145827702

> <JCHEM_PKA_STRONGEST_BASIC>
8.50075894690013

> <JCHEM_POLAR_SURFACE_AREA>
85.29

> <JCHEM_REFRACTIVITY>
110.24959999999999

> <JCHEM_ROTATABLE_BOND_COUNT>
7

> <JCHEM_RULE_OF_FIVE>
1

> <ALOGPS_SOLUBILITY>
2.88e-02 g/l

> <JCHEM_TRADITIONAL_IUPAC>
tegaserod

> <JCHEM_VEBER_RULE>
0

> <DRUGBANK_ID>
DB01079

> <SECONDARY_ACCESSION_NUMBERS>
APRD00096

> <DRUG_GROUPS>
investigational; withdrawn

> <GENERIC_NAME>
Tegaserod

> <SYNONYMS>
1-(((5-Methoxyindol-3-yl)methylene)amino)-3-pentylguanidine; tégasérod; tegaserodum

> <SALTS>
Tegaserod maleate

$$$$
1105
  Mrv0541 02231215152D          

 19 20  0  0  1  0            999 V2000
    4.1251   -2.3645    0.0000 Cl  0  0  0  0  0  0  0  0  0  0  0  0
    2.8876    1.6500    0.0000 N   0  0  0  0  0  0  0  0  0  0  0  0
    4.1251    0.9356    0.0000 C   0  0  0  0  0  0  0  0  0  0  0  0
    4.9501    0.9356    0.0000 C   0  0  0  0  0  0  0  0  0  0  0  0
    4.1251    1.7606    0.0000 C   0  0  0  0  0  0  0  0  0  0  0  0
    3.3001    0.9356    0.0000 C   0  0  0  0  0  0  0  0  0  0  0  0
    4.9501    1.7606    0.0000 C   0  0  0  0  0  0  0  0  0  0  0  0
    4.1251    0.1106    0.0000 C   0  0  0  0  0  0  0  0  0  0  0  0
    2.8876    0.2210    0.0000 C   0  0  0  0  0  0  0  0  0  0  0  0
    2.0625    0.2210    0.0000 C   0  0  0  0  0  0  0  0  0  0  0  0
    4.8396   -0.3020    0.0000 C   0  0  0  0  0  0  0  0  0  0  0  0
    3.4106   -0.3020    0.0000 C   0  0  0  0  0  0  0  0  0  0  0  0
    2.0625    1.6500    0.0000 C   0  0  0  0  0  0  0  0  0  0  0  0
    3.3001    2.3645    0.0000 C   0  0  0  0  0  0  0  0  0  0  0  0
    1.6500   -0.4934    0.0000 C   0  0  0  0  0  0  0  0  0  0  0  0
    1.6500    0.9356    0.0000 C   0  0  0  0  0  0  0  0  0  0  0  0
    4.8396   -1.1270    0.0000 C   0  0  0  0  0  0  0  0  0  0  0  0
    3.4106   -1.1270    0.0000 C   0  0  0  0  0  0  0  0  0  0  0  0
    4.1251   -1.5395    0.0000 C   0  0  0  0  0  0  0  0  0  0  0  0
  1 19  1  0  0  0  0
  2  6  1  0  0  0  0
  2 13  1  0  0  0  0
  2 14  1  0  0  0  0
  3  4  1  0  0  0  0
  3  5  1  0  0  0  0
  3  6  1  0  0  0  0
  3  8  1  0  0  0  0
  4  7  1  0  0  0  0
  5  7  1  0  0  0  0
  6  9  1  0  0  0  0
  8 11  2  0  0  0  0
  8 12  1  0  0  0  0
  9 10  1  0  0  0  0
 10 15  1  0  0  0  0
 10 16  1  0  0  0  0
 11 17  1  0  0  0  0
 12 18  2  0  0  0  0
 17 19  2  0  0  0  0
 18 19  1  0  0  0  0
M  END
> <DATABASE_ID>
DB01105

> <DATABASE_NAME>
drugbank

> <SMILES>
CC(C)CC(N(C)C)C1(CCC1)C1=CC=C(Cl)C=C1

> <INCHI_IDENTIFIER>
InChI=1S/C17H26ClN/c1-13(2)12-16(19(3)4)17(10-5-11-17)14-6-8-15(18)9-7-14/h6-9,13,16H,5,10-12H2,1-4H3

> <INCHI_KEY>
UNAANXDKBXWMLN-UHFFFAOYSA-N

> <FORMULA>
C17H26ClN

> <MOLECULAR_WEIGHT>
279.848

> <EXACT_MASS>
279.175377544

> <JCHEM_ACCEPTOR_COUNT>
1

> <JCHEM_AVERAGE_POLARIZABILITY>
32.9023403046818

> <JCHEM_BIOAVAILABILITY>
1

> <JCHEM_DONOR_COUNT>
0

> <JCHEM_FORMAL_CHARGE>
0

> <JCHEM_GHOSE_FILTER>
1

> <JCHEM_IUPAC>
{1-[1-(4-chlorophenyl)cyclobutyl]-3-methylbutyl}dimethylamine

> <ALOGPS_LOGP>
5.05

> <JCHEM_LOGP>
5.201850084

> <ALOGPS_LOGS>
-5.47

> <JCHEM_MDDR_LIKE_RULE>
0

> <JCHEM_NUMBER_OF_RINGS>
2

> <JCHEM_PHYSIOLOGICAL_CHARGE>
1

> <JCHEM_PKA_STRONGEST_BASIC>
9.774437990168428

> <JCHEM_POLAR_SURFACE_AREA>
3.24

> <JCHEM_REFRACTIVITY>
83.9214

> <JCHEM_ROTATABLE_BOND_COUNT>
5

> <JCHEM_RULE_OF_FIVE>
0

> <ALOGPS_SOLUBILITY>
9.40e-04 g/l

> <JCHEM_TRADITIONAL_IUPAC>
sibutramine

> <JCHEM_VEBER_RULE>
1

> <DRUGBANK_ID>
DB01105

> <SECONDARY_ACCESSION_NUMBERS>
APRD00456

> <DRUG_GROUPS>
approved; illicit; investigational; withdrawn

> <GENERIC_NAME>
Sibutramine

> <SYNONYMS>
Sibutramina; Sibutraminum

> <PRODUCTS>
Apo-sibutramine; Meridia

> <SALTS>
Sibutramine hydrochloride; Sibutramine hydrochloride monohydrate

$$$$
1107
  Mrv0541 02231215152D          

 13 13  0  0  1  0            999 V2000
    1.6500    0.1106    0.0000 O   0  0  0  0  0  0  0  0  0  0  0  0
    4.5080    0.1106    0.0000 O   0  0  0  0  0  0  0  0  0  0  0  0
    3.7935   -1.1270    0.0000 N   0  0  0  0  0  0  0  0  0  0  0  0
    3.0791    0.1106    0.0000 C   0  0  0  0  0  0  0  0  0  0  0  0
    2.3645   -1.1270    0.0000 C   0  0  0  0  0  0  0  0  0  0  0  0
    2.3645   -0.3020    0.0000 C   0  0  0  0  0  0  0  0  0  0  0  0
    2.6665    0.8250    0.0000 C   0  0  0  0  0  0  0  0  0  0  0  0
    3.4916    0.8250    0.0000 C   0  0  0  0  0  0  0  0  0  0  0  0
    3.7935   -0.3020    0.0000 C   0  0  0  0  0  0  0  0  0  0  0  0
    3.0791   -1.5395    0.0000 C   0  0  0  0  0  0  0  0  0  0  0  0
    1.6500   -1.5395    0.0000 C   0  0  0  0  0  0  0  0  0  0  0  0
    1.8415    0.8250    0.0000 C   0  0  0  0  0  0  0  0  0  0  0  0
    3.0791    1.5395    0.0000 C   0  0  0  0  0  0  0  0  0  0  0  0
  1  6  2  0  0  0  0
  2  9  2  0  0  0  0
  3  9  1  0  0  0  0
  3 10  1  0  0  0  0
  4  6  1  0  0  0  0
  4  7  1  0  0  0  0
  4  8  1  0  0  0  0
  4  9  1  0  0  0  0
  5  6  1  0  0  0  0
  5 10  1  0  0  0  0
  5 11  1  0  0  0  0
  7 12  1  0  0  0  0
  8 13  1  0  0  0  0
M  END
> <DATABASE_ID>
DB01107

> <DATABASE_NAME>
drugbank

> <SMILES>
CCC1(CC)C(=O)NCC(C)C1=O

> <INCHI_IDENTIFIER>
InChI=1S/C10H17NO2/c1-4-10(5-2)8(12)7(3)6-11-9(10)13/h7H,4-6H2,1-3H3,(H,11,13)

> <INCHI_KEY>
SIDLZWOQUZRBRU-UHFFFAOYSA-N

> <FORMULA>
C10H17NO2

> <MOLECULAR_WEIGHT>
183.2475

> <EXACT_MASS>
183.125928793

> <JCHEM_ACCEPTOR_COUNT>
2

> <JCHEM_AVERAGE_POLARIZABILITY>
19.952090892432373

> <JCHEM_BIOAVAILABILITY>
1

> <JCHEM_DONOR_COUNT>
1

> <JCHEM_FORMAL_CHARGE>
0

> <JCHEM_GHOSE_FILTER>
1

> <JCHEM_IUPAC>
3,3-diethyl-5-methylpiperidine-2,4-dione

> <ALOGPS_LOGP>
0.94

> <JCHEM_LOGP>
1.8847076539999998

> <ALOGPS_LOGS>
-1.21

> <JCHEM_MDDR_LIKE_RULE>
0

> <JCHEM_NUMBER_OF_RINGS>
1

> <JCHEM_PHYSIOLOGICAL_CHARGE>
0

> <JCHEM_PKA>
18.48863347852474

> <JCHEM_PKA_STRONGEST_ACIDIC>
14.534169348808579

> <JCHEM_PKA_STRONGEST_BASIC>
-3.146638093056246

> <JCHEM_POLAR_SURFACE_AREA>
46.17

> <JCHEM_REFRACTIVITY>
50.250099999999996

> <JCHEM_ROTATABLE_BOND_COUNT>
2

> <JCHEM_RULE_OF_FIVE>
1

> <ALOGPS_SOLUBILITY>
1.13e+01 g/l

> <JCHEM_TRADITIONAL_IUPAC>
dimerin

> <JCHEM_VEBER_RULE>
0

> <DRUGBANK_ID>
DB01107

> <SECONDARY_ACCESSION_NUMBERS>
APRD00734

> <DRUG_GROUPS>
approved; illicit; withdrawn

> <GENERIC_NAME>
Methyprylon

> <SYNONYMS>
Methyprylon; Methyprylone; Methyprylonum; Metiprilona

$$$$
1108
  Mrv0541 02231215152D          

 28 32  0  0  1  0            999 V2000
    5.1232   -1.6148    0.0000 O   0  0  0  0  0  0  0  0  0  0  0  0
    3.3475    3.0349    0.0000 O   0  0  0  0  0  0  0  0  0  0  0  0
    3.6981   -3.2579    0.0000 O   0  0  0  0  0  0  0  0  0  0  0  0
    1.5934   -2.8376    0.0000 N   0  0  0  0  0  0  0  0  0  0  0  0
    3.7078   -0.8126    0.0000 C   0  0  1  0  0  0  0  0  0  0  0  0
    4.3977   -1.2109    0.0000 C   0  0  1  0  0  0  0  0  0  0  0  0
    3.7078   -0.0158    0.0000 C   0  0  2  0  0  0  0  0  0  0  0  0
    4.3977    0.3825    0.0000 C   0  0  2  0  0  0  0  0  0  0  0  0
    4.4106    1.2122    0.0000 C   0  0  1  0  0  0  0  0  0  0  0  0
    3.6951    1.6327    0.0000 C   0  0  2  0  0  0  0  0  0  0  0  0
    4.4106   -2.0408    0.0000 C   0  0  1  0  0  0  0  0  0  0  0  0
    5.0878   -0.8126    0.0000 C   0  0  0  0  0  0  0  0  0  0  0  0
    5.0878   -0.0158    0.0000 C   0  0  0  0  0  0  0  0  0  0  0  0
    2.9828    0.3880    0.0000 C   0  0  0  0  0  0  0  0  0  0  0  0
    2.9764    1.2177    0.0000 C   0  0  0  0  0  0  0  0  0  0  0  0
    2.9828   -1.2164    0.0000 C   0  0  0  0  0  0  0  0  0  0  0  0
    5.0264    1.7611    0.0000 C   0  0  0  0  0  0  0  0  0  0  0  0
    3.8750    2.4379    0.0000 C   0  0  2  0  0  0  0  0  0  0  0  0
    3.0178   -0.4142    0.0000 C   0  0  0  0  0  0  0  0  0  0  0  0
    4.6962    2.5171    0.0000 C   0  0  0  0  0  0  0  0  0  0  0  0
    3.6951   -2.4612    0.0000 C   0  0  0  0  0  0  0  0  0  0  0  0
    3.0082    2.0364    0.0000 C   0  0  0  0  0  0  0  0  0  0  0  0
    2.9764   -2.0463    0.0000 C   0  0  0  0  0  0  0  0  0  0  0  0
    2.2849   -2.4420    0.0000 C   0  0  0  0  0  0  0  0  0  0  0  0
    3.1584   -0.3388    0.0000 H   0  0  0  0  0  0  0  0  0  0  0  0
    4.9522    0.6969    0.0000 H   0  0  0  0  0  0  0  0  0  0  0  0
    4.9901    0.9470    0.0000 H   0  0  0  0  0  0  0  0  0  0  0  0
    4.7356   -2.5890    0.0000 H   0  0  0  0  0  0  0  0  0  0  0  0
  6  1  1  6  0  0  0
  1 11  1  0  0  0  0
 18  2  1  1  0  0  0
  3 21  1  0  0  0  0
  4 24  3  0  0  0  0
  5  6  1  0  0  0  0
  5  7  1  0  0  0  0
  5 16  1  0  0  0  0
  5 19  1  1  0  0  0
  6 11  1  0  0  0  0
  6 12  1  0  0  0  0
  7  8  1  0  0  0  0
  7 14  1  0  0  0  0
  7 25  1  6  0  0  0
  8  9  1  0  0  0  0
  8 13  1  0  0  0  0
  8 26  1  1  0  0  0
  9 10  1  0  0  0  0
  9 17  1  0  0  0  0
  9 27  1  6  0  0  0
 10 15  1  0  0  0  0
 10 18  1  0  0  0  0
 10 22  1  1  0  0  0
 11 21  1  0  0  0  0
 11 28  1  1  0  0  0
 12 13  1  0  0  0  0
 14 15  1  0  0  0  0
 16 23  1  0  0  0  0
 17 20  1  0  0  0  0
 18 20  1  0  0  0  0
 21 23  2  0  0  0  0
 23 24  1  0  0  0  0
M  END
> <DATABASE_ID>
DB01108

> <DATABASE_NAME>
drugbank

> <SMILES>
[H][C@]12O[C@]11CC[C@@]3([H])[C@]4([H])CC[C@H](O)[C@@]4(C)CC[C@]3([H])[C@@]1(C)CC(C#N)=C2O

> <INCHI_IDENTIFIER>
InChI=1S/C20H27NO3/c1-18-7-6-14-12(13(18)3-4-15(18)22)5-8-20-17(24-20)16(23)11(10-21)9-19(14,20)2/h12-15,17,22-23H,3-9H2,1-2H3/t12-,13-,14-,15-,17+,18-,19+,20+/m0/s1

> <INCHI_KEY>
KVJXBPDAXMEYOA-CXANFOAXSA-N

> <FORMULA>
C20H27NO3

> <MOLECULAR_WEIGHT>
329.4333

> <EXACT_MASS>
329.199093735

> <JCHEM_ACCEPTOR_COUNT>
4

> <JCHEM_AVERAGE_POLARIZABILITY>
36.96495621972632

> <JCHEM_BIOAVAILABILITY>
1

> <JCHEM_DONOR_COUNT>
2

> <JCHEM_FORMAL_CHARGE>
0

> <JCHEM_GHOSE_FILTER>
1

> <JCHEM_IUPAC>
(1S,2R,6R,8S,11S,12S,15S,16S)-5,15-dihydroxy-2,16-dimethyl-7-oxapentacyclo[9.7.0.0²,⁸.0⁶,⁸.0¹²,¹⁶]octadec-4-ene-4-carbonitrile

> <ALOGPS_LOGP>
2.41

> <JCHEM_LOGP>
2.300783866666666

> <ALOGPS_LOGS>
-3.75

> <JCHEM_MDDR_LIKE_RULE>
0

> <JCHEM_NUMBER_OF_RINGS>
5

> <JCHEM_PHYSIOLOGICAL_CHARGE>
-1

> <JCHEM_PKA>
19.3777053517066

> <JCHEM_PKA_STRONGEST_ACIDIC>
5.231169873958983

> <JCHEM_PKA_STRONGEST_BASIC>
-0.8838175250659647

> <JCHEM_POLAR_SURFACE_AREA>
76.78

> <JCHEM_REFRACTIVITY>
90.17459999999998

> <JCHEM_ROTATABLE_BOND_COUNT>
0

> <JCHEM_RULE_OF_FIVE>
1

> <ALOGPS_SOLUBILITY>
5.93e-02 g/l

> <JCHEM_TRADITIONAL_IUPAC>
trilostane

> <JCHEM_VEBER_RULE>
0

> <DRUGBANK_ID>
DB01108

> <SECONDARY_ACCESSION_NUMBERS>
APRD01276

> <DRUG_GROUPS>
approved; investigational; vet_approved; withdrawn

> <GENERIC_NAME>
Trilostane

$$$$

  Mrv0541 04191212172D          

 26 28  0  0  1  0            999 V2000
   17.8239   -8.7812    0.0000 C   0  0  2  0  0  0  0  0  0  0  0  0
   17.8239   -9.6062    0.0000 N   0  0  0  0  0  0  0  0  0  0  0  0
   18.5384  -10.0187    0.0000 C   0  0  0  0  0  0  0  0  0  0  0  0
   19.2529   -9.6062    0.0000 C   0  0  0  0  0  0  0  0  0  0  0  0
   19.2529   -8.7812    0.0000 C   0  0  0  0  0  0  0  0  0  0  0  0
   18.5384   -8.3687    0.0000 S   0  0  0  0  0  0  0  0  0  0  0  0
   16.9989   -8.7812    0.0000 C   0  0  1  0  0  0  0  0  0  0  0  0
   16.9989   -9.6062    0.0000 C   0  0  0  0  0  0  0  0  0  0  0  0
   16.2844   -8.3687    0.0000 N   0  0  0  0  0  0  0  0  0  0  0  0
   15.5698   -8.7812    0.0000 C   0  0  0  0  0  0  0  0  0  0  0  0
   15.5698   -9.6062    0.0000 O   0  0  0  0  0  0  0  0  0  0  0  0
   16.2844  -10.0187    0.0000 O   0  0  0  0  0  0  0  0  0  0  0  0
   14.8553   -8.3687    0.0000 C   0  0  1  0  0  0  0  0  0  0  0  0
   19.9784  -10.0253    0.0000 C   0  0  0  0  0  0  0  0  0  0  0  0
   18.5384  -10.8436    0.0000 C   0  0  0  0  0  0  0  0  0  0  0  0
   17.8140  -11.2620    0.0000 O   0  0  0  0  0  0  0  0  0  0  0  0
   19.2429  -11.2505    0.0000 O   0  0  0  0  0  0  0  0  0  0  0  0
   14.1293   -8.7881    0.0000 C   0  0  0  0  0  0  0  0  0  0  0  0
   13.4158   -8.3761    0.0000 C   0  0  0  0  0  0  0  0  0  0  0  0
   12.7021   -8.7881    0.0000 C   0  0  0  0  0  0  0  0  0  0  0  0
   12.7021   -9.6121    0.0000 C   0  0  0  0  0  0  0  0  0  0  0  0
   13.4158  -10.0241    0.0000 C   0  0  0  0  0  0  0  0  0  0  0  0
   14.1293   -9.6121    0.0000 C   0  0  0  0  0  0  0  0  0  0  0  0
   14.8553   -7.5410    0.0000 N   0  0  0  0  0  0  0  0  0  0  0  0
   17.8239   -7.9553    0.0000 H   0  0  0  0  0  0  0  0  0  0  0  0
   11.9953  -10.0203    0.0000 O   0  0  0  0  0  0  0  0  0  0  0  0
  1  2  1  0  0  0  0
  2  3  1  0  0  0  0
  3  4  2  0  0  0  0
  4  5  1  0  0  0  0
  5  6  1  0  0  0  0
  1  6  1  0  0  0  0
  1  7  1  0  0  0  0
  7  8  1  0  0  0  0
  2  8  1  0  0  0  0
  7  9  1  1  0  0  0
  9 10  1  0  0  0  0
 10 11  2  0  0  0  0
  8 12  2  0  0  0  0
 10 13  1  0  0  0  0
  4 14  1  0  0  0  0
  3 15  1  0  0  0  0
 15 16  2  0  0  0  0
 15 17  1  0  0  0  0
 13 18  1  0  0  0  0
 18 19  2  0  0  0  0
 19 20  1  0  0  0  0
 20 21  2  0  0  0  0
 21 22  1  0  0  0  0
 22 23  2  0  0  0  0
 18 23  1  0  0  0  0
 13 24  1  1  0  0  0
  1 25  1  6  0  0  0
 21 26  1  0  0  0  0
M  END
> <DATABASE_ID>
DB01140

> <DATABASE_NAME>
drugbank

> <SMILES>
[H][C@]12SCC(C)=C(N1C(=O)[C@H]2NC(=O)[C@H](N)C1=CC=C(O)C=C1)C(O)=O

> <INCHI_IDENTIFIER>
InChI=1S/C16H17N3O5S/c1-7-6-25-15-11(14(22)19(15)12(7)16(23)24)18-13(21)10(17)8-2-4-9(20)5-3-8/h2-5,10-11,15,20H,6,17H2,1H3,(H,18,21)(H,23,24)/t10-,11-,15-/m1/s1

> <INCHI_KEY>
BOEGTKLJZSQCCD-UEKVPHQBSA-N

> <FORMULA>
C16H17N3O5S

> <MOLECULAR_WEIGHT>
363.388

> <EXACT_MASS>
363.088891359

> <JCHEM_ACCEPTOR_COUNT>
6

> <JCHEM_AVERAGE_POLARIZABILITY>
35.86177537632552

> <JCHEM_BIOAVAILABILITY>
1

> <JCHEM_DONOR_COUNT>
4

> <JCHEM_FORMAL_CHARGE>
0

> <JCHEM_GHOSE_FILTER>
0

> <JCHEM_IUPAC>
(6R,7R)-7-[(2R)-2-amino-2-(4-hydroxyphenyl)acetamido]-3-methyl-8-oxo-5-thia-1-azabicyclo[4.2.0]oct-2-ene-2-carboxylic acid

> <ALOGPS_LOGP>
0.51

> <JCHEM_LOGP>
-2.4485235229519144

> <ALOGPS_LOGS>
-2.96

> <JCHEM_MDDR_LIKE_RULE>
0

> <JCHEM_NUMBER_OF_RINGS>
3

> <JCHEM_PHYSIOLOGICAL_CHARGE>
0

> <JCHEM_PKA>
9.47951977832049

> <JCHEM_PKA_STRONGEST_ACIDIC>
3.445403259534226

> <JCHEM_PKA_STRONGEST_BASIC>
7.429743431066661

> <JCHEM_POLAR_SURFACE_AREA>
132.96

> <JCHEM_REFRACTIVITY>
90.95450000000001

> <JCHEM_ROTATABLE_BOND_COUNT>
4

> <JCHEM_RULE_OF_FIVE>
1

> <ALOGPS_SOLUBILITY>
3.99e-01 g/l

> <JCHEM_TRADITIONAL_IUPAC>
cephadroxil

> <JCHEM_VEBER_RULE>
0

> <DRUGBANK_ID>
DB01140

> <SECONDARY_ACCESSION_NUMBERS>
APRD00196

> <DRUG_GROUPS>
approved; vet_approved; withdrawn

> <GENERIC_NAME>
Cefadroxil

> <SYNONYMS>
CDX; Cefadroxil anhydrous; Cefadroxilo; Cefadroxilum; Cephadroxil; D-Cefadroxil

> <PRODUCTS>
Apo-cefadroxil; Cefadroxil; Duricef; Nu-cefadroxil, 500 mg; Pro-cefadroxil - 500; Teva-cefadroxil

> <INTERNATIONAL_BRANDS>
Baxan; Bidocef; Cefamox; Duracef; Oracefal

> <SALTS>
Cefadroxil hemihydrate; Cefadroxil monohydrate; Cefadroxil sodium

$$$$
1149
  Mrv0541 02231215172D          

 33 36  0  0  0  0            999 V2000
    1.6500   -5.0560    0.0000 Cl  0  0  0  0  0  0  0  0  0  0  0  0
    3.9811    2.9167    0.0000 O   0  0  0  0  0  0  0  0  0  0  0  0
    6.8929    4.1298    0.0000 O   0  0  0  0  0  0  0  0  0  0  0  0
    3.0791   -0.9309    0.0000 N   0  0  0  0  0  0  0  0  0  0  0  0
    3.0791   -2.5809    0.0000 N   0  0  0  0  0  0  0  0  0  0  0  0
    4.5080    1.5442    0.0000 N   0  0  0  0  0  0  0  0  0  0  0  0
    5.4012    2.5362    0.0000 N   0  0  0  0  0  0  0  0  0  0  0  0
    5.2616    1.2086    0.0000 N   0  0  0  0  0  0  0  0  0  0  0  0
    2.3645   -1.3434    0.0000 C   0  0  0  0  0  0  0  0  0  0  0  0
    3.7935   -1.3434    0.0000 C   0  0  0  0  0  0  0  0  0  0  0  0
    2.3645   -2.1684    0.0000 C   0  0  0  0  0  0  0  0  0  0  0  0
    3.7935   -2.1684    0.0000 C   0  0  0  0  0  0  0  0  0  0  0  0
    3.0791   -0.1058    0.0000 C   0  0  0  0  0  0  0  0  0  0  0  0
    3.7935    0.3067    0.0000 C   0  0  0  0  0  0  0  0  0  0  0  0
    3.7935    1.1317    0.0000 C   0  0  0  0  0  0  0  0  0  0  0  0
    3.0791   -3.4059    0.0000 C   0  0  0  0  0  0  0  0  0  0  0  0
    4.5942    2.3647    0.0000 C   0  0  0  0  0  0  0  0  0  0  0  0
    5.8137    1.8217    0.0000 C   0  0  0  0  0  0  0  0  0  0  0  0
    2.3645   -3.8184    0.0000 C   0  0  0  0  0  0  0  0  0  0  0  0
    3.7935   -3.8184    0.0000 C   0  0  0  0  0  0  0  0  0  0  0  0
    5.7368    3.2899    0.0000 C   0  0  0  0  0  0  0  0  0  0  0  0
    6.6342    1.7355    0.0000 C   0  0  0  0  0  0  0  0  0  0  0  0
    2.3645   -4.6434    0.0000 C   0  0  0  0  0  0  0  0  0  0  0  0
    3.7935   -4.6434    0.0000 C   0  0  0  0  0  0  0  0  0  0  0  0
    6.5572    3.3761    0.0000 C   0  0  0  0  0  0  0  0  0  0  0  0
    3.0791   -5.0560    0.0000 C   0  0  0  0  0  0  0  0  0  0  0  0
    6.9698    0.9818    0.0000 C   0  0  0  0  0  0  0  0  0  0  0  0
    7.7133    4.2161    0.0000 C   0  0  0  0  0  0  0  0  0  0  0  0
    8.0489    4.9697    0.0000 C   0  0  0  0  0  0  0  0  0  0  0  0
    8.1983    3.5486    0.0000 C   0  0  0  0  0  0  0  0  0  0  0  0
    8.8694    5.0560    0.0000 C   0  0  0  0  0  0  0  0  0  0  0  0
    9.0188    3.6349    0.0000 C   0  0  0  0  0  0  0  0  0  0  0  0
    9.3543    4.3885    0.0000 C   0  0  0  0  0  0  0  0  0  0  0  0
  1 23  1  0  0  0  0
  2 17  2  0  0  0  0
  3 25  1  0  0  0  0
  3 28  1  0  0  0  0
  4  9  1  0  0  0  0
  4 10  1  0  0  0  0
  4 13  1  0  0  0  0
  5 11  1  0  0  0  0
  5 12  1  0  0  0  0
  5 16  1  0  0  0  0
  6  8  1  0  0  0  0
  6 15  1  0  0  0  0
  6 17  1  0  0  0  0
  7 17  1  0  0  0  0
  7 18  1  0  0  0  0
  7 21  1  0  0  0  0
  8 18  2  0  0  0  0
  9 11  1  0  0  0  0
 10 12  1  0  0  0  0
 13 14  1  0  0  0  0
 14 15  1  0  0  0  0
 16 19  2  0  0  0  0
 16 20  1  0  0  0  0
 18 22  1  0  0  0  0
 19 23  1  0  0  0  0
 20 24  2  0  0  0  0
 21 25  1  0  0  0  0
 22 27  1  0  0  0  0
 23 26  2  0  0  0  0
 24 26  1  0  0  0  0
 28 29  2  0  0  0  0
 28 30  1  0  0  0  0
 29 31  1  0  0  0  0
 30 32  2  0  0  0  0
 31 33  2  0  0  0  0
 32 33  1  0  0  0  0
M  END
> <DATABASE_ID>
DB01149

> <DATABASE_NAME>
drugbank

> <SMILES>
CCC1=NN(CCCN2CCN(CC2)C2=CC(Cl)=CC=C2)C(=O)N1CCOC1=CC=CC=C1

> <INCHI_IDENTIFIER>
InChI=1S/C25H32ClN5O2/c1-2-24-27-31(25(32)30(24)18-19-33-23-10-4-3-5-11-23)13-7-12-28-14-16-29(17-15-28)22-9-6-8-21(26)20-22/h3-6,8-11,20H,2,7,12-19H2,1H3

> <INCHI_KEY>
VRBKIVRKKCLPHA-UHFFFAOYSA-N

> <FORMULA>
C25H32ClN5O2

> <MOLECULAR_WEIGHT>
470.007

> <EXACT_MASS>
469.224453

> <JCHEM_ACCEPTOR_COUNT>
5

> <JCHEM_AVERAGE_POLARIZABILITY>
51.848439212139965

> <JCHEM_BIOAVAILABILITY>
1

> <JCHEM_DONOR_COUNT>
0

> <JCHEM_FORMAL_CHARGE>
0

> <JCHEM_GHOSE_FILTER>
0

> <JCHEM_IUPAC>
1-{3-[4-(3-chlorophenyl)piperazin-1-yl]propyl}-3-ethyl-4-(2-phenoxyethyl)-4,5-dihydro-1H-1,2,4-triazol-5-one

> <ALOGPS_LOGP>
3.71

> <JCHEM_LOGP>
4.652967894333333

> <ALOGPS_LOGS>
-3.83

> <JCHEM_MDDR_LIKE_RULE>
1

> <JCHEM_NUMBER_OF_RINGS>
4

> <JCHEM_PHYSIOLOGICAL_CHARGE>
1

> <JCHEM_PKA_STRONGEST_BASIC>
7.088044376629501

> <JCHEM_POLAR_SURFACE_AREA>
51.620000000000005

> <JCHEM_REFRACTIVITY>
132.376

> <JCHEM_ROTATABLE_BOND_COUNT>
10

> <JCHEM_RULE_OF_FIVE>
1

> <ALOGPS_SOLUBILITY>
6.98e-02 g/l

> <JCHEM_TRADITIONAL_IUPAC>
nefazodone

> <JCHEM_VEBER_RULE>
0

> <DRUGBANK_ID>
DB01149

> <SECONDARY_ACCESSION_NUMBERS>
APRD00402

> <DRUG_GROUPS>
approved; withdrawn

> <GENERIC_NAME>
Nefazodone

> <SYNONYMS>
Nefazodona; Nefazodonum

> <PRODUCTS>
Lin-nefazodone; Nefazodone Hydrochloride; Serzone-5ht2

> <INTERNATIONAL_BRANDS>
Dutonin; Serzone

> <SALTS>
Nefazodone Hydrochloride

$$$$

  Mrv0541 04191212172D          

 24 26  0  0  1  0            999 V2000
   -0.8250    0.8250    0.0000 C   0  0  1  0  0  0  0  0  0  0  0  0
    0.0000    0.0000    0.0000 N   0  0  0  0  0  0  0  0  0  0  0  0
    0.0000    0.8250    0.0000 C   0  0  2  0  0  0  0  0  0  0  0  0
   -0.8250    0.0000    0.0000 C   0  0  0  0  0  0  0  0  0  0  0  0
    0.7846   -0.2549    0.0000 C   0  0  2  0  0  0  0  0  0  0  0  0
    1.2696    0.4125    0.0000 C   0  0  0  0  0  0  0  0  0  0  0  0
    0.7846    1.0800    0.0000 S   0  0  0  0  0  0  0  0  0  0  0  0
    1.9883    0.0076    0.0000 C   0  0  0  0  0  0  0  0  0  0  0  0
    1.9883    0.8175    0.0000 C   0  0  0  0  0  0  0  0  0  0  0  0
   -1.4083   -0.5833    0.0000 O   0  0  0  0  0  0  0  0  0  0  0  0
    1.0396   -1.0395    0.0000 C   0  0  0  0  0  0  0  0  0  0  0  0
    1.8466   -1.2110    0.0000 O   0  0  0  0  0  0  0  0  0  0  0  0
    0.4875   -1.6526    0.0000 O   0  0  0  0  0  0  0  0  0  0  0  0
    0.0000    1.6500    0.0000 H   0  0  0  0  0  0  0  0  0  0  0  0
   -1.5395    1.2375    0.0000 N   0  0  0  0  0  0  0  0  0  0  0  0
   -2.2540    0.8250    0.0000 C   0  0  0  0  0  0  0  0  0  0  0  0
   -2.9684    1.2375    0.0000 N   0  0  0  0  0  0  0  0  0  0  0  0
   -3.6501    0.7728    0.0000 C   0  0  0  0  0  0  0  0  0  0  0  0
   -2.9068    2.0602    0.0000 C   0  0  0  0  0  0  0  0  0  0  0  0
   -3.5116    2.6213    0.0000 C   0  0  0  0  0  0  0  0  0  0  0  0
   -4.4384    1.0159    0.0000 C   0  0  0  0  0  0  0  0  0  0  0  0
   -4.3273    2.4984    0.0000 C   0  0  0  0  0  0  0  0  0  0  0  0
   -4.7398    1.7839    0.0000 C   0  0  0  0  0  0  0  0  0  0  0  0
   -2.2540    0.0000    0.0000 H   0  0  0  0  0  0  0  0  0  0  0  0
  3  1  1  0  0  0  0
  1  4  1  0  0  0  0
  4  2  1  0  0  0  0
  5  2  1  0  0  0  0
  3  2  1  0  0  0  0
  3  7  1  0  0  0  0
 10  4  2  0  0  0  0
  6  5  1  0  0  0  0
  5 11  1  6  0  0  0
  7  6  1  0  0  0  0
  8  6  1  0  0  0  0
  9  6  1  0  0  0  0
 12 11  1  0  0  0  0
 13 11  2  0  0  0  0
  3 14  1  6  0  0  0
  1 15  1  1  0  0  0
 16 15  2  0  0  0  0
 17 16  1  0  0  0  0
 18 17  1  0  0  0  0
 19 17  1  0  0  0  0
 21 18  1  0  0  0  0
 20 19  1  0  0  0  0
 22 20  1  0  0  0  0
 23 21  1  0  0  0  0
 23 22  1  0  0  0  0
 16 24  1  4  0  0  0
M  END
> <DATABASE_ID>
DB01163

> <DATABASE_NAME>
drugbank

> <SMILES>
[H]C(=N[C@@H]1C(=O)N2[C@@H](C(O)=O)C(C)(C)S[C@]12[H])N1CCCCCC1

> <INCHI_IDENTIFIER>
InChI=1S/C15H23N3O3S/c1-15(2)11(14(20)21)18-12(19)10(13(18)22-15)16-9-17-7-5-3-4-6-8-17/h9-11,13H,3-8H2,1-2H3,(H,20,21)/t10-,11+,13-/m1/s1

> <INCHI_KEY>
BWWVAEOLVKTZFQ-NTZNESFSSA-N

> <FORMULA>
C15H23N3O3S

> <MOLECULAR_WEIGHT>
325.426

> <EXACT_MASS>
325.146012307

> <JCHEM_ACCEPTOR_COUNT>
5

> <JCHEM_AVERAGE_POLARIZABILITY>
34.18426189464539

> <JCHEM_BIOAVAILABILITY>
1

> <JCHEM_DONOR_COUNT>
1

> <JCHEM_FORMAL_CHARGE>
0

> <JCHEM_GHOSE_FILTER>
0

> <JCHEM_IUPAC>
(2S,5R,6R)-6-[(azepan-1-ylmethylidene)amino]-3,3-dimethyl-7-oxo-4-thia-1-azabicyclo[3.2.0]heptane-2-carboxylic acid

> <ALOGPS_LOGP>
1.41

> <JCHEM_LOGP>
-0.5483665752800043

> <ALOGPS_LOGS>
-2.52

> <JCHEM_MDDR_LIKE_RULE>
0

> <JCHEM_NUMBER_OF_RINGS>
3

> <JCHEM_PHYSIOLOGICAL_CHARGE>
0

> <JCHEM_PKA>
13.778436422807125

> <JCHEM_PKA_STRONGEST_ACIDIC>
3.302457911641027

> <JCHEM_PKA_STRONGEST_BASIC>
7.915651222614097

> <JCHEM_POLAR_SURFACE_AREA>
73.21

> <JCHEM_REFRACTIVITY>
84.3069

> <JCHEM_ROTATABLE_BOND_COUNT>
2

> <JCHEM_RULE_OF_FIVE>
1

> <ALOGPS_SOLUBILITY>
9.79e-01 g/l

> <JCHEM_TRADITIONAL_IUPAC>
mecillinam

> <JCHEM_VEBER_RULE>
0

> <DRUGBANK_ID>
DB01163

> <SECONDARY_ACCESSION_NUMBERS>
APRD00789

> <DRUG_GROUPS>
withdrawn

> <GENERIC_NAME>
Amdinocillin

> <SYNONYMS>
Mecillinam; Penicillin HX

> <INTERNATIONAL_BRANDS>
Coactin; Selexid

$$$$
1178
  Mrv0541 02231215182D          

 17 18  0  0  1  0            999 V2000
    1.6500   -1.8563    0.0000 Cl  0  0  0  0  0  0  0  0  0  0  0  0
    5.2224   -0.6188    0.0000 S   0  0  0  0  0  0  0  0  0  0  0  0
    4.8099   -1.3332    0.0000 O   0  0  0  0  0  0  0  0  0  0  0  0
    5.6350   -1.3332    0.0000 O   0  0  0  0  0  0  0  0  0  0  0  0
    5.2224    1.8563    0.0000 O   0  0  0  0  0  0  0  0  0  0  0  0
    4.5080    0.6188    0.0000 N   0  0  0  0  0  0  0  0  0  0  0  0
    4.5080   -0.2063    0.0000 C   0  0  0  0  0  0  0  0  0  0  0  0
    5.9370   -0.2063    0.0000 C   0  0  0  0  0  0  0  0  0  0  0  0
    5.9370    0.6188    0.0000 C   0  0  0  0  0  0  0  0  0  0  0  0
    3.7935   -0.6188    0.0000 C   0  0  0  0  0  0  0  0  0  0  0  0
    5.2224    1.0313    0.0000 C   0  0  0  0  0  0  0  0  0  0  0  0
    3.7935    1.0313    0.0000 C   0  0  0  0  0  0  0  0  0  0  0  0
    3.7935   -1.4438    0.0000 C   0  0  0  0  0  0  0  0  0  0  0  0
    3.0791   -0.2063    0.0000 C   0  0  0  0  0  0  0  0  0  0  0  0
    3.0791   -1.8563    0.0000 C   0  0  0  0  0  0  0  0  0  0  0  0
    2.3645   -0.6188    0.0000 C   0  0  0  0  0  0  0  0  0  0  0  0
    2.3645   -1.4438    0.0000 C   0  0  0  0  0  0  0  0  0  0  0  0
  1 17  1  0  0  0  0
  2  3  2  0  0  0  0
  2  4  2  0  0  0  0
  2  7  1  0  0  0  0
  2  8  1  0  0  0  0
  5 11  2  0  0  0  0
  6  7  1  0  0  0  0
  6 11  1  0  0  0  0
  6 12  1  0  0  0  0
  7 10  1  0  0  0  0
  8  9  1  0  0  0  0
  9 11  1  0  0  0  0
 10 13  2  0  0  0  0
 10 14  1  0  0  0  0
 13 15  1  0  0  0  0
 14 16  2  0  0  0  0
 15 17  2  0  0  0  0
 16 17  1  0  0  0  0
M  END
> <DATABASE_ID>
DB01178

> <DATABASE_NAME>
drugbank

> <SMILES>
CN1C(C2=CC=C(Cl)C=C2)S(=O)(=O)CCC1=O

> <INCHI_IDENTIFIER>
InChI=1S/C11H12ClNO3S/c1-13-10(14)6-7-17(15,16)11(13)8-2-4-9(12)5-3-8/h2-5,11H,6-7H2,1H3

> <INCHI_KEY>
WEQAYVWKMWHEJO-UHFFFAOYSA-N

> <FORMULA>
C11H12ClNO3S

> <MOLECULAR_WEIGHT>
273.736

> <EXACT_MASS>
273.022641652

> <JCHEM_ACCEPTOR_COUNT>
3

> <JCHEM_AVERAGE_POLARIZABILITY>
25.893445086323045

> <JCHEM_BIOAVAILABILITY>
1

> <JCHEM_DONOR_COUNT>
0

> <JCHEM_FORMAL_CHARGE>
0

> <JCHEM_GHOSE_FILTER>
1

> <JCHEM_IUPAC>
2-(4-chlorophenyl)-3-methyl-1λ⁶,3-thiazinane-1,1,4-trione

> <ALOGPS_LOGP>
0.84

> <JCHEM_LOGP>
0.9171674296666675

> <ALOGPS_LOGS>
-2.23

> <JCHEM_MDDR_LIKE_RULE>
0

> <JCHEM_NUMBER_OF_RINGS>
2

> <JCHEM_PHYSIOLOGICAL_CHARGE>
0

> <JCHEM_PKA_STRONGEST_ACIDIC>
19.072128640163584

> <JCHEM_PKA_STRONGEST_BASIC>
-2.471632039008525

> <JCHEM_POLAR_SURFACE_AREA>
54.45

> <JCHEM_REFRACTIVITY>
64.88000000000001

> <JCHEM_ROTATABLE_BOND_COUNT>
1

> <JCHEM_RULE_OF_FIVE>
1

> <ALOGPS_SOLUBILITY>
1.61e+00 g/l

> <JCHEM_TRADITIONAL_IUPAC>
muskel

> <JCHEM_VEBER_RULE>
0

> <DRUGBANK_ID>
DB01178

> <SECONDARY_ACCESSION_NUMBERS>
APRD00865

> <DRUG_GROUPS>
approved; withdrawn

> <GENERIC_NAME>
Chlormezanone

> <SYNONYMS>
(±)-chlormezanone; Chlormethazanone; Chlormezanone; Chlormezanonum; Clormezanona

> <INTERNATIONAL_BRANDS>
Fenaprim; Trancopal

$$$$
1186
  Mrv0541 02231215182D          

 24 27  0  0  1  0            999 V2000
    2.3661    2.3349    0.0000 S   0  0  0  0  0  0  0  0  0  0  0  0
    4.5705    1.0944    0.0000 N   0  0  0  0  0  0  0  0  0  0  0  0
    5.5455   -2.3016    0.0000 N   0  0  0  0  0  0  0  0  0  0  0  0
    3.8428   -0.1774    0.0000 C   0  0  2  0  0  0  0  0  0  0  0  0
    4.5572    0.2351    0.0000 C   0  0  1  0  0  0  0  0  0  0  0  0
    3.0920    0.2408    0.0000 C   0  0  0  0  0  0  0  0  0  0  0  0
    3.0853    1.1002    0.0000 C   0  0  2  0  0  0  0  0  0  0  0  0
    3.8296    1.5298    0.0000 C   0  0  0  0  0  0  0  0  0  0  0  0
    5.2717   -0.1774    0.0000 C   0  0  0  0  0  0  0  0  0  0  0  0
    3.8428   -1.0024    0.0000 C   0  0  0  0  0  0  0  0  0  0  0  0
    5.2717   -1.0024    0.0000 C   0  0  0  0  0  0  0  0  0  0  0  0
    4.5572   -1.4149    0.0000 C   0  0  0  0  0  0  0  0  0  0  0  0
    5.2897    1.4986    0.0000 C   0  0  0  0  0  0  0  0  0  0  0  0
    2.3693    1.5099    0.0000 C   0  0  0  0  0  0  0  0  0  0  0  0
    4.5705   -2.2742    0.0000 C   0  0  0  0  0  0  0  0  0  0  0  0
    3.0920   -1.4205    0.0000 C   0  0  0  0  0  0  0  0  0  0  0  0
    5.8797   -1.5528    0.0000 C   0  0  0  0  0  0  0  0  0  0  0  0
    5.2993    2.3236    0.0000 C   0  0  0  0  0  0  0  0  0  0  0  0
    3.8296   -2.7095    0.0000 C   0  0  0  0  0  0  0  0  0  0  0  0
    3.0853   -2.2799    0.0000 C   0  0  0  0  0  0  0  0  0  0  0  0
    6.0184    2.7278    0.0000 C   0  0  0  0  0  0  0  0  0  0  0  0
    1.6500    2.7447    0.0000 C   0  0  0  0  0  0  0  0  0  0  0  0
    3.2738   -0.5118    0.0000 H   0  0  0  0  0  0  0  0  0  0  0  0
    5.1314    0.5608    0.0000 H   0  0  0  0  0  0  0  0  0  0  0  0
  1 14  1  0  0  0  0
  1 22  1  0  0  0  0
  2  5  1  0  0  0  0
  2  8  1  0  0  0  0
  2 13  1  0  0  0  0
  3 15  1  0  0  0  0
  3 17  1  0  0  0  0
  4  5  1  0  0  0  0
  4  6  1  0  0  0  0
  4 10  1  0  0  0  0
  4 23  1  6  0  0  0
  5  9  1  0  0  0  0
  5 24  1  1  0  0  0
  6  7  1  0  0  0  0
  7  8  1  0  0  0  0
  7 14  1  1  0  0  0
  9 11  1  0  0  0  0
 10 12  2  0  0  0  0
 10 16  1  0  0  0  0
 11 12  1  0  0  0  0
 11 17  2  0  0  0  0
 12 15  1  0  0  0  0
 13 18  1  0  0  0  0
 15 19  2  0  0  0  0
 16 20  2  0  0  0  0
 18 21  1  0  0  0  0
 19 20  1  0  0  0  0
M  END
> <DATABASE_ID>
DB01186

> <DATABASE_NAME>
drugbank

> <SMILES>
[H][C@@]12CC3=CNC4=CC=CC(=C34)[C@@]1([H])C[C@@H](CSC)CN2CCC

> <INCHI_IDENTIFIER>
InChI=1S/C19H26N2S/c1-3-7-21-11-13(12-22-2)8-16-15-5-4-6-17-19(15)14(10-20-17)9-18(16)21/h4-6,10,13,16,18,20H,3,7-9,11-12H2,1-2H3/t13-,16-,18-/m1/s1

> <INCHI_KEY>
YEHCICAEULNIGD-MZMPZRCHSA-N

> <FORMULA>
C19H26N2S

> <MOLECULAR_WEIGHT>
314.488

> <EXACT_MASS>
314.181669532

> <JCHEM_ACCEPTOR_COUNT>
1

> <JCHEM_AVERAGE_POLARIZABILITY>
38.398018696635305

> <JCHEM_BIOAVAILABILITY>
1

> <JCHEM_DONOR_COUNT>
1

> <JCHEM_FORMAL_CHARGE>
0

> <JCHEM_GHOSE_FILTER>
1

> <JCHEM_IUPAC>
(2R,4R,7R)-4-[(methylsulfanyl)methyl]-6-propyl-6,11-diazatetracyclo[7.6.1.0²,⁷.0¹²,¹⁶]hexadeca-1(16),9,12,14-tetraene

> <ALOGPS_LOGP>
4.17

> <JCHEM_LOGP>
4.225289858

> <ALOGPS_LOGS>
-5.73

> <JCHEM_MDDR_LIKE_RULE>
0

> <JCHEM_NUMBER_OF_RINGS>
4

> <JCHEM_PHYSIOLOGICAL_CHARGE>
1

> <JCHEM_PKA_STRONGEST_ACIDIC>
17.350344088893937

> <JCHEM_PKA_STRONGEST_BASIC>
9.486434456169016

> <JCHEM_POLAR_SURFACE_AREA>
19.03

> <JCHEM_REFRACTIVITY>
97.0167

> <JCHEM_ROTATABLE_BOND_COUNT>
4

> <JCHEM_RULE_OF_FIVE>
1

> <ALOGPS_SOLUBILITY>
5.84e-04 g/l

> <JCHEM_TRADITIONAL_IUPAC>
pergolide

> <JCHEM_VEBER_RULE>
1

> <DRUGBANK_ID>
DB01186

> <SECONDARY_ACCESSION_NUMBERS>
APRD00663

> <DRUG_GROUPS>
approved; vet_approved; withdrawn

> <GENERIC_NAME>
Pergolide

> <SYNONYMS>
Pergolida; Pergolidum

> <PRODUCTS>
Permax Tab 0.05mg; Permax Tab 0.25mg; Permax Tab 1mg

> <INTERNATIONAL_BRANDS>
Permax

> <SALTS>
Pergolide mesylate

$$$$

  Mrv0541 04191212172D          

 16 16  0  0  1  0            999 V2000
    4.1890   -6.4628    0.0000 C   0  0  0  0  0  0  0  0  0  0  0  0
    4.9035   -6.0503    0.0000 C   0  0  0  0  0  0  0  0  0  0  0  0
    5.6179   -6.4628    0.0000 C   0  0  0  0  0  0  0  0  0  0  0  0
    6.3324   -6.0503    0.0000 C   0  0  0  0  0  0  0  0  0  0  0  0
    4.1890   -7.2879    0.0000 F   0  0  0  0  0  0  0  0  0  0  0  0
    3.4745   -6.0503    0.0000 F   0  0  0  0  0  0  0  0  0  0  0  0
    7.0469   -6.4628    0.0000 C   0  0  0  0  0  0  0  0  0  0  0  0
    7.7614   -5.2253    0.0000 N   0  0  0  0  0  0  0  0  0  0  0  0
    4.9035   -5.2253    0.0000 C   0  0  0  0  0  0  0  0  0  0  0  0
    7.7614   -6.0503    0.0000 C   0  0  1  0  0  0  0  0  0  0  0  0
    5.6179   -4.8128    0.0000 C   0  0  0  0  0  0  0  0  0  0  0  0
    6.3324   -5.2253    0.0000 C   0  0  0  0  0  0  0  0  0  0  0  0
    8.4759   -6.4628    0.0000 C   0  0  0  0  0  0  0  0  0  0  0  0
    3.4690   -6.8822    0.0000 F   0  0  0  0  0  0  0  0  0  0  0  0
    7.0469   -4.8128    0.0000 C   0  0  0  0  0  0  0  0  0  0  0  0
    7.0469   -3.9878    0.0000 C   0  0  0  0  0  0  0  0  0  0  0  0
  2  1  1  0  0  0  0
  5  1  1  0  0  0  0
  6  1  1  0  0  0  0
  3  2  2  0  0  0  0
  9  2  1  0  0  0  0
  4  3  1  0  0  0  0
  7  4  1  0  0  0  0
 12  4  2  0  0  0  0
 10  7  1  0  0  0  0
 10  8  1  1  0  0  0
 11  9  2  0  0  0  0
 13 10  1  0  0  0  0
 12 11  1  0  0  0  0
  1 14  1  0  0  0  0
  8 15  1  0  0  0  0
 15 16  1  0  0  0  0
M  END
> <DATABASE_ID>
DB01191

> <DATABASE_NAME>
drugbank

> <SMILES>
CCN[C@@H](C)CC1=CC=CC(=C1)C(F)(F)F

> <INCHI_IDENTIFIER>
InChI=1S/C12H16F3N/c1-3-16-9(2)7-10-5-4-6-11(8-10)12(13,14)15/h4-6,8-9,16H,3,7H2,1-2H3/t9-/m0/s1

> <INCHI_KEY>
DBGIVFWFUFKIQN-VIFPVBQESA-N

> <FORMULA>
C12H16F3N

> <MOLECULAR_WEIGHT>
231.2573

> <EXACT_MASS>
231.123484132

> <JCHEM_ACCEPTOR_COUNT>
1

> <JCHEM_AVERAGE_POLARIZABILITY>
22.68515765531197

> <JCHEM_BIOAVAILABILITY>
1

> <JCHEM_DONOR_COUNT>
1

> <JCHEM_FORMAL_CHARGE>
0

> <JCHEM_GHOSE_FILTER>
1

> <JCHEM_IUPAC>
ethyl[(2S)-1-[3-(trifluoromethyl)phenyl]propan-2-yl]amine

> <ALOGPS_LOGP>
3.30

> <JCHEM_LOGP>
3.4714873116666665

> <ALOGPS_LOGS>
-4.03

> <JCHEM_MDDR_LIKE_RULE>
0

> <JCHEM_NUMBER_OF_RINGS>
1

> <JCHEM_PHYSIOLOGICAL_CHARGE>
1

> <JCHEM_PKA_STRONGEST_BASIC>
10.215413995825989

> <JCHEM_POLAR_SURFACE_AREA>
12.03

> <JCHEM_REFRACTIVITY>
59.2021

> <JCHEM_ROTATABLE_BOND_COUNT>
5

> <JCHEM_RULE_OF_FIVE>
1

> <ALOGPS_SOLUBILITY>
2.15e-02 g/l

> <JCHEM_TRADITIONAL_IUPAC>
dexfenfluramine

> <JCHEM_VEBER_RULE>
1

> <DRUGBANK_ID>
DB01191

> <SECONDARY_ACCESSION_NUMBERS>
APRD00648

> <DRUG_GROUPS>
approved; illicit; withdrawn

> <GENERIC_NAME>
Dexfenfluramine

> <SYNONYMS>
(+)-fenfluramine; (S)-fenfluramine; Dextrofenfluramine

$$$$
1195
  Mrv0541 02231215192D          

 28 29  0  0  1  0            999 V2000
    1.9520   -0.7697    0.0000 F   0  0  0  0  0  0  0  0  0  0  0  0
    1.6500    0.3572    0.0000 F   0  0  0  0  0  0  0  0  0  0  0  0
    2.7770    0.6592    0.0000 F   0  0  0  0  0  0  0  0  0  0  0  0
    8.0804   -3.3553    0.0000 F   0  0  0  0  0  0  0  0  0  0  0  0
    6.9534   -3.6573    0.0000 F   0  0  0  0  0  0  0  0  0  0  0  0
    7.7784   -2.2284    0.0000 F   0  0  0  0  0  0  0  0  0  0  0  0
    4.5080    1.1823    0.0000 O   0  0  0  0  0  0  0  0  0  0  0  0
    3.7935   -0.0553    0.0000 O   0  0  0  0  0  0  0  0  0  0  0  0
    6.6515   -1.7053    0.0000 O   0  0  0  0  0  0  0  0  0  0  0  0
    6.6515    3.2448    0.0000 N   0  0  0  0  0  0  0  0  0  0  0  0
    5.9370    1.1823    0.0000 N   0  0  0  0  0  0  0  0  0  0  0  0
    6.6515    2.4198    0.0000 C   0  0  0  0  0  0  0  0  0  0  0  0
    7.3659    2.0073    0.0000 C   0  0  0  0  0  0  0  0  0  0  0  0
    8.0804    2.4198    0.0000 C   0  0  0  0  0  0  0  0  0  0  0  0
    8.0804    3.2448    0.0000 C   0  0  0  0  0  0  0  0  0  0  0  0
    7.3659    3.6573    0.0000 C   0  0  0  0  0  0  0  0  0  0  0  0
    5.9370    2.0073    0.0000 C   0  0  0  0  0  0  0  0  0  0  0  0
    5.2224    0.7697    0.0000 C   0  0  0  0  0  0  0  0  0  0  0  0
    5.2224   -0.0553    0.0000 C   0  0  0  0  0  0  0  0  0  0  0  0
    4.5080   -0.4678    0.0000 C   0  0  0  0  0  0  0  0  0  0  0  0
    5.9370   -0.4678    0.0000 C   0  0  0  0  0  0  0  0  0  0  0  0
    5.9370   -1.2928    0.0000 C   0  0  0  0  0  0  0  0  0  0  0  0
    4.5080   -1.2928    0.0000 C   0  0  0  0  0  0  0  0  0  0  0  0
    5.2224   -1.7053    0.0000 C   0  0  0  0  0  0  0  0  0  0  0  0
    3.0791   -0.4678    0.0000 C   0  0  0  0  0  0  0  0  0  0  0  0
    6.6515   -2.5303    0.0000 C   0  0  0  0  0  0  0  0  0  0  0  0
    2.3645   -0.0553    0.0000 C   0  0  0  0  0  0  0  0  0  0  0  0
    7.3659   -2.9428    0.0000 C   0  0  0  0  0  0  0  0  0  0  0  0
  1 27  1  0  0  0  0
  2 27  1  0  0  0  0
  3 27  1  0  0  0  0
  4 28  1  0  0  0  0
  5 28  1  0  0  0  0
  6 28  1  0  0  0  0
  7 18  2  0  0  0  0
  8 20  1  0  0  0  0
  8 25  1  0  0  0  0
  9 22  1  0  0  0  0
  9 26  1  0  0  0  0
 10 12  1  0  0  0  0
 10 16  1  0  0  0  0
 11 17  1  0  0  0  0
 11 18  1  0  0  0  0
 12 13  1  0  0  0  0
 12 17  1  0  0  0  0
 13 14  1  0  0  0  0
 14 15  1  0  0  0  0
 15 16  1  0  0  0  0
 18 19  1  0  0  0  0
 19 20  2  0  0  0  0
 19 21  1  0  0  0  0
 20 23  1  0  0  0  0
 21 22  2  0  0  0  0
 22 24  1  0  0  0  0
 23 24  2  0  0  0  0
 25 27  1  0  0  0  0
 26 28  1  0  0  0  0
M  END
> <DATABASE_ID>
DB01195

> <DATABASE_NAME>
drugbank

> <SMILES>
FC(F)(F)COC1=CC(C(=O)NCC2CCCCN2)=C(OCC(F)(F)F)C=C1

> <INCHI_IDENTIFIER>
InChI=1S/C17H20F6N2O3/c18-16(19,20)9-27-12-4-5-14(28-10-17(21,22)23)13(7-12)15(26)25-8-11-3-1-2-6-24-11/h4-5,7,11,24H,1-3,6,8-10H2,(H,25,26)

> <INCHI_KEY>
DJBNUMBKLMJRSA-UHFFFAOYSA-N

> <FORMULA>
C17H20F6N2O3

> <MOLECULAR_WEIGHT>
414.3427

> <EXACT_MASS>
414.137811746

> <JCHEM_ACCEPTOR_COUNT>
4

> <JCHEM_AVERAGE_POLARIZABILITY>
35.91568083566059

> <JCHEM_BIOAVAILABILITY>
1

> <JCHEM_DONOR_COUNT>
2

> <JCHEM_FORMAL_CHARGE>
0

> <JCHEM_GHOSE_FILTER>
1

> <JCHEM_IUPAC>
N-(piperidin-2-ylmethyl)-2,5-bis(2,2,2-trifluoroethoxy)benzamide

> <ALOGPS_LOGP>
2.98

> <JCHEM_LOGP>
3.1881419053333335

> <ALOGPS_LOGS>
-4.11

> <JCHEM_MDDR_LIKE_RULE>
0

> <JCHEM_NUMBER_OF_RINGS>
2

> <JCHEM_PHYSIOLOGICAL_CHARGE>
1

> <JCHEM_PKA>
19.557778400329568

> <JCHEM_PKA_STRONGEST_ACIDIC>
13.681351736903963

> <JCHEM_PKA_STRONGEST_BASIC>
9.616620255251357

> <JCHEM_POLAR_SURFACE_AREA>
59.59

> <JCHEM_REFRACTIVITY>
88.39630000000001

> <JCHEM_ROTATABLE_BOND_COUNT>
9

> <JCHEM_RULE_OF_FIVE>
1

> <ALOGPS_SOLUBILITY>
3.24e-02 g/l

> <JCHEM_TRADITIONAL_IUPAC>
flecainide

> <JCHEM_VEBER_RULE>
0

> <DRUGBANK_ID>
DB01195

> <SECONDARY_ACCESSION_NUMBERS>
APRD00129

> <DRUG_GROUPS>
approved; withdrawn

> <GENERIC_NAME>
Flecainide

> <SYNONYMS>
Flecainida; Flecainidum

> <PRODUCTS>
Auro-flecainide; Flecainide; Flecainide Acetate; Flecainide acetate; Tambocor

> <INTERNATIONAL_BRANDS>
Almarytm; Apocard

> <SALTS>
Flecainide acetate

$$$$

  Mrv0541 04191212172D          

 26 28  0  0  0  0            999 V2000
    6.4018   -2.4837    0.0000 C   0  0  0  0  0  0  0  0  0  0  0  0
    7.1061   -2.9103    0.0000 N   0  0  0  0  0  0  0  0  0  0  0  0
    7.0807   -3.7185    0.0000 C   0  0  0  0  0  0  0  0  0  0  0  0
    5.6804   -2.8704    0.0000 C   0  0  0  0  0  0  0  0  0  0  0  0
    6.4035   -1.6380    0.0000 O   0  0  0  0  0  0  0  0  0  0  0  0
    7.7936   -4.1502    0.0000 C   0  0  0  0  0  0  0  0  0  0  0  0
    8.4980   -3.7533    0.0000 C   0  0  0  0  0  0  0  0  0  0  0  0
    5.6719   -3.6889    0.0000 C   0  0  0  0  0  0  0  0  0  0  0  0
    4.9675   -2.4386    0.0000 C   0  0  0  0  0  0  0  0  0  0  0  0
    4.2324   -3.6715    0.0000 C   0  0  0  0  0  0  0  0  0  0  0  0
    4.2546   -2.8305    0.0000 C   0  0  0  0  0  0  0  0  0  0  0  0
    4.9504   -4.0948    0.0000 C   0  0  0  0  0  0  0  0  0  0  0  0
    3.4990   -4.0973    0.0000 O   0  0  0  0  0  0  0  0  0  0  0  0
    6.3762   -4.1154    0.0000 C   0  0  0  0  0  0  0  0  0  0  0  0
    7.7681   -4.9585    0.0000 C   0  0  0  0  0  0  0  0  0  0  0  0
    3.4972   -4.9237    0.0000 C   0  0  0  0  0  0  0  0  0  0  0  0
    6.3337   -4.9326    0.0000 C   0  0  0  0  0  0  0  0  0  0  0  0
    7.0551   -5.3695    0.0000 C   0  0  0  0  0  0  0  0  0  0  0  0
    8.5017   -2.9199    0.0000 C   0  0  0  0  0  0  0  0  0  0  0  0
    9.9239   -2.9001    0.0000 N   0  0  0  0  0  0  0  0  0  0  0  0
    9.2094   -2.5032    0.0000 C   0  0  0  0  0  0  0  0  0  0  0  0
    9.9239   -3.7533    0.0000 C   0  0  0  0  0  0  0  0  0  0  0  0
   10.6349   -2.4834    0.0000 C   0  0  0  0  0  0  0  0  0  0  0  0
    9.2094   -1.6697    0.0000 C   0  0  0  0  0  0  0  0  0  0  0  0
   10.6349   -1.6499    0.0000 C   0  0  0  0  0  0  0  0  0  0  0  0
    9.9106   -1.2530    0.0000 C   0  0  0  0  0  0  0  0  0  0  0  0
  2  1  1  0  0  0  0
  3  2  1  0  0  0  0
  4  1  1  0  0  0  0
  5  1  2  0  0  0  0
  6  3  1  0  0  0  0
  7  6  1  0  0  0  0
  8  4  1  0  0  0  0
  9  4  2  0  0  0  0
 10 11  2  0  0  0  0
 11  9  1  0  0  0  0
 12  8  2  0  0  0  0
 13 10  1  0  0  0  0
 14  3  2  0  0  0  0
 15  6  2  0  0  0  0
 16 13  1  0  0  0  0
 17 14  1  0  0  0  0
 18 17  2  0  0  0  0
 12 10  1  0  0  0  0
 18 15  1  0  0  0  0
  7 19  1  0  0  0  0
 20 21  1  0  0  0  0
 21 19  1  0  0  0  0
 22 20  1  0  0  0  0
 23 20  1  0  0  0  0
 24 21  1  0  0  0  0
 25 26  1  0  0  0  0
 26 24  1  0  0  0  0
 25 23  1  0  0  0  0
M  END
> <DATABASE_ID>
DB01228

> <DATABASE_NAME>
drugbank

> <SMILES>
COC1=CC=C(C=C1)C(=O)NC1=CC=CC=C1CCC1CCCCN1C

> <INCHI_IDENTIFIER>
InChI=1S/C22H28N2O2/c1-24-16-6-5-8-19(24)13-10-17-7-3-4-9-21(17)23-22(25)18-11-14-20(26-2)15-12-18/h3-4,7,9,11-12,14-15,19H,5-6,8,10,13,16H2,1-2H3,(H,23,25)

> <INCHI_KEY>
PJWPNDMDCLXCOM-UHFFFAOYSA-N

> <FORMULA>
C22H28N2O2

> <MOLECULAR_WEIGHT>
352.4699

> <EXACT_MASS>
352.21507815

> <JCHEM_ACCEPTOR_COUNT>
3

> <JCHEM_AVERAGE_POLARIZABILITY>
41.04076399848722

> <JCHEM_BIOAVAILABILITY>
1

> <JCHEM_DONOR_COUNT>
1

> <JCHEM_FORMAL_CHARGE>
0

> <JCHEM_GHOSE_FILTER>
1

> <JCHEM_IUPAC>
4-methoxy-N-{2-[2-(1-methylpiperidin-2-yl)ethyl]phenyl}benzamide

> <ALOGPS_LOGP>
4.29

> <JCHEM_LOGP>
4.492219194666667

> <ALOGPS_LOGS>
-4.94

> <JCHEM_MDDR_LIKE_RULE>
1

> <JCHEM_NUMBER_OF_RINGS>
3

> <JCHEM_PHYSIOLOGICAL_CHARGE>
1

> <JCHEM_PKA_STRONGEST_ACIDIC>
12.370311685885802

> <JCHEM_PKA_STRONGEST_BASIC>
9.483811215211283

> <JCHEM_POLAR_SURFACE_AREA>
41.57

> <JCHEM_REFRACTIVITY>
107.76559999999998

> <JCHEM_ROTATABLE_BOND_COUNT>
6

> <JCHEM_RULE_OF_FIVE>
1

> <ALOGPS_SOLUBILITY>
4.01e-03 g/l

> <JCHEM_TRADITIONAL_IUPAC>
encainide

> <JCHEM_VEBER_RULE>
0

> <DRUGBANK_ID>
DB01228

> <SECONDARY_ACCESSION_NUMBERS>
APRD00613

> <DRUG_GROUPS>
approved; withdrawn

> <GENERIC_NAME>
Encainide

> <SYNONYMS>
Encainida; Encainide; Encainidum

$$$$
1230
  Mrv0541 02231215202D          

 13 14  0  0  1  0            999 V2000
    2.3888    0.5203    0.0000 O   0  0  0  0  0  0  0  0  0  0  0  0
    4.5083    0.2653    0.0000 O   0  0  0  0  0  0  0  0  0  0  0  0
    3.4687    1.3049    0.0000 N   0  0  0  0  0  0  0  0  0  0  0  0
    2.1587    1.9724    0.0000 N   0  0  0  0  0  0  0  0  0  0  0  0
    3.0562    0.0354    0.0000 C   0  0  0  0  0  0  0  0  0  0  0  0
    3.0562   -0.7896    0.0000 C   0  0  0  0  0  0  0  0  0  0  0  0
    3.7236    0.5203    0.0000 C   0  0  0  0  0  0  0  0  0  0  0  0
    3.7707   -1.2021    0.0000 C   0  0  0  0  0  0  0  0  0  0  0  0
    2.3417   -1.2021    0.0000 C   0  0  0  0  0  0  0  0  0  0  0  0
    2.6437    1.3049    0.0000 C   0  0  0  0  0  0  0  0  0  0  0  0
    3.7707   -2.0272    0.0000 C   0  0  0  0  0  0  0  0  0  0  0  0
    2.3417   -2.0272    0.0000 C   0  0  0  0  0  0  0  0  0  0  0  0
    3.0562   -2.4397    0.0000 C   0  0  0  0  0  0  0  0  0  0  0  0
  1  5  1  0  0  0  0
  1 10  1  0  0  0  0
  2  7  2  0  0  0  0
  3  7  1  0  0  0  0
  3 10  2  0  0  0  0
  4 10  1  0  0  0  0
  5  6  1  0  0  0  0
  5  7  1  0  0  0  0
  6  8  2  0  0  0  0
  6  9  1  0  0  0  0
  8 11  1  0  0  0  0
  9 12  2  0  0  0  0
 11 13  2  0  0  0  0
 12 13  1  0  0  0  0
M  END
> <DATABASE_ID>
DB01230

> <DATABASE_NAME>
drugbank

> <SMILES>
NC1=NC(=O)C(O1)C1=CC=CC=C1

> <INCHI_IDENTIFIER>
InChI=1S/C9H8N2O2/c10-9-11-8(12)7(13-9)6-4-2-1-3-5-6/h1-5,7H,(H2,10,11,12)

> <INCHI_KEY>
NRNCYVBFPDDJNE-UHFFFAOYSA-N

> <FORMULA>
C9H8N2O2

> <MOLECULAR_WEIGHT>
176.172

> <EXACT_MASS>
176.05857751

> <JCHEM_ACCEPTOR_COUNT>
4

> <JCHEM_AVERAGE_POLARIZABILITY>
17.040561196005214

> <JCHEM_BIOAVAILABILITY>
1

> <JCHEM_DONOR_COUNT>
1

> <JCHEM_FORMAL_CHARGE>
0

> <JCHEM_GHOSE_FILTER>
1

> <JCHEM_IUPAC>
2-amino-5-phenyl-4,5-dihydro-1,3-oxazol-4-one

> <ALOGPS_LOGP>
0.52

> <JCHEM_LOGP>
0.800027732

> <ALOGPS_LOGS>
-2.26

> <JCHEM_MDDR_LIKE_RULE>
0

> <JCHEM_NUMBER_OF_RINGS>
2

> <JCHEM_PHYSIOLOGICAL_CHARGE>
0

> <JCHEM_PKA_STRONGEST_ACIDIC>
14.953646792407326

> <JCHEM_PKA_STRONGEST_BASIC>
0.9878962542048974

> <JCHEM_POLAR_SURFACE_AREA>
64.67999999999999

> <JCHEM_REFRACTIVITY>
45.70230000000001

> <JCHEM_ROTATABLE_BOND_COUNT>
1

> <JCHEM_RULE_OF_FIVE>
1

> <ALOGPS_SOLUBILITY>
9.79e-01 g/l

> <JCHEM_TRADITIONAL_IUPAC>
pemoline

> <JCHEM_VEBER_RULE>
0

> <DRUGBANK_ID>
DB01230

> <SECONDARY_ACCESSION_NUMBERS>
APRD01169

> <DRUG_GROUPS>
illicit; withdrawn

> <GENERIC_NAME>
Pemoline

> <INTERNATIONAL_BRANDS>
Betanamin; Ceractiv; Cylert; Tradon

$$$$
1231
  Mrv0541 02231215202D          

 23 25  0  0  0  0            999 V2000
    1.9058    0.1915    0.0000 O   0  0  0  0  0  0  0  0  0  0  0  0
    5.2059   -1.2375    0.0000 N   0  0  0  0  0  0  0  0  0  0  0  0
    6.0309   -1.2375    0.0000 C   0  0  0  0  0  0  0  0  0  0  0  0
    4.7934   -1.9520    0.0000 C   0  0  0  0  0  0  0  0  0  0  0  0
    4.7934   -0.5231    0.0000 C   0  0  0  0  0  0  0  0  0  0  0  0
    6.4434   -1.9520    0.0000 C   0  0  0  0  0  0  0  0  0  0  0  0
    5.2059   -2.6665    0.0000 C   0  0  0  0  0  0  0  0  0  0  0  0
    6.0309   -2.6665    0.0000 C   0  0  0  0  0  0  0  0  0  0  0  0
    3.9683   -0.5231    0.0000 C   0  0  0  0  0  0  0  0  0  0  0  0
    3.5558    0.1915    0.0000 C   0  0  0  0  0  0  0  0  0  0  0  0
    2.7308    0.1915    0.0000 C   0  0  0  0  0  0  0  0  0  0  0  0
    2.7308    1.0165    0.0000 C   0  0  0  0  0  0  0  0  0  0  0  0
    2.7308   -0.6335    0.0000 C   0  0  0  0  0  0  0  0  0  0  0  0
    2.0163    1.4290    0.0000 C   0  0  0  0  0  0  0  0  0  0  0  0
    3.4453   -1.0460    0.0000 C   0  0  0  0  0  0  0  0  0  0  0  0
    3.4453    1.4290    0.0000 C   0  0  0  0  0  0  0  0  0  0  0  0
    2.0163   -1.0460    0.0000 C   0  0  0  0  0  0  0  0  0  0  0  0
    2.0163    2.2540    0.0000 C   0  0  0  0  0  0  0  0  0  0  0  0
    3.4453   -1.8711    0.0000 C   0  0  0  0  0  0  0  0  0  0  0  0
    3.4453    2.2540    0.0000 C   0  0  0  0  0  0  0  0  0  0  0  0
    2.0163   -1.8711    0.0000 C   0  0  0  0  0  0  0  0  0  0  0  0
    2.7308    2.6665    0.0000 C   0  0  0  0  0  0  0  0  0  0  0  0
    2.7308   -2.2836    0.0000 C   0  0  0  0  0  0  0  0  0  0  0  0
  1 11  1  0  0  0  0
  2  3  1  0  0  0  0
  2  4  1  0  0  0  0
  2  5  1  0  0  0  0
  3  6  1  0  0  0  0
  4  7  1  0  0  0  0
  5  9  1  0  0  0  0
  6  8  1  0  0  0  0
  7  8  1  0  0  0  0
  9 10  1  0  0  0  0
 10 11  1  0  0  0  0
 11 12  1  0  0  0  0
 11 13  1  0  0  0  0
 12 14  2  0  0  0  0
 12 16  1  0  0  0  0
 13 15  2  0  0  0  0
 13 17  1  0  0  0  0
 14 18  1  0  0  0  0
 15 19  1  0  0  0  0
 16 20  2  0  0  0  0
 17 21  2  0  0  0  0
 18 22  2  0  0  0  0
 19 23  2  0  0  0  0
 20 22  1  0  0  0  0
 21 23  1  0  0  0  0
M  END
> <DATABASE_ID>
DB01231

> <DATABASE_NAME>
drugbank

> <SMILES>
OC(CCCN1CCCCC1)(C1=CC=CC=C1)C1=CC=CC=C1

> <INCHI_IDENTIFIER>
InChI=1S/C21H27NO/c23-21(19-11-4-1-5-12-19,20-13-6-2-7-14-20)15-10-18-22-16-8-3-9-17-22/h1-2,4-7,11-14,23H,3,8-10,15-18H2

> <INCHI_KEY>
OGAKLTJNUQRZJU-UHFFFAOYSA-N

> <FORMULA>
C21H27NO

> <MOLECULAR_WEIGHT>
309.4452

> <EXACT_MASS>
309.209264491

> <JCHEM_ACCEPTOR_COUNT>
2

> <JCHEM_AVERAGE_POLARIZABILITY>
36.66024370405669

> <JCHEM_BIOAVAILABILITY>
1

> <JCHEM_DONOR_COUNT>
1

> <JCHEM_FORMAL_CHARGE>
0

> <JCHEM_GHOSE_FILTER>
1

> <JCHEM_IUPAC>
1,1-diphenyl-4-(piperidin-1-yl)butan-1-ol

> <ALOGPS_LOGP>
4.08

> <JCHEM_LOGP>
4.221518408333333

> <ALOGPS_LOGS>
-4.72

> <JCHEM_MDDR_LIKE_RULE>
1

> <JCHEM_NUMBER_OF_RINGS>
3

> <JCHEM_PHYSIOLOGICAL_CHARGE>
1

> <JCHEM_PKA_STRONGEST_ACIDIC>
13.398821031355268

> <JCHEM_PKA_STRONGEST_BASIC>
9.233466452494154

> <JCHEM_POLAR_SURFACE_AREA>
23.47

> <JCHEM_REFRACTIVITY>
96.91840000000003

> <JCHEM_ROTATABLE_BOND_COUNT>
6

> <JCHEM_RULE_OF_FIVE>
1

> <ALOGPS_SOLUBILITY>
5.87e-03 g/l

> <JCHEM_TRADITIONAL_IUPAC>
diphenidol

> <JCHEM_VEBER_RULE>
1

> <DRUGBANK_ID>
DB01231

> <SECONDARY_ACCESSION_NUMBERS>
APRD00929

> <DRUG_GROUPS>
approved; withdrawn

> <GENERIC_NAME>
Diphenidol

> <SYNONYMS>
Difenidol; Difenidolo; Difenidolum

> <INTERNATIONAL_BRANDS>
Satanolon; Verterge; Vontrol; Yesdol

> <SALTS>
Diphenidol Hydrochloride

$$$$

  Mrv0541 01191410032D          

 22 24  0  0  0  0            999 V2000
    9.0291  -10.1076    0.0000 C   0  0  0  0  0  0  0  0  0  0  0  0
    8.3146  -10.5201    0.0000 C   0  0  0  0  0  0  0  0  0  0  0  0
    8.3146  -11.3452    0.0000 C   0  0  0  0  0  0  0  0  0  0  0  0
    9.0291  -11.7577    0.0000 C   0  0  0  0  0  0  0  0  0  0  0  0
    9.7436  -11.3452    0.0000 C   0  0  0  0  0  0  0  0  0  0  0  0
    9.7436  -10.5201    0.0000 C   0  0  0  0  0  0  0  0  0  0  0  0
   10.4581  -10.1076    0.0000 C   0  0  0  0  0  0  0  0  0  0  0  0
   10.4581  -11.7577    0.0000 S   0  0  0  0  0  0  0  0  0  0  0  0
   11.1725  -11.3452    0.0000 C   0  0  0  0  0  0  0  0  0  0  0  0
   11.1725  -10.5201    0.0000 C   0  0  0  0  0  0  0  0  0  0  0  0
   11.8870  -10.1076    0.0000 C   0  0  0  0  0  0  0  0  0  0  0  0
   11.8870  -11.7577    0.0000 C   0  0  0  0  0  0  0  0  0  0  0  0
   12.6015  -11.3452    0.0000 C   0  0  0  0  0  0  0  0  0  0  0  0
   12.6015  -10.5201    0.0000 C   0  0  0  0  0  0  0  0  0  0  0  0
   13.3160  -10.1076    0.0000 Cl  0  0  0  0  0  0  0  0  0  0  0  0
   10.4581   -9.2826    0.0000 C   0  0  0  0  0  0  0  0  0  0  0  0
    9.7436   -8.8701    0.0000 C   0  0  0  0  0  0  0  0  0  0  0  0
    9.7436   -8.0451    0.0000 C   0  0  0  0  0  0  0  0  0  0  0  0
    9.0291   -7.6326    0.0000 N   0  0  0  0  0  0  0  0  0  0  0  0
    9.0291   -6.8076    0.0000 C   0  0  0  0  0  0  0  0  0  0  0  0
    8.3146   -8.0451    0.0000 C   0  0  0  0  0  0  0  0  0  0  0  0
   11.1725   -8.8701    0.0000 H   0  0  0  0  0  0  0  0  0  0  0  0
  1  2  2  0  0  0  0
  1  6  1  0  0  0  0
  2  3  1  0  0  0  0
  3  4  2  0  0  0  0
  4  5  1  0  0  0  0
  7  6  1  0  0  0  0
  6  5  2  0  0  0  0
  5  8  1  0  0  0  0
  7 10  1  0  0  0  0
  8  9  1  0  0  0  0
 11 10  2  0  0  0  0
 10  9  1  0  0  0  0
  9 12  2  0  0  0  0
 11 14  1  0  0  0  0
 12 13  1  0  0  0  0
 13 14  2  0  0  0  0
 14 15  1  0  0  0  0
  7 16  2  0  0  0  0
 16 17  1  0  0  0  0
 17 18  1  0  0  0  0
 18 19  1  0  0  0  0
 19 20  1  0  0  0  0
 19 21  1  0  0  0  0
 16 22  1  4  0  0  0
M  END
> <DATABASE_ID>
DB01239

> <DATABASE_NAME>
drugbank

> <SMILES>
[H]C(CCN(C)C)=C1C2=CC(Cl)=CC=C2SC2=C1C=CC=C2

> <INCHI_IDENTIFIER>
InChI=1S/C18H18ClNS/c1-20(2)11-5-7-14-15-6-3-4-8-17(15)21-18-10-9-13(19)12-16(14)18/h3-4,6-10,12H,5,11H2,1-2H3

> <INCHI_KEY>
WSPOMRSOLSGNFJ-UHFFFAOYSA-N

> <FORMULA>
C18H18ClNS

> <MOLECULAR_WEIGHT>
315.86

> <EXACT_MASS>
315.084847978

> <JCHEM_ACCEPTOR_COUNT>
1

> <JCHEM_AVERAGE_POLARIZABILITY>
35.851375481735936

> <JCHEM_BIOAVAILABILITY>
1

> <JCHEM_DONOR_COUNT>
0

> <JCHEM_FORMAL_CHARGE>
0

> <JCHEM_GHOSE_FILTER>
1

> <JCHEM_IUPAC>
[3-(2-chloro-9H-thioxanthen-9-ylidene)propyl]dimethylamine

> <ALOGPS_LOGP>
5.42

> <JCHEM_LOGP>
5.065966363

> <ALOGPS_LOGS>
-5.94

> <JCHEM_MDDR_LIKE_RULE>
0

> <JCHEM_NUMBER_OF_RINGS>
3

> <JCHEM_PHYSIOLOGICAL_CHARGE>
1

> <JCHEM_PKA_STRONGEST_BASIC>
9.760738430992246

> <JCHEM_POLAR_SURFACE_AREA>
3.24

> <JCHEM_REFRACTIVITY>
104.65789999999998

> <JCHEM_ROTATABLE_BOND_COUNT>
3

> <JCHEM_RULE_OF_FIVE>
0

> <ALOGPS_SOLUBILITY>
3.66e-04 g/l

> <JCHEM_TRADITIONAL_IUPAC>
chlorprothixene

> <JCHEM_VEBER_RULE>
1

> <DRUGBANK_ID>
DB01239

> <SECONDARY_ACCESSION_NUMBERS>
APRD00718

> <DRUG_GROUPS>
approved; withdrawn

> <GENERIC_NAME>
Chlorprothixene

> <SYNONYMS>
Alpha-Chlorprothixene; Chlorprothixen; Chlorprothixine; Chlorprotixen; Chlorprotixene; Chlorprotixine; Chlothixen

> <INTERNATIONAL_BRANDS>
Clothixen; Cloxan; Taractan

$$$$
1244
  Mrv0541 02231215212D          

 27 29  0  0  1  0            999 V2000
    5.2224   -1.0313    0.0000 O   0  0  0  0  0  0  0  0  0  0  0  0
    5.2224    0.6188    0.0000 N   0  0  0  0  0  0  0  0  0  0  0  0
    3.0791    0.2063    0.0000 N   0  0  0  0  0  0  0  0  0  0  0  0
    4.5080    0.2063    0.0000 C   0  0  0  0  0  0  0  0  0  0  0  0
    5.3087    1.4392    0.0000 C   0  0  0  0  0  0  0  0  0  0  0  0
    5.9762    0.2832    0.0000 C   0  0  0  0  0  0  0  0  0  0  0  0
    6.1157    1.6108    0.0000 C   0  0  0  0  0  0  0  0  0  0  0  0
    6.5282    0.8963    0.0000 C   0  0  0  0  0  0  0  0  0  0  0  0
    3.7935    0.6188    0.0000 C   0  0  0  0  0  0  0  0  0  0  0  0
    4.5080   -0.6188    0.0000 C   0  0  0  0  0  0  0  0  0  0  0  0
    2.3645    0.6188    0.0000 C   0  0  0  0  0  0  0  0  0  0  0  0
    3.0791   -0.6188    0.0000 C   0  0  0  0  0  0  0  0  0  0  0  0
    5.2224   -1.8563    0.0000 C   0  0  0  0  0  0  0  0  0  0  0  0
    5.9370   -2.2688    0.0000 C   0  0  0  0  0  0  0  0  0  0  0  0
    2.3645    1.4438    0.0000 C   0  0  0  0  0  0  0  0  0  0  0  0
    3.7935   -1.0313    0.0000 C   0  0  0  0  0  0  0  0  0  0  0  0
    2.3645   -1.0313    0.0000 C   0  0  0  0  0  0  0  0  0  0  0  0
    5.9370   -3.0938    0.0000 C   0  0  0  0  0  0  0  0  0  0  0  0
    6.6515   -1.8563    0.0000 C   0  0  0  0  0  0  0  0  0  0  0  0
    1.6500    1.8563    0.0000 C   0  0  0  0  0  0  0  0  0  0  0  0
    3.0791    1.8563    0.0000 C   0  0  0  0  0  0  0  0  0  0  0  0
    3.7935   -1.8563    0.0000 C   0  0  0  0  0  0  0  0  0  0  0  0
    2.3645   -1.8563    0.0000 C   0  0  0  0  0  0  0  0  0  0  0  0
    3.0791   -2.2688    0.0000 C   0  0  0  0  0  0  0  0  0  0  0  0
    1.6500    2.6813    0.0000 C   0  0  0  0  0  0  0  0  0  0  0  0
    3.0791    2.6813    0.0000 C   0  0  0  0  0  0  0  0  0  0  0  0
    2.3645    3.0938    0.0000 C   0  0  0  0  0  0  0  0  0  0  0  0
  1 10  1  0  0  0  0
  1 13  1  0  0  0  0
  2  4  1  0  0  0  0
  2  5  1  0  0  0  0
  2  6  1  0  0  0  0
  3  9  1  0  0  0  0
  3 11  1  0  0  0  0
  3 12  1  0  0  0  0
  4  9  1  0  0  0  0
  4 10  1  0  0  0  0
  5  7  1  0  0  0  0
  6  8  1  0  0  0  0
  7  8  1  0  0  0  0
 11 15  1  0  0  0  0
 12 16  2  0  0  0  0
 12 17  1  0  0  0  0
 13 14  1  0  0  0  0
 14 18  1  0  0  0  0
 14 19  1  0  0  0  0
 15 20  2  0  0  0  0
 15 21  1  0  0  0  0
 16 22  1  0  0  0  0
 17 23  2  0  0  0  0
 20 25  1  0  0  0  0
 21 26  2  0  0  0  0
 22 24  2  0  0  0  0
 23 24  1  0  0  0  0
 25 27  2  0  0  0  0
 26 27  1  0  0  0  0
M  END
> <DATABASE_ID>
DB01244

> <DATABASE_NAME>
drugbank

> <SMILES>
CC(C)COCC(CN(CC1=CC=CC=C1)C1=CC=CC=C1)N1CCCC1

> <INCHI_IDENTIFIER>
InChI=1S/C24H34N2O/c1-21(2)19-27-20-24(25-15-9-10-16-25)18-26(23-13-7-4-8-14-23)17-22-11-5-3-6-12-22/h3-8,11-14,21,24H,9-10,15-20H2,1-2H3

> <INCHI_KEY>
UIEATEWHFDRYRU-UHFFFAOYSA-N

> <FORMULA>
C24H34N2O

> <MOLECULAR_WEIGHT>
366.5396

> <EXACT_MASS>
366.26711372

> <JCHEM_ACCEPTOR_COUNT>
3

> <JCHEM_AVERAGE_POLARIZABILITY>
43.49593555275381

> <JCHEM_BIOAVAILABILITY>
1

> <JCHEM_DONOR_COUNT>
0

> <JCHEM_FORMAL_CHARGE>
0

> <JCHEM_GHOSE_FILTER>
1

> <JCHEM_IUPAC>
N-benzyl-N-[3-(2-methylpropoxy)-2-(pyrrolidin-1-yl)propyl]aniline

> <ALOGPS_LOGP>
5.33

> <JCHEM_LOGP>
5.487299518666666

> <ALOGPS_LOGS>
-4.75

> <JCHEM_MDDR_LIKE_RULE>
1

> <JCHEM_NUMBER_OF_RINGS>
3

> <JCHEM_PHYSIOLOGICAL_CHARGE>
1

> <JCHEM_PKA_STRONGEST_BASIC>
9.156553004146938

> <JCHEM_POLAR_SURFACE_AREA>
15.71

> <JCHEM_REFRACTIVITY>
115.11720000000004

> <JCHEM_ROTATABLE_BOND_COUNT>
10

> <JCHEM_RULE_OF_FIVE>
0

> <ALOGPS_SOLUBILITY>
6.55e-03 g/l

> <JCHEM_TRADITIONAL_IUPAC>
bepridil

> <JCHEM_VEBER_RULE>
1

> <DRUGBANK_ID>
DB01244

> <SECONDARY_ACCESSION_NUMBERS>
APRD00727

> <DRUG_GROUPS>
approved; withdrawn

> <GENERIC_NAME>
Bepridil

> <SYNONYMS>
Bepadin

> <INTERNATIONAL_BRANDS>
Angopril; Cordium; Vascor

> <SALTS>
Bepridil hydrochloride

$$$$
1388
  Mrv0541 02231215262D          

 36 39  0  0  1  0            999 V2000
   11.1048    3.2403    0.0000 F   0  0  0  0  0  0  0  0  0  0  0  0
    6.6529    1.9829    0.0000 O   0  0  0  0  0  0  0  0  0  0  0  0
    6.6529    3.4119    0.0000 O   0  0  0  0  0  0  0  0  0  0  0  0
    5.0029    3.4119    0.0000 O   0  0  0  0  0  0  0  0  0  0  0  0
    5.8279    0.5539    0.0000 N   0  0  0  0  0  0  0  0  0  0  0  0
    2.5371   -0.9601    0.0000 N   0  0  0  0  0  0  0  0  0  0  0  0
    3.6871   -1.6240    0.0000 N   0  0  0  0  0  0  0  0  0  0  0  0
    7.4780    1.9829    0.0000 C   0  0  1  0  0  0  0  0  0  0  0  0
    8.1924    1.5704    0.0000 C   0  0  1  0  0  0  0  0  0  0  0  0
    7.4780    2.8079    0.0000 C   0  0  0  0  0  0  0  0  0  0  0  0
    8.1924    0.7454    0.0000 C   0  0  0  0  0  0  0  0  0  0  0  0
    7.0655    1.2684    0.0000 C   0  0  0  0  0  0  0  0  0  0  0  0
    8.9069    1.9829    0.0000 C   0  0  0  0  0  0  0  0  0  0  0  0
    8.1924    3.2205    0.0000 C   0  0  0  0  0  0  0  0  0  0  0  0
    8.9069    2.8079    0.0000 C   0  0  0  0  0  0  0  0  0  0  0  0
    6.2404    1.2684    0.0000 C   0  0  0  0  0  0  0  0  0  0  0  0
    7.4780    0.3329    0.0000 C   0  0  0  0  0  0  0  0  0  0  0  0
    8.9069    0.3329    0.0000 C   0  0  0  0  0  0  0  0  0  0  0  0
    9.6444    1.5418    0.0000 C   0  0  0  0  0  0  0  0  0  0  0  0
    9.6444    3.2490    0.0000 C   0  0  0  0  0  0  0  0  0  0  0  0
   10.3919    1.9657    0.0000 C   0  0  0  0  0  0  0  0  0  0  0  0
    6.2404    2.6974    0.0000 C   0  0  0  0  0  0  0  0  0  0  0  0
   10.3919    2.8251    0.0000 C   0  0  0  0  0  0  0  0  0  0  0  0
    5.0029    0.5539    0.0000 C   0  0  0  0  0  0  0  0  0  0  0  0
    6.2404   -0.1605    0.0000 C   0  0  0  0  0  0  0  0  0  0  0  0
    4.5904   -0.1605    0.0000 C   0  0  0  0  0  0  0  0  0  0  0  0
    5.4154    2.6974    0.0000 C   0  0  0  0  0  0  0  0  0  0  0  0
    3.7654   -0.1605    0.0000 C   0  0  0  0  0  0  0  0  0  0  0  0
    3.3529   -0.8750    0.0000 C   0  0  0  0  0  0  0  0  0  0  0  0
    4.1779    3.4119    0.0000 C   0  0  0  0  0  0  0  0  0  0  0  0
    2.3645   -1.7618    0.0000 C   0  0  0  0  0  0  0  0  0  0  0  0
    3.0791   -2.1743    0.0000 C   0  0  0  0  0  0  0  0  0  0  0  0
    1.6500   -2.1743    0.0000 C   0  0  0  0  0  0  0  0  0  0  0  0
    3.0791   -2.9994    0.0000 C   0  0  0  0  0  0  0  0  0  0  0  0
    1.6500   -2.9994    0.0000 C   0  0  0  0  0  0  0  0  0  0  0  0
    2.3645   -3.4119    0.0000 C   0  0  0  0  0  0  0  0  0  0  0  0
  1 23  1  0  0  0  0
  8  2  1  6  0  0  0
  2 22  1  0  0  0  0
  3 22  2  0  0  0  0
  4 27  1  0  0  0  0
  4 30  1  0  0  0  0
  5 16  1  0  0  0  0
  5 24  1  0  0  0  0
  5 25  1  0  0  0  0
  6 29  1  0  0  0  0
  6 31  1  0  0  0  0
  7 29  2  0  0  0  0
  7 32  1  0  0  0  0
  8  9  1  0  0  0  0
  8 10  1  0  0  0  0
  8 12  1  0  0  0  0
  9 11  1  6  0  0  0
  9 13  1  0  0  0  0
 10 14  1  0  0  0  0
 11 17  1  0  0  0  0
 11 18  1  0  0  0  0
 12 16  1  0  0  0  0
 13 15  2  0  0  0  0
 13 19  1  0  0  0  0
 14 15  1  0  0  0  0
 15 20  1  0  0  0  0
 19 21  2  0  0  0  0
 20 23  2  0  0  0  0
 21 23  1  0  0  0  0
 22 27  1  0  0  0  0
 24 26  1  0  0  0  0
 26 28  1  0  0  0  0
 28 29  1  0  0  0  0
 31 32  1  0  0  0  0
 31 33  2  0  0  0  0
 32 34  2  0  0  0  0
 33 35  1  0  0  0  0
 34 36  1  0  0  0  0
 35 36  2  0  0  0  0
M  END
> <DATABASE_ID>
DB01388

> <DATABASE_NAME>
drugbank

> <SMILES>
COCC(=O)O[C@]1(CCN(C)CCCC2=NC3=CC=CC=C3N2)CCC2=C(C=CC(F)=C2)[C@@H]1C(C)C

> <INCHI_IDENTIFIER>
InChI=1S/C29H38FN3O3/c1-20(2)28-23-12-11-22(30)18-21(23)13-14-29(28,36-27(34)19-35-4)15-17-33(3)16-7-10-26-31-24-8-5-6-9-25(24)32-26/h5-6,8-9,11-12,18,20,28H,7,10,13-17,19H2,1-4H3,(H,31,32)/t28-,29-/m0/s1

> <INCHI_KEY>
HBNPJJILLOYFJU-VMPREFPWSA-N

> <FORMULA>
C29H38FN3O3

> <MOLECULAR_WEIGHT>
495.6287

> <EXACT_MASS>
495.289720302

> <JCHEM_ACCEPTOR_COUNT>
4

> <JCHEM_BIOAVAILABILITY>
0

> <JCHEM_DONOR_COUNT>
1

> <JCHEM_FORMAL_CHARGE>
0

> <JCHEM_GHOSE_FILTER>
0

> <JCHEM_IUPAC>
(1S,2S)-2-(2-{[3-(1H-1,3-benzodiazol-2-yl)propyl](methyl)amino}ethyl)-6-fluoro-1-(propan-2-yl)-1,2,3,4-tetrahydronaphthalen-2-yl 2-methoxyacetate

> <ALOGPS_LOGP>
5.34

> <JCHEM_LOGP>
5.156992555666666

> <ALOGPS_LOGS>
-5.68

> <JCHEM_MDDR_LIKE_RULE>
1

> <JCHEM_NUMBER_OF_RINGS>
4

> <JCHEM_PHYSIOLOGICAL_CHARGE>
1

> <JCHEM_PKA_STRONGEST_ACIDIC>
12.543807891587726

> <JCHEM_PKA_STRONGEST_BASIC>
9.824900801073062

> <JCHEM_POLAR_SURFACE_AREA>
67.45

> <JCHEM_REFRACTIVITY>
139.73079999999996

> <JCHEM_ROTATABLE_BOND_COUNT>
12

> <JCHEM_RULE_OF_FIVE>
0

> <ALOGPS_SOLUBILITY>
1.04e-03 g/l

> <JCHEM_TRADITIONAL_IUPAC>
mibefradil

> <JCHEM_VEBER_RULE>
0

> <DRUGBANK_ID>
DB01388

> <DRUG_GROUPS>
withdrawn

> <GENERIC_NAME>
Mibefradil

$$$$
1405
  Mrv0541 02231215282D          

 30 33  0  0  1  0            999 V2000
    7.1488    2.0824    0.0000 F   0  0  0  0  0  0  0  0  0  0  0  0
    2.8075   -0.4125    0.0000 F   0  0  0  0  0  0  0  0  0  0  0  0
    4.2364   -2.8875    0.0000 F   0  0  0  0  0  0  0  0  0  0  0  0
    4.2364    2.8875    0.0000 O   0  0  0  0  0  0  0  0  0  0  0  0
    2.0930    1.6500    0.0000 O   0  0  0  0  0  0  0  0  0  0  0  0
    2.8075    2.8875    0.0000 O   0  0  0  0  0  0  0  0  0  0  0  0
    7.1488    0.3926    0.0000 N   0  0  0  0  0  0  0  0  0  0  0  0
    8.5746   -0.4379    0.0000 N   0  0  0  0  0  0  0  0  0  0  0  0
    4.2364    0.4125    0.0000 N   0  0  0  0  0  0  0  0  0  0  0  0
    7.8585   -0.8477    0.0000 C   0  0  0  0  0  0  0  0  0  0  0  0
    7.1456   -0.4324    0.0000 C   0  0  0  0  0  0  0  0  0  0  0  0
    7.8649    0.8023    0.0000 C   0  0  0  0  0  0  0  0  0  0  0  0
    8.5778    0.3871    0.0000 C   0  0  0  0  0  0  0  0  0  0  0  0
    6.4359    0.8078    0.0000 C   0  0  0  0  0  0  0  0  0  0  0  0
    7.8553   -1.6727    0.0000 C   0  0  0  0  0  0  0  0  0  0  0  0
    5.6884    0.3839    0.0000 C   0  0  0  0  0  0  0  0  0  0  0  0
    4.9509    0.8250    0.0000 C   0  0  0  0  0  0  0  0  0  0  0  0
    6.4359    1.6672    0.0000 C   0  0  0  0  0  0  0  0  0  0  0  0
    4.9509    1.6500    0.0000 C   0  0  0  0  0  0  0  0  0  0  0  0
    5.6884    2.0911    0.0000 C   0  0  0  0  0  0  0  0  0  0  0  0
    4.2364    2.0625    0.0000 C   0  0  0  0  0  0  0  0  0  0  0  0
    3.5220    0.8250    0.0000 C   0  0  0  0  0  0  0  0  0  0  0  0
    3.5220    1.6500    0.0000 C   0  0  0  0  0  0  0  0  0  0  0  0
    4.2364   -0.4125    0.0000 C   0  0  0  0  0  0  0  0  0  0  0  0
    3.5220   -0.8250    0.0000 C   0  0  0  0  0  0  0  0  0  0  0  0
    4.9509   -0.8250    0.0000 C   0  0  0  0  0  0  0  0  0  0  0  0
    2.8075    2.0625    0.0000 C   0  0  0  0  0  0  0  0  0  0  0  0
    3.5220   -1.6500    0.0000 C   0  0  0  0  0  0  0  0  0  0  0  0
    4.9509   -1.6500    0.0000 C   0  0  0  0  0  0  0  0  0  0  0  0
    4.2364   -2.0625    0.0000 C   0  0  0  0  0  0  0  0  0  0  0  0
  1 18  1  0  0  0  0
  2 25  1  0  0  0  0
  3 30  1  0  0  0  0
  4 21  2  0  0  0  0
  5 27  1  0  0  0  0
  6 27  2  0  0  0  0
  7 11  1  0  0  0  0
  7 12  1  0  0  0  0
  7 14  1  0  0  0  0
  8 10  1  0  0  0  0
  8 13  1  0  0  0  0
  9 17  1  0  0  0  0
  9 22  1  0  0  0  0
  9 24  1  0  0  0  0
 10 11  1  0  0  0  0
 10 15  1  0  0  0  0
 12 13  1  0  0  0  0
 14 16  1  0  0  0  0
 14 18  2  0  0  0  0
 16 17  2  0  0  0  0
 17 19  1  0  0  0  0
 18 20  1  0  0  0  0
 19 20  2  0  0  0  0
 19 21  1  0  0  0  0
 21 23  1  0  0  0  0
 22 23  2  0  0  0  0
 23 27  1  0  0  0  0
 24 25  2  0  0  0  0
 24 26  1  0  0  0  0
 25 28  1  0  0  0  0
 26 29  2  0  0  0  0
 28 30  2  0  0  0  0
 29 30  1  0  0  0  0
M  END
> <DATABASE_ID>
DB01405

> <DATABASE_NAME>
drugbank

> <SMILES>
CC1CN(CCN1)C1=C(F)C=C2C(=O)C(=CN(C2=C1)C1=C(F)C=C(F)C=C1)C(O)=O

> <INCHI_IDENTIFIER>
InChI=1S/C21H18F3N3O3/c1-11-9-26(5-4-25-11)19-8-18-13(7-16(19)24)20(28)14(21(29)30)10-27(18)17-3-2-12(22)6-15(17)23/h2-3,6-8,10-11,25H,4-5,9H2,1H3,(H,29,30)

> <INCHI_KEY>
QKDHBVNJCZBTMR-UHFFFAOYSA-N

> <FORMULA>
C21H18F3N3O3

> <MOLECULAR_WEIGHT>
417.3811

> <EXACT_MASS>
417.130026072

> <JCHEM_ACCEPTOR_COUNT>
6

> <JCHEM_AVERAGE_POLARIZABILITY>
39.69955051388886

> <JCHEM_BIOAVAILABILITY>
1

> <JCHEM_DONOR_COUNT>
2

> <JCHEM_FORMAL_CHARGE>
0

> <JCHEM_GHOSE_FILTER>
1

> <JCHEM_IUPAC>
1-(2,4-difluorophenyl)-6-fluoro-7-(3-methylpiperazin-1-yl)-4-oxo-1,4-dihydroquinoline-3-carboxylic acid

> <ALOGPS_LOGP>
0.94

> <JCHEM_LOGP>
1.0832036777753498

> <ALOGPS_LOGS>
-4.46

> <JCHEM_MDDR_LIKE_RULE>
0

> <JCHEM_NUMBER_OF_RINGS>
4

> <JCHEM_PHYSIOLOGICAL_CHARGE>
0

> <JCHEM_PKA_STRONGEST_ACIDIC>
5.602473701997453

> <JCHEM_PKA_STRONGEST_BASIC>
8.76403274529935

> <JCHEM_POLAR_SURFACE_AREA>
72.88

> <JCHEM_REFRACTIVITY>
104.5341

> <JCHEM_ROTATABLE_BOND_COUNT>
3

> <JCHEM_RULE_OF_FIVE>
1

> <ALOGPS_SOLUBILITY>
1.44e-02 g/l

> <JCHEM_TRADITIONAL_IUPAC>
temafloxacin

> <JCHEM_VEBER_RULE>
0

> <DRUGBANK_ID>
DB01405

> <DRUG_GROUPS>
withdrawn

> <GENERIC_NAME>
Temafloxacin

> <SYNONYMS>
Temafloxacina; Temafloxacine; Temafloxacinum

> <INTERNATIONAL_BRANDS>
Omniflox

> <SALTS>
Temafloxacin hydrochloride

$$$$
1424
  Mrv0541 02231215292D          

 17 18  0  0  1  0            999 V2000
    4.5542    0.1222    0.0000 O   0  0  0  0  0  0  0  0  0  0  0  0
    2.4347    0.3771    0.0000 N   0  0  0  0  0  0  0  0  0  0  0  0
    3.1021   -0.1078    0.0000 N   0  0  0  0  0  0  0  0  0  0  0  0
    3.9996    1.8292    0.0000 N   0  0  0  0  0  0  0  0  0  0  0  0
    2.6896    1.1617    0.0000 C   0  0  0  0  0  0  0  0  0  0  0  0
    3.5146    1.1617    0.0000 C   0  0  0  0  0  0  0  0  0  0  0  0
    3.7696    0.3771    0.0000 C   0  0  0  0  0  0  0  0  0  0  0  0
    3.1021   -0.9328    0.0000 C   0  0  0  0  0  0  0  0  0  0  0  0
    2.2047    1.8292    0.0000 C   0  0  0  0  0  0  0  0  0  0  0  0
    1.6500    0.1222    0.0000 C   0  0  0  0  0  0  0  0  0  0  0  0
    3.6640    2.5829    0.0000 C   0  0  0  0  0  0  0  0  0  0  0  0
    4.8201    1.7429    0.0000 C   0  0  0  0  0  0  0  0  0  0  0  0
    3.8166   -1.3454    0.0000 C   0  0  0  0  0  0  0  0  0  0  0  0
    2.3876   -1.3454    0.0000 C   0  0  0  0  0  0  0  0  0  0  0  0
    3.8166   -2.1704    0.0000 C   0  0  0  0  0  0  0  0  0  0  0  0
    2.3876   -2.1704    0.0000 C   0  0  0  0  0  0  0  0  0  0  0  0
    3.1021   -2.5829    0.0000 C   0  0  0  0  0  0  0  0  0  0  0  0
  1  7  2  0  0  0  0
  2  3  1  0  0  0  0
  2  5  1  0  0  0  0
  2 10  1  0  0  0  0
  3  7  1  0  0  0  0
  3  8  1  0  0  0  0
  4  6  1  0  0  0  0
  4 11  1  0  0  0  0
  4 12  1  0  0  0  0
  5  6  2  0  0  0  0
  5  9  1  0  0  0  0
  6  7  1  0  0  0  0
  8 13  2  0  0  0  0
  8 14  1  0  0  0  0
 13 15  1  0  0  0  0
 14 16  2  0  0  0  0
 15 17  2  0  0  0  0
 16 17  1  0  0  0  0
M  END
> <DATABASE_ID>
DB01424

> <DATABASE_NAME>
drugbank

> <SMILES>
CN(C)C1=C(C)N(C)N(C1=O)C1=CC=CC=C1

> <INCHI_IDENTIFIER>
InChI=1S/C13H17N3O/c1-10-12(14(2)3)13(17)16(15(10)4)11-8-6-5-7-9-11/h5-9H,1-4H3

> <INCHI_KEY>
RMMXTBMQSGEXHJ-UHFFFAOYSA-N

> <FORMULA>
C13H17N3O

> <MOLECULAR_WEIGHT>
231.2936

> <EXACT_MASS>
231.137162181

> <JCHEM_ACCEPTOR_COUNT>
3

> <JCHEM_AVERAGE_POLARIZABILITY>
25.86589988753915

> <JCHEM_BIOAVAILABILITY>
1

> <JCHEM_DONOR_COUNT>
0

> <JCHEM_FORMAL_CHARGE>
0

> <JCHEM_GHOSE_FILTER>
1

> <JCHEM_IUPAC>
4-(dimethylamino)-1,5-dimethyl-2-phenyl-2,3-dihydro-1H-pyrazol-3-one

> <ALOGPS_LOGP>
0.94

> <JCHEM_LOGP>
1.1505949156666666

> <ALOGPS_LOGS>
-1.01

> <JCHEM_MDDR_LIKE_RULE>
0

> <JCHEM_NUMBER_OF_RINGS>
2

> <JCHEM_PHYSIOLOGICAL_CHARGE>
0

> <JCHEM_PKA_STRONGEST_BASIC>
3.4650629529248964

> <JCHEM_POLAR_SURFACE_AREA>
26.790000000000006

> <JCHEM_REFRACTIVITY>
70.11100000000002

> <JCHEM_ROTATABLE_BOND_COUNT>
2

> <JCHEM_RULE_OF_FIVE>
1

> <ALOGPS_SOLUBILITY>
2.25e+01 g/l

> <JCHEM_TRADITIONAL_IUPAC>
aminophenazone

> <JCHEM_VEBER_RULE>
1

> <DRUGBANK_ID>
DB01424

> <DRUG_GROUPS>
approved; withdrawn

> <GENERIC_NAME>
Aminophenazone

> <SYNONYMS>
4-Dimethylaminoantipyrine; Aminopyrine; Dipyrine

$$$$
1459
  Mrv0541 02231215302D          

 37 41  0  0  0  0            999 V2000
    5.1661   -2.3526    0.0000 O   0  0  0  0  0  0  0  0  0  0  0  0
    3.5649   -4.4147    0.0000 O   0  0  0  0  0  0  0  0  0  0  0  0
    4.6285    0.6639    0.0000 N   0  0  0  0  0  0  0  0  0  0  0  0
    3.8596   -1.6886    0.0000 N   0  0  0  0  0  0  0  0  0  0  0  0
    3.8596   -3.0165    0.0000 N   0  0  0  0  0  0  0  0  0  0  0  0
    4.3800    2.9150    0.0000 N   0  0  0  0  0  0  0  0  0  0  0  0
    4.1159   -0.9045    0.0000 C   0  0  0  0  0  0  0  0  0  0  0  0
    4.9232   -0.7343    0.0000 C   0  0  0  0  0  0  0  0  0  0  0  0
    3.5649   -0.2904    0.0000 C   0  0  0  0  0  0  0  0  0  0  0  0
    5.1795    0.0498    0.0000 C   0  0  0  0  0  0  0  0  0  0  0  0
    3.8213    0.4938    0.0000 C   0  0  0  0  0  0  0  0  0  0  0  0
    4.8848    1.4481    0.0000 C   0  0  0  0  0  0  0  0  0  0  0  0
    5.6921    1.6183    0.0000 C   0  0  0  0  0  0  0  0  0  0  0  0
    3.0790   -1.9401    0.0000 C   0  0  0  0  0  0  0  0  0  0  0  0
    5.9484    2.4024    0.0000 C   0  0  0  0  0  0  0  0  0  0  0  0
    4.3411   -2.3526    0.0000 C   0  0  0  0  0  0  0  0  0  0  0  0
    3.0790   -2.7651    0.0000 C   0  0  0  0  0  0  0  0  0  0  0  0
    6.7326    2.1461    0.0000 C   0  0  0  0  0  0  0  0  0  0  0  0
    6.2047    3.1866    0.0000 C   0  0  0  0  0  0  0  0  0  0  0  0
    2.3645   -1.5276    0.0000 C   0  0  0  0  0  0  0  0  0  0  0  0
    2.3645   -3.1776    0.0000 C   0  0  0  0  0  0  0  0  0  0  0  0
    4.1159   -3.8006    0.0000 C   0  0  0  0  0  0  0  0  0  0  0  0
    5.1642    2.6588    0.0000 C   0  0  0  0  0  0  0  0  0  0  0  0
    1.6500   -1.9401    0.0000 C   0  0  0  0  0  0  0  0  0  0  0  0
    1.6500   -2.7651    0.0000 C   0  0  0  0  0  0  0  0  0  0  0  0
    7.3466    2.6971    0.0000 C   0  0  0  0  0  0  0  0  0  0  0  0
    5.6537    3.8006    0.0000 C   0  0  0  0  0  0  0  0  0  0  0  0
    6.9027    1.3388    0.0000 C   0  0  0  0  0  0  0  0  0  0  0  0
    7.0120    3.3567    0.0000 C   0  0  0  0  0  0  0  0  0  0  0  0
    4.9232   -3.9708    0.0000 C   0  0  0  0  0  0  0  0  0  0  0  0
    8.1308    2.4408    0.0000 C   0  0  0  0  0  0  0  0  0  0  0  0
    5.9100    4.5848    0.0000 C   0  0  0  0  0  0  0  0  0  0  0  0
    7.6868    1.0826    0.0000 C   0  0  0  0  0  0  0  0  0  0  0  0
    7.2682    4.1410    0.0000 C   0  0  0  0  0  0  0  0  0  0  0  0
    5.1795   -4.7550    0.0000 C   0  0  0  0  0  0  0  0  0  0  0  0
    8.3009    1.6335    0.0000 C   0  0  0  0  0  0  0  0  0  0  0  0
    6.7173    4.7550    0.0000 C   0  0  0  0  0  0  0  0  0  0  0  0
  1 16  2  0  0  0  0
  2 22  2  0  0  0  0
  3 10  1  0  0  0  0
  3 11  1  0  0  0  0
  3 12  1  0  0  0  0
  4  7  1  0  0  0  0
  4 14  1  0  0  0  0
  4 16  1  0  0  0  0
  5 16  1  0  0  0  0
  5 17  1  0  0  0  0
  5 22  1  0  0  0  0
  6 23  3  0  0  0  0
  7  8  1  0  0  0  0
  7  9  1  0  0  0  0
  8 10  1  0  0  0  0
  9 11  1  0  0  0  0
 12 13  1  0  0  0  0
 13 15  1  0  0  0  0
 14 17  1  0  0  0  0
 14 20  2  0  0  0  0
 15 18  1  0  0  0  0
 15 19  1  0  0  0  0
 15 23  1  0  0  0  0
 17 21  2  0  0  0  0
 18 26  2  0  0  0  0
 18 28  1  0  0  0  0
 19 27  2  0  0  0  0
 19 29  1  0  0  0  0
 20 24  1  0  0  0  0
 21 25  1  0  0  0  0
 22 30  1  0  0  0  0
 24 25  2  0  0  0  0
 26 31  1  0  0  0  0
 27 32  1  0  0  0  0
 28 33  2  0  0  0  0
 29 34  2  0  0  0  0
 30 35  1  0  0  0  0
 31 36  2  0  0  0  0
 32 37  2  0  0  0  0
 33 36  1  0  0  0  0
 34 37  1  0  0  0  0
M  END
> <DATABASE_ID>
DB01459

> <DATABASE_NAME>
drugbank

> <SMILES>
CCC(=O)N1C(=O)N(C2CCN(CCC(C#N)(C3=CC=CC=C3)C3=CC=CC=C3)CC2)C2=CC=CC=C12

> <INCHI_IDENTIFIER>
InChI=1S/C31H32N4O2/c1-2-29(36)35-28-16-10-9-15-27(28)34(30(35)37)26-17-20-33(21-18-26)22-19-31(23-32,24-11-5-3-6-12-24)25-13-7-4-8-14-25/h3-16,26H,2,17-22H2,1H3

> <INCHI_KEY>
FLKWNFFCSSJANB-UHFFFAOYSA-N

> <FORMULA>
C31H32N4O2

> <MOLECULAR_WEIGHT>
492.6114

> <EXACT_MASS>
492.252526288

> <JCHEM_ACCEPTOR_COUNT>
4

> <JCHEM_AVERAGE_POLARIZABILITY>
55.57782805239998

> <JCHEM_BIOAVAILABILITY>
1

> <JCHEM_DONOR_COUNT>
0

> <JCHEM_FORMAL_CHARGE>
0

> <JCHEM_GHOSE_FILTER>
0

> <JCHEM_IUPAC>
4-[4-(2-oxo-3-propanoyl-2,3-dihydro-1H-1,3-benzodiazol-1-yl)piperidin-1-yl]-2,2-diphenylbutanenitrile

> <ALOGPS_LOGP>
4.35

> <JCHEM_LOGP>
4.794030338333334

> <ALOGPS_LOGS>
-4.87

> <JCHEM_MDDR_LIKE_RULE>
1

> <JCHEM_NUMBER_OF_RINGS>
5

> <JCHEM_PHYSIOLOGICAL_CHARGE>
1

> <JCHEM_PKA_STRONGEST_BASIC>
8.320154204728038

> <JCHEM_POLAR_SURFACE_AREA>
67.65

> <JCHEM_REFRACTIVITY>
155.25199999999998

> <JCHEM_ROTATABLE_BOND_COUNT>
7

> <JCHEM_RULE_OF_FIVE>
1

> <ALOGPS_SOLUBILITY>
6.70e-03 g/l

> <JCHEM_TRADITIONAL_IUPAC>
bezitramide

> <JCHEM_VEBER_RULE>
0

> <DRUGBANK_ID>
DB01459

> <DRUG_GROUPS>
experimental; illicit; withdrawn

> <GENERIC_NAME>
Bezitramide

> <INTERNATIONAL_BRANDS>
Burgodin 

$$$$
1463
  Mrv0541 02231215302D          

 16 18  0  0  1  0            999 V2000
    2.6602    0.9070    0.0000 N   0  0  0  0  0  0  0  0  0  0  0  0
    5.2984    0.8040    0.0000 C   0  0  0  0  0  0  0  0  0  0  0  0
    5.5119    1.6008    0.0000 C   0  0  0  0  0  0  0  0  0  0  0  0
    3.8696   -0.0210    0.0000 C   0  0  0  0  0  0  0  0  0  0  0  0
    3.4571    0.6934    0.0000 C   0  0  0  0  0  0  0  0  0  0  0  0
    4.9042    2.4115    0.0000 C   0  0  0  0  0  0  0  0  0  0  0  0
    6.8097    0.1780    0.0000 C   0  0  0  0  0  0  0  0  0  0  0  0
    7.0231    0.9748    0.0000 C   0  0  0  0  0  0  0  0  0  0  0  0
    3.6561   -0.8177    0.0000 C   0  0  0  0  0  0  0  0  0  0  0  0
    2.4467    1.7039    0.0000 C   0  0  0  0  0  0  0  0  0  0  0  0
    2.8592   -1.0312    0.0000 C   0  0  0  0  0  0  0  0  0  0  0  0
    4.2394   -1.4011    0.0000 C   0  0  0  0  0  0  0  0  0  0  0  0
    1.6499    1.9173    0.0000 C   0  0  0  0  0  0  0  0  0  0  0  0
    2.6457   -1.8282    0.0000 C   0  0  0  0  0  0  0  0  0  0  0  0
    4.0258   -2.1979    0.0000 C   0  0  0  0  0  0  0  0  0  0  0  0
    3.2289   -2.4115    0.0000 C   0  0  0  0  0  0  0  0  0  0  0  0
  1  5  1  0  0  0  0
  1 10  1  0  0  0  0
  2  4  1  0  0  0  0
  2  6  1  0  0  0  0
  2  7  1  0  0  0  0
  3  5  1  0  0  0  0
  3  6  1  0  0  0  0
  3  8  1  0  0  0  0
  4  5  1  0  0  0  0
  4  9  1  0  0  0  0
  7  8  1  0  0  0  0
  9 11  2  0  0  0  0
  9 12  1  0  0  0  0
 10 13  1  0  0  0  0
 11 14  1  0  0  0  0
 12 15  2  0  0  0  0
 14 16  2  0  0  0  0
 15 16  1  0  0  0  0
M  END
> <DATABASE_ID>
DB01463

> <DATABASE_NAME>
drugbank

> <SMILES>
CCNC1C2CCC(C2)C1C1=CC=CC=C1

> <INCHI_IDENTIFIER>
InChI=1S/C15H21N/c1-2-16-15-13-9-8-12(10-13)14(15)11-6-4-3-5-7-11/h3-7,12-16H,2,8-10H2,1H3

> <INCHI_KEY>
IKFBPFGUINLYQI-UHFFFAOYSA-N

> <FORMULA>
C15H21N

> <MOLECULAR_WEIGHT>
215.3339

> <EXACT_MASS>
215.167399677

> <JCHEM_ACCEPTOR_COUNT>
1

> <JCHEM_AVERAGE_POLARIZABILITY>
26.12991500811218

> <JCHEM_BIOAVAILABILITY>
1

> <JCHEM_DONOR_COUNT>
1

> <JCHEM_FORMAL_CHARGE>
0

> <JCHEM_GHOSE_FILTER>
1

> <JCHEM_IUPAC>
N-ethyl-3-phenylbicyclo[2.2.1]heptan-2-amine

> <ALOGPS_LOGP>
3.46

> <JCHEM_LOGP>
3.2056741686666665

> <ALOGPS_LOGS>
-4.86

> <JCHEM_MDDR_LIKE_RULE>
0

> <JCHEM_NUMBER_OF_RINGS>
3

> <JCHEM_PHYSIOLOGICAL_CHARGE>
1

> <JCHEM_PKA_STRONGEST_BASIC>
10.563142373934664

> <JCHEM_POLAR_SURFACE_AREA>
12.03

> <JCHEM_REFRACTIVITY>
67.63980000000001

> <JCHEM_ROTATABLE_BOND_COUNT>
3

> <JCHEM_RULE_OF_FIVE>
1

> <ALOGPS_SOLUBILITY>
2.95e-03 g/l

> <JCHEM_TRADITIONAL_IUPAC>
fencamfamine

> <JCHEM_VEBER_RULE>
1

> <DRUGBANK_ID>
DB01463

> <DRUG_GROUPS>
approved; illicit; withdrawn

> <GENERIC_NAME>
Fencamfamine

> <SYNONYMS>
Fencamfamine; Fencamfaminum; Fencanfamina

> <INTERNATIONAL_BRANDS>
Glucoenergan; Reactivan

> <SALTS>
Fencamfamine hydrochloride

$$$$
1493
  Mrv0541 02231215312D          

 25 28  0  0  1  0            999 V2000
    6.8323    1.1889    0.0000 O   0  0  0  0  0  0  0  0  0  0  0  0
    5.3833    0.4537    0.0000 C   0  0  1  0  0  0  0  0  0  0  0  0
    5.3833   -0.3713    0.0000 C   0  0  2  0  0  0  0  0  0  0  0  0
    4.6689   -0.7838    0.0000 C   0  0  1  0  0  0  0  0  0  0  0  0
    3.9544   -0.3713    0.0000 C   0  0  2  0  0  0  0  0  0  0  0  0
    6.1640    0.7051    0.0000 C   0  0  2  0  0  0  0  0  0  0  0  0
    4.6689    0.8662    0.0000 C   0  0  0  0  0  0  0  0  0  0  0  0
    6.1640   -0.6227    0.0000 C   0  0  0  0  0  0  0  0  0  0  0  0
    3.9544    0.4537    0.0000 C   0  0  0  0  0  0  0  0  0  0  0  0
    6.6455    0.0412    0.0000 C   0  0  0  0  0  0  0  0  0  0  0  0
    3.2036   -0.7895    0.0000 C   0  0  2  0  0  0  0  0  0  0  0  0
    4.6821   -1.6431    0.0000 C   0  0  0  0  0  0  0  0  0  0  0  0
    5.3833    1.2787    0.0000 C   0  0  0  0  0  0  0  0  0  0  0  0
    5.9104    1.4902    0.0000 C   0  0  0  0  0  0  0  0  0  0  0  0
    3.9412   -2.0785    0.0000 C   0  0  0  0  0  0  0  0  0  0  0  0
    3.1970   -1.6488    0.0000 C   0  0  0  0  0  0  0  0  0  0  0  0
    2.4389   -0.3241    0.0000 C   0  0  0  0  0  0  0  0  0  0  0  0
    1.6570   -0.7597    0.0000 C   0  0  0  0  0  0  0  0  0  0  0  0
    2.4252   -2.1023    0.0000 C   0  0  0  0  0  0  0  0  0  0  0  0
    6.4635    2.1023    0.0000 C   0  0  0  0  0  0  0  0  0  0  0  0
    1.6500   -1.6547    0.0000 C   0  0  0  0  0  0  0  0  0  0  0  0
    5.4532   -1.0276    0.0000 H   0  0  0  0  0  0  0  0  0  0  0  0
    5.2430   -1.1094    0.0000 H   0  0  0  0  0  0  0  0  0  0  0  0
    4.5260   -0.0413    0.0000 H   0  0  0  0  0  0  0  0  0  0  0  0
    3.2163   -0.1296    0.0000 H   0  0  0  0  0  0  0  0  0  0  0  0
  6  1  1  1  0  0  0
  2  3  1  0  0  0  0
  2  6  1  0  0  0  0
  2  7  1  0  0  0  0
  2 13  1  1  0  0  0
  3  4  1  0  0  0  0
  3  8  1  0  0  0  0
  3 22  1  6  0  0  0
  4  5  1  0  0  0  0
  4 12  1  0  0  0  0
  4 23  1  1  0  0  0
  5  9  1  0  0  0  0
  5 11  1  0  0  0  0
  5 24  1  6  0  0  0
  6 10  1  0  0  0  0
  6 14  1  0  0  0  0
  7  9  1  0  0  0  0
  8 10  1  0  0  0  0
 11 16  1  0  0  0  0
 11 17  1  0  0  0  0
 11 25  1  1  0  0  0
 12 15  1  0  0  0  0
 14 20  1  0  0  0  0
 15 16  1  0  0  0  0
 16 19  2  0  0  0  0
 17 18  1  0  0  0  0
 18 21  1  0  0  0  0
 19 21  1  0  0  0  0
M  END
> <DATABASE_ID>
DB01493

> <DATABASE_NAME>
drugbank

> <SMILES>
[H][C@@]12CC[C@@](O)(CC)[C@@]1(C)CC[C@]1([H])[C@@]3([H])CCCC=C3CC[C@@]21[H]

> <INCHI_IDENTIFIER>
InChI=1S/C20H32O/c1-3-20(21)13-11-18-17-9-8-14-6-4-5-7-15(14)16(17)10-12-19(18,20)2/h6,15-18,21H,3-5,7-13H2,1-2H3/t15-,16+,17+,18-,19-,20-/m0/s1

> <INCHI_KEY>
AOXRBFRFYPMWLR-XGXHKTLJSA-N

> <FORMULA>
C20H32O

> <MOLECULAR_WEIGHT>
288.4675

> <EXACT_MASS>
288.245315646

> <JCHEM_ACCEPTOR_COUNT>
1

> <JCHEM_AVERAGE_POLARIZABILITY>
35.93657901645529

> <JCHEM_BIOAVAILABILITY>
1

> <JCHEM_DONOR_COUNT>
1

> <JCHEM_FORMAL_CHARGE>
0

> <JCHEM_GHOSE_FILTER>
1

> <JCHEM_IUPAC>
(1S,2R,10R,11S,14S,15S)-14-ethyl-15-methyltetracyclo[8.7.0.0²,⁷.0¹¹,¹⁵]heptadec-6-en-14-ol

> <ALOGPS_LOGP>
5.20

> <JCHEM_LOGP>
4.687947820000001

> <ALOGPS_LOGS>
-5.53

> <JCHEM_MDDR_LIKE_RULE>
0

> <JCHEM_NUMBER_OF_RINGS>
4

> <JCHEM_PHYSIOLOGICAL_CHARGE>
0

> <JCHEM_PKA_STRONGEST_BASIC>
-0.26909618244654065

> <JCHEM_POLAR_SURFACE_AREA>
20.23

> <JCHEM_REFRACTIVITY>
88.4988

> <JCHEM_ROTATABLE_BOND_COUNT>
1

> <JCHEM_RULE_OF_FIVE>
1

> <ALOGPS_SOLUBILITY>
8.60e-04 g/l

> <JCHEM_TRADITIONAL_IUPAC>
ethylestrenol

> <JCHEM_VEBER_RULE>
1

> <DRUGBANK_ID>
DB01493

> <DRUG_GROUPS>
withdrawn

> <GENERIC_NAME>
Ethylestrenol

$$$$
1494
  Mrv0541 02231215312D          

 15 13  0  0  0  0            999 V2000
    0.3572    0.3020    0.0000 Cl  0  0  0  0  0  0  0  0  0  0  0  0
    0.6592    1.4290    0.0000 Cl  0  0  0  0  0  0  0  0  0  0  0  0
    1.4842    0.0000    0.0000 Cl  0  0  0  0  0  0  0  0  0  0  0  0
    3.3009    5.4278    0.0000 O   0  5  0  0  0  0  0  0  0  0  0  0
    2.5864    4.1903    0.0000 O   0  0  0  0  0  0  0  0  0  0  0  0
    2.5007    0.7145    0.0000 O   0  0  0  0  0  0  0  0  0  0  0  0
    1.7862    1.9520    0.0000 O   0  0  0  0  0  0  0  0  0  0  0  0
    1.1575    5.0153    0.0000 N   0  3  0  0  0  0  0  0  0  0  0  0
    1.8720    5.4278    0.0000 C   0  0  0  0  0  0  0  0  0  0  0  0
    1.5700    4.3008    0.0000 C   0  0  0  0  0  0  0  0  0  0  0  0
    0.7450    5.7298    0.0000 C   0  0  0  0  0  0  0  0  0  0  0  0
    0.4430    4.6028    0.0000 C   0  0  0  0  0  0  0  0  0  0  0  0
    2.5864    5.0153    0.0000 C   0  0  0  0  0  0  0  0  0  0  0  0
    1.7862    1.1270    0.0000 C   0  0  0  0  0  0  0  0  0  0  0  0
    1.0717    0.7145    0.0000 C   0  0  0  0  0  0  0  0  0  0  0  0
  1 15  1  0  0  0  0
  2 15  1  0  0  0  0
  3 15  1  0  0  0  0
  4 13  1  0  0  0  0
  5 13  2  0  0  0  0
  6 14  1  0  0  0  0
  7 14  1  0  0  0  0
  8  9  1  0  0  0  0
  8 10  1  0  0  0  0
  8 11  1  0  0  0  0
  8 12  1  0  0  0  0
  9 13  1  0  0  0  0
 14 15  1  0  0  0  0
M  CHG  2   4  -1   8   1
M  END
> <DATABASE_ID>
DB01494

> <DATABASE_NAME>
drugbank

> <SMILES>
OC(O)C(Cl)(Cl)Cl.C[N+](C)(C)CC([O-])=O

> <INCHI_IDENTIFIER>
InChI=1S/C5H11NO2.C2H3Cl3O2/c1-6(2,3)4-5(7)8;3-2(4,5)1(6)7/h4H2,1-3H3;1,6-7H

> <INCHI_KEY>
ONAOIDNSINNZOA-UHFFFAOYSA-N

> <FORMULA>
C7H14Cl3NO4

> <MOLECULAR_WEIGHT>
282.549

> <EXACT_MASS>
280.998841062

> <JCHEM_ACCEPTOR_COUNT>
2

> <JCHEM_AVERAGE_POLARIZABILITY>
12.112893521461935

> <JCHEM_BIOAVAILABILITY>
1

> <JCHEM_DONOR_COUNT>
0

> <JCHEM_FORMAL_CHARGE>
0

> <JCHEM_GHOSE_FILTER>
0

> <JCHEM_IUPAC>
2,2,2-trichloroethane-1,1-diol 2-(trimethylazaniumyl)acetate

> <JCHEM_LOGP>
-4.494183842471745

> <JCHEM_MDDR_LIKE_RULE>
0

> <JCHEM_NUMBER_OF_RINGS>
0

> <JCHEM_PHYSIOLOGICAL_CHARGE>
0

> <JCHEM_PKA_STRONGEST_ACIDIC>
2.2595637800263866

> <JCHEM_POLAR_SURFACE_AREA>
40.129999999999995

> <JCHEM_REFRACTIVITY>
52.8234

> <JCHEM_ROTATABLE_BOND_COUNT>
3

> <JCHEM_RULE_OF_FIVE>
1

> <JCHEM_TRADITIONAL_IUPAC>
Bet; chloral hydrate

> <JCHEM_VEBER_RULE>
0

> <DRUGBANK_ID>
DB01494

> <DRUG_GROUPS>
illicit; withdrawn

> <GENERIC_NAME>
Chloral betaine

> <SYNONYMS>
Cloral betaine

> <INTERNATIONAL_BRANDS>
Beta-ChIor

$$$$
1546
  Mrv0541 02231215332D          

 14 15  0  0  1  0            999 V2000
    3.8597   -1.4804    0.0000 N   0  0  0  0  0  0  0  0  0  0  0  0
    5.1795    1.5859    0.0000 N   0  0  0  0  0  0  0  0  0  0  0  0
    4.9232    0.8018    0.0000 C   0  0  0  0  0  0  0  0  0  0  0  0
    4.1159    0.6316    0.0000 C   0  0  0  0  0  0  0  0  0  0  0  0
    3.8597   -0.1526    0.0000 C   0  0  0  0  0  0  0  0  0  0  0  0
    5.4742    0.1877    0.0000 C   0  0  0  0  0  0  0  0  0  0  0  0
    3.0791   -0.4040    0.0000 C   0  0  0  0  0  0  0  0  0  0  0  0
    3.0791   -1.2290    0.0000 C   0  0  0  0  0  0  0  0  0  0  0  0
    4.3412   -0.8165    0.0000 C   0  0  0  0  0  0  0  0  0  0  0  0
    6.2815    0.3578    0.0000 C   0  0  0  0  0  0  0  0  0  0  0  0
    2.3645    0.0085    0.0000 C   0  0  0  0  0  0  0  0  0  0  0  0
    2.3645   -1.6415    0.0000 C   0  0  0  0  0  0  0  0  0  0  0  0
    1.6500   -0.4040    0.0000 C   0  0  0  0  0  0  0  0  0  0  0  0
    1.6500   -1.2290    0.0000 C   0  0  0  0  0  0  0  0  0  0  0  0
  1  8  1  0  0  0  0
  1  9  1  0  0  0  0
  2  3  1  0  0  0  0
  3  4  1  0  0  0  0
  3  6  1  0  0  0  0
  4  5  1  0  0  0  0
  5  7  1  0  0  0  0
  5  9  2  0  0  0  0
  6 10  1  0  0  0  0
  7  8  1  0  0  0  0
  7 11  2  0  0  0  0
  8 12  2  0  0  0  0
 11 13  1  0  0  0  0
 12 14  1  0  0  0  0
 13 14  2  0  0  0  0
M  END
> <DATABASE_ID>
DB01546

> <DATABASE_NAME>
drugbank

> <SMILES>
CCC(N)CC1=CNC2=CC=CC=C12

> <INCHI_IDENTIFIER>
InChI=1S/C12H16N2/c1-2-10(13)7-9-8-14-12-6-4-3-5-11(9)12/h3-6,8,10,14H,2,7,13H2,1H3

> <INCHI_KEY>
ZXUMUPVQYAFTLF-UHFFFAOYSA-N

> <FORMULA>
C12H16N2

> <MOLECULAR_WEIGHT>
188.2688

> <EXACT_MASS>
188.131348522

> <JCHEM_ACCEPTOR_COUNT>
1

> <JCHEM_AVERAGE_POLARIZABILITY>
22.135311906787653

> <JCHEM_BIOAVAILABILITY>
1

> <JCHEM_DONOR_COUNT>
2

> <JCHEM_FORMAL_CHARGE>
0

> <JCHEM_GHOSE_FILTER>
1

> <JCHEM_IUPAC>
1-(1H-indol-3-yl)butan-2-amine

> <ALOGPS_LOGP>
2.55

> <JCHEM_LOGP>
2.425534869666666

> <ALOGPS_LOGS>
-2.59

> <JCHEM_MDDR_LIKE_RULE>
0

> <JCHEM_NUMBER_OF_RINGS>
2

> <JCHEM_PHYSIOLOGICAL_CHARGE>
1

> <JCHEM_PKA_STRONGEST_ACIDIC>
17.134816390438157

> <JCHEM_PKA_STRONGEST_BASIC>
9.99035203699291

> <JCHEM_POLAR_SURFACE_AREA>
41.81

> <JCHEM_REFRACTIVITY>
59.31570000000001

> <JCHEM_ROTATABLE_BOND_COUNT>
3

> <JCHEM_RULE_OF_FIVE>
1

> <ALOGPS_SOLUBILITY>
4.81e-01 g/l

> <JCHEM_TRADITIONAL_IUPAC>
α-ethyltryptamine

> <JCHEM_VEBER_RULE>
0

> <DRUGBANK_ID>
DB01546

> <DRUG_GROUPS>
illicit; investigational; withdrawn

> <GENERIC_NAME>
Etryptamine

> <SYNONYMS>
3-(2-aminobutyl)indole; alpha-ethyltryptamine; α-ethyltryptamine; αET

> <INTERNATIONAL_BRANDS>
Monase 

> <SALTS>
Alpha-ethyltryptamine acetate

$$$$
1550
  Mrv0541 02231215332D          

 14 14  0  0  1  0            999 V2000
    3.0788    0.8249    0.0000 N   0  0  0  0  0  0  0  0  0  0  0  0
    5.2219    2.8873    0.0000 N   0  0  0  0  0  0  0  0  0  0  0  0
    3.0788    0.0000    0.0000 C   0  0  0  0  0  0  0  0  0  0  0  0
    2.3643   -0.4125    0.0000 C   0  0  0  0  0  0  0  0  0  0  0  0
    2.3643   -1.2374    0.0000 C   0  0  0  0  0  0  0  0  0  0  0  0
    3.7932   -0.4125    0.0000 C   0  0  0  0  0  0  0  0  0  0  0  0
    3.7932    1.2374    0.0000 C   0  0  0  0  0  0  0  0  0  0  0  0
    3.0788   -1.6498    0.0000 C   0  0  0  0  0  0  0  0  0  0  0  0
    1.6498   -1.6498    0.0000 C   0  0  0  0  0  0  0  0  0  0  0  0
    3.7932    2.0623    0.0000 C   0  0  0  0  0  0  0  0  0  0  0  0
    3.0788   -2.4749    0.0000 C   0  0  0  0  0  0  0  0  0  0  0  0
    1.6498   -2.4749    0.0000 C   0  0  0  0  0  0  0  0  0  0  0  0
    2.3643   -2.8873    0.0000 C   0  0  0  0  0  0  0  0  0  0  0  0
    4.5076    2.4749    0.0000 C   0  0  0  0  0  0  0  0  0  0  0  0
  1  3  1  0  0  0  0
  1  7  1  0  0  0  0
  2 14  3  0  0  0  0
  3  4  1  0  0  0  0
  3  6  1  0  0  0  0
  4  5  1  0  0  0  0
  5  8  2  0  0  0  0
  5  9  1  0  0  0  0
  7 10  1  0  0  0  0
  8 11  1  0  0  0  0
  9 12  2  0  0  0  0
 10 14  1  0  0  0  0
 11 13  2  0  0  0  0
 12 13  1  0  0  0  0
M  END
> <DATABASE_ID>
DB01550

> <DATABASE_NAME>
drugbank

> <SMILES>
CC(CC1=CC=CC=C1)NCCC#N

> <INCHI_IDENTIFIER>
InChI=1S/C12H16N2/c1-11(14-9-5-8-13)10-12-6-3-2-4-7-12/h2-4,6-7,11,14H,5,9-10H2,1H3

> <INCHI_KEY>
IQUFSXIQAFPIMR-UHFFFAOYSA-N

> <FORMULA>
C12H16N2

> <MOLECULAR_WEIGHT>
188.2688

> <EXACT_MASS>
188.131348522

> <JCHEM_ACCEPTOR_COUNT>
2

> <JCHEM_AVERAGE_POLARIZABILITY>
22.036433201168098

> <JCHEM_BIOAVAILABILITY>
1

> <JCHEM_DONOR_COUNT>
1

> <JCHEM_FORMAL_CHARGE>
0

> <JCHEM_GHOSE_FILTER>
1

> <JCHEM_IUPAC>
3-[(1-phenylpropan-2-yl)amino]propanenitrile

> <ALOGPS_LOGP>
2.14

> <JCHEM_LOGP>
2.0097757866666663

> <ALOGPS_LOGS>
-3.01

> <JCHEM_MDDR_LIKE_RULE>
0

> <JCHEM_NUMBER_OF_RINGS>
1

> <JCHEM_PHYSIOLOGICAL_CHARGE>
1

> <JCHEM_PKA_STRONGEST_BASIC>
7.881537675753346

> <JCHEM_POLAR_SURFACE_AREA>
35.82

> <JCHEM_REFRACTIVITY>
58.24310000000002

> <JCHEM_ROTATABLE_BOND_COUNT>
5

> <JCHEM_RULE_OF_FIVE>
1

> <ALOGPS_SOLUBILITY>
1.84e-01 g/l

> <JCHEM_TRADITIONAL_IUPAC>
fenproporex

> <JCHEM_VEBER_RULE>
1

> <DRUGBANK_ID>
DB01550

> <DRUG_GROUPS>
approved; illicit; withdrawn

> <GENERIC_NAME>
Fenproporex

> <INTERNATIONAL_BRANDS>
Desobesi-M; Feprorex; Lipenan; Salcal

$$$$
1556
  Mrv0541 02231215332D          

 12 12  0  0  0  0            999 V2000
    2.3645   -2.3183    0.0000 Cl  0  0  0  0  0  0  0  0  0  0  0  0
    3.7935    1.8068    0.0000 N   0  0  0  0  0  0  0  0  0  0  0  0
    3.0791    1.3943    0.0000 C   0  0  0  0  0  0  0  0  0  0  0  0
    2.3645    0.9818    0.0000 C   0  0  0  0  0  0  0  0  0  0  0  0
    2.6665    2.1087    0.0000 C   0  0  0  0  0  0  0  0  0  0  0  0
    3.4916    0.6798    0.0000 C   0  0  0  0  0  0  0  0  0  0  0  0
    2.3645    0.1568    0.0000 C   0  0  0  0  0  0  0  0  0  0  0  0
    3.0791   -0.2558    0.0000 C   0  0  0  0  0  0  0  0  0  0  0  0
    1.6500   -0.2558    0.0000 C   0  0  0  0  0  0  0  0  0  0  0  0
    3.0791   -1.0808    0.0000 C   0  0  0  0  0  0  0  0  0  0  0  0
    1.6500   -1.0808    0.0000 C   0  0  0  0  0  0  0  0  0  0  0  0
    2.3645   -1.4933    0.0000 C   0  0  0  0  0  0  0  0  0  0  0  0
  1 12  1  0  0  0  0
  2  3  1  0  0  0  0
  3  4  1  0  0  0  0
  3  5  1  0  0  0  0
  3  6  1  0  0  0  0
  4  7  1  0  0  0  0
  7  8  2  0  0  0  0
  7  9  1  0  0  0  0
  8 10  1  0  0  0  0
  9 11  2  0  0  0  0
 10 12  2  0  0  0  0
 11 12  1  0  0  0  0
M  END
> <DATABASE_ID>
DB01556

> <DATABASE_NAME>
drugbank

> <SMILES>
CC(C)(N)CC1=CC=C(Cl)C=C1

> <INCHI_IDENTIFIER>
InChI=1S/C10H14ClN/c1-10(2,12)7-8-3-5-9(11)6-4-8/h3-6H,7,12H2,1-2H3

> <INCHI_KEY>
ZCKAMNXUHHNZLN-UHFFFAOYSA-N

> <FORMULA>
C10H14ClN

> <MOLECULAR_WEIGHT>
183.678

> <EXACT_MASS>
183.08147716

> <JCHEM_ACCEPTOR_COUNT>
1

> <JCHEM_AVERAGE_POLARIZABILITY>
20.19453270878085

> <JCHEM_BIOAVAILABILITY>
1

> <JCHEM_DONOR_COUNT>
1

> <JCHEM_FORMAL_CHARGE>
0

> <JCHEM_GHOSE_FILTER>
1

> <JCHEM_IUPAC>
1-(4-chlorophenyl)-2-methylpropan-2-amine

> <ALOGPS_LOGP>
2.81

> <JCHEM_LOGP>
2.688871826333333

> <ALOGPS_LOGS>
-3.24

> <JCHEM_MDDR_LIKE_RULE>
0

> <JCHEM_NUMBER_OF_RINGS>
1

> <JCHEM_PHYSIOLOGICAL_CHARGE>
1

> <JCHEM_PKA_STRONGEST_BASIC>
10.237050035938482

> <JCHEM_POLAR_SURFACE_AREA>
26.02

> <JCHEM_REFRACTIVITY>
53.14820000000001

> <JCHEM_ROTATABLE_BOND_COUNT>
2

> <JCHEM_RULE_OF_FIVE>
1

> <ALOGPS_SOLUBILITY>
1.05e-01 g/l

> <JCHEM_TRADITIONAL_IUPAC>
chlorphentermine

> <JCHEM_VEBER_RULE>
1

> <DRUGBANK_ID>
DB01556

> <DRUG_GROUPS>
illicit; withdrawn

> <GENERIC_NAME>
Chlorphentermine

> <SYNONYMS>
4-Chloro-a,a-dimethylbenzeneethanamine; 4-Chloro-a,a-dimethylphenethylamine; a,a-Dimethyl-p-chlorophenethylamine; Chlorphenterminum; Clorfentermina

> <INTERNATIONAL_BRANDS>
Apsedon; Desopimon; Lucofen

> <SALTS>
Chlorphentermine hydrochloride

$$$$
TOL
  Mrv0541 02231216102D          

 24 25  0  0  0  0            999 V2000
   -2.2716   -0.0276    0.0000 C   0  0  0  0  0  0  0  0  0  0  0  0
   -2.9861   -0.4401    0.0000 F   0  0  0  0  0  0  0  0  0  0  0  0
   -1.8591   -0.7421    0.0000 F   0  0  0  0  0  0  0  0  0  0  0  0
   -2.6841    0.6868    0.0000 F   0  0  0  0  0  0  0  0  0  0  0  0
   -1.5571    0.3849    0.0000 C   0  0  0  0  0  0  0  0  0  0  0  0
   -1.5571    1.2099    0.0000 C   0  0  0  0  0  0  0  0  0  0  0  0
   -2.2716    1.6224    0.0000 O   0  0  0  0  0  0  0  0  0  0  0  0
   -2.9861    1.2099    0.0000 C   0  0  0  0  0  0  0  0  0  0  0  0
   -0.8426    1.6224    0.0000 C   0  0  0  0  0  0  0  0  0  0  0  0
   -0.1282    1.2099    0.0000 C   0  0  0  0  0  0  0  0  0  0  0  0
   -0.1282    0.3849    0.0000 C   0  0  0  0  0  0  0  0  0  0  0  0
    0.5863   -0.0276    0.0000 C   0  0  0  0  0  0  0  0  0  0  0  0
    0.5863   -0.8526    0.0000 C   0  0  0  0  0  0  0  0  0  0  0  0
   -0.1282   -1.2651    0.0000 C   0  0  0  0  0  0  0  0  0  0  0  0
   -0.8426   -0.8526    0.0000 C   0  0  0  0  0  0  0  0  0  0  0  0
   -0.8426   -0.0276    0.0000 C   0  0  0  0  0  0  0  0  0  0  0  0
    1.3008    0.3849    0.0000 C   0  0  0  0  0  0  0  0  0  0  0  0
    1.3008    1.2099    0.0000 S   0  0  0  0  0  0  0  0  0  0  0  0
    2.0152   -0.0276    0.0000 N   0  0  0  0  0  0  0  0  0  0  0  0
    2.0152   -0.8526    0.0000 C   0  0  0  0  0  0  0  0  0  0  0  0
    2.7297    0.3849    0.0000 C   0  0  0  0  0  0  0  0  0  0  0  0
    3.4442   -0.0276    0.0000 C   0  0  0  0  0  0  0  0  0  0  0  0
    4.1587    0.3849    0.0000 O   0  0  0  0  0  0  0  0  0  0  0  0
    3.4442   -0.8526    0.0000 O   0  0  0  0  0  0  0  0  0  0  0  0
  1  2  1  0  0  0  0
  1  3  1  0  0  0  0
  1  4  1  0  0  0  0
  1  5  1  0  0  0  0
  5  6  2  0  0  0  0
  5 16  1  0  0  0  0
  6  7  1  0  0  0  0
  6  9  1  0  0  0  0
  7  8  1  0  0  0  0
  9 10  2  0  0  0  0
 10 11  1  0  0  0  0
 11 12  2  0  0  0  0
 11 16  1  0  0  0  0
 12 13  1  0  0  0  0
 12 17  1  0  0  0  0
 13 14  2  0  0  0  0
 14 15  1  0  0  0  0
 15 16  2  0  0  0  0
 17 18  2  0  0  0  0
 17 19  1  0  0  0  0
 19 20  1  0  0  0  0
 19 21  1  0  0  0  0
 21 22  1  0  0  0  0
 22 23  2  0  0  0  0
 22 24  1  0  0  0  0
M  END
> <DATABASE_ID>
DB02383

> <DATABASE_NAME>
drugbank

> <SMILES>
COC1=C(C2=CC=CC(C(=S)N(C)CC(O)=O)=C2C=C1)C(F)(F)F

> <INCHI_IDENTIFIER>
InChI=1S/C16H14F3NO3S/c1-20(8-13(21)22)15(24)11-5-3-4-10-9(11)6-7-12(23-2)14(10)16(17,18)19/h3-7H,8H2,1-2H3,(H,21,22)

> <INCHI_KEY>
LUBHDINQXIHVLS-UHFFFAOYSA-N

> <FORMULA>
C16H14F3NO3S

> <MOLECULAR_WEIGHT>
357.347

> <EXACT_MASS>
357.064648624

> <JCHEM_ACCEPTOR_COUNT>
3

> <JCHEM_AVERAGE_POLARIZABILITY>
32.079275633366706

> <JCHEM_BIOAVAILABILITY>
1

> <JCHEM_DONOR_COUNT>
1

> <JCHEM_FORMAL_CHARGE>
0

> <JCHEM_GHOSE_FILTER>
1

> <JCHEM_IUPAC>
2-{1-[6-methoxy-5-(trifluoromethyl)naphthalen-1-yl]-N-methylmethanethioamido}acetic acid

> <ALOGPS_LOGP>
3.25

> <JCHEM_LOGP>
3.3487451069999996

> <ALOGPS_LOGS>
-4.67

> <JCHEM_MDDR_LIKE_RULE>
0

> <JCHEM_NUMBER_OF_RINGS>
2

> <JCHEM_PHYSIOLOGICAL_CHARGE>
-1

> <JCHEM_PKA_STRONGEST_ACIDIC>
3.948939873488597

> <JCHEM_PKA_STRONGEST_BASIC>
-2.994274014991078

> <JCHEM_POLAR_SURFACE_AREA>
49.769999999999996

> <JCHEM_REFRACTIVITY>
87.89240000000001

> <JCHEM_ROTATABLE_BOND_COUNT>
5

> <JCHEM_RULE_OF_FIVE>
1

> <ALOGPS_SOLUBILITY>
7.60e-03 g/l

> <JCHEM_TRADITIONAL_IUPAC>
tolrestat

> <JCHEM_VEBER_RULE>
0

> <DRUGBANK_ID>
DB02383

> <SECONDARY_ACCESSION_NUMBERS>
EXPT03082

> <DRUG_GROUPS>
withdrawn

> <GENERIC_NAME>
Tolrestat

> <INTERNATIONAL_BRANDS>
Alredase

$$$$
3585
  Mrv0541 02231217022D          

 24 26  0  0  1  0            999 V2000
    1.6500   -0.0480    0.0000 O   0  0  0  0  0  0  0  0  0  0  0  0
    3.9995    1.6590    0.0000 O   0  0  0  0  0  0  0  0  0  0  0  0
    3.1021   -3.5780    0.0000 O   0  0  0  0  0  0  0  0  0  0  0  0
    3.1021   -0.2780    0.0000 N   0  0  0  0  0  0  0  0  0  0  0  0
    3.7695    0.2069    0.0000 N   0  0  0  0  0  0  0  0  0  0  0  0
    2.6896    0.9916    0.0000 C   0  0  0  0  0  0  0  0  0  0  0  0
    2.2047    1.6590    0.0000 C   0  0  0  0  0  0  0  0  0  0  0  0
    2.4347    0.2069    0.0000 C   0  0  0  0  0  0  0  0  0  0  0  0
    3.5146    0.9916    0.0000 C   0  0  0  0  0  0  0  0  0  0  0  0
    2.5402    2.4126    0.0000 C   0  0  0  0  0  0  0  0  0  0  0  0
    2.0553    3.0801    0.0000 C   0  0  0  0  0  0  0  0  0  0  0  0
    3.1021   -1.1030    0.0000 C   0  0  0  0  0  0  0  0  0  0  0  0
    4.5541   -0.0480    0.0000 C   0  0  0  0  0  0  0  0  0  0  0  0
    2.3909    3.8338    0.0000 C   0  0  0  0  0  0  0  0  0  0  0  0
    3.8166   -1.5155    0.0000 C   0  0  0  0  0  0  0  0  0  0  0  0
    2.3876   -1.5155    0.0000 C   0  0  0  0  0  0  0  0  0  0  0  0
    5.1672    0.5040    0.0000 C   0  0  0  0  0  0  0  0  0  0  0  0
    4.7257   -0.8550    0.0000 C   0  0  0  0  0  0  0  0  0  0  0  0
    3.8166   -2.3405    0.0000 C   0  0  0  0  0  0  0  0  0  0  0  0
    2.3876   -2.3405    0.0000 C   0  0  0  0  0  0  0  0  0  0  0  0
    5.9518    0.2491    0.0000 C   0  0  0  0  0  0  0  0  0  0  0  0
    5.5103   -1.1100    0.0000 C   0  0  0  0  0  0  0  0  0  0  0  0
    3.1021   -2.7530    0.0000 C   0  0  0  0  0  0  0  0  0  0  0  0
    6.1234   -0.5579    0.0000 C   0  0  0  0  0  0  0  0  0  0  0  0
  1  8  2  0  0  0  0
  2  9  2  0  0  0  0
  3 23  1  0  0  0  0
  4  5  1  0  0  0  0
  4  8  1  0  0  0  0
  4 12  1  0  0  0  0
  5  9  1  0  0  0  0
  5 13  1  0  0  0  0
  6  7  1  0  0  0  0
  6  8  1  0  0  0  0
  6  9  1  0  0  0  0
  7 10  1  0  0  0  0
 10 11  1  0  0  0  0
 11 14  1  0  0  0  0
 12 15  2  0  0  0  0
 12 16  1  0  0  0  0
 13 17  2  0  0  0  0
 13 18  1  0  0  0  0
 15 19  1  0  0  0  0
 16 20  2  0  0  0  0
 17 21  1  0  0  0  0
 18 22  2  0  0  0  0
 19 23  2  0  0  0  0
 20 23  1  0  0  0  0
 21 24  2  0  0  0  0
 22 24  1  0  0  0  0
M  END
> <DATABASE_ID>
DB03585

> <DATABASE_NAME>
drugbank

> <SMILES>
CCCCC1C(=O)N(N(C1=O)C1=CC=C(O)C=C1)C1=CC=CC=C1

> <INCHI_IDENTIFIER>
InChI=1S/C19H20N2O3/c1-2-3-9-17-18(23)20(14-7-5-4-6-8-14)21(19(17)24)15-10-12-16(22)13-11-15/h4-8,10-13,17,22H,2-3,9H2,1H3

> <INCHI_KEY>
HFHZKZSRXITVMK-UHFFFAOYSA-N

> <FORMULA>
C19H20N2O3

> <MOLECULAR_WEIGHT>
324.3737

> <EXACT_MASS>
324.147392516

> <JCHEM_ACCEPTOR_COUNT>
3

> <JCHEM_AVERAGE_POLARIZABILITY>
35.14453215698653

> <JCHEM_BIOAVAILABILITY>
1

> <JCHEM_DONOR_COUNT>
1

> <JCHEM_FORMAL_CHARGE>
0

> <JCHEM_GHOSE_FILTER>
1

> <JCHEM_IUPAC>
4-butyl-1-(4-hydroxyphenyl)-2-phenylpyrazolidine-3,5-dione

> <ALOGPS_LOGP>
2.79

> <JCHEM_LOGP>
3.8322324440000006

> <ALOGPS_LOGS>
-3.10

> <JCHEM_MDDR_LIKE_RULE>
0

> <JCHEM_NUMBER_OF_RINGS>
3

> <JCHEM_PHYSIOLOGICAL_CHARGE>
-1

> <JCHEM_PKA>
9.28657300059134

> <JCHEM_PKA_STRONGEST_ACIDIC>
4.8666588523311844

> <JCHEM_PKA_STRONGEST_BASIC>
-5.968036895068672

> <JCHEM_POLAR_SURFACE_AREA>
60.85000000000001

> <JCHEM_REFRACTIVITY>
90.73920000000003

> <JCHEM_ROTATABLE_BOND_COUNT>
5

> <JCHEM_RULE_OF_FIVE>
1

> <ALOGPS_SOLUBILITY>
2.56e-01 g/l

> <JCHEM_TRADITIONAL_IUPAC>
oxyphenbutazone

> <JCHEM_VEBER_RULE>
0

> <DRUGBANK_ID>
DB03585

> <SECONDARY_ACCESSION_NUMBERS>
EXPT02440

> <DRUG_GROUPS>
withdrawn

> <GENERIC_NAME>
Oxyphenbutazone

> <SYNONYMS>
Oxifenbutazona; Oxiphenbutazone; Oxyphenbutazonum

> <PRODUCTS>
Oxybutazone Tab 100mg; Oxyphenbutazone 100mg Tablets

> <INTERNATIONAL_BRANDS>
Oxyphenbutazone; Reozon

> <SALTS>
Oxyphenbutazone monohydrate

$$$$
3783
  Mrv0541 02231217112D          

 13 13  0  0  0  0            999 V2000
    2.3644   -1.6500    0.0000 O   0  0  0  0  0  0  0  0  0  0  0  0
    3.7934    1.6500    0.0000 O   0  0  0  0  0  0  0  0  0  0  0  0
    2.3644    1.6500    0.0000 N   0  0  0  0  0  0  0  0  0  0  0  0
    2.3644    0.8250    0.0000 C   0  0  0  0  0  0  0  0  0  0  0  0
    2.3644   -0.8250    0.0000 C   0  0  0  0  0  0  0  0  0  0  0  0
    3.0790    0.4125    0.0000 C   0  0  0  0  0  0  0  0  0  0  0  0
    1.6500    0.4125    0.0000 C   0  0  0  0  0  0  0  0  0  0  0  0
    3.0790   -0.4125    0.0000 C   0  0  0  0  0  0  0  0  0  0  0  0
    1.6500   -0.4125    0.0000 C   0  0  0  0  0  0  0  0  0  0  0  0
    1.6500   -2.0625    0.0000 C   0  0  0  0  0  0  0  0  0  0  0  0
    1.6500   -2.8875    0.0000 C   0  0  0  0  0  0  0  0  0  0  0  0
    3.0790    2.0625    0.0000 C   0  0  0  0  0  0  0  0  0  0  0  0
    3.0790    2.8875    0.0000 C   0  0  0  0  0  0  0  0  0  0  0  0
  1  5  1  0  0  0  0
  1 10  1  0  0  0  0
  2 12  2  0  0  0  0
  3  4  1  0  0  0  0
  3 12  1  0  0  0  0
  4  6  2  0  0  0  0
  4  7  1  0  0  0  0
  5  8  2  0  0  0  0
  5  9  1  0  0  0  0
  6  8  1  0  0  0  0
  7  9  2  0  0  0  0
 10 11  1  0  0  0  0
 12 13  1  0  0  0  0
M  END
> <DATABASE_ID>
DB03783

> <DATABASE_NAME>
drugbank

> <SMILES>
CCOC1=CC=C(NC(C)=O)C=C1

> <INCHI_IDENTIFIER>
InChI=1S/C10H13NO2/c1-3-13-10-6-4-9(5-7-10)11-8(2)12/h4-7H,3H2,1-2H3,(H,11,12)

> <INCHI_KEY>
CPJSUEIXXCENMM-UHFFFAOYSA-N

> <FORMULA>
C10H13NO2

> <MOLECULAR_WEIGHT>
179.2157

> <EXACT_MASS>
179.094628665

> <JCHEM_ACCEPTOR_COUNT>
2

> <JCHEM_AVERAGE_POLARIZABILITY>
19.820611792352402

> <JCHEM_BIOAVAILABILITY>
1

> <JCHEM_DONOR_COUNT>
1

> <JCHEM_FORMAL_CHARGE>
0

> <JCHEM_GHOSE_FILTER>
1

> <JCHEM_IUPAC>
N-(4-ethoxyphenyl)acetamide

> <ALOGPS_LOGP>
1.62

> <JCHEM_LOGP>
1.4100928723333332

> <ALOGPS_LOGS>
-2.00

> <JCHEM_MDDR_LIKE_RULE>
0

> <JCHEM_NUMBER_OF_RINGS>
1

> <JCHEM_PHYSIOLOGICAL_CHARGE>
0

> <JCHEM_PKA_STRONGEST_ACIDIC>
14.978986347794297

> <JCHEM_PKA_STRONGEST_BASIC>
-4.237178123843566

> <JCHEM_POLAR_SURFACE_AREA>
38.33

> <JCHEM_REFRACTIVITY>
52.1328

> <JCHEM_ROTATABLE_BOND_COUNT>
3

> <JCHEM_RULE_OF_FIVE>
1

> <ALOGPS_SOLUBILITY>
1.78e+00 g/l

> <JCHEM_TRADITIONAL_IUPAC>
phenacetin

> <JCHEM_VEBER_RULE>
1

> <DRUGBANK_ID>
DB03783

> <SECONDARY_ACCESSION_NUMBERS>
EXPT03306; DB08243

> <DRUG_GROUPS>
withdrawn

> <GENERIC_NAME>
Phenacetin

> <SYNONYMS>
Acetophenetidin; Acetophenetidine; Acetophenetin; Acetphenetidin

> <INTERNATIONAL_BRANDS>
Achrocidin; Codempiral; Commotional; Contradol; Contradouleur

$$$$
[NO NAME]
  Mrv0541 04301222212D          
Created with ChemWriter - http://chemwriter.com
 21 22  0  0  0  0            999 V2000
    0.0000    0.8250    0.0000 O   0  0  0  0  0  0  0  0  0  0  0  0
    0.7145    0.4125    0.0000 C   0  0  0  0  0  0  0  0  0  0  0  0
   -0.7145   -0.4125    0.0000 C   0  0  0  0  0  0  0  0  0  0  0  0
   -0.7145    0.4125    0.0000 C   0  0  0  0  0  0  0  0  0  0  0  0
    0.7145   -0.4125    0.0000 C   0  0  0  0  0  0  0  0  0  0  0  0
   -1.4289    0.8250    0.0000 C   0  0  0  0  0  0  0  0  0  0  0  0
   -2.1434    0.4125    0.0000 C   0  0  0  0  0  0  0  0  0  0  0  0
   -2.1434   -0.4125    0.0000 C   0  0  0  0  0  0  0  0  0  0  0  0
   -1.4289   -0.8250    0.0000 C   0  0  0  0  0  0  0  0  0  0  0  0
    2.1434   -0.4125    0.0000 C   0  0  0  0  0  0  0  0  0  0  0  0
    2.1434    0.4125    0.0000 C   0  0  0  0  0  0  0  0  0  0  0  0
    1.4290   -0.8250    0.0000 C   0  0  0  0  0  0  0  0  0  0  0  0
    2.1433   -2.0625    0.0000 O   0  5  0  0  0  0  0  0  0  0  0  0
    1.4290   -1.6500    0.0000 N   0  3  0  0  0  0  0  0  0  0  0  0
    0.7144   -2.0625    0.0000 O   0  0  0  0  0  0  0  0  0  0  0  0
    1.4290    0.8250    0.0000 C   0  0  0  0  0  0  0  0  0  0  0  0
    1.4290    1.6500    0.0000 N   0  0  0  0  0  0  0  0  0  0  0  0
    2.1434    2.0625    0.0000 S   0  0  0  0  0  0  0  0  0  0  0  0
    2.1434    1.2375    0.0000 O   0  0  0  0  0  0  0  0  0  0  0  0
    2.1434    2.8875    0.0000 O   0  0  0  0  0  0  0  0  0  0  0  0
    2.8579    1.6499    0.0000 C   0  0  0  0  0  0  0  0  0  0  0  0
  1  2  1  0  0  0  0
 16  2  2  0  0  0  0
  9  3  2  0  0  0  0
  3  4  1  0  0  0  0
  4  1  1  0  0  0  0
  6  4  2  0  0  0  0
  2  5  1  0  0  0  0
  5 12  2  0  0  0  0
  6  7  1  0  0  0  0
  7  8  2  0  0  0  0
  8  9  1  0  0  0  0
 12 10  1  0  0  0  0
 10 11  2  0  0  0  0
 16 11  1  0  0  0  0
 12 14  1  0  0  0  0
 14 13  1  0  0  0  0
 14 15  2  0  0  0  0
 16 17  1  0  0  0  0
 17 18  1  0  0  0  0
 18 20  2  0  0  0  0
 18 21  1  0  0  0  0
 18 19  2  0  0  0  0
M  CHG  2  13  -1  14   1
M  END
> <DATABASE_ID>
DB04743

> <DATABASE_NAME>
drugbank

> <SMILES>
CS(=O)(=O)NC1=C(OC2=CC=CC=C2)C=C(C=C1)[N+]([O-])=O

> <INCHI_IDENTIFIER>
InChI=1S/C13H12N2O5S/c1-21(18,19)14-12-8-7-10(15(16)17)9-13(12)20-11-5-3-2-4-6-11/h2-9,14H,1H3

> <INCHI_KEY>
HYWYRSMBCFDLJT-UHFFFAOYSA-N

> <FORMULA>
C13H12N2O5S

> <MOLECULAR_WEIGHT>
308.31

> <EXACT_MASS>
308.046692194

> <JCHEM_ACCEPTOR_COUNT>
4

> <JCHEM_AVERAGE_POLARIZABILITY>
28.872423548287472

> <JCHEM_BIOAVAILABILITY>
1

> <JCHEM_DONOR_COUNT>
1

> <JCHEM_FORMAL_CHARGE>
0

> <JCHEM_GHOSE_FILTER>
1

> <JCHEM_IUPAC>
N-(4-nitro-2-phenoxyphenyl)methanesulfonamide

> <ALOGPS_LOGP>
2.56

> <JCHEM_LOGP>
1.7866563706666665

> <ALOGPS_LOGS>
-4.23

> <JCHEM_MDDR_LIKE_RULE>
0

> <JCHEM_NUMBER_OF_RINGS>
2

> <JCHEM_PHYSIOLOGICAL_CHARGE>
-1

> <JCHEM_PKA_STRONGEST_ACIDIC>
6.855871203275389

> <JCHEM_PKA_STRONGEST_BASIC>
-8.913623712767949

> <JCHEM_POLAR_SURFACE_AREA>
101.22

> <JCHEM_REFRACTIVITY>
76.30669999999999

> <JCHEM_ROTATABLE_BOND_COUNT>
4

> <JCHEM_RULE_OF_FIVE>
1

> <ALOGPS_SOLUBILITY>
1.82e-02 g/l

> <JCHEM_TRADITIONAL_IUPAC>
nimesulide

> <JCHEM_VEBER_RULE>
0

> <DRUGBANK_ID>
DB04743

> <DRUG_GROUPS>
approved; withdrawn

> <GENERIC_NAME>
Nimesulide

$$$$
4812
  Mrv0541 02231217562D          

 21 23  0  0  1  0            999 V2000
   10.2277   -0.4125    0.0000 Cl  0  0  0  0  0  0  0  0  0  0  0  0
    6.4461   -1.0764    0.0000 O   0  0  0  0  0  0  0  0  0  0  0  0
    2.0930    0.4125    0.0000 O   0  0  0  0  0  0  0  0  0  0  0  0
    2.8075   -0.8250    0.0000 O   0  0  0  0  0  0  0  0  0  0  0  0
    6.4461    0.2514    0.0000 N   0  0  0  0  0  0  0  0  0  0  0  0
    3.5220    0.4125    0.0000 C   0  0  0  0  0  0  0  0  0  0  0  0
    4.2365    0.0000    0.0000 C   0  0  0  0  0  0  0  0  0  0  0  0
    5.6655    0.0000    0.0000 C   0  0  0  0  0  0  0  0  0  0  0  0
    4.9509    0.4125    0.0000 C   0  0  0  0  0  0  0  0  0  0  0  0
    5.6655   -0.8250    0.0000 C   0  0  0  0  0  0  0  0  0  0  0  0
    4.2365   -0.8250    0.0000 C   0  0  0  0  0  0  0  0  0  0  0  0
    4.9509   -1.2375    0.0000 C   0  0  0  0  0  0  0  0  0  0  0  0
    3.5220    1.2375    0.0000 C   0  0  0  0  0  0  0  0  0  0  0  0
    6.9276   -0.4125    0.0000 C   0  0  0  0  0  0  0  0  0  0  0  0
    7.7526   -0.4125    0.0000 C   0  0  0  0  0  0  0  0  0  0  0  0
    2.8075    0.0000    0.0000 C   0  0  0  0  0  0  0  0  0  0  0  0
    8.1651    0.3020    0.0000 C   0  0  0  0  0  0  0  0  0  0  0  0
    8.1651   -1.1270    0.0000 C   0  0  0  0  0  0  0  0  0  0  0  0
    8.9901    0.3020    0.0000 C   0  0  0  0  0  0  0  0  0  0  0  0
    8.9901   -1.1270    0.0000 C   0  0  0  0  0  0  0  0  0  0  0  0
    9.4026   -0.4125    0.0000 C   0  0  0  0  0  0  0  0  0  0  0  0
  1 21  1  0  0  0  0
  2 10  1  0  0  0  0
  2 14  1  0  0  0  0
  3 16  1  0  0  0  0
  4 16  2  0  0  0  0
  5  8  1  0  0  0  0
  5 14  2  0  0  0  0
  6  7  1  0  0  0  0
  6 13  1  0  0  0  0
  6 16  1  0  0  0  0
  7  9  2  0  0  0  0
  7 11  1  0  0  0  0
  8  9  1  0  0  0  0
  8 10  2  0  0  0  0
 10 12  1  0  0  0  0
 11 12  2  0  0  0  0
 14 15  1  0  0  0  0
 15 17  2  0  0  0  0
 15 18  1  0  0  0  0
 17 19  1  0  0  0  0
 18 20  2  0  0  0  0
 19 21  2  0  0  0  0
 20 21  1  0  0  0  0
M  END
> <DATABASE_ID>
DB04812

> <DATABASE_NAME>
drugbank

> <SMILES>
CC(C(O)=O)C1=CC2=C(OC(=N2)C2=CC=C(Cl)C=C2)C=C1

> <INCHI_IDENTIFIER>
InChI=1S/C16H12ClNO3/c1-9(16(19)20)11-4-7-14-13(8-11)18-15(21-14)10-2-5-12(17)6-3-10/h2-9H,1H3,(H,19,20)

> <INCHI_KEY>
MITFXPHMIHQXPI-UHFFFAOYSA-N

> <FORMULA>
C16H12ClNO3

> <MOLECULAR_WEIGHT>
301.724

> <EXACT_MASS>
301.050570962

> <JCHEM_ACCEPTOR_COUNT>
3

> <JCHEM_AVERAGE_POLARIZABILITY>
31.3376320166972

> <JCHEM_BIOAVAILABILITY>
1

> <JCHEM_DONOR_COUNT>
1

> <JCHEM_FORMAL_CHARGE>
0

> <JCHEM_GHOSE_FILTER>
1

> <JCHEM_IUPAC>
2-[2-(4-chlorophenyl)-1,3-benzoxazol-5-yl]propanoic acid

> <ALOGPS_LOGP>
4.22

> <JCHEM_LOGP>
4.1294149

> <ALOGPS_LOGS>
-3.98

> <JCHEM_MDDR_LIKE_RULE>
0

> <JCHEM_NUMBER_OF_RINGS>
3

> <JCHEM_PHYSIOLOGICAL_CHARGE>
-1

> <JCHEM_PKA_STRONGEST_ACIDIC>
4.65678429357589

> <JCHEM_PKA_STRONGEST_BASIC>
0.09072018781816582

> <JCHEM_POLAR_SURFACE_AREA>
63.330000000000005

> <JCHEM_REFRACTIVITY>
88.51160000000002

> <JCHEM_ROTATABLE_BOND_COUNT>
3

> <JCHEM_RULE_OF_FIVE>
1

> <ALOGPS_SOLUBILITY>
3.17e-02 g/l

> <JCHEM_TRADITIONAL_IUPAC>
benoxaprofen

> <JCHEM_VEBER_RULE>
0

> <DRUGBANK_ID>
DB04812

> <DRUG_GROUPS>
withdrawn

> <GENERIC_NAME>
Benoxaprofen

> <SYNONYMS>
Benoxaprofene; Benoxaprofeno; Benoxaprofenum

> <INTERNATIONAL_BRANDS>
Coxigon; Inflamid; Opren; Oraflex

$$$$
4813
  Mrv0541 02231217562D          

 19 20  0  0  0  0            999 V2000
    4.9509    2.4751    0.0000 Cl  0  0  0  0  0  0  0  0  0  0  0  0
    2.0930   -2.4751    0.0000 Cl  0  0  0  0  0  0  0  0  0  0  0  0
    6.3799    0.0000    0.0000 Cl  0  0  0  0  0  0  0  0  0  0  0  0
    4.9509   -2.4751    0.0000 Cl  0  0  0  0  0  0  0  0  0  0  0  0
    3.5220    0.0000    0.0000 S   0  0  0  0  0  0  0  0  0  0  0  0
    3.5220    1.6500    0.0000 O   0  0  0  0  0  0  0  0  0  0  0  0
    2.0930   -0.8250    0.0000 O   0  0  0  0  0  0  0  0  0  0  0  0
    4.2365    0.4125    0.0000 C   0  0  0  0  0  0  0  0  0  0  0  0
    3.5220   -0.8250    0.0000 C   0  0  0  0  0  0  0  0  0  0  0  0
    4.2365    1.2375    0.0000 C   0  0  0  0  0  0  0  0  0  0  0  0
    2.8075   -1.2375    0.0000 C   0  0  0  0  0  0  0  0  0  0  0  0
    4.9509    0.0000    0.0000 C   0  0  0  0  0  0  0  0  0  0  0  0
    4.2365   -1.2375    0.0000 C   0  0  0  0  0  0  0  0  0  0  0  0
    4.9509    1.6500    0.0000 C   0  0  0  0  0  0  0  0  0  0  0  0
    2.8075   -2.0625    0.0000 C   0  0  0  0  0  0  0  0  0  0  0  0
    5.6655    0.4125    0.0000 C   0  0  0  0  0  0  0  0  0  0  0  0
    4.2365   -2.0625    0.0000 C   0  0  0  0  0  0  0  0  0  0  0  0
    5.6655    1.2375    0.0000 C   0  0  0  0  0  0  0  0  0  0  0  0
    3.5220   -2.4751    0.0000 C   0  0  0  0  0  0  0  0  0  0  0  0
  1 14  1  0  0  0  0
  2 15  1  0  0  0  0
  3 16  1  0  0  0  0
  4 17  1  0  0  0  0
  5  8  1  0  0  0  0
  5  9  1  0  0  0  0
  6 10  1  0  0  0  0
  7 11  1  0  0  0  0
  8 10  2  0  0  0  0
  8 12  1  0  0  0  0
  9 11  2  0  0  0  0
  9 13  1  0  0  0  0
 10 14  1  0  0  0  0
 11 15  1  0  0  0  0
 12 16  2  0  0  0  0
 13 17  2  0  0  0  0
 14 18  2  0  0  0  0
 15 19  2  0  0  0  0
 16 18  1  0  0  0  0
 17 19  1  0  0  0  0
M  END
> <DATABASE_ID>
DB04813

> <DATABASE_NAME>
drugbank

> <SMILES>
OC1=C(SC2=C(O)C(Cl)=CC(Cl)=C2)C=C(Cl)C=C1Cl

> <INCHI_IDENTIFIER>
InChI=1S/C12H6Cl4O2S/c13-5-1-7(15)11(17)9(3-5)19-10-4-6(14)2-8(16)12(10)18/h1-4,17-18H

> <INCHI_KEY>
JFIOVJDNOJYLKP-UHFFFAOYSA-N

> <FORMULA>
C12H6Cl4O2S

> <MOLECULAR_WEIGHT>
356.052

> <EXACT_MASS>
353.884260954

> <JCHEM_ACCEPTOR_COUNT>
2

> <JCHEM_AVERAGE_POLARIZABILITY>
31.299442100015398

> <JCHEM_BIOAVAILABILITY>
1

> <JCHEM_DONOR_COUNT>
2

> <JCHEM_FORMAL_CHARGE>
0

> <JCHEM_GHOSE_FILTER>
0

> <JCHEM_IUPAC>
2,4-dichloro-6-[(3,5-dichloro-2-hydroxyphenyl)sulfanyl]phenol

> <ALOGPS_LOGP>
6.12

> <JCHEM_LOGP>
5.971043341666666

> <ALOGPS_LOGS>
-5.33

> <JCHEM_MDDR_LIKE_RULE>
0

> <JCHEM_NUMBER_OF_RINGS>
2

> <JCHEM_PHYSIOLOGICAL_CHARGE>
-1

> <JCHEM_PKA>
8.532974262311745

> <JCHEM_PKA_STRONGEST_ACIDIC>
4.886164253814898

> <JCHEM_PKA_STRONGEST_BASIC>
-7.2322309612046505

> <JCHEM_POLAR_SURFACE_AREA>
40.46

> <JCHEM_REFRACTIVITY>
81.92310000000002

> <JCHEM_ROTATABLE_BOND_COUNT>
2

> <JCHEM_RULE_OF_FIVE>
0

> <ALOGPS_SOLUBILITY>
1.66e-03 g/l

> <JCHEM_TRADITIONAL_IUPAC>
bitin

> <JCHEM_VEBER_RULE>
0

> <DRUGBANK_ID>
DB04813

> <DRUG_GROUPS>
withdrawn

> <GENERIC_NAME>
Bithionol

> <SYNONYMS>
2-Hydroxy-3,5-dichlorophenyl sulfide; 2,2'-Dihydroxy-3,3',5,5'-tetrachlorodiphenyl sulfide; 2,2'-sulfanediylbis(4,6-dichlorophenol); 2,2'-Thiobis(4,6-dichlorophenol); Bis(3,5-dichloro-2-hydroxyphenyl) sulfide; Bithionol sulfide; Bithionolum; Bitionol

$$$$
4814
  Mrv0541 02231217562D          

 22 22  0  0  0  0            999 V2000
    3.0791    0.5693    0.0000 I   0  0  0  0  0  0  0  0  0  0  0  0
    4.5080   -1.9058    0.0000 I   0  0  0  0  0  0  0  0  0  0  0  0
    5.9370    0.5693    0.0000 I   0  0  0  0  0  0  0  0  0  0  0  0
    3.7935   -2.3183    0.0000 O   0  0  0  0  0  0  0  0  0  0  0  0
    5.9370    3.0443    0.0000 O   0  0  0  0  0  0  0  0  0  0  0  0
    4.5080    3.0443    0.0000 O   0  0  0  0  0  0  0  0  0  0  0  0
    3.0791   -1.0808    0.0000 N   0  0  0  0  0  0  0  0  0  0  0  0
    2.3645   -2.3183    0.0000 C   0  0  0  0  0  0  0  0  0  0  0  0
    3.7935   -0.6683    0.0000 C   0  0  0  0  0  0  0  0  0  0  0  0
    4.5080    0.5693    0.0000 C   0  0  0  0  0  0  0  0  0  0  0  0
    2.3645   -3.1433    0.0000 C   0  0  0  0  0  0  0  0  0  0  0  0
    3.7935    0.1568    0.0000 C   0  0  0  0  0  0  0  0  0  0  0  0
    3.0791   -1.9058    0.0000 C   0  0  0  0  0  0  0  0  0  0  0  0
    4.5080    1.3943    0.0000 C   0  0  0  0  0  0  0  0  0  0  0  0
    5.2224    1.8068    0.0000 C   0  0  0  0  0  0  0  0  0  0  0  0
    4.5080   -1.0808    0.0000 C   0  0  0  0  0  0  0  0  0  0  0  0
    5.2224    0.1568    0.0000 C   0  0  0  0  0  0  0  0  0  0  0  0
    5.9370    1.3943    0.0000 C   0  0  0  0  0  0  0  0  0  0  0  0
    5.2224   -0.6683    0.0000 C   0  0  0  0  0  0  0  0  0  0  0  0
    1.6500   -3.5558    0.0000 C   0  0  0  0  0  0  0  0  0  0  0  0
    6.6515    1.8068    0.0000 C   0  0  0  0  0  0  0  0  0  0  0  0
    5.2224    2.6318    0.0000 C   0  0  0  0  0  0  0  0  0  0  0  0
  1 12  1  0  0  0  0
  2 16  1  0  0  0  0
  3 17  1  0  0  0  0
  4 13  2  0  0  0  0
  5 22  1  0  0  0  0
  6 22  2  0  0  0  0
  7  9  1  0  0  0  0
  7 13  1  0  0  0  0
  8 11  1  0  0  0  0
  8 13  1  0  0  0  0
  9 12  1  0  0  0  0
  9 16  2  0  0  0  0
 10 12  2  0  0  0  0
 10 14  1  0  0  0  0
 10 17  1  0  0  0  0
 11 20  1  0  0  0  0
 14 15  2  0  0  0  0
 15 18  1  0  0  0  0
 15 22  1  0  0  0  0
 16 19  1  0  0  0  0
 17 19  2  0  0  0  0
 18 21  1  0  0  0  0
M  END
> <DATABASE_ID>
DB04814

> <DATABASE_NAME>
drugbank

> <SMILES>
CCCC(=O)NC1=C(I)C=C(I)C(\C=C(/CC)C(O)=O)=C1I

> <INCHI_IDENTIFIER>
InChI=1S/C15H16I3NO3/c1-3-5-12(20)19-14-11(17)7-10(16)9(13(14)18)6-8(4-2)15(21)22/h6-7H,3-5H2,1-2H3,(H,19,20)(H,21,22)/b8-6+

> <INCHI_KEY>
CWRBDUIQDIHWJZ-SOFGYWHQSA-N

> <FORMULA>
C15H16I3NO3

> <MOLECULAR_WEIGHT>
639.0059

> <EXACT_MASS>
638.826423643

> <JCHEM_ACCEPTOR_COUNT>
3

> <JCHEM_AVERAGE_POLARIZABILITY>
43.50046460197656

> <JCHEM_BIOAVAILABILITY>
0

> <JCHEM_DONOR_COUNT>
2

> <JCHEM_FORMAL_CHARGE>
0

> <JCHEM_GHOSE_FILTER>
0

> <JCHEM_IUPAC>
(2E)-2-[(3-butanamido-2,4,6-triiodophenyl)methylidene]butanoic acid

> <ALOGPS_LOGP>
4.10

> <JCHEM_LOGP>
6.145853728666666

> <ALOGPS_LOGS>
-5.44

> <JCHEM_MDDR_LIKE_RULE>
0

> <JCHEM_NUMBER_OF_RINGS>
1

> <JCHEM_PHYSIOLOGICAL_CHARGE>
-1

> <JCHEM_PKA>
12.12443869467981

> <JCHEM_PKA_STRONGEST_ACIDIC>
2.3722717631281243

> <JCHEM_PKA_STRONGEST_BASIC>
-3.949222833008012

> <JCHEM_POLAR_SURFACE_AREA>
66.39999999999999

> <JCHEM_REFRACTIVITY>
116.19639999999998

> <JCHEM_ROTATABLE_BOND_COUNT>
6

> <JCHEM_RULE_OF_FIVE>
0

> <ALOGPS_SOLUBILITY>
2.30e-03 g/l

> <JCHEM_TRADITIONAL_IUPAC>
bunamiodyl

> <JCHEM_VEBER_RULE>
0

> <DRUGBANK_ID>
DB04814

> <DRUG_GROUPS>
withdrawn

> <GENERIC_NAME>
Bunamiodyl

> <SYNONYMS>
2-(3-Butyramido-3,4,6-triiodophenylmethylene)butyric acid; Bunamiodilo; Bunamiodylum

$$$$
4815
  Mrv0541 02231217562D          

 13 14  0  0  0  0            999 V2000
    1.6498   -0.6970    0.0000 I   0  0  0  0  0  0  0  0  0  0  0  0
    3.0786    1.7777    0.0000 Cl  0  0  0  0  0  0  0  0  0  0  0  0
    3.0786   -1.5219    0.0000 O   0  0  0  0  0  0  0  0  0  0  0  0
    4.5303   -0.7257    0.0000 N   0  0  0  0  0  0  0  0  0  0  0  0
    3.7929    0.5403    0.0000 C   0  0  0  0  0  0  0  0  0  0  0  0
    3.7929   -0.2846    0.0000 C   0  0  0  0  0  0  0  0  0  0  0  0
    3.0786   -0.6970    0.0000 C   0  0  0  0  0  0  0  0  0  0  0  0
    3.0786    0.9528    0.0000 C   0  0  0  0  0  0  0  0  0  0  0  0
    4.5303    0.9814    0.0000 C   0  0  0  0  0  0  0  0  0  0  0  0
    2.3641   -0.2846    0.0000 C   0  0  0  0  0  0  0  0  0  0  0  0
    2.3641    0.5403    0.0000 C   0  0  0  0  0  0  0  0  0  0  0  0
    5.2777    0.5574    0.0000 C   0  0  0  0  0  0  0  0  0  0  0  0
    5.2777   -0.3018    0.0000 C   0  0  0  0  0  0  0  0  0  0  0  0
  1 10  1  0  0  0  0
  2  8  1  0  0  0  0
  3  7  1  0  0  0  0
  4  6  1  0  0  0  0
  4 13  2  0  0  0  0
  5  6  2  0  0  0  0
  5  8  1  0  0  0  0
  5  9  1  0  0  0  0
  6  7  1  0  0  0  0
  7 10  2  0  0  0  0
  8 11  2  0  0  0  0
  9 12  2  0  0  0  0
 10 11  1  0  0  0  0
 12 13  1  0  0  0  0
M  END
> <DATABASE_ID>
DB04815

> <DATABASE_NAME>
drugbank

> <SMILES>
OC1=C(I)C=C(Cl)C2=C1N=CC=C2

> <INCHI_IDENTIFIER>
InChI=1S/C9H5ClINO/c10-6-4-7(11)9(13)8-5(6)2-1-3-12-8/h1-4,13H

> <INCHI_KEY>
QCDFBFJGMNKBDO-UHFFFAOYSA-N

> <FORMULA>
C9H5ClINO

> <MOLECULAR_WEIGHT>
305.5

> <EXACT_MASS>
304.910434914

> <JCHEM_ACCEPTOR_COUNT>
2

> <JCHEM_AVERAGE_POLARIZABILITY>
22.626794432959755

> <JCHEM_BIOAVAILABILITY>
1

> <JCHEM_DONOR_COUNT>
1

> <JCHEM_FORMAL_CHARGE>
0

> <JCHEM_GHOSE_FILTER>
0

> <JCHEM_IUPAC>
5-chloro-7-iodoquinolin-8-ol

> <ALOGPS_LOGP>
3.66

> <JCHEM_LOGP>
3.360324304333333

> <ALOGPS_LOGS>
-3.06

> <JCHEM_MDDR_LIKE_RULE>
0

> <JCHEM_NUMBER_OF_RINGS>
2

> <JCHEM_PHYSIOLOGICAL_CHARGE>
0

> <JCHEM_PKA_STRONGEST_ACIDIC>
7.337799516151212

> <JCHEM_PKA_STRONGEST_BASIC>
3.2821550903484003

> <JCHEM_POLAR_SURFACE_AREA>
33.120000000000005

> <JCHEM_REFRACTIVITY>
60.127500000000005

> <JCHEM_ROTATABLE_BOND_COUNT>
0

> <JCHEM_RULE_OF_FIVE>
1

> <ALOGPS_SOLUBILITY>
2.64e-01 g/l

> <JCHEM_TRADITIONAL_IUPAC>
clioquinol

> <JCHEM_VEBER_RULE>
1

> <DRUGBANK_ID>
DB04815

> <DRUG_GROUPS>
vet_approved; withdrawn

> <GENERIC_NAME>
Clioquinol

> <SYNONYMS>
5-Chlor-7-jod-8-hydroxy-chinolin; 5-Chloro-7-iodo-8-hydroxyquinoline; 5-Chloro-7-iodo-8-quinolinol; 5-chloro-7-iodoquinolin-8-ol; 5-Chloro-8-hydroxy-7-iodoquinoline; 7-Iodo-5-chloro-8-hydroxyquinoline; 7-Iodo-5-chloroxine; Chloroiodoquin; Clioquinolum; Iodochlorhydroxyquin; Iodochlorhydroxyquinoline; Iodochlorohydroxyquin; Iodochloroxyquinoline

> <PRODUCTS>
Ala Quin; Aristoform R Crm 0.1%; Dermoscribe Ichybum; Locacorten Vioform; Locacorten Vioform Eardrops; Neo Vagex; PMS-flumethasone-clioquinol; Phen-oris - Ont Top; Phenoris Ont; Vioform + Hydrocortisone; Vioform 3%; Vioform Hydrocortisone; Vioform Hydrocortisone Mild

$$$$
4816
  Mrv0541 02231217562D          

 18 20  0  0  0  0            999 V2000
    3.6957    1.4452    0.0000 O   0  0  0  0  0  0  0  0  0  0  0  0
    3.6957   -1.7230    0.0000 O   0  0  0  0  0  0  0  0  0  0  0  0
    5.0805    1.4726    0.0000 O   0  0  0  0  0  0  0  0  0  0  0  0
    2.3109    1.4726    0.0000 O   0  0  0  0  0  0  0  0  0  0  0  0
    4.3817    0.2571    0.0000 C   0  0  0  0  0  0  0  0  0  0  0  0
    3.0098    0.2571    0.0000 C   0  0  0  0  0  0  0  0  0  0  0  0
    4.3817   -0.5350    0.0000 C   0  0  0  0  0  0  0  0  0  0  0  0
    3.0098   -0.5350    0.0000 C   0  0  0  0  0  0  0  0  0  0  0  0
    3.6957    0.6531    0.0000 C   0  0  0  0  0  0  0  0  0  0  0  0
    3.6957   -0.9310    0.0000 C   0  0  0  0  0  0  0  0  0  0  0  0
    5.0897    0.6806    0.0000 C   0  0  0  0  0  0  0  0  0  0  0  0
    2.3018    0.6806    0.0000 C   0  0  0  0  0  0  0  0  0  0  0  0
    5.0897   -0.9585    0.0000 C   0  0  0  0  0  0  0  0  0  0  0  0
    2.3018   -0.9585    0.0000 C   0  0  0  0  0  0  0  0  0  0  0  0
    5.8074    0.2736    0.0000 C   0  0  0  0  0  0  0  0  0  0  0  0
    1.5841    0.2736    0.0000 C   0  0  0  0  0  0  0  0  0  0  0  0
    5.8074   -0.5514    0.0000 C   0  0  0  0  0  0  0  0  0  0  0  0
    1.5841   -0.5514    0.0000 C   0  0  0  0  0  0  0  0  0  0  0  0
  1  9  2  0  0  0  0
  2 10  2  0  0  0  0
  3 11  1  0  0  0  0
  4 12  1  0  0  0  0
  5  7  2  0  0  0  0
  5  9  1  0  0  0  0
  5 11  1  0  0  0  0
  6  8  2  0  0  0  0
  6  9  1  0  0  0  0
  6 12  1  0  0  0  0
  7 10  1  0  0  0  0
  7 13  1  0  0  0  0
  8 10  1  0  0  0  0
  8 14  1  0  0  0  0
 11 15  2  0  0  0  0
 12 16  2  0  0  0  0
 13 17  2  0  0  0  0
 14 18  2  0  0  0  0
 15 17  1  0  0  0  0
 16 18  1  0  0  0  0
M  END
> <DATABASE_ID>
DB04816

> <DATABASE_NAME>
drugbank

> <SMILES>
OC1=CC=CC2=C1C(=O)C1=C(C=CC=C1O)C2=O

> <INCHI_IDENTIFIER>
InChI=1S/C14H8O4/c15-9-5-1-3-7-11(9)14(18)12-8(13(7)17)4-2-6-10(12)16/h1-6,15-16H

> <INCHI_KEY>
QBPFLULOKWLNNW-UHFFFAOYSA-N

> <FORMULA>
C14H8O4

> <MOLECULAR_WEIGHT>
240.2109

> <EXACT_MASS>
240.042258744

> <JCHEM_ACCEPTOR_COUNT>
4

> <JCHEM_AVERAGE_POLARIZABILITY>
23.192673494429876

> <JCHEM_BIOAVAILABILITY>
1

> <JCHEM_DONOR_COUNT>
2

> <JCHEM_FORMAL_CHARGE>
0

> <JCHEM_GHOSE_FILTER>
1

> <JCHEM_IUPAC>
1,8-dihydroxy-9,10-dihydroanthracene-9,10-dione

> <ALOGPS_LOGP>
2.98

> <JCHEM_LOGP>
3.6115754313333324

> <ALOGPS_LOGS>
-2.90

> <JCHEM_MDDR_LIKE_RULE>
0

> <JCHEM_NUMBER_OF_RINGS>
3

> <JCHEM_PHYSIOLOGICAL_CHARGE>
0

> <JCHEM_PKA>
9.738104134126353

> <JCHEM_PKA_STRONGEST_ACIDIC>
9.090131898008284

> <JCHEM_PKA_STRONGEST_BASIC>
-4.4468010869425205

> <JCHEM_POLAR_SURFACE_AREA>
74.60000000000001

> <JCHEM_REFRACTIVITY>
65.11280000000002

> <JCHEM_ROTATABLE_BOND_COUNT>
0

> <JCHEM_RULE_OF_FIVE>
1

> <ALOGPS_SOLUBILITY>
3.05e-01 g/l

> <JCHEM_TRADITIONAL_IUPAC>
altan

> <JCHEM_VEBER_RULE>
0

> <DRUGBANK_ID>
DB04816

> <DRUG_GROUPS>
investigational; withdrawn

> <GENERIC_NAME>
Danthron

> <SYNONYMS>
1,8-dihydroxy-9,10-anthracenedione; 1,8-dihydroxy-9,10-anthraquinone; 1,8-dihydroxyanthra-9,10-quinone; 1,8-Dihydroxyanthrachinon; 1,8-Dihydroxyanthraquinone; Chrysazin; Dantron

> <PRODUCTS>
Doss Tab; Regulex D Cap

$$$$
4817
  Mrv0541 02231217562D          

 22 22  0  0  1  0            999 V2000
    5.0479    6.3447    0.0000 S   0  0  0  0  0  0  0  0  0  0  0  0
    5.1972    7.7658    0.0000 Na  0  3  0  0  0  0  0  0  0  0  0  0
    5.4532    3.2166    0.0000 O   0  0  0  0  0  0  0  0  0  0  0  0
    5.5328    7.0121    0.0000 O   0  5  0  0  0  0  0  0  0  0  0  0
    5.7154    5.8597    0.0000 O   0  0  0  0  0  0  0  0  0  0  0  0
    4.3804    6.8296    0.0000 O   0  0  0  0  0  0  0  0  0  0  0  0
    3.3336    3.4715    0.0000 N   0  0  0  0  0  0  0  0  0  0  0  0
    4.0011    2.9865    0.0000 N   0  0  0  0  0  0  0  0  0  0  0  0
    4.8985    4.9236    0.0000 N   0  0  0  0  0  0  0  0  0  0  0  0
    4.4136    4.2561    0.0000 C   0  0  0  0  0  0  0  0  0  0  0  0
    3.5886    4.2561    0.0000 C   0  0  0  0  0  0  0  0  0  0  0  0
    4.6685    3.4715    0.0000 C   0  0  0  0  0  0  0  0  0  0  0  0
    4.5630    5.6772    0.0000 C   0  0  0  0  0  0  0  0  0  0  0  0
    4.0011    2.1615    0.0000 C   0  0  0  0  0  0  0  0  0  0  0  0
    3.1036    4.9236    0.0000 C   0  0  0  0  0  0  0  0  0  0  0  0
    2.5490    3.2166    0.0000 C   0  0  0  0  0  0  0  0  0  0  0  0
    5.7190    4.8373    0.0000 C   0  0  0  0  0  0  0  0  0  0  0  0
    4.7156    1.7490    0.0000 C   0  0  0  0  0  0  0  0  0  0  0  0
    3.2866    1.7490    0.0000 C   0  0  0  0  0  0  0  0  0  0  0  0
    4.7156    0.9240    0.0000 C   0  0  0  0  0  0  0  0  0  0  0  0
    3.2866    0.9240    0.0000 C   0  0  0  0  0  0  0  0  0  0  0  0
    4.0011    0.5115    0.0000 C   0  0  0  0  0  0  0  0  0  0  0  0
  1  4  1  0  0  0  0
  1  5  2  0  0  0  0
  1  6  2  0  0  0  0
  1 13  1  0  0  0  0
  3 12  2  0  0  0  0
  7  8  1  0  0  0  0
  7 11  1  0  0  0  0
  7 16  1  0  0  0  0
  8 12  1  0  0  0  0
  8 14  1  0  0  0  0
  9 10  1  0  0  0  0
  9 13  1  0  0  0  0
  9 17  1  0  0  0  0
 10 11  2  0  0  0  0
 10 12  1  0  0  0  0
 11 15  1  0  0  0  0
 14 18  2  0  0  0  0
 14 19  1  0  0  0  0
 18 20  1  0  0  0  0
 19 21  2  0  0  0  0
 20 22  2  0  0  0  0
 21 22  1  0  0  0  0
M  CHG  2   2   1   4  -1
M  END
> <DATABASE_ID>
DB04817

> <DATABASE_NAME>
drugbank

> <SMILES>
[Na+].CN(CS([O-])(=O)=O)C1=C(C)N(C)N(C1=O)C1=CC=CC=C1

> <INCHI_IDENTIFIER>
InChI=1S/C13H17N3O4S.Na/c1-10-12(14(2)9-21(18,19)20)13(17)16(15(10)3)11-7-5-4-6-8-11;/h4-8H,9H2,1-3H3,(H,18,19,20);/q;+1/p-1

> <INCHI_KEY>
DJGAAPFSPWAYTJ-UHFFFAOYSA-M

> <FORMULA>
C13H16N3NaO4S

> <MOLECULAR_WEIGHT>
333.339

> <EXACT_MASS>
333.07592138

> <JCHEM_ACCEPTOR_COUNT>
6

> <JCHEM_AVERAGE_POLARIZABILITY>
31.11000736370128

> <JCHEM_BIOAVAILABILITY>
1

> <JCHEM_DONOR_COUNT>
0

> <JCHEM_FORMAL_CHARGE>
0

> <JCHEM_GHOSE_FILTER>
0

> <JCHEM_IUPAC>
sodium [(1,5-dimethyl-3-oxo-2-phenyl-2,3-dihydro-1H-pyrazol-4-yl)(methyl)amino]methanesulfonate

> <ALOGPS_LOGP>
1.07

> <JCHEM_LOGP>
-0.8157938787712267

> <ALOGPS_LOGS>
-1.76

> <JCHEM_MDDR_LIKE_RULE>
0

> <JCHEM_NUMBER_OF_RINGS>
2

> <JCHEM_PHYSIOLOGICAL_CHARGE>
-1

> <JCHEM_PKA>
19.312089573407697

> <JCHEM_PKA_STRONGEST_ACIDIC>
-1.230234761386888

> <JCHEM_PKA_STRONGEST_BASIC>
-0.44283183922643354

> <JCHEM_POLAR_SURFACE_AREA>
83.98999999999998

> <JCHEM_REFRACTIVITY>
78.91950000000001

> <JCHEM_ROTATABLE_BOND_COUNT>
4

> <JCHEM_RULE_OF_FIVE>
1

> <ALOGPS_SOLUBILITY>
5.80e+00 g/l

> <JCHEM_TRADITIONAL_IUPAC>
sodium metamizole(1-)

> <JCHEM_VEBER_RULE>
0

> <DRUGBANK_ID>
DB04817

> <DRUG_GROUPS>
withdrawn

> <GENERIC_NAME>
Metamizole

> <INTERNATIONAL_BRANDS>
Algocalmin; Algozone; Analgin; Dimethone; Dipirona; Neo-Melubrina; Novalgin; Optalgin; Protemp; Pyralgin

> <SALTS>
Metamizole magnesium; Metamizole sodium; Metamizole sodium monohydrate

$$$$
4818
  Mrv0541 02231217562D          

 13 13  0  0  0  0            999 V2000
    1.6500    0.4125    0.0000 O   0  0  0  0  0  0  0  0  0  0  0  0
    3.0791    1.2375    0.0000 N   0  0  0  0  0  0  0  0  0  0  0  0
    3.0791    0.4125    0.0000 N   0  0  0  0  0  0  0  0  0  0  0  0
    2.3645   -2.4751    0.0000 N   0  0  0  0  0  0  0  0  0  0  0  0
    3.7935    1.6500    0.0000 C   0  0  0  0  0  0  0  0  0  0  0  0
    3.7935    2.4751    0.0000 C   0  0  0  0  0  0  0  0  0  0  0  0
    4.5080    1.2375    0.0000 C   0  0  0  0  0  0  0  0  0  0  0  0
    2.3645    0.0000    0.0000 C   0  0  0  0  0  0  0  0  0  0  0  0
    2.3645   -0.8250    0.0000 C   0  0  0  0  0  0  0  0  0  0  0  0
    3.0791   -1.2375    0.0000 C   0  0  0  0  0  0  0  0  0  0  0  0
    1.6500   -1.2375    0.0000 C   0  0  0  0  0  0  0  0  0  0  0  0
    3.0791   -2.0625    0.0000 C   0  0  0  0  0  0  0  0  0  0  0  0
    1.6500   -2.0625    0.0000 C   0  0  0  0  0  0  0  0  0  0  0  0
  1  8  2  0  0  0  0
  2  3  1  0  0  0  0
  2  5  1  0  0  0  0
  3  8  1  0  0  0  0
  4 12  2  0  0  0  0
  4 13  1  0  0  0  0
  5  6  1  0  0  0  0
  5  7  1  0  0  0  0
  8  9  1  0  0  0  0
  9 10  2  0  0  0  0
  9 11  1  0  0  0  0
 10 12  1  0  0  0  0
 11 13  2  0  0  0  0
M  END
> <DATABASE_ID>
DB04818

> <DATABASE_NAME>
drugbank

> <SMILES>
CC(C)NNC(=O)C1=CC=NC=C1

> <INCHI_IDENTIFIER>
InChI=1S/C9H13N3O/c1-7(2)11-12-9(13)8-3-5-10-6-4-8/h3-7,11H,1-2H3,(H,12,13)

> <INCHI_KEY>
NYMGNSNKLVNMIA-UHFFFAOYSA-N

> <FORMULA>
C9H13N3O

> <MOLECULAR_WEIGHT>
179.219

> <EXACT_MASS>
179.105862053

> <JCHEM_ACCEPTOR_COUNT>
3

> <JCHEM_AVERAGE_POLARIZABILITY>
19.186799988183097

> <JCHEM_BIOAVAILABILITY>
1

> <JCHEM_DONOR_COUNT>
2

> <JCHEM_FORMAL_CHARGE>
0

> <JCHEM_GHOSE_FILTER>
1

> <JCHEM_IUPAC>
N'-(propan-2-yl)pyridine-4-carbohydrazide

> <ALOGPS_LOGP>
0.02

> <JCHEM_LOGP>
0.3067970353333334

> <ALOGPS_LOGS>
-2.43

> <JCHEM_MDDR_LIKE_RULE>
0

> <JCHEM_NUMBER_OF_RINGS>
1

> <JCHEM_PHYSIOLOGICAL_CHARGE>
0

> <JCHEM_PKA_STRONGEST_ACIDIC>
13.657229678949268

> <JCHEM_PKA_STRONGEST_BASIC>
3.824075283385674

> <JCHEM_POLAR_SURFACE_AREA>
54.02

> <JCHEM_REFRACTIVITY>
60.958500000000015

> <JCHEM_ROTATABLE_BOND_COUNT>
3

> <JCHEM_RULE_OF_FIVE>
1

> <ALOGPS_SOLUBILITY>
6.74e-01 g/l

> <JCHEM_TRADITIONAL_IUPAC>
iproniazid

> <JCHEM_VEBER_RULE>
0

> <DRUGBANK_ID>
DB04818

> <DRUG_GROUPS>
withdrawn

> <GENERIC_NAME>
Iproniazid

> <INTERNATIONAL_BRANDS>
Ipronid; Marsilid; Rivivol

$$$$
4819
  Mrv0541 02231217562D          

 19 19  0  0  1  0            999 V2000
    2.5024    6.7296    0.0000 Cl  0  0  0  0  0  0  0  0  0  0  0  0
    1.7282    2.0975    0.0000 S   0  0  0  0  0  0  0  0  0  0  0  0
    3.2434    2.9180    0.0000 N   0  0  0  0  0  0  0  0  0  0  0  0
    3.9579    0.8555    0.0000 N   0  0  0  0  0  0  0  0  0  0  0  0
    4.6724    2.9180    0.0000 N   0  0  0  0  0  0  0  0  0  0  0  0
    3.2434    2.0930    0.0000 C   0  0  0  0  0  0  0  0  0  0  0  0
    3.9579    1.6805    0.0000 C   0  0  0  0  0  0  0  0  0  0  0  0
    2.5289    3.3305    0.0000 C   0  0  0  0  0  0  0  0  0  0  0  0
    3.9579    3.3305    0.0000 C   0  0  0  0  0  0  0  0  0  0  0  0
    1.8145    2.9180    0.0000 C   0  0  0  0  0  0  0  0  0  0  0  0
    3.2434    0.4430    0.0000 C   0  0  0  0  0  0  0  0  0  0  0  0
    4.6724    0.4430    0.0000 C   0  0  0  0  0  0  0  0  0  0  0  0
    3.9579    4.1555    0.0000 C   0  0  0  0  0  0  0  0  0  0  0  0
    1.0607    3.2536    0.0000 C   0  0  0  0  0  0  0  0  0  0  0  0
    0.5087    2.6405    0.0000 C   0  0  0  0  0  0  0  0  0  0  0  0
    4.6724    4.5680    0.0000 C   0  0  0  0  0  0  0  0  0  0  0  0
    0.9212    1.9260    0.0000 C   0  0  0  0  0  0  0  0  0  0  0  0
    5.3869    3.3305    0.0000 C   0  0  0  0  0  0  0  0  0  0  0  0
    5.3869    4.1555    0.0000 C   0  0  0  0  0  0  0  0  0  0  0  0
  2 10  1  0  0  0  0
  2 17  1  0  0  0  0
  3  6  1  0  0  0  0
  3  8  1  0  0  0  0
  3  9  1  0  0  0  0
  4  7  1  0  0  0  0
  4 11  1  0  0  0  0
  4 12  1  0  0  0  0
  5  9  1  0  0  0  0
  5 18  2  0  0  0  0
  6  7  1  0  0  0  0
  8 10  1  0  0  0  0
  9 13  2  0  0  0  0
 10 14  2  0  0  0  0
 13 16  1  0  0  0  0
 14 15  1  0  0  0  0
 15 17  2  0  0  0  0
 16 19  2  0  0  0  0
 18 19  1  0  0  0  0
M  END
> <DATABASE_ID>
DB04819

> <DATABASE_NAME>
drugbank

> <SMILES>
Cl.CN(C)CCN(CC1=CC=CS1)C1=CC=CC=N1

> <INCHI_IDENTIFIER>
InChI=1S/C14H19N3S.ClH/c1-16(2)9-10-17(12-13-6-5-11-18-13)14-7-3-4-8-15-14;/h3-8,11H,9-10,12H2,1-2H3;1H

> <INCHI_KEY>
BONORRGKLJBGRV-UHFFFAOYSA-N

> <FORMULA>
C14H20ClN3S

> <MOLECULAR_WEIGHT>
297.847

> <EXACT_MASS>
297.106646052

> <JCHEM_ACCEPTOR_COUNT>
3

> <JCHEM_AVERAGE_POLARIZABILITY>
29.49548780761279

> <JCHEM_BIOAVAILABILITY>
1

> <JCHEM_DONOR_COUNT>
0

> <JCHEM_FORMAL_CHARGE>
0

> <JCHEM_GHOSE_FILTER>
1

> <JCHEM_IUPAC>
N-[2-(dimethylamino)ethyl]-N-(thiophen-2-ylmethyl)pyridin-2-amine hydrochloride

> <JCHEM_LOGP>
3.114073790333332

> <JCHEM_MDDR_LIKE_RULE>
0

> <JCHEM_NUMBER_OF_RINGS>
2

> <JCHEM_PHYSIOLOGICAL_CHARGE>
1

> <JCHEM_PKA_STRONGEST_BASIC>
8.763872009855984

> <JCHEM_POLAR_SURFACE_AREA>
19.37

> <JCHEM_REFRACTIVITY>
78.16480000000001

> <JCHEM_ROTATABLE_BOND_COUNT>
6

> <JCHEM_RULE_OF_FIVE>
1

> <JCHEM_TRADITIONAL_IUPAC>
rest-on hydrochloride

> <JCHEM_VEBER_RULE>
1

> <DRUGBANK_ID>
DB04819

> <DRUG_GROUPS>
withdrawn

> <GENERIC_NAME>
Methapyrilene

> <SYNONYMS>
2-[[2-(Dimethylamino)ethyl]-2-thenylamino]pyridine; Methypyrilene; N,N-Dimethyl-N'-pyrid-2-yl-N'-2-thenylethylenediamine; Thenylpyramine

> <INTERNATIONAL_BRANDS>
Co-Pyronil; Histadyl; Lullamin

> <SALTS>
Methapyrilene Hydrochloride

$$$$
4820
  Mrv0541 02231217562D          

 22 23  0  0  0  0            999 V2000
    5.2223    0.4125    0.0000 O   0  0  0  0  0  0  0  0  0  0  0  0
    1.6500   -1.6500    0.0000 O   0  0  0  0  0  0  0  0  0  0  0  0
    4.5079    1.6500    0.0000 N   0  0  0  0  0  0  0  0  0  0  0  0
    3.0790   -0.8250    0.0000 N   0  0  0  0  0  0  0  0  0  0  0  0
    3.0790   -1.6500    0.0000 N   0  0  0  0  0  0  0  0  0  0  0  0
    2.3644   -4.5375    0.0000 N   0  0  0  0  0  0  0  0  0  0  0  0
    3.7934    0.4125    0.0000 C   0  0  0  0  0  0  0  0  0  0  0  0
    3.7934   -0.4125    0.0000 C   0  0  0  0  0  0  0  0  0  0  0  0
    5.2223    2.0625    0.0000 C   0  0  0  0  0  0  0  0  0  0  0  0
    4.5079    0.8250    0.0000 C   0  0  0  0  0  0  0  0  0  0  0  0
    5.2223    2.8875    0.0000 C   0  0  0  0  0  0  0  0  0  0  0  0
    4.5079    3.3000    0.0000 C   0  0  0  0  0  0  0  0  0  0  0  0
    5.9369    3.3000    0.0000 C   0  0  0  0  0  0  0  0  0  0  0  0
    4.5079    4.1250    0.0000 C   0  0  0  0  0  0  0  0  0  0  0  0
    5.9369    4.1250    0.0000 C   0  0  0  0  0  0  0  0  0  0  0  0
    2.3644   -2.0625    0.0000 C   0  0  0  0  0  0  0  0  0  0  0  0
    5.2223    4.5375    0.0000 C   0  0  0  0  0  0  0  0  0  0  0  0
    2.3644   -2.8875    0.0000 C   0  0  0  0  0  0  0  0  0  0  0  0
    3.0790   -3.3000    0.0000 C   0  0  0  0  0  0  0  0  0  0  0  0
    1.6500   -3.3000    0.0000 C   0  0  0  0  0  0  0  0  0  0  0  0
    3.0790   -4.1250    0.0000 C   0  0  0  0  0  0  0  0  0  0  0  0
    1.6500   -4.1250    0.0000 C   0  0  0  0  0  0  0  0  0  0  0  0
  1 10  2  0  0  0  0
  2 16  2  0  0  0  0
  3  9  1  0  0  0  0
  3 10  1  0  0  0  0
  4  5  1  0  0  0  0
  4  8  1  0  0  0  0
  5 16  1  0  0  0  0
  6 21  2  0  0  0  0
  6 22  1  0  0  0  0
  7  8  1  0  0  0  0
  7 10  1  0  0  0  0
  9 11  1  0  0  0  0
 11 12  2  0  0  0  0
 11 13  1  0  0  0  0
 12 14  1  0  0  0  0
 13 15  2  0  0  0  0
 14 17  2  0  0  0  0
 15 17  1  0  0  0  0
 16 18  1  0  0  0  0
 18 19  2  0  0  0  0
 18 20  1  0  0  0  0
 19 21  1  0  0  0  0
 20 22  2  0  0  0  0
M  END
> <DATABASE_ID>
DB04820

> <DATABASE_NAME>
drugbank

> <SMILES>
O=C(CCNNC(=O)C1=CC=NC=C1)NCC1=CC=CC=C1

> <INCHI_IDENTIFIER>
InChI=1S/C16H18N4O2/c21-15(18-12-13-4-2-1-3-5-13)8-11-19-20-16(22)14-6-9-17-10-7-14/h1-7,9-10,19H,8,11-12H2,(H,18,21)(H,20,22)

> <INCHI_KEY>
NOIIUHRQUVNIDD-UHFFFAOYSA-N

> <FORMULA>
C16H18N4O2

> <MOLECULAR_WEIGHT>
298.3397

> <EXACT_MASS>
298.14297584

> <JCHEM_ACCEPTOR_COUNT>
4

> <JCHEM_AVERAGE_POLARIZABILITY>
32.06613333190208

> <JCHEM_BIOAVAILABILITY>
1

> <JCHEM_DONOR_COUNT>
3

> <JCHEM_FORMAL_CHARGE>
0

> <JCHEM_GHOSE_FILTER>
1

> <JCHEM_IUPAC>
N-benzyl-3-(pyridin-4-ylformohydrazido)propanamide

> <ALOGPS_LOGP>
0.65

> <JCHEM_LOGP>
0.3896166700000003

> <ALOGPS_LOGS>
-3.53

> <JCHEM_MDDR_LIKE_RULE>
0

> <JCHEM_NUMBER_OF_RINGS>
2

> <JCHEM_PHYSIOLOGICAL_CHARGE>
0

> <JCHEM_PKA>
15.169849537582095

> <JCHEM_PKA_STRONGEST_ACIDIC>
13.652996672057789

> <JCHEM_PKA_STRONGEST_BASIC>
3.4076431615680582

> <JCHEM_POLAR_SURFACE_AREA>
83.12

> <JCHEM_REFRACTIVITY>
93.90660000000001

> <JCHEM_ROTATABLE_BOND_COUNT>
7

> <JCHEM_RULE_OF_FIVE>
1

> <ALOGPS_SOLUBILITY>
8.73e-02 g/l

> <JCHEM_TRADITIONAL_IUPAC>
nialamide

> <JCHEM_VEBER_RULE>
0

> <DRUGBANK_ID>
DB04820

> <DRUG_GROUPS>
withdrawn

> <GENERIC_NAME>
Nialamide

> <SYNONYMS>
Nialamida; Nialamidum

$$$$
4821
  Mrv0541 02231217562D          

 18 20  0  0  1  0            999 V2000
    2.3645    1.0928    0.0000 N   0  0  0  0  0  0  0  0  0  0  0  0
    4.5214    2.3588    0.0000 N   0  0  0  0  0  0  0  0  0  0  0  0
    3.0790   -0.1447    0.0000 C   0  0  0  0  0  0  0  0  0  0  0  0
    2.3645    0.2678    0.0000 C   0  0  0  0  0  0  0  0  0  0  0  0
    3.7934    0.2678    0.0000 C   0  0  0  0  0  0  0  0  0  0  0  0
    3.0790    1.5053    0.0000 C   0  0  0  0  0  0  0  0  0  0  0  0
    3.7934    1.0928    0.0000 C   0  0  0  0  0  0  0  0  0  0  0  0
    3.0790   -0.9697    0.0000 C   0  0  0  0  0  0  0  0  0  0  0  0
    4.5309    1.5339    0.0000 C   0  0  0  0  0  0  0  0  0  0  0  0
    4.5309   -0.1733    0.0000 C   0  0  0  0  0  0  0  0  0  0  0  0
    1.6500    1.5053    0.0000 C   0  0  0  0  0  0  0  0  0  0  0  0
    5.2784    1.1100    0.0000 C   0  0  0  0  0  0  0  0  0  0  0  0
    3.7934   -1.3822    0.0000 C   0  0  0  0  0  0  0  0  0  0  0  0
    2.3645   -1.3822    0.0000 C   0  0  0  0  0  0  0  0  0  0  0  0
    5.2784    0.2506    0.0000 C   0  0  0  0  0  0  0  0  0  0  0  0
    3.7934   -2.2072    0.0000 C   0  0  0  0  0  0  0  0  0  0  0  0
    2.3645   -2.2072    0.0000 C   0  0  0  0  0  0  0  0  0  0  0  0
    3.0790   -2.6197    0.0000 C   0  0  0  0  0  0  0  0  0  0  0  0
  1  4  1  0  0  0  0
  1  6  1  0  0  0  0
  1 11  1  0  0  0  0
  2  9  1  0  0  0  0
  3  4  1  0  0  0  0
  3  5  1  0  0  0  0
  3  8  1  0  0  0  0
  5  7  2  0  0  0  0
  5 10  1  0  0  0  0
  6  7  1  0  0  0  0
  7  9  1  0  0  0  0
  8 13  2  0  0  0  0
  8 14  1  0  0  0  0
  9 12  2  0  0  0  0
 10 15  2  0  0  0  0
 12 15  1  0  0  0  0
 13 16  1  0  0  0  0
 14 17  2  0  0  0  0
 16 18  2  0  0  0  0
 17 18  1  0  0  0  0
M  END
> <DATABASE_ID>
DB04821

> <DATABASE_NAME>
drugbank

> <SMILES>
CN1CC(C2=CC=CC=C2)C2=C(C1)C(N)=CC=C2

> <INCHI_IDENTIFIER>
InChI=1S/C16H18N2/c1-18-10-14(12-6-3-2-4-7-12)13-8-5-9-16(17)15(13)11-18/h2-9,14H,10-11,17H2,1H3

> <INCHI_KEY>
XXPANQJNYNUNES-UHFFFAOYSA-N

> <FORMULA>
C16H18N2

> <MOLECULAR_WEIGHT>
238.3275

> <EXACT_MASS>
238.146998586

> <JCHEM_ACCEPTOR_COUNT>
2

> <JCHEM_AVERAGE_POLARIZABILITY>
27.55764105023947

> <JCHEM_BIOAVAILABILITY>
1

> <JCHEM_DONOR_COUNT>
1

> <JCHEM_FORMAL_CHARGE>
0

> <JCHEM_GHOSE_FILTER>
1

> <JCHEM_IUPAC>
2-methyl-4-phenyl-1,2,3,4-tetrahydroisoquinolin-8-amine

> <ALOGPS_LOGP>
2.94

> <JCHEM_LOGP>
2.6243819343333334

> <ALOGPS_LOGS>
-2.87

> <JCHEM_MDDR_LIKE_RULE>
0

> <JCHEM_NUMBER_OF_RINGS>
3

> <JCHEM_PHYSIOLOGICAL_CHARGE>
1

> <JCHEM_PKA_STRONGEST_BASIC>
8.884643318171964

> <JCHEM_POLAR_SURFACE_AREA>
29.259999999999998

> <JCHEM_REFRACTIVITY>
77.17730000000002

> <JCHEM_ROTATABLE_BOND_COUNT>
1

> <JCHEM_RULE_OF_FIVE>
1

> <ALOGPS_SOLUBILITY>
3.18e-01 g/l

> <JCHEM_TRADITIONAL_IUPAC>
nomifensine

> <JCHEM_VEBER_RULE>
1

> <DRUGBANK_ID>
DB04821

> <DRUG_GROUPS>
withdrawn

> <GENERIC_NAME>
Nomifensine

> <SYNONYMS>
(+-)-nomifensin; (+-)-nomifensine; 8-Amino-2-methyl-4-phenyl-1,2,3,4-tetrahydroisoquinoline; Nomifensin; Nomifensina; Nomifensinum

$$$$
4822
  Mrv0541 02231217562D          

 24 24  0  0  0  0            999 V2000
    3.6020   -0.6188    0.0000 O   0  0  0  0  0  0  0  0  0  0  0  0
    2.1731   -0.6188    0.0000 O   0  0  0  0  0  0  0  0  0  0  0  0
    4.3166    1.4438    0.0000 O   0  0  0  0  0  0  0  0  0  0  0  0
    5.7455    3.0938    0.0000 N   0  0  0  0  0  0  0  0  0  0  0  0
    2.8876   -1.8563    0.0000 C   0  0  0  0  0  0  0  0  0  0  0  0
    3.7126   -1.8563    0.0000 C   0  0  0  0  0  0  0  0  0  0  0  0
    2.0625   -1.8563    0.0000 C   0  0  0  0  0  0  0  0  0  0  0  0
    2.8876   -2.6813    0.0000 C   0  0  0  0  0  0  0  0  0  0  0  0
    2.8876   -1.0313    0.0000 C   0  0  0  0  0  0  0  0  0  0  0  0
    4.1251   -1.1418    0.0000 C   0  0  0  0  0  0  0  0  0  0  0  0
    1.6500   -1.1418    0.0000 C   0  0  0  0  0  0  0  0  0  0  0  0
    3.6020   -3.0938    0.0000 C   0  0  0  0  0  0  0  0  0  0  0  0
    2.1731   -3.0938    0.0000 C   0  0  0  0  0  0  0  0  0  0  0  0
    3.6020    0.2063    0.0000 C   0  0  0  0  0  0  0  0  0  0  0  0
    3.6020   -3.9188    0.0000 C   0  0  0  0  0  0  0  0  0  0  0  0
    2.1731   -3.9188    0.0000 C   0  0  0  0  0  0  0  0  0  0  0  0
    5.0310    2.6813    0.0000 C   0  0  0  0  0  0  0  0  0  0  0  0
    4.3166    0.6188    0.0000 C   0  0  0  0  0  0  0  0  0  0  0  0
    5.0310    1.8563    0.0000 C   0  0  0  0  0  0  0  0  0  0  0  0
    2.8876   -4.3313    0.0000 C   0  0  0  0  0  0  0  0  0  0  0  0
    5.7455    3.9188    0.0000 C   0  0  0  0  0  0  0  0  0  0  0  0
    6.4600    2.6813    0.0000 C   0  0  0  0  0  0  0  0  0  0  0  0
    6.4600    4.3313    0.0000 C   0  0  0  0  0  0  0  0  0  0  0  0
    7.1745    3.0938    0.0000 C   0  0  0  0  0  0  0  0  0  0  0  0
  1  9  1  0  0  0  0
  1 14  1  0  0  0  0
  2  9  2  0  0  0  0
  3 18  1  0  0  0  0
  3 19  1  0  0  0  0
  4 17  1  0  0  0  0
  4 21  1  0  0  0  0
  4 22  1  0  0  0  0
  5  6  1  0  0  0  0
  5  7  1  0  0  0  0
  5  8  1  0  0  0  0
  5  9  1  0  0  0  0
  6 10  1  0  0  0  0
  7 11  1  0  0  0  0
  8 12  2  0  0  0  0
  8 13  1  0  0  0  0
 12 15  1  0  0  0  0
 13 16  2  0  0  0  0
 14 18  1  0  0  0  0
 15 20  2  0  0  0  0
 16 20  1  0  0  0  0
 17 19  1  0  0  0  0
 21 23  1  0  0  0  0
 22 24  1  0  0  0  0
M  END
> <DATABASE_ID>
DB04822

> <DATABASE_NAME>
drugbank

> <SMILES>
CCN(CC)CCOCCOC(=O)C(CC)(CC)C1=CC=CC=C1

> <INCHI_IDENTIFIER>
InChI=1S/C20H33NO3/c1-5-20(6-2,18-12-10-9-11-13-18)19(22)24-17-16-23-15-14-21(7-3)8-4/h9-13H,5-8,14-17H2,1-4H3

> <INCHI_KEY>
IQADUMSPOQKAAO-UHFFFAOYSA-N

> <FORMULA>
C20H33NO3

> <MOLECULAR_WEIGHT>
335.4809

> <EXACT_MASS>
335.246043927

> <JCHEM_ACCEPTOR_COUNT>
3

> <JCHEM_AVERAGE_POLARIZABILITY>
39.35427249509149

> <JCHEM_BIOAVAILABILITY>
1

> <JCHEM_DONOR_COUNT>
0

> <JCHEM_FORMAL_CHARGE>
0

> <JCHEM_GHOSE_FILTER>
1

> <JCHEM_IUPAC>
2-[2-(diethylamino)ethoxy]ethyl 2-ethyl-2-phenylbutanoate

> <ALOGPS_LOGP>
4.62

> <JCHEM_LOGP>
4.430310994999999

> <ALOGPS_LOGS>
-4.33

> <JCHEM_MDDR_LIKE_RULE>
0

> <JCHEM_NUMBER_OF_RINGS>
1

> <JCHEM_PHYSIOLOGICAL_CHARGE>
1

> <JCHEM_PKA_STRONGEST_BASIC>
9.414820687956592

> <JCHEM_POLAR_SURFACE_AREA>
38.77

> <JCHEM_REFRACTIVITY>
98.97200000000001

> <JCHEM_ROTATABLE_BOND_COUNT>
13

> <JCHEM_RULE_OF_FIVE>
1

> <ALOGPS_SOLUBILITY>
1.58e-02 g/l

> <JCHEM_TRADITIONAL_IUPAC>
oxeladin

> <JCHEM_VEBER_RULE>
0

> <DRUGBANK_ID>
DB04822

> <DRUG_GROUPS>
withdrawn

> <GENERIC_NAME>
Oxeladin

> <SYNONYMS>
Oxeladina; Oxeladine; Oxeladinum

> <SALTS>
Oxeladin citrate

$$$$
4823
  Mrv0541 02231217562D          

 24 27  0  0  0  0            999 V2000
    5.1662   -1.2245    0.0000 O   0  0  0  0  0  0  0  0  0  0  0  0
    2.3154    2.3559    0.0000 O   0  0  0  0  0  0  0  0  0  0  0  0
    6.5328    1.3746    0.0000 O   0  0  0  0  0  0  0  0  0  0  0  0
    3.8597   -1.8884    0.0000 N   0  0  0  0  0  0  0  0  0  0  0  0
    3.8597   -0.5606    0.0000 C   0  0  0  0  0  0  0  0  0  0  0  0
    3.0790   -0.8120    0.0000 C   0  0  0  0  0  0  0  0  0  0  0  0
    4.3411   -1.2245    0.0000 C   0  0  0  0  0  0  0  0  0  0  0  0
    3.4736    0.1686    0.0000 C   0  0  0  0  0  0  0  0  0  0  0  0
    4.5279   -0.0768    0.0000 C   0  0  0  0  0  0  0  0  0  0  0  0
    3.0790   -1.6370    0.0000 C   0  0  0  0  0  0  0  0  0  0  0  0
    2.3645   -0.3995    0.0000 C   0  0  0  0  0  0  0  0  0  0  0  0
    2.3645   -2.0495    0.0000 C   0  0  0  0  0  0  0  0  0  0  0  0
    2.6491    0.1987    0.0000 C   0  0  0  0  0  0  0  0  0  0  0  0
    4.4431    0.7438    0.0000 C   0  0  0  0  0  0  0  0  0  0  0  0
    3.9120    0.8674    0.0000 C   0  0  0  0  0  0  0  0  0  0  0  0
    5.2810   -0.4137    0.0000 C   0  0  0  0  0  0  0  0  0  0  0  0
    1.6500   -0.8120    0.0000 C   0  0  0  0  0  0  0  0  0  0  0  0
    1.6500   -1.6370    0.0000 C   0  0  0  0  0  0  0  0  0  0  0  0
    2.2631    0.9279    0.0000 C   0  0  0  0  0  0  0  0  0  0  0  0
    5.1114    1.2276    0.0000 C   0  0  0  0  0  0  0  0  0  0  0  0
    3.5259    1.5966    0.0000 C   0  0  0  0  0  0  0  0  0  0  0  0
    5.9493    0.0701    0.0000 C   0  0  0  0  0  0  0  0  0  0  0  0
    2.7014    1.6268    0.0000 C   0  0  0  0  0  0  0  0  0  0  0  0
    5.8645    0.8908    0.0000 C   0  0  0  0  0  0  0  0  0  0  0  0
  1  7  2  0  0  0  0
  2 23  1  0  0  0  0
  3 24  1  0  0  0  0
  4  7  1  0  0  0  0
  4 10  1  0  0  0  0
  5  6  1  0  0  0  0
  5  7  1  0  0  0  0
  5  8  1  0  0  0  0
  5  9  1  0  0  0  0
  6 10  1  0  0  0  0
  6 11  2  0  0  0  0
  8 13  2  0  0  0  0
  8 15  1  0  0  0  0
  9 14  2  0  0  0  0
  9 16  1  0  0  0  0
 10 12  2  0  0  0  0
 11 17  1  0  0  0  0
 12 18  1  0  0  0  0
 13 19  1  0  0  0  0
 14 20  1  0  0  0  0
 15 21  2  0  0  0  0
 16 22  2  0  0  0  0
 17 18  2  0  0  0  0
 19 23  2  0  0  0  0
 20 24  2  0  0  0  0
 21 23  1  0  0  0  0
 22 24  1  0  0  0  0
M  END
> <DATABASE_ID>
DB04823

> <DATABASE_NAME>
drugbank

> <SMILES>
OC1=CC=C(C=C1)C1(C(=O)NC2=CC=CC=C12)C1=CC=C(O)C=C1

> <INCHI_IDENTIFIER>
InChI=1S/C20H15NO3/c22-15-9-5-13(6-10-15)20(14-7-11-16(23)12-8-14)17-3-1-2-4-18(17)21-19(20)24/h1-12,22-23H,(H,21,24)

> <INCHI_KEY>
SJDACOMXKWHBOW-UHFFFAOYSA-N

> <FORMULA>
C20H15NO3

> <MOLECULAR_WEIGHT>
317.338

> <EXACT_MASS>
317.105193351

> <JCHEM_ACCEPTOR_COUNT>
3

> <JCHEM_AVERAGE_POLARIZABILITY>
33.066311777514386

> <JCHEM_BIOAVAILABILITY>
1

> <JCHEM_DONOR_COUNT>
3

> <JCHEM_FORMAL_CHARGE>
0

> <JCHEM_GHOSE_FILTER>
1

> <JCHEM_IUPAC>
3,3-bis(4-hydroxyphenyl)-2,3-dihydro-1H-indol-2-one

> <ALOGPS_LOGP>
3.78

> <JCHEM_LOGP>
3.831528069333333

> <ALOGPS_LOGS>
-4.40

> <JCHEM_MDDR_LIKE_RULE>
0

> <JCHEM_NUMBER_OF_RINGS>
4

> <JCHEM_PHYSIOLOGICAL_CHARGE>
0

> <JCHEM_PKA>
9.781307872393402

> <JCHEM_PKA_STRONGEST_ACIDIC>
9.17945553540577

> <JCHEM_PKA_STRONGEST_BASIC>
-5.959081981838879

> <JCHEM_POLAR_SURFACE_AREA>
69.56

> <JCHEM_REFRACTIVITY>
93.69030000000004

> <JCHEM_ROTATABLE_BOND_COUNT>
2

> <JCHEM_RULE_OF_FIVE>
1

> <ALOGPS_SOLUBILITY>
1.25e-02 g/l

> <JCHEM_TRADITIONAL_IUPAC>
oxyphenisatin

> <JCHEM_VEBER_RULE>
0

> <DRUGBANK_ID>
DB04823

> <DRUG_GROUPS>
withdrawn

> <GENERIC_NAME>
Oxyphenisatin

> <SYNONYMS>
Oxifenisatina; Oxyphenisatinum

> <SALTS>
Oxyphenisatin acetate

$$$$
4824
  Mrv0541 02231217562D          

 24 27  0  0  0  0            999 V2000
    4.3411   -1.2316    0.0000 O   0  0  0  0  0  0  0  0  0  0  0  0
    4.1159   -2.6797    0.0000 O   0  0  0  0  0  0  0  0  0  0  0  0
    7.1421   -0.2284    0.0000 O   0  0  0  0  0  0  0  0  0  0  0  0
    2.8453    2.5725    0.0000 O   0  0  0  0  0  0  0  0  0  0  0  0
    3.8596   -0.5678    0.0000 C   0  0  0  0  0  0  0  0  0  0  0  0
    3.0790   -0.8191    0.0000 C   0  0  0  0  0  0  0  0  0  0  0  0
    4.6802   -0.4830    0.0000 C   0  0  0  0  0  0  0  0  0  0  0  0
    3.6060    0.2173    0.0000 C   0  0  0  0  0  0  0  0  0  0  0  0
    3.0790   -1.6441    0.0000 C   0  0  0  0  0  0  0  0  0  0  0  0
    3.8596   -1.8955    0.0000 C   0  0  0  0  0  0  0  0  0  0  0  0
    2.3645   -0.4066    0.0000 C   0  0  0  0  0  0  0  0  0  0  0  0
    5.1640   -1.1512    0.0000 C   0  0  0  0  0  0  0  0  0  0  0  0
    4.1591    0.8295    0.0000 C   0  0  0  0  0  0  0  0  0  0  0  0
    5.0171    0.2702    0.0000 C   0  0  0  0  0  0  0  0  0  0  0  0
    2.7993    0.3902    0.0000 C   0  0  0  0  0  0  0  0  0  0  0  0
    2.3645   -2.0566    0.0000 C   0  0  0  0  0  0  0  0  0  0  0  0
    1.6500   -0.8191    0.0000 C   0  0  0  0  0  0  0  0  0  0  0  0
    1.6500   -1.6441    0.0000 C   0  0  0  0  0  0  0  0  0  0  0  0
    5.9846   -1.0664    0.0000 C   0  0  0  0  0  0  0  0  0  0  0  0
    3.9055    1.6145    0.0000 C   0  0  0  0  0  0  0  0  0  0  0  0
    5.8377    0.3550    0.0000 C   0  0  0  0  0  0  0  0  0  0  0  0
    2.5457    1.1753    0.0000 C   0  0  0  0  0  0  0  0  0  0  0  0
    6.3215   -0.3133    0.0000 C   0  0  0  0  0  0  0  0  0  0  0  0
    3.0989    1.7874    0.0000 C   0  0  0  0  0  0  0  0  0  0  0  0
  1  5  1  0  0  0  0
  1 10  1  0  0  0  0
  2 10  2  0  0  0  0
  3 23  1  0  0  0  0
  4 24  1  0  0  0  0
  5  6  1  0  0  0  0
  5  7  1  0  0  0  0
  5  8  1  0  0  0  0
  6  9  1  0  0  0  0
  6 11  2  0  0  0  0
  7 12  2  0  0  0  0
  7 14  1  0  0  0  0
  8 13  2  0  0  0  0
  8 15  1  0  0  0  0
  9 10  1  0  0  0  0
  9 16  2  0  0  0  0
 11 17  1  0  0  0  0
 12 19  1  0  0  0  0
 13 20  1  0  0  0  0
 14 21  2  0  0  0  0
 15 22  2  0  0  0  0
 16 18  1  0  0  0  0
 17 18  2  0  0  0  0
 19 23  2  0  0  0  0
 20 24  2  0  0  0  0
 21 23  1  0  0  0  0
 22 24  1  0  0  0  0
M  END
> <DATABASE_ID>
DB04824

> <DATABASE_NAME>
drugbank

> <SMILES>
OC1=CC=C(C=C1)C1(OC(=O)C2=CC=CC=C12)C1=CC=C(O)C=C1

> <INCHI_IDENTIFIER>
InChI=1S/C20H14O4/c21-15-9-5-13(6-10-15)20(14-7-11-16(22)12-8-14)18-4-2-1-3-17(18)19(23)24-20/h1-12,21-22H

> <INCHI_KEY>
KJFMBFZCATUALV-UHFFFAOYSA-N

> <FORMULA>
C20H14O4

> <MOLECULAR_WEIGHT>
318.3228

> <EXACT_MASS>
318.089208936

> <JCHEM_ACCEPTOR_COUNT>
3

> <JCHEM_AVERAGE_POLARIZABILITY>
32.65116169123185

> <JCHEM_BIOAVAILABILITY>
1

> <JCHEM_DONOR_COUNT>
2

> <JCHEM_FORMAL_CHARGE>
0

> <JCHEM_GHOSE_FILTER>
1

> <JCHEM_IUPAC>
3,3-bis(4-hydroxyphenyl)-1,3-dihydro-2-benzofuran-1-one

> <ALOGPS_LOGP>
4.41

> <JCHEM_LOGP>
4.353301456333334

> <ALOGPS_LOGS>
-4.51

> <JCHEM_MDDR_LIKE_RULE>
0

> <JCHEM_NUMBER_OF_RINGS>
4

> <JCHEM_PHYSIOLOGICAL_CHARGE>
0

> <JCHEM_PKA>
9.759493314012811

> <JCHEM_PKA_STRONGEST_ACIDIC>
9.157433300427105

> <JCHEM_PKA_STRONGEST_BASIC>
-5.959855476912179

> <JCHEM_POLAR_SURFACE_AREA>
66.76

> <JCHEM_REFRACTIVITY>
91.03730000000003

> <JCHEM_ROTATABLE_BOND_COUNT>
2

> <JCHEM_RULE_OF_FIVE>
1

> <ALOGPS_SOLUBILITY>
9.92e-03 g/l

> <JCHEM_TRADITIONAL_IUPAC>
phenolphthalein

> <JCHEM_VEBER_RULE>
0

> <DRUGBANK_ID>
DB04824

> <DRUG_GROUPS>
withdrawn

> <GENERIC_NAME>
Phenolphthalein

> <SYNONYMS>
3,3-Bis(4-hydroxyphenyl)phthalide; Fenolftalein; Fenolftaleina; Phenolphtaleine; Phenolphthaleinum; Phthalimetten; phthalin; Yellow phenolphthalein

> <PRODUCTS>
Agarol Eml Strawberry; Agarol Vanilla Laxative Liq; Alophen Tab 60mg; Calcium Docuphen Cap; Correctol Laxative Tab; Doxidan Capsules; EX-lax Chocolated Tab 95mg; EX-lax Light Formula Lax W Stool Soften Tab; Espotabs Laxative Tablets 90mg; Feen-A-mint Phenolphthalein Tab 100mg; Laxarol; Laxative Pills - Tablet; Laxative Tablets; Mucinum Tab; Neo Prunex Jam; Phillips' Gelcaps; Pilules Spark; Women's Laxative Tablets

$$$$
4825
  Mrv0541 02231217562D          

 25 27  0  0  1  0            999 V2000
    3.0791    0.2063    0.0000 N   0  0  0  0  0  0  0  0  0  0  0  0
    4.5080   -1.4438    0.0000 C   0  0  0  0  0  0  0  0  0  0  0  0
    3.7935   -1.0313    0.0000 C   0  0  0  0  0  0  0  0  0  0  0  0
    3.7935   -0.2063    0.0000 C   0  0  0  0  0  0  0  0  0  0  0  0
    3.0791    1.0313    0.0000 C   0  0  0  0  0  0  0  0  0  0  0  0
    5.2224   -1.0313    0.0000 C   0  0  0  0  0  0  0  0  0  0  0  0
    4.5080   -2.2688    0.0000 C   0  0  0  0  0  0  0  0  0  0  0  0
    2.3645    1.4438    0.0000 C   0  0  0  0  0  0  0  0  0  0  0  0
    3.7935    1.4438    0.0000 C   0  0  0  0  0  0  0  0  0  0  0  0
    2.3645    2.2688    0.0000 C   0  0  0  0  0  0  0  0  0  0  0  0
    5.9370   -1.4438    0.0000 C   0  0  0  0  0  0  0  0  0  0  0  0
    5.2224   -2.6813    0.0000 C   0  0  0  0  0  0  0  0  0  0  0  0
    5.2224   -0.2063    0.0000 C   0  0  0  0  0  0  0  0  0  0  0  0
    3.7935   -2.6813    0.0000 C   0  0  0  0  0  0  0  0  0  0  0  0
    1.6500    2.6813    0.0000 C   0  0  0  0  0  0  0  0  0  0  0  0
    3.0791    2.6813    0.0000 C   0  0  0  0  0  0  0  0  0  0  0  0
    6.6515   -1.0313    0.0000 C   0  0  0  0  0  0  0  0  0  0  0  0
    5.2224   -3.5063    0.0000 C   0  0  0  0  0  0  0  0  0  0  0  0
    5.9370    0.2063    0.0000 C   0  0  0  0  0  0  0  0  0  0  0  0
    3.7935   -3.5063    0.0000 C   0  0  0  0  0  0  0  0  0  0  0  0
    6.6515   -0.2063    0.0000 C   0  0  0  0  0  0  0  0  0  0  0  0
    4.5080   -3.9188    0.0000 C   0  0  0  0  0  0  0  0  0  0  0  0
    1.6500    3.5063    0.0000 C   0  0  0  0  0  0  0  0  0  0  0  0
    3.0791    3.5063    0.0000 C   0  0  0  0  0  0  0  0  0  0  0  0
    2.3645    3.9188    0.0000 C   0  0  0  0  0  0  0  0  0  0  0  0
  1  4  1  0  0  0  0
  1  5  1  0  0  0  0
  2  3  1  0  0  0  0
  2  6  1  0  0  0  0
  2  7  1  0  0  0  0
  3  4  1  0  0  0  0
  5  8  1  0  0  0  0
  5  9  1  0  0  0  0
  6 11  2  0  0  0  0
  6 13  1  0  0  0  0
  7 12  2  0  0  0  0
  7 14  1  0  0  0  0
  8 10  1  0  0  0  0
 10 15  2  0  0  0  0
 10 16  1  0  0  0  0
 11 17  1  0  0  0  0
 12 18  1  0  0  0  0
 13 19  2  0  0  0  0
 14 20  2  0  0  0  0
 15 23  1  0  0  0  0
 16 24  2  0  0  0  0
 17 21  2  0  0  0  0
 18 22  2  0  0  0  0
 19 21  1  0  0  0  0
 20 22  1  0  0  0  0
 23 25  2  0  0  0  0
 24 25  1  0  0  0  0
M  END
> <DATABASE_ID>
DB04825

> <DATABASE_NAME>
drugbank

> <SMILES>
CC(CC1=CC=CC=C1)NCCC(C1=CC=CC=C1)C1=CC=CC=C1

> <INCHI_IDENTIFIER>
InChI=1S/C24H27N/c1-20(19-21-11-5-2-6-12-21)25-18-17-24(22-13-7-3-8-14-22)23-15-9-4-10-16-23/h2-16,20,24-25H,17-19H2,1H3

> <INCHI_KEY>
IFFPICMESYHZPQ-UHFFFAOYSA-N

> <FORMULA>
C24H27N

> <MOLECULAR_WEIGHT>
329.4779

> <EXACT_MASS>
329.214349869

> <JCHEM_ACCEPTOR_COUNT>
1

> <JCHEM_AVERAGE_POLARIZABILITY>
39.764886264546746

> <JCHEM_BIOAVAILABILITY>
1

> <JCHEM_DONOR_COUNT>
1

> <JCHEM_FORMAL_CHARGE>
0

> <JCHEM_GHOSE_FILTER>
0

> <JCHEM_IUPAC>
(3,3-diphenylpropyl)(1-phenylpropan-2-yl)amine

> <ALOGPS_LOGP>
5.89

> <JCHEM_LOGP>
6.115356931666668

> <ALOGPS_LOGS>
-6.97

> <JCHEM_MDDR_LIKE_RULE>
1

> <JCHEM_NUMBER_OF_RINGS>
3

> <JCHEM_PHYSIOLOGICAL_CHARGE>
1

> <JCHEM_PKA_STRONGEST_BASIC>
10.48113787755236

> <JCHEM_POLAR_SURFACE_AREA>
12.03

> <JCHEM_REFRACTIVITY>
107.09200000000006

> <JCHEM_ROTATABLE_BOND_COUNT>
8

> <JCHEM_RULE_OF_FIVE>
0

> <ALOGPS_SOLUBILITY>
3.54e-05 g/l

> <JCHEM_TRADITIONAL_IUPAC>
prenylamine

> <JCHEM_VEBER_RULE>
1

> <DRUGBANK_ID>
DB04825

> <DRUG_GROUPS>
withdrawn

> <GENERIC_NAME>
Prenylamine

> <SYNONYMS>
N-(3,3-Diphenylpropyl)-alpha-methylphenaethylamin; Prenilamina; Prenylaminum

$$$$
4826
  Mrv0541 02231217562D          

 20 22  0  0  1  0            999 V2000
    2.9849    2.1190    0.0000 S   0  0  0  0  0  0  0  0  0  0  0  0
    3.0319   -2.0786    0.0000 N   0  0  0  0  0  0  0  0  0  0  0  0
    3.0319    0.3965    0.0000 N   0  0  0  0  0  0  0  0  0  0  0  0
    3.0319   -0.4285    0.0000 C   0  0  0  0  0  0  0  0  0  0  0  0
    2.3175   -0.8410    0.0000 C   0  0  0  0  0  0  0  0  0  0  0  0
    3.7465   -0.8410    0.0000 C   0  0  0  0  0  0  0  0  0  0  0  0
    2.3175   -1.6660    0.0000 C   0  0  0  0  0  0  0  0  0  0  0  0
    3.7465   -1.6660    0.0000 C   0  0  0  0  0  0  0  0  0  0  0  0
    2.3175    0.8090    0.0000 C   0  0  0  0  0  0  0  0  0  0  0  0
    3.7465    0.8090    0.0000 C   0  0  0  0  0  0  0  0  0  0  0  0
    3.0319   -2.9036    0.0000 C   0  0  0  0  0  0  0  0  0  0  0  0
    2.3175    1.6340    0.0000 C   0  0  0  0  0  0  0  0  0  0  0  0
    4.4610    0.3965    0.0000 C   0  0  0  0  0  0  0  0  0  0  0  0
    3.7465    1.6340    0.0000 C   0  0  0  0  0  0  0  0  0  0  0  0
    1.6500    2.1190    0.0000 C   0  0  0  0  0  0  0  0  0  0  0  0
    5.1754    0.8090    0.0000 C   0  0  0  0  0  0  0  0  0  0  0  0
    4.4610    2.0465    0.0000 C   0  0  0  0  0  0  0  0  0  0  0  0
    5.1754    1.6340    0.0000 C   0  0  0  0  0  0  0  0  0  0  0  0
    1.9050    2.9036    0.0000 C   0  0  0  0  0  0  0  0  0  0  0  0
    2.7300    2.9036    0.0000 C   0  0  0  0  0  0  0  0  0  0  0  0
  1 12  1  0  0  0  0
  1 20  1  0  0  0  0
  2  7  1  0  0  0  0
  2  8  1  0  0  0  0
  2 11  1  0  0  0  0
  3  4  1  0  0  0  0
  3  9  1  0  0  0  0
  3 10  1  0  0  0  0
  4  5  1  0  0  0  0
  4  6  1  0  0  0  0
  5  7  1  0  0  0  0
  6  8  1  0  0  0  0
  9 12  1  0  0  0  0
 10 13  2  0  0  0  0
 10 14  1  0  0  0  0
 12 15  2  0  0  0  0
 13 16  1  0  0  0  0
 14 17  2  0  0  0  0
 15 19  1  0  0  0  0
 16 18  2  0  0  0  0
 17 18  1  0  0  0  0
 19 20  2  0  0  0  0
M  END
> <DATABASE_ID>
DB04826

> <DATABASE_NAME>
drugbank

> <SMILES>
CN1CCC(CC1)N(CC1=CC=CS1)C1=CC=CC=C1

> <INCHI_IDENTIFIER>
InChI=1S/C17H22N2S/c1-18-11-9-16(10-12-18)19(14-17-8-5-13-20-17)15-6-3-2-4-7-15/h2-8,13,16H,9-12,14H2,1H3

> <INCHI_KEY>
KLOHYVOVXOUKQI-UHFFFAOYSA-N

> <FORMULA>
C17H22N2S

> <MOLECULAR_WEIGHT>
286.435

> <EXACT_MASS>
286.150369404

> <JCHEM_ACCEPTOR_COUNT>
2

> <JCHEM_AVERAGE_POLARIZABILITY>
32.88830236255217

> <JCHEM_BIOAVAILABILITY>
1

> <JCHEM_DONOR_COUNT>
0

> <JCHEM_FORMAL_CHARGE>
0

> <JCHEM_GHOSE_FILTER>
1

> <JCHEM_IUPAC>
1-methyl-N-phenyl-N-(thiophen-2-ylmethyl)piperidin-4-amine

> <ALOGPS_LOGP>
4.47

> <JCHEM_LOGP>
3.7454502919999992

> <ALOGPS_LOGS>
-3.51

> <JCHEM_MDDR_LIKE_RULE>
0

> <JCHEM_NUMBER_OF_RINGS>
3

> <JCHEM_PHYSIOLOGICAL_CHARGE>
1

> <JCHEM_PKA_STRONGEST_BASIC>
8.687962205159312

> <JCHEM_POLAR_SURFACE_AREA>
6.48

> <JCHEM_REFRACTIVITY>
87.44020000000003

> <JCHEM_ROTATABLE_BOND_COUNT>
4

> <JCHEM_RULE_OF_FIVE>
1

> <ALOGPS_SOLUBILITY>
8.83e-02 g/l

> <JCHEM_TRADITIONAL_IUPAC>
thenalidine

> <JCHEM_VEBER_RULE>
1

> <DRUGBANK_ID>
DB04826

> <DRUG_GROUPS>
withdrawn

> <GENERIC_NAME>
Thenalidine

> <SYNONYMS>
Tenalidina; Thenalidinum

$$$$
4827
  Mrv0541 02231217562D          

  6  5  0  0  0  0            999 V2000
    3.0791    0.3630    0.0000 O   0  0  0  0  0  0  0  0  0  0  0  0
    3.7935   -0.8745    0.0000 O   0  0  0  0  0  0  0  0  0  0  0  0
    4.5080    0.3630    0.0000 N   0  0  0  0  0  0  0  0  0  0  0  0
    2.3645   -0.0495    0.0000 C   0  0  0  0  0  0  0  0  0  0  0  0
    1.6500    0.3630    0.0000 C   0  0  0  0  0  0  0  0  0  0  0  0
    3.7935   -0.0495    0.0000 C   0  0  0  0  0  0  0  0  0  0  0  0
  1  4  1  0  0  0  0
  1  6  1  0  0  0  0
  2  6  2  0  0  0  0
  3  6  1  0  0  0  0
  4  5  1  0  0  0  0
M  END
> <DATABASE_ID>
DB04827

> <DATABASE_NAME>
drugbank

> <SMILES>
CCOC(N)=O

> <INCHI_IDENTIFIER>
InChI=1S/C3H7NO2/c1-2-6-3(4)5/h2H2,1H3,(H2,4,5)

> <INCHI_KEY>
JOYRKODLDBILNP-UHFFFAOYSA-N

> <FORMULA>
C3H7NO2

> <MOLECULAR_WEIGHT>
89.0932

> <EXACT_MASS>
89.047678473

> <JCHEM_ACCEPTOR_COUNT>
1

> <JCHEM_AVERAGE_POLARIZABILITY>
8.644413257751996

> <JCHEM_BIOAVAILABILITY>
1

> <JCHEM_DONOR_COUNT>
1

> <JCHEM_FORMAL_CHARGE>
0

> <JCHEM_GHOSE_FILTER>
0

> <JCHEM_IUPAC>
ethyl carbamate

> <ALOGPS_LOGP>
-0.14

> <JCHEM_LOGP>
-0.054189237333333376

> <ALOGPS_LOGS>
0.62

> <JCHEM_MDDR_LIKE_RULE>
0

> <JCHEM_NUMBER_OF_RINGS>
0

> <JCHEM_PHYSIOLOGICAL_CHARGE>
0

> <JCHEM_PKA_STRONGEST_ACIDIC>
15.473281507740328

> <JCHEM_POLAR_SURFACE_AREA>
52.32

> <JCHEM_REFRACTIVITY>
20.8381

> <JCHEM_ROTATABLE_BOND_COUNT>
2

> <JCHEM_RULE_OF_FIVE>
1

> <ALOGPS_SOLUBILITY>
3.71e+02 g/l

> <JCHEM_TRADITIONAL_IUPAC>
urethane

> <JCHEM_VEBER_RULE>
0

> <DRUGBANK_ID>
DB04827

> <DRUG_GROUPS>
withdrawn

> <GENERIC_NAME>
Ethyl carbamate

> <SYNONYMS>
Aethylcarbamat; Aethylurethan; Carbamidsaeure-aethylester; Ethylester kyseliny karbaminove; Uretan etylowy; Urethane; Urethanum

$$$$
4828
  Mrv0541 02231217562D          

 20 21  0  0  0  0            999 V2000
    2.3645   -3.1758    0.0000 Cl  0  0  0  0  0  0  0  0  0  0  0  0
    1.6500    0.5368    0.0000 O   0  0  0  0  0  0  0  0  0  0  0  0
    5.4638    3.1223    0.0000 O   0  0  0  0  0  0  0  0  0  0  0  0
    5.6132    1.7013    0.0000 O   0  0  0  0  0  0  0  0  0  0  0  0
    3.1652    1.3572    0.0000 N   0  0  0  0  0  0  0  0  0  0  0  0
    3.0790    0.5368    0.0000 C   0  0  0  0  0  0  0  0  0  0  0  0
    3.9722    1.5287    0.0000 C   0  0  0  0  0  0  0  0  0  0  0  0
    3.8327    0.2011    0.0000 C   0  0  0  0  0  0  0  0  0  0  0  0
    4.3847    0.8143    0.0000 C   0  0  0  0  0  0  0  0  0  0  0  0
    4.3078    2.2824    0.0000 C   0  0  0  0  0  0  0  0  0  0  0  0
    2.3645    0.1242    0.0000 C   0  0  0  0  0  0  0  0  0  0  0  0
    2.5521    1.9092    0.0000 C   0  0  0  0  0  0  0  0  0  0  0  0
    4.0042   -0.6058    0.0000 C   0  0  0  0  0  0  0  0  0  0  0  0
    2.3645   -0.7008    0.0000 C   0  0  0  0  0  0  0  0  0  0  0  0
    5.1283    2.3687    0.0000 C   0  0  0  0  0  0  0  0  0  0  0  0
    3.0790   -1.1133    0.0000 C   0  0  0  0  0  0  0  0  0  0  0  0
    1.6500   -1.1133    0.0000 C   0  0  0  0  0  0  0  0  0  0  0  0
    3.0790   -1.9383    0.0000 C   0  0  0  0  0  0  0  0  0  0  0  0
    1.6500   -1.9383    0.0000 C   0  0  0  0  0  0  0  0  0  0  0  0
    2.3645   -2.3508    0.0000 C   0  0  0  0  0  0  0  0  0  0  0  0
  1 20  1  0  0  0  0
  2 11  2  0  0  0  0
  3 15  1  0  0  0  0
  4 15  2  0  0  0  0
  5  6  1  0  0  0  0
  5  7  1  0  0  0  0
  5 12  1  0  0  0  0
  6  8  2  0  0  0  0
  6 11  1  0  0  0  0
  7  9  2  0  0  0  0
  7 10  1  0  0  0  0
  8  9  1  0  0  0  0
  8 13  1  0  0  0  0
 10 15  1  0  0  0  0
 11 14  1  0  0  0  0
 14 16  2  0  0  0  0
 14 17  1  0  0  0  0
 16 18  1  0  0  0  0
 17 19  2  0  0  0  0
 18 20  2  0  0  0  0
 19 20  1  0  0  0  0
M  END
> <DATABASE_ID>
DB04828

> <DATABASE_NAME>
drugbank

> <SMILES>
CN1C(CC(O)=O)=CC(C)=C1C(=O)C1=CC=C(Cl)C=C1

> <INCHI_IDENTIFIER>
InChI=1S/C15H14ClNO3/c1-9-7-12(8-13(18)19)17(2)14(9)15(20)10-3-5-11(16)6-4-10/h3-7H,8H2,1-2H3,(H,18,19)

> <INCHI_KEY>
ZXVNMYWKKDOREA-UHFFFAOYSA-N

> <FORMULA>
C15H14ClNO3

> <MOLECULAR_WEIGHT>
291.73

> <EXACT_MASS>
291.066221026

> <JCHEM_ACCEPTOR_COUNT>
3

> <JCHEM_AVERAGE_POLARIZABILITY>
29.68315785383126

> <JCHEM_BIOAVAILABILITY>
1

> <JCHEM_DONOR_COUNT>
1

> <JCHEM_FORMAL_CHARGE>
0

> <JCHEM_GHOSE_FILTER>
1

> <JCHEM_IUPAC>
2-[5-(4-chlorobenzoyl)-1,4-dimethyl-1H-pyrrol-2-yl]acetic acid

> <ALOGPS_LOGP>
3.37

> <JCHEM_LOGP>
3.3313756339999996

> <ALOGPS_LOGS>
-4.05

> <JCHEM_MDDR_LIKE_RULE>
0

> <JCHEM_NUMBER_OF_RINGS>
2

> <JCHEM_PHYSIOLOGICAL_CHARGE>
-1

> <JCHEM_PKA_STRONGEST_ACIDIC>
3.857075578582881

> <JCHEM_PKA_STRONGEST_BASIC>
-7.782739361673682

> <JCHEM_POLAR_SURFACE_AREA>
59.3

> <JCHEM_REFRACTIVITY>
77.19760000000001

> <JCHEM_ROTATABLE_BOND_COUNT>
4

> <JCHEM_RULE_OF_FIVE>
1

> <ALOGPS_SOLUBILITY>
2.60e-02 g/l

> <JCHEM_TRADITIONAL_IUPAC>
zomepirac

> <JCHEM_VEBER_RULE>
0

> <DRUGBANK_ID>
DB04828

> <DRUG_GROUPS>
withdrawn

> <GENERIC_NAME>
Zomepirac

> <SYNONYMS>
5-(4-Chlorobenzoyl)-1,4-dimethyl-1H-pyrrole-2-acetic acid; Zomepiracum

> <SALTS>
Zomepirac sodium; Zomepirac sodium dihydrate

$$$$
4829
  Mrv0541 02231217562D          

 25 28  0  0  1  0            999 V2000
    1.6596    0.6794    0.0000 O   0  0  0  0  0  0  0  0  0  0  0  0
    4.5735    0.6791    0.0000 N   0  0  0  0  0  0  0  0  0  0  0  0
    5.5486   -2.7169    0.0000 N   0  0  0  0  0  0  0  0  0  0  0  0
    2.3692    1.9196    0.0000 N   0  0  0  0  0  0  0  0  0  0  0  0
    4.5603   -0.1801    0.0000 C   0  0  1  0  0  0  0  0  0  0  0  0
    3.8458   -0.5926    0.0000 C   0  0  0  0  0  0  0  0  0  0  0  0
    5.2748   -0.5926    0.0000 C   0  0  0  0  0  0  0  0  0  0  0  0
    3.0885    0.6848    0.0000 C   0  0  1  0  0  0  0  0  0  0  0  0
    3.8327    1.1146    0.0000 C   0  0  0  0  0  0  0  0  0  0  0  0
    5.2748   -1.4176    0.0000 C   0  0  0  0  0  0  0  0  0  0  0  0
    3.8458   -1.4176    0.0000 C   0  0  0  0  0  0  0  0  0  0  0  0
    4.5603   -1.8301    0.0000 C   0  0  0  0  0  0  0  0  0  0  0  0
    3.0951   -0.1745    0.0000 C   0  0  0  0  0  0  0  0  0  0  0  0
    4.5735   -2.6893    0.0000 C   0  0  0  0  0  0  0  0  0  0  0  0
    5.2928    1.0834    0.0000 C   0  0  0  0  0  0  0  0  0  0  0  0
    2.3724    1.0946    0.0000 C   0  0  0  0  0  0  0  0  0  0  0  0
    5.8828   -1.9679    0.0000 C   0  0  0  0  0  0  0  0  0  0  0  0
    3.0951   -1.8358    0.0000 C   0  0  0  0  0  0  0  0  0  0  0  0
    3.8327   -3.1248    0.0000 C   0  0  0  0  0  0  0  0  0  0  0  0
    3.0885   -2.6951    0.0000 C   0  0  0  0  0  0  0  0  0  0  0  0
    3.0821    2.3348    0.0000 C   0  0  0  0  0  0  0  0  0  0  0  0
    1.6532    2.3293    0.0000 C   0  0  0  0  0  0  0  0  0  0  0  0
    3.0789    3.1598    0.0000 C   0  0  0  0  0  0  0  0  0  0  0  0
    1.6500    3.1543    0.0000 C   0  0  0  0  0  0  0  0  0  0  0  0
    5.1344    0.1454    0.0000 H   0  0  0  0  0  0  0  0  0  0  0  0
  1 16  2  0  0  0  0
  2  5  1  0  0  0  0
  2  9  1  0  0  0  0
  2 15  1  0  0  0  0
  3 14  1  0  0  0  0
  3 17  1  0  0  0  0
  4 16  1  0  0  0  0
  4 21  1  0  0  0  0
  4 22  1  0  0  0  0
  5  6  1  0  0  0  0
  5  7  1  0  0  0  0
  5 25  1  1  0  0  0
  6 11  1  0  0  0  0
  6 13  2  0  0  0  0
  7 10  1  0  0  0  0
  8  9  1  0  0  0  0
  8 13  1  0  0  0  0
  8 16  1  1  0  0  0
 10 12  1  0  0  0  0
 10 17  2  0  0  0  0
 11 12  2  0  0  0  0
 11 18  1  0  0  0  0
 12 14  1  0  0  0  0
 14 19  2  0  0  0  0
 18 20  2  0  0  0  0
 19 20  1  0  0  0  0
 21 23  1  0  0  0  0
 22 24  1  0  0  0  0
M  END
> <DATABASE_ID>
DB04829

> <DATABASE_NAME>
drugbank

> <SMILES>
[H][C@@]12CC3=CNC4=CC=CC(=C34)C1=C[C@H](CN2C)C(=O)N(CC)CC

> <INCHI_IDENTIFIER>
InChI=1S/C20H25N3O/c1-4-23(5-2)20(24)14-9-16-15-7-6-8-17-19(15)13(11-21-17)10-18(16)22(3)12-14/h6-9,11,14,18,21H,4-5,10,12H2,1-3H3/t14-,18-/m1/s1

> <INCHI_KEY>
VAYOSLLFUXYJDT-RDTXWAMCSA-N

> <FORMULA>
C20H25N3O

> <MOLECULAR_WEIGHT>
323.432

> <EXACT_MASS>
323.199762437

> <JCHEM_ACCEPTOR_COUNT>
2

> <JCHEM_AVERAGE_POLARIZABILITY>
37.5368063820775

> <JCHEM_BIOAVAILABILITY>
1

> <JCHEM_DONOR_COUNT>
1

> <JCHEM_FORMAL_CHARGE>
0

> <JCHEM_GHOSE_FILTER>
1

> <JCHEM_IUPAC>
(4R,7R)-N,N-diethyl-6-methyl-6,11-diazatetracyclo[7.6.1.0²,⁷.0¹²,¹⁶]hexadeca-1(16),2,9,12,14-pentaene-4-carboxamide

> <ALOGPS_LOGP>
3.30

> <JCHEM_LOGP>
2.2815149479999994

> <ALOGPS_LOGS>
-3.08

> <JCHEM_MDDR_LIKE_RULE>
0

> <JCHEM_NUMBER_OF_RINGS>
4

> <JCHEM_PHYSIOLOGICAL_CHARGE>
1

> <JCHEM_PKA_STRONGEST_ACIDIC>
17.018362935901628

> <JCHEM_PKA_STRONGEST_BASIC>
7.977009732366193

> <JCHEM_POLAR_SURFACE_AREA>
39.34

> <JCHEM_REFRACTIVITY>
98.7347

> <JCHEM_ROTATABLE_BOND_COUNT>
3

> <JCHEM_RULE_OF_FIVE>
1

> <ALOGPS_SOLUBILITY>
2.70e-01 g/l

> <JCHEM_TRADITIONAL_IUPAC>
lysergic acid diethylamide

> <JCHEM_VEBER_RULE>
1

> <DRUGBANK_ID>
DB04829

> <DRUG_GROUPS>
illicit; withdrawn

> <GENERIC_NAME>
Lysergic Acid Diethylamide

> <SYNONYMS>
Diethylamid kyseliny lysergove; Lysergide; Lysergidum

> <INTERNATIONAL_BRANDS>
Delysid

$$$$
4830
  Mrv0541 02231217572D          

 11 10  0  0  0  0            999 V2000
    4.2365    0.3630    0.0000 N   0  0  0  0  0  0  0  0  0  0  0  0
    3.5220    1.6005    0.0000 N   0  0  0  0  0  0  0  0  0  0  0  0
    4.9509    1.6005    0.0000 N   0  0  0  0  0  0  0  0  0  0  0  0
    2.0930    1.6005    0.0000 N   0  0  0  0  0  0  0  0  0  0  0  0
    2.8075    0.3630    0.0000 N   0  0  0  0  0  0  0  0  0  0  0  0
    4.9509   -0.8745    0.0000 C   0  0  0  0  0  0  0  0  0  0  0  0
    5.6655   -1.2870    0.0000 C   0  0  0  0  0  0  0  0  0  0  0  0
    4.9509   -0.0495    0.0000 C   0  0  0  0  0  0  0  0  0  0  0  0
    5.6655   -2.1120    0.0000 C   0  0  0  0  0  0  0  0  0  0  0  0
    4.2365    1.1880    0.0000 C   0  0  0  0  0  0  0  0  0  0  0  0
    2.8075    1.1880    0.0000 C   0  0  0  0  0  0  0  0  0  0  0  0
  1  8  1  0  0  0  0
  1 10  2  0  0  0  0
  2 10  1  0  0  0  0
  2 11  2  0  0  0  0
  3 10  1  0  0  0  0
  4 11  1  0  0  0  0
  5 11  1  0  0  0  0
  6  7  1  0  0  0  0
  6  8  1  0  0  0  0
  7  9  1  0  0  0  0
M  END
> <DATABASE_ID>
DB04830

> <DATABASE_NAME>
drugbank

> <SMILES>
CCCC\N=C(/N)N=C(N)N

> <INCHI_IDENTIFIER>
InChI=1S/C6H15N5/c1-2-3-4-10-6(9)11-5(7)8/h2-4H2,1H3,(H6,7,8,9,10,11)

> <INCHI_KEY>
XSEUMFJMFFMCIU-UHFFFAOYSA-N

> <FORMULA>
C6H15N5

> <MOLECULAR_WEIGHT>
157.2168

> <EXACT_MASS>
157.132745505

> <JCHEM_ACCEPTOR_COUNT>
5

> <JCHEM_AVERAGE_POLARIZABILITY>
17.66519312569613

> <JCHEM_BIOAVAILABILITY>
1

> <JCHEM_DONOR_COUNT>
3

> <JCHEM_FORMAL_CHARGE>
0

> <JCHEM_GHOSE_FILTER>
0

> <JCHEM_IUPAC>
(E)-2-butyl-1-(diaminomethylidene)guanidine

> <ALOGPS_LOGP>
-0.46

> <JCHEM_LOGP>
-0.35017630533333305

> <ALOGPS_LOGS>
-2.05

> <JCHEM_MDDR_LIKE_RULE>
0

> <JCHEM_NUMBER_OF_RINGS>
0

> <JCHEM_PHYSIOLOGICAL_CHARGE>
2

> <JCHEM_PKA_STRONGEST_BASIC>
11.520336235711333

> <JCHEM_POLAR_SURFACE_AREA>
102.77999999999999

> <JCHEM_REFRACTIVITY>
44.635999999999996

> <JCHEM_ROTATABLE_BOND_COUNT>
3

> <JCHEM_RULE_OF_FIVE>
1

> <ALOGPS_SOLUBILITY>
1.41e+00 g/l

> <JCHEM_TRADITIONAL_IUPAC>
buformin

> <JCHEM_VEBER_RULE>
0

> <DRUGBANK_ID>
DB04830

> <DRUG_GROUPS>
withdrawn

> <GENERIC_NAME>
Buformin

> <SYNONYMS>
1-Butylbiguanide; Buformina; Buformine; Buforminum

> <INTERNATIONAL_BRANDS>
Adebit; Biforon; Bigunal; Silubin; Ziavetine

> <SALTS>
Buformin Hydrochloride

$$$$
4831
  Mrv0541 02231217572D          

 20 21  0  0  0  0            999 V2000
    1.6500    1.2035    0.0000 Cl  0  0  0  0  0  0  0  0  0  0  0  0
    1.6500   -0.4465    0.0000 Cl  0  0  0  0  0  0  0  0  0  0  0  0
    3.8797    3.2615    0.0000 S   0  0  0  0  0  0  0  0  0  0  0  0
    3.0790   -1.2715    0.0000 O   0  0  0  0  0  0  0  0  0  0  0  0
    2.3645    2.4410    0.0000 O   0  0  0  0  0  0  0  0  0  0  0  0
    4.5080   -2.9215    0.0000 O   0  0  0  0  0  0  0  0  0  0  0  0
    3.0790   -2.9215    0.0000 O   0  0  0  0  0  0  0  0  0  0  0  0
    3.0790    1.2035    0.0000 C   0  0  0  0  0  0  0  0  0  0  0  0
    3.0790   -0.4465    0.0000 C   0  0  0  0  0  0  0  0  0  0  0  0
    2.3645    0.7910    0.0000 C   0  0  0  0  0  0  0  0  0  0  0  0
    3.7935    0.7910    0.0000 C   0  0  0  0  0  0  0  0  0  0  0  0
    3.0790    2.0285    0.0000 C   0  0  0  0  0  0  0  0  0  0  0  0
    2.3645   -0.0340    0.0000 C   0  0  0  0  0  0  0  0  0  0  0  0
    3.7935   -0.0340    0.0000 C   0  0  0  0  0  0  0  0  0  0  0  0
    3.7935    2.4410    0.0000 C   0  0  0  0  0  0  0  0  0  0  0  0
    4.5471    2.1054    0.0000 C   0  0  0  0  0  0  0  0  0  0  0  0
    3.7935   -1.6840    0.0000 C   0  0  0  0  0  0  0  0  0  0  0  0
    5.0992    2.7186    0.0000 C   0  0  0  0  0  0  0  0  0  0  0  0
    4.6867    3.4330    0.0000 C   0  0  0  0  0  0  0  0  0  0  0  0
    3.7935   -2.5090    0.0000 C   0  0  0  0  0  0  0  0  0  0  0  0
  1 10  1  0  0  0  0
  2 13  1  0  0  0  0
  3 15  1  0  0  0  0
  3 19  1  0  0  0  0
  4  9  1  0  0  0  0
  4 17  1  0  0  0  0
  5 12  2  0  0  0  0
  6 20  1  0  0  0  0
  7 20  2  0  0  0  0
  8 10  2  0  0  0  0
  8 11  1  0  0  0  0
  8 12  1  0  0  0  0
  9 13  2  0  0  0  0
  9 14  1  0  0  0  0
 10 13  1  0  0  0  0
 11 14  2  0  0  0  0
 12 15  1  0  0  0  0
 15 16  2  0  0  0  0
 16 18  1  0  0  0  0
 17 20  1  0  0  0  0
 18 19  2  0  0  0  0
M  END
> <DATABASE_ID>
DB04831

> <DATABASE_NAME>
drugbank

> <SMILES>
OC(=O)COC1=C(Cl)C(Cl)=C(C=C1)C(=O)C1=CC=CS1

> <INCHI_IDENTIFIER>
InChI=1S/C13H8Cl2O4S/c14-11-7(13(18)9-2-1-5-20-9)3-4-8(12(11)15)19-6-10(16)17/h1-5H,6H2,(H,16,17)

> <INCHI_KEY>
AGHANLSBXUWXTB-UHFFFAOYSA-N

> <FORMULA>
C13H8Cl2O4S

> <MOLECULAR_WEIGHT>
331.171

> <EXACT_MASS>
329.952034848

> <JCHEM_ACCEPTOR_COUNT>
4

> <JCHEM_AVERAGE_POLARIZABILITY>
30.445744499098673

> <JCHEM_BIOAVAILABILITY>
1

> <JCHEM_DONOR_COUNT>
1

> <JCHEM_FORMAL_CHARGE>
0

> <JCHEM_GHOSE_FILTER>
1

> <JCHEM_IUPAC>
2-[2,3-dichloro-4-(thiophene-2-carbonyl)phenoxy]acetic acid

> <ALOGPS_LOGP>
4.09

> <JCHEM_LOGP>
3.8738816216666665

> <ALOGPS_LOGS>
-5.12

> <JCHEM_MDDR_LIKE_RULE>
0

> <JCHEM_NUMBER_OF_RINGS>
2

> <JCHEM_PHYSIOLOGICAL_CHARGE>
-1

> <JCHEM_PKA_STRONGEST_ACIDIC>
3.2171626547226753

> <JCHEM_PKA_STRONGEST_BASIC>
-4.964762193339346

> <JCHEM_POLAR_SURFACE_AREA>
63.6

> <JCHEM_REFRACTIVITY>
75.6808

> <JCHEM_ROTATABLE_BOND_COUNT>
5

> <JCHEM_RULE_OF_FIVE>
1

> <ALOGPS_SOLUBILITY>
2.54e-03 g/l

> <JCHEM_TRADITIONAL_IUPAC>
ticrynafen

> <JCHEM_VEBER_RULE>
0

> <DRUGBANK_ID>
DB04831

> <DRUG_GROUPS>
withdrawn

> <GENERIC_NAME>
Ticrynafen

> <SYNONYMS>
4-(2-Theonyl)-2,3-dichlorphenoxyessigsaeure; Acide tienilique; Acido tienilico; Acidum tienilicum; Tienilico acido

$$$$
4832
  Mrv0541 02231217572D          

 19 20  0  0  0  0            999 V2000
    3.7935   -2.8876    0.0000 Br  0  0  0  0  0  0  0  0  0  0  0  0
    2.3645    2.0625    0.0000 N   0  0  0  0  0  0  0  0  0  0  0  0
    5.9370    0.8250    0.0000 N   0  0  0  0  0  0  0  0  0  0  0  0
    3.7935    0.4125    0.0000 C   0  0  0  0  0  0  0  0  0  0  0  0
    3.0791    1.6500    0.0000 C   0  0  0  0  0  0  0  0  0  0  0  0
    3.0791    0.8250    0.0000 C   0  0  0  0  0  0  0  0  0  0  0  0
    3.7935   -0.4125    0.0000 C   0  0  0  0  0  0  0  0  0  0  0  0
    4.5080    0.8250    0.0000 C   0  0  0  0  0  0  0  0  0  0  0  0
    4.5080   -0.8250    0.0000 C   0  0  0  0  0  0  0  0  0  0  0  0
    3.0791   -0.8250    0.0000 C   0  0  0  0  0  0  0  0  0  0  0  0
    2.3645    2.8876    0.0000 C   0  0  0  0  0  0  0  0  0  0  0  0
    1.6500    1.6500    0.0000 C   0  0  0  0  0  0  0  0  0  0  0  0
    4.5080    1.6500    0.0000 C   0  0  0  0  0  0  0  0  0  0  0  0
    5.2224    0.4125    0.0000 C   0  0  0  0  0  0  0  0  0  0  0  0
    4.5080   -1.6500    0.0000 C   0  0  0  0  0  0  0  0  0  0  0  0
    3.0791   -1.6500    0.0000 C   0  0  0  0  0  0  0  0  0  0  0  0
    3.7935   -2.0625    0.0000 C   0  0  0  0  0  0  0  0  0  0  0  0
    5.2224    2.0625    0.0000 C   0  0  0  0  0  0  0  0  0  0  0  0
    5.9370    1.6500    0.0000 C   0  0  0  0  0  0  0  0  0  0  0  0
  1 17  1  0  0  0  0
  2  5  1  0  0  0  0
  2 11  1  0  0  0  0
  2 12  1  0  0  0  0
  3 14  1  0  0  0  0
  3 19  2  0  0  0  0
  4  6  2  3  0  0  0
  4  7  1  0  0  0  0
  4  8  1  0  0  0  0
  5  6  1  0  0  0  0
  7  9  2  0  0  0  0
  7 10  1  0  0  0  0
  8 13  1  0  0  0  0
  8 14  2  0  0  0  0
  9 15  1  0  0  0  0
 10 16  2  0  0  0  0
 13 18  2  0  0  0  0
 15 17  2  0  0  0  0
 16 17  1  0  0  0  0
 18 19  1  0  0  0  0
M  END
> <DATABASE_ID>
DB04832

> <DATABASE_NAME>
drugbank

> <SMILES>
CN(C)CC=C(C1=CC=C(Br)C=C1)C1=CN=CC=C1

> <INCHI_IDENTIFIER>
InChI=1S/C16H17BrN2/c1-19(2)11-9-16(14-4-3-10-18-12-14)13-5-7-15(17)8-6-13/h3-10,12H,11H2,1-2H3

> <INCHI_KEY>
OYPPVKRFBIWMSX-UHFFFAOYSA-N

> <FORMULA>
C16H17BrN2

> <MOLECULAR_WEIGHT>
317.224

> <EXACT_MASS>
316.057511201

> <JCHEM_ACCEPTOR_COUNT>
2

> <JCHEM_AVERAGE_POLARIZABILITY>
30.95537600679925

> <JCHEM_BIOAVAILABILITY>
1

> <JCHEM_DONOR_COUNT>
0

> <JCHEM_FORMAL_CHARGE>
0

> <JCHEM_GHOSE_FILTER>
1

> <JCHEM_IUPAC>
[3-(4-bromophenyl)-3-(pyridin-3-yl)prop-2-en-1-yl]dimethylamine

> <ALOGPS_LOGP>
3.39

> <JCHEM_LOGP>
3.5088370323333335

> <ALOGPS_LOGS>
-4.12

> <JCHEM_MDDR_LIKE_RULE>
0

> <JCHEM_NUMBER_OF_RINGS>
2

> <JCHEM_PHYSIOLOGICAL_CHARGE>
1

> <JCHEM_PKA_STRONGEST_BASIC>
8.615206433244522

> <JCHEM_POLAR_SURFACE_AREA>
16.130000000000003

> <JCHEM_REFRACTIVITY>
93.93790000000001

> <JCHEM_ROTATABLE_BOND_COUNT>
4

> <JCHEM_RULE_OF_FIVE>
1

> <ALOGPS_SOLUBILITY>
2.39e-02 g/l

> <JCHEM_TRADITIONAL_IUPAC>
zelmid

> <JCHEM_VEBER_RULE>
1

> <DRUGBANK_ID>
DB04832

> <DRUG_GROUPS>
withdrawn

> <GENERIC_NAME>
Zimelidine

$$$$
4833
  Mrv0541 02231217572D          

 19 21  0  0  0  0            999 V2000
    4.5079   -1.0455    0.0000 O   0  0  0  0  0  0  0  0  0  0  0  0
    3.7934    0.1920    0.0000 N   0  0  0  0  0  0  0  0  0  0  0  0
    4.5079    1.4295    0.0000 N   0  0  0  0  0  0  0  0  0  0  0  0
    3.0790   -0.2205    0.0000 C   0  0  0  0  0  0  0  0  0  0  0  0
    3.7934    1.0170    0.0000 C   0  0  0  0  0  0  0  0  0  0  0  0
    5.2223    0.1920    0.0000 C   0  0  0  0  0  0  0  0  0  0  0  0
    4.5079   -0.2205    0.0000 C   0  0  0  0  0  0  0  0  0  0  0  0
    2.3645    0.1920    0.0000 C   0  0  0  0  0  0  0  0  0  0  0  0
    5.2223    1.0170    0.0000 C   0  0  0  0  0  0  0  0  0  0  0  0
    3.0790   -1.0455    0.0000 C   0  0  0  0  0  0  0  0  0  0  0  0
    5.9599   -0.2492    0.0000 C   0  0  0  0  0  0  0  0  0  0  0  0
    3.0790    1.4295    0.0000 C   0  0  0  0  0  0  0  0  0  0  0  0
    1.6500   -0.2205    0.0000 C   0  0  0  0  0  0  0  0  0  0  0  0
    5.9599    1.4580    0.0000 C   0  0  0  0  0  0  0  0  0  0  0  0
    2.3645    1.0170    0.0000 C   0  0  0  0  0  0  0  0  0  0  0  0
    2.3645   -1.4580    0.0000 C   0  0  0  0  0  0  0  0  0  0  0  0
    1.6500   -1.0455    0.0000 C   0  0  0  0  0  0  0  0  0  0  0  0
    6.7073    0.1748    0.0000 C   0  0  0  0  0  0  0  0  0  0  0  0
    6.7073    1.0341    0.0000 C   0  0  0  0  0  0  0  0  0  0  0  0
  1  7  2  0  0  0  0
  2  4  1  0  0  0  0
  2  5  1  0  0  0  0
  2  7  1  0  0  0  0
  3  5  2  0  0  0  0
  3  9  1  0  0  0  0
  4  8  1  0  0  0  0
  4 10  2  0  0  0  0
  5 12  1  0  0  0  0
  6  7  1  0  0  0  0
  6  9  1  0  0  0  0
  6 11  2  0  0  0  0
  8 13  2  0  0  0  0
  8 15  1  0  0  0  0
  9 14  2  0  0  0  0
 10 16  1  0  0  0  0
 11 18  1  0  0  0  0
 13 17  1  0  0  0  0
 14 19  1  0  0  0  0
 16 17  2  0  0  0  0
 18 19  2  0  0  0  0
M  END
> <DATABASE_ID>
DB04833

> <DATABASE_NAME>
drugbank

> <SMILES>
CC1=CC=CC=C1N1C(C)=NC2=CC=CC=C2C1=O

> <INCHI_IDENTIFIER>
InChI=1S/C16H14N2O/c1-11-7-3-6-10-15(11)18-12(2)17-14-9-5-4-8-13(14)16(18)19/h3-10H,1-2H3

> <INCHI_KEY>
JEYCTXHKTXCGPB-UHFFFAOYSA-N

> <FORMULA>
C16H14N2O

> <MOLECULAR_WEIGHT>
250.2952

> <EXACT_MASS>
250.11061308

> <JCHEM_ACCEPTOR_COUNT>
2

> <JCHEM_AVERAGE_POLARIZABILITY>
27.315539103742815

> <JCHEM_BIOAVAILABILITY>
1

> <JCHEM_DONOR_COUNT>
0

> <JCHEM_FORMAL_CHARGE>
0

> <JCHEM_GHOSE_FILTER>
1

> <JCHEM_IUPAC>
2-methyl-3-(2-methylphenyl)-3,4-dihydroquinazolin-4-one

> <ALOGPS_LOGP>
2.54

> <JCHEM_LOGP>
3.1684964050000004

> <ALOGPS_LOGS>
-3.79

> <JCHEM_MDDR_LIKE_RULE>
0

> <JCHEM_NUMBER_OF_RINGS>
3

> <JCHEM_PHYSIOLOGICAL_CHARGE>
0

> <JCHEM_PKA_STRONGEST_BASIC>
-1.2210770832257203

> <JCHEM_POLAR_SURFACE_AREA>
32.67

> <JCHEM_REFRACTIVITY>
77.10540000000002

> <JCHEM_ROTATABLE_BOND_COUNT>
0

> <JCHEM_RULE_OF_FIVE>
1

> <ALOGPS_SOLUBILITY>
4.07e-02 g/l

> <JCHEM_TRADITIONAL_IUPAC>
sonal

> <JCHEM_VEBER_RULE>
1

> <DRUGBANK_ID>
DB04833

> <DRUG_GROUPS>
illicit; withdrawn

> <GENERIC_NAME>
Methaqualone

> <INTERNATIONAL_BRANDS>
Quaalude

$$$$

  Mrv1572004031602562D          

 47 52  0  0  0  0            999 V2000
    1.1052    0.6898    0.0000 C   0  0  1  0  0  0  0  0  0  0  0  0
   -1.0469   -0.5344    0.0000 C   0  0  1  0  0  0  0  0  0  0  0  0
    1.0955   -0.1263    0.0000 C   0  0  2  0  0  0  0  0  0  0  0  0
    1.8923    0.9376    0.0000 C   0  0  2  0  0  0  0  0  0  0  0  0
    2.3636    0.2671    0.0000 C   0  0  1  0  0  0  0  0  0  0  0  0
   -0.3327   -0.1214    0.0000 C   0  0  2  0  0  0  0  0  0  0  0  0
    0.3814   -0.5344    0.0000 C   0  0  1  0  0  0  0  0  0  0  0  0
    3.1944    0.2575    0.0000 N   0  3  0  0  0  0  0  0  0  0  0  0
   -2.4753   -0.5344    0.0000 C   0  0  2  0  0  0  0  0  0  0  0  0
   -2.4753   -1.3603    0.0000 C   0  0  2  0  0  0  0  0  0  0  0  0
    1.8777   -0.3983    0.0000 C   0  0  0  0  0  0  0  0  0  0  0  0
   -1.7611   -0.1214    0.0000 C   0  0  0  0  0  0  0  0  0  0  0  0
   -1.0469   -1.3603    0.0000 C   0  0  2  0  0  0  0  0  0  0  0  0
   -3.1895   -0.1214    0.0000 N   0  0  0  0  0  0  0  0  0  0  0  0
    0.3910    1.1125    0.0000 C   0  0  0  0  0  0  0  0  0  0  0  0
    1.8826    1.7684    0.0000 O   0  0  0  0  0  0  0  0  0  0  0  0
   -1.7611   -1.7733    0.0000 C   0  0  0  0  0  0  0  0  0  0  0  0
   -0.3327    0.7044    0.0000 C   0  0  0  0  0  0  0  0  0  0  0  0
   -3.1895   -1.7684    0.0000 O   0  0  0  0  0  0  0  0  0  0  0  0
    0.3765   -1.3652    0.0000 C   0  0  0  0  0  0  0  0  0  0  0  0
    2.5968    2.1911    0.0000 C   0  0  0  0  0  0  0  0  0  0  0  0
   -3.1895   -2.5895    0.0000 C   0  0  0  0  0  0  0  0  0  0  0  0
   -0.3376   -1.7733    0.0000 C   0  0  0  0  0  0  0  0  0  0  0  0
   -2.4753   -3.0122    0.0000 O   0  0  0  0  0  0  0  0  0  0  0  0
    2.5919    3.0122    0.0000 O   0  0  0  0  0  0  0  0  0  0  0  0
    2.4656   -0.9716    0.0000 C   0  0  0  0  0  0  0  0  0  0  0  0
    3.1895   -0.5635    0.0000 C   0  0  0  0  0  0  0  0  0  0  0  0
    2.4656   -1.8024    0.0000 C   0  0  0  0  0  0  0  0  0  0  0  0
    1.0955    1.5206    0.0000 C   0  0  0  0  0  0  0  0  0  0  0  0
   -1.0518    0.2963    0.0000 C   0  0  0  0  0  0  0  0  0  0  0  0
    3.1944    1.0833    0.0000 C   0  0  0  0  0  0  0  0  0  0  0  0
    3.9036   -0.1554    0.0000 C   0  0  0  0  0  0  0  0  0  0  0  0
   -3.1895    0.7093    0.0000 C   0  0  0  0  0  0  0  0  0  0  0  0
   -3.9036   -0.5344    0.0000 C   0  0  0  0  0  0  0  0  0  0  0  0
    3.3110    1.7830    0.0000 C   0  0  0  0  0  0  0  0  0  0  0  0
   -3.9036   -3.0073    0.0000 C   0  0  0  0  0  0  0  0  0  0  0  0
    4.6178    0.2575    0.0000 C   0  0  0  0  0  0  0  0  0  0  0  0
    3.9036    1.4963    0.0000 C   0  0  0  0  0  0  0  0  0  0  0  0
    4.0251    2.1960    0.0000 C   0  0  0  0  0  0  0  0  0  0  0  0
   -3.8940    1.1174    0.0000 C   0  0  0  0  0  0  0  0  0  0  0  0
   -4.6178   -0.1117    0.0000 C   0  0  0  0  0  0  0  0  0  0  0  0
   -4.6178    0.7093    0.0000 C   0  0  0  0  0  0  0  0  0  0  0  0
    4.6178    1.0833    0.0000 C   0  0  0  0  0  0  0  0  0  0  0  0
   -1.0518   -2.1814    0.0000 H   0  0  0  0  0  0  0  0  0  0  0  0
   -0.3376   -0.9425    0.0000 H   0  0  0  0  0  0  0  0  0  0  0  0
    1.0906   -0.9571    0.0000 H   0  0  0  0  0  0  0  0  0  0  0  0
    0.3765    0.2866    0.0000 H   0  0  0  0  0  0  0  0  0  0  0  0
  2  6  1  0  0  0  0
  3  1  1  0  0  0  0
  4  1  1  0  0  0  0
  5  4  1  0  0  0  0
  6 18  1  0  0  0  0
  7  3  1  0  0  0  0
  5  8  1  1  0  0  0
  9 12  1  0  0  0  0
 10 17  1  0  0  0  0
 11  3  1  0  0  0  0
 12  2  1  0  0  0  0
 13  2  1  0  0  0  0
  9 14  1  1  0  0  0
 15  1  1  0  0  0  0
  4 16  1  1  0  0  0
 17 13  1  0  0  0  0
 18 15  1  0  0  0  0
 10 19  1  6  0  0  0
 20  7  1  0  0  0  0
 21 16  1  0  0  0  0
 22 19  1  0  0  0  0
 23 20  1  0  0  0  0
 24 22  2  0  0  0  0
 25 21  2  0  0  0  0
 26 27  1  0  0  0  0
 27  8  1  0  0  0  0
 28 26  2  0  0  0  0
  1 29  1  1  0  0  0
  2 30  1  1  0  0  0
 31  8  1  0  0  0  0
 32  8  1  0  0  0  0
 33 14  1  0  0  0  0
 34 14  1  0  0  0  0
 35 21  1  0  0  0  0
 36 22  1  0  0  0  0
 37 32  1  0  0  0  0
 38 31  1  0  0  0  0
 39 35  1  0  0  0  0
 40 33  1  0  0  0  0
 41 34  1  0  0  0  0
 42 40  1  0  0  0  0
 43 38  1  0  0  0  0
 13 44  1  6  0  0  0
  6 45  1  6  0  0  0
  3 46  1  6  0  0  0
  7 47  1  1  0  0  0
  5 11  1  0  0  0  0
  6  7  1  0  0  0  0
 23 13  1  0  0  0  0
 43 37  1  0  0  0  0
 10  9  1  0  0  0  0
 42 41  1  0  0  0  0
M  CHG  1   8   1
M  END
> <DATABASE_ID>
DB04834

> <DATABASE_NAME>
drugbank

> <SMILES>
[H][C@@]12C[C@@H]([C@H](OC(=O)CC)[C@@]1(C)CC[C@@]1([H])[C@@]2([H])CC[C@@]2([H])C[C@H](OC(C)=O)[C@H](C[C@]12C)N1CCCCC1)[N+]1(CC=C)CCCCC1

> <INCHI_IDENTIFIER>
InChI=1S/C37H61N2O4/c1-6-20-39(21-12-9-13-22-39)32-24-30-28-15-14-27-23-33(42-26(3)40)31(38-18-10-8-11-19-38)25-37(27,5)29(28)16-17-36(30,4)35(32)43-34(41)7-2/h6,27-33,35H,1,7-25H2,2-5H3/q+1/t27-,28+,29-,30-,31-,32-,33-,35-,36-,37-/m0/s1

> <INCHI_KEY>
HTIKWNNIPGXLGM-YLINKJIISA-N

> <FORMULA>
C37H61N2O4

> <MOLECULAR_WEIGHT>
597.904

> <EXACT_MASS>
597.462584872

> <JCHEM_ACCEPTOR_COUNT>
3

> <JCHEM_ATOM_COUNT>
104

> <JCHEM_AVERAGE_POLARIZABILITY>
72.24784322057764

> <JCHEM_BIOAVAILABILITY>
1

> <JCHEM_DONOR_COUNT>
0

> <JCHEM_FORMAL_CHARGE>
1

> <JCHEM_GHOSE_FILTER>
0

> <JCHEM_IUPAC>
1-[(1S,2S,4S,5S,7S,10R,11S,13S,14R,15S)-5-(acetyloxy)-2,15-dimethyl-4-(piperidin-1-yl)-14-(propanoyloxy)tetracyclo[8.7.0.0²,⁷.0¹¹,¹⁵]heptadecan-13-yl]-1-(prop-2-en-1-yl)piperidin-1-ium

> <ALOGPS_LOGP>
3.79

> <JCHEM_LOGP>
2.3238748235282536

> <ALOGPS_LOGS>
-8.13

> <JCHEM_MDDR_LIKE_RULE>
1

> <JCHEM_NUMBER_OF_RINGS>
6

> <JCHEM_PHYSIOLOGICAL_CHARGE>
2

> <JCHEM_PKA_STRONGEST_BASIC>
9.648388180869917

> <JCHEM_POLAR_SURFACE_AREA>
55.84

> <JCHEM_REFRACTIVITY>
183.09799999999996

> <JCHEM_ROTATABLE_BOND_COUNT>
9

> <JCHEM_RULE_OF_FIVE>
0

> <ALOGPS_SOLUBILITY>
4.64e-06 g/l

> <JCHEM_TRADITIONAL_IUPAC>
1-[(1S,2S,4S,5S,7S,10R,11S,13S,14R,15S)-5-(acetyloxy)-2,15-dimethyl-4-(piperidin-1-yl)-14-(propanoyloxy)tetracyclo[8.7.0.0²,⁷.0¹¹,¹⁵]heptadecan-13-yl]-1-(prop-2-en-1-yl)piperidin-1-ium

> <JCHEM_VEBER_RULE>
0

> <DRUGBANK_ID>
DB04834

> <DRUG_GROUPS>
withdrawn

> <GENERIC_NAME>
Rapacuronium

> <SALTS>
Rapacuronium bromide

$$$$
4836
  Mrv0541 02231217572D          

 26 27  0  0  0  0            999 V2000
    0.0000    4.0865    0.0000 Cl  0  5  0  0  0  0  0  0  0  0  0  0
    2.1028    0.5115    0.0000 O   0  0  0  0  0  0  0  0  0  0  0  0
    3.5317    0.5115    0.0000 O   0  0  0  0  0  0  0  0  0  0  0  0
    4.9606    5.4611    0.0000 N   0  3  0  0  0  0  0  0  0  0  0  0
    4.9606    6.2860    0.0000 C   0  0  0  0  0  0  0  0  0  0  0  0
    5.7038    6.6440    0.0000 C   0  0  0  0  0  0  0  0  0  0  0  0
    4.2173    6.6440    0.0000 C   0  0  0  0  0  0  0  0  0  0  0  0
    4.9606    4.6361    0.0000 C   0  0  0  0  0  0  0  0  0  0  0  0
    5.8874    7.4482    0.0000 C   0  0  0  0  0  0  0  0  0  0  0  0
    4.0338    7.4482    0.0000 C   0  0  0  0  0  0  0  0  0  0  0  0
    5.3731    8.0930    0.0000 C   0  0  0  0  0  0  0  0  0  0  0  0
    4.5481    8.0930    0.0000 C   0  0  0  0  0  0  0  0  0  0  0  0
    4.2461    4.2237    0.0000 C   0  0  0  0  0  0  0  0  0  0  0  0
    4.2461    3.3987    0.0000 C   0  0  0  0  0  0  0  0  0  0  0  0
    6.3246    6.0498    0.0000 C   0  0  0  0  0  0  0  0  0  0  0  0
    3.5965    6.0498    0.0000 C   0  0  0  0  0  0  0  0  0  0  0  0
    3.5317    2.9863    0.0000 C   0  0  0  0  0  0  0  0  0  0  0  0
    6.7044    7.7141    0.0000 C   0  0  0  0  0  0  0  0  0  0  0  0
    3.2166    7.7141    0.0000 C   0  0  0  0  0  0  0  0  0  0  0  0
    3.5317    2.1613    0.0000 C   0  0  0  0  0  0  0  0  0  0  0  0
    7.1476    6.2967    0.0000 C   0  0  0  0  0  0  0  0  0  0  0  0
    2.7735    6.2967    0.0000 C   0  0  0  0  0  0  0  0  0  0  0  0
    7.3388    7.1344    0.0000 C   0  0  0  0  0  0  0  0  0  0  0  0
    2.5823    7.1345    0.0000 C   0  0  0  0  0  0  0  0  0  0  0  0
    2.8173    1.7489    0.0000 C   0  0  0  0  0  0  0  0  0  0  0  0
    2.8173    0.9239    0.0000 C   0  0  0  0  0  0  0  0  0  0  0  0
  2 26  1  0  0  0  0
  3 26  2  0  0  0  0
  4  5  1  0  0  0  0
  4  8  1  0  0  0  0
  5  6  1  0  0  0  0
  5  7  1  0  0  0  0
  6  9  1  0  0  0  0
  6 15  2  0  0  0  0
  7 10  1  0  0  0  0
  7 16  2  0  0  0  0
  8 13  1  0  0  0  0
  9 11  1  0  0  0  0
  9 18  2  0  0  0  0
 10 12  1  0  0  0  0
 10 19  2  0  0  0  0
 11 12  1  0  0  0  0
 13 14  1  0  0  0  0
 14 17  1  0  0  0  0
 15 21  1  0  0  0  0
 16 22  1  0  0  0  0
 17 20  1  0  0  0  0
 18 23  1  0  0  0  0
 19 24  1  0  0  0  0
 20 25  1  0  0  0  0
 21 23  2  0  0  0  0
 22 24  2  0  0  0  0
 25 26  1  0  0  0  0
M  CHG  2   1  -1   4   1
M  END
> <DATABASE_ID>
DB04836

> <DATABASE_NAME>
drugbank

> <SMILES>
[Cl-].OC(=O)CCCCCC[NH2+]C1C2=CC=CC=C2CCC2=CC=CC=C12

> <INCHI_IDENTIFIER>
InChI=1S/C22H27NO2.ClH/c24-21(25)13-3-1-2-8-16-23-22-19-11-6-4-9-17(19)14-15-18-10-5-7-12-20(18)22;/h4-7,9-12,22-23H,1-3,8,13-16H2,(H,24,25);1H

> <INCHI_KEY>
VDPUXONTAVMIKZ-UHFFFAOYSA-N

> <FORMULA>
C22H28ClNO2

> <MOLECULAR_WEIGHT>
373.916

> <EXACT_MASS>
373.180856852

> <JCHEM_ACCEPTOR_COUNT>
2

> <JCHEM_AVERAGE_POLARIZABILITY>
39.952128712788394

> <JCHEM_BIOAVAILABILITY>
1

> <JCHEM_DONOR_COUNT>
2

> <JCHEM_FORMAL_CHARGE>
0

> <JCHEM_GHOSE_FILTER>
1

> <JCHEM_IUPAC>
N-(6-carboxyhexyl)tricyclo[9.4.0.0³,⁸]pentadeca-1(15),3,5,7,11,13-hexaen-2-aminium chloride

> <ALOGPS_LOGP>
0.99

> <JCHEM_LOGP>
2.7436760857143607

> <ALOGPS_LOGS>
-7.31

> <JCHEM_MDDR_LIKE_RULE>
1

> <JCHEM_NUMBER_OF_RINGS>
3

> <JCHEM_PHYSIOLOGICAL_CHARGE>
0

> <JCHEM_PKA_STRONGEST_ACIDIC>
4.413070246541591

> <JCHEM_PKA_STRONGEST_BASIC>
9.463904179434666

> <JCHEM_POLAR_SURFACE_AREA>
53.91

> <JCHEM_REFRACTIVITY>
112.62590000000003

> <JCHEM_ROTATABLE_BOND_COUNT>
8

> <JCHEM_RULE_OF_FIVE>
1

> <ALOGPS_SOLUBILITY>
1.84e-05 g/l

> <JCHEM_TRADITIONAL_IUPAC>
N-(6-carboxyhexyl)tricyclo[9.4.0.0³,⁸]pentadeca-1(15),3,5,7,11,13-hexaen-2-aminium chloride

> <JCHEM_VEBER_RULE>
0

> <DRUGBANK_ID>
DB04836

> <DRUG_GROUPS>
illicit; withdrawn

> <GENERIC_NAME>
Amineptine

> <INTERNATIONAL_BRANDS>
Directim; Maneon; Neolior; Provector; Survector; Viaspera

> <SALTS>
Amineptine hydrochloride

$$$$
4837
  Mrv0541 02231217572D          

 20 21  0  0  1  0            999 V2000
    1.6500   -0.8250    0.0000 Cl  0  0  0  0  0  0  0  0  0  0  0  0
    2.2540    0.0000    0.0000 O   0  0  0  0  0  0  0  0  0  0  0  0
    5.1415    0.7144    0.0000 N   0  0  0  0  0  0  0  0  0  0  0  0
    3.0790    0.0000    0.0000 C   0  0  0  0  0  0  0  0  0  0  0  0
    3.9040    0.0000    0.0000 C   0  0  0  0  0  0  0  0  0  0  0  0
    4.3165    0.7144    0.0000 C   0  0  0  0  0  0  0  0  0  0  0  0
    3.0790   -0.8250    0.0000 C   0  0  0  0  0  0  0  0  0  0  0  0
    3.0790    0.8250    0.0000 C   0  0  0  0  0  0  0  0  0  0  0  0
    2.3644   -1.2375    0.0000 C   0  0  0  0  0  0  0  0  0  0  0  0
    3.7934   -1.2375    0.0000 C   0  0  0  0  0  0  0  0  0  0  0  0
    2.3644    1.2375    0.0000 C   0  0  0  0  0  0  0  0  0  0  0  0
    3.7934    1.2375    0.0000 C   0  0  0  0  0  0  0  0  0  0  0  0
    5.5540    1.4290    0.0000 C   0  0  0  0  0  0  0  0  0  0  0  0
    5.5540    0.0000    0.0000 C   0  0  0  0  0  0  0  0  0  0  0  0
    2.3644   -2.0625    0.0000 C   0  0  0  0  0  0  0  0  0  0  0  0
    3.7934   -2.0625    0.0000 C   0  0  0  0  0  0  0  0  0  0  0  0
    2.3644    2.0625    0.0000 C   0  0  0  0  0  0  0  0  0  0  0  0
    3.7934    2.0625    0.0000 C   0  0  0  0  0  0  0  0  0  0  0  0
    3.0790   -2.4750    0.0000 C   0  0  0  0  0  0  0  0  0  0  0  0
    3.0790    2.4750    0.0000 C   0  0  0  0  0  0  0  0  0  0  0  0
  1  9  1  0  0  0  0
  2  4  1  0  0  0  0
  3  6  1  0  0  0  0
  3 13  1  0  0  0  0
  3 14  1  0  0  0  0
  4  5  1  0  0  0  0
  4  7  1  0  0  0  0
  4  8  1  0  0  0  0
  5  6  1  0  0  0  0
  7  9  1  0  0  0  0
  7 10  2  0  0  0  0
  8 11  2  0  0  0  0
  8 12  1  0  0  0  0
  9 15  2  0  0  0  0
 10 16  1  0  0  0  0
 11 17  1  0  0  0  0
 12 18  2  0  0  0  0
 15 19  1  0  0  0  0
 16 19  2  0  0  0  0
 17 20  2  0  0  0  0
 18 20  1  0  0  0  0
M  END
> <DATABASE_ID>
DB04837

> <DATABASE_NAME>
drugbank

> <SMILES>
CN(C)CCC(O)(C1=CC=CC=C1)C1=CC=CC=C1Cl

> <INCHI_IDENTIFIER>
InChI=1S/C17H20ClNO/c1-19(2)13-12-17(20,14-8-4-3-5-9-14)15-10-6-7-11-16(15)18/h3-11,20H,12-13H2,1-2H3

> <INCHI_KEY>
WRCHFMBCVFFYEQ-UHFFFAOYSA-N

> <FORMULA>
C17H20ClNO

> <MOLECULAR_WEIGHT>
289.8

> <EXACT_MASS>
289.123341974

> <JCHEM_ACCEPTOR_COUNT>
2

> <JCHEM_AVERAGE_POLARIZABILITY>
31.252676189880283

> <JCHEM_BIOAVAILABILITY>
1

> <JCHEM_DONOR_COUNT>
1

> <JCHEM_FORMAL_CHARGE>
0

> <JCHEM_GHOSE_FILTER>
1

> <JCHEM_IUPAC>
1-(2-chlorophenyl)-3-(dimethylamino)-1-phenylpropan-1-ol

> <ALOGPS_LOGP>
3.51

> <JCHEM_LOGP>
3.4578342819999994

> <ALOGPS_LOGS>
-3.67

> <JCHEM_MDDR_LIKE_RULE>
0

> <JCHEM_NUMBER_OF_RINGS>
2

> <JCHEM_PHYSIOLOGICAL_CHARGE>
1

> <JCHEM_PKA_STRONGEST_ACIDIC>
13.183452891961362

> <JCHEM_PKA_STRONGEST_BASIC>
8.8734015582119

> <JCHEM_POLAR_SURFACE_AREA>
23.47

> <JCHEM_REFRACTIVITY>
84.93660000000003

> <JCHEM_ROTATABLE_BOND_COUNT>
5

> <JCHEM_RULE_OF_FIVE>
1

> <ALOGPS_SOLUBILITY>
6.21e-02 g/l

> <JCHEM_TRADITIONAL_IUPAC>
baltix

> <JCHEM_VEBER_RULE>
1

> <DRUGBANK_ID>
DB04837

> <DRUG_GROUPS>
approved; withdrawn

> <GENERIC_NAME>
Clofedanol

> <SYNONYMS>
Chlophedianol; Clofedanolum; Clofedianolo

> <PRODUCTS>
Abanatuss Ped; Abanatuss Ped Drops; Atuss Da; Biclora; Carbaphen CH; Carbaphen Ped CH; Chlo Hist; Chlo Tuss; Chlo Tuss EX; Clofera; Clophed; Dicel CD; Donatussin; DryMax AF; Kroger Allergy Relief; Ninjacof; Ninjacof-A; Ninjacof-D; Panatuss PED; Poly Hist PD; Pro-chlo; TexaClear; TexaClear Kids Allergy; Texaclear Fast Acting Allergy Relief; Ulone; VanaCof AC; VanaTab AC; Vanacof; Vanacof-8

> <SALTS>
Chlophedianol hydrochloride; Clofedanol hydrochloride

$$$$

  Mrv0541 02231218002D          

 34 36  0  0  1  0            999 V2000
    6.6001   -2.5484    0.0000 O   0  0  0  0  0  0  0  0  0  0  0  0
    7.0051   -1.0370    0.0000 O   0  0  0  0  0  0  0  0  0  0  0  0
    2.8876   -4.6919    0.0000 O   0  0  0  0  0  0  0  0  0  0  0  0
    2.8876   -3.2629    0.0000 O   0  0  0  0  0  0  0  0  0  0  0  0
    6.2906    5.1506    0.0000 O   0  0  0  0  0  0  0  0  0  0  0  0
    5.3626   -1.8339    0.0000 N   0  0  0  0  0  0  0  0  0  0  0  0
    4.5376   -3.2629    0.0000 N   0  0  0  0  0  0  0  0  0  0  0  0
    6.2906    0.2005    0.0000 N   0  0  0  0  0  0  0  0  0  0  0  0
    7.7196    4.3256    0.0000 N   0  0  0  0  0  0  0  0  0  0  0  0
    6.2906    4.3256    0.0000 N   0  0  0  0  0  0  0  0  0  0  0  0
    5.7751   -3.9774    0.0000 C   0  0  0  0  0  0  0  0  0  0  0  0
    5.3626   -3.2629    0.0000 C   0  0  2  0  0  0  0  0  0  0  0  0
    5.3626   -4.6919    0.0000 C   0  0  0  0  0  0  0  0  0  0  0  0
    6.6001   -3.9774    0.0000 C   0  0  0  0  0  0  0  0  0  0  0  0
    5.7751   -5.4063    0.0000 C   0  0  0  0  0  0  0  0  0  0  0  0
    7.0127   -4.6919    0.0000 C   0  0  0  0  0  0  0  0  0  0  0  0
    5.5761   -1.0370    0.0000 C   0  0  1  0  0  0  0  0  0  0  0  0
    6.6001   -5.4063    0.0000 C   0  0  0  0  0  0  0  0  0  0  0  0
    4.5657   -1.6204    0.0000 C   0  0  0  0  0  0  0  0  0  0  0  0
    4.7792   -0.8235    0.0000 C   0  0  0  0  0  0  0  0  0  0  0  0
    5.7751   -2.5484    0.0000 C   0  0  0  0  0  0  0  0  0  0  0  0
    6.2906   -0.6245    0.0000 C   0  0  0  0  0  0  0  0  0  0  0  0
    4.1251   -3.9774    0.0000 C   0  0  0  0  0  0  0  0  0  0  0  0
    3.3001   -3.9774    0.0000 C   0  0  0  0  0  0  0  0  0  0  0  0
    7.0051    0.6130    0.0000 C   0  0  0  0  0  0  0  0  0  0  0  0
    7.0051    1.4380    0.0000 C   0  0  0  0  0  0  0  0  0  0  0  0
    6.2906    1.8505    0.0000 C   0  0  0  0  0  0  0  0  0  0  0  0
    7.7196    1.8505    0.0000 C   0  0  0  0  0  0  0  0  0  0  0  0
    2.0625   -4.6919    0.0000 C   0  0  0  0  0  0  0  0  0  0  0  0
    6.2906    2.6755    0.0000 C   0  0  0  0  0  0  0  0  0  0  0  0
    7.7196    2.6755    0.0000 C   0  0  0  0  0  0  0  0  0  0  0  0
    7.0051    3.0880    0.0000 C   0  0  0  0  0  0  0  0  0  0  0  0
    1.6500   -5.4063    0.0000 C   0  0  0  0  0  0  0  0  0  0  0  0
    7.0051    3.9131    0.0000 C   0  0  0  0  0  0  0  0  0  0  0  0
  1 21  2  0  0  0  0
  2 22  2  0  0  0  0
  3 24  1  0  0  0  0
  3 29  1  0  0  0  0
  4 24  2  0  0  0  0
  5 10  1  0  0  0  0
  6 17  1  0  0  0  0
  6 19  1  0  0  0  0
  6 21  1  0  0  0  0
 12  7  1  1  0  0  0
  7 23  1  0  0  0  0
  8 22  1  0  0  0  0
  8 25  1  0  0  0  0
  9 34  1  0  0  0  0
 10 34  2  0  0  0  0
 11 12  1  0  0  0  0
 11 13  1  0  0  0  0
 11 14  1  0  0  0  0
 12 21  1  0  0  0  0
 13 15  1  0  0  0  0
 14 16  1  0  0  0  0
 15 18  1  0  0  0  0
 16 18  1  0  0  0  0
 17 20  1  0  0  0  0
 17 22  1  1  0  0  0
 19 20  1  0  0  0  0
 23 24  1  0  0  0  0
 25 26  1  0  0  0  0
 26 27  2  0  0  0  0
 26 28  1  0  0  0  0
 27 30  1  0  0  0  0
 28 31  2  0  0  0  0
 29 33  1  0  0  0  0
 30 32  2  0  0  0  0
 31 32  1  0  0  0  0
 32 34  1  0  0  0  0
M  END
> <DATABASE_ID>
DB04898

> <DATABASE_NAME>
drugbank

> <SMILES>
CCOC(=O)CN[C@@H](C(=O)N1CC[C@H]1C(=O)NCC1=CC=C(C=C1)C(\N)=N\O)C1CCCCC1

> <INCHI_IDENTIFIER>
InChI=1S/C24H35N5O5/c1-2-34-20(30)15-26-21(17-6-4-3-5-7-17)24(32)29-13-12-19(29)23(31)27-14-16-8-10-18(11-9-16)22(25)28-33/h8-11,17,19,21,26,33H,2-7,12-15H2,1H3,(H2,25,28)(H,27,31)/t19-,21+/m0/s1

> <INCHI_KEY>
ZXIBCJHYVWYIKI-PZJWPPBQSA-N

> <FORMULA>
C24H35N5O5

> <MOLECULAR_WEIGHT>
473.5652

> <EXACT_MASS>
473.263819255

> <JCHEM_ACCEPTOR_COUNT>
7

> <JCHEM_AVERAGE_POLARIZABILITY>
52.148328970556044

> <JCHEM_BIOAVAILABILITY>
1

> <JCHEM_DONOR_COUNT>
4

> <JCHEM_FORMAL_CHARGE>
0

> <JCHEM_GHOSE_FILTER>
1

> <JCHEM_IUPAC>
ethyl 2-{[(1R)-1-cyclohexyl-2-[(2S)-2-[({4-[(Z)-N'-hydroxycarbamimidoyl]phenyl}methyl)carbamoyl]azetidin-1-yl]-2-oxoethyl]amino}acetate

> <ALOGPS_LOGP>
1.35

> <JCHEM_LOGP>
0.8693069373333331

> <ALOGPS_LOGS>
-3.75

> <JCHEM_MDDR_LIKE_RULE>
1

> <JCHEM_NUMBER_OF_RINGS>
3

> <JCHEM_PHYSIOLOGICAL_CHARGE>
0

> <JCHEM_PKA>
15.13038811042912

> <JCHEM_PKA_STRONGEST_ACIDIC>
9.63863186879247

> <JCHEM_PKA_STRONGEST_BASIC>
5.47950494930864

> <JCHEM_POLAR_SURFACE_AREA>
146.35000000000002

> <JCHEM_REFRACTIVITY>
126.56619999999998

> <JCHEM_ROTATABLE_BOND_COUNT>
11

> <JCHEM_RULE_OF_FIVE>
1

> <ALOGPS_SOLUBILITY>
8.45e-02 g/l

> <JCHEM_TRADITIONAL_IUPAC>
ximelagatran

> <JCHEM_VEBER_RULE>
0

> <DRUGBANK_ID>
DB04898

> <DRUG_GROUPS>
approved; investigational; withdrawn

> <GENERIC_NAME>
Ximelagatran

$$$$

  Mrv0541 02231218132D          

 51 55  0  0  1  0            999 V2000
    7.2607    0.1836    0.0000 O   0  0  0  0  0  0  0  0  0  0  0  0
    6.6001   -0.7254    0.0000 O   0  0  0  0  0  0  0  0  0  0  0  0
    5.7751   -3.5834    0.0000 O   0  0  0  0  0  0  0  0  0  0  0  0
    9.7238    1.8515    0.0000 O   0  0  0  0  0  0  0  0  0  0  0  0
    7.8548    2.9791    0.0000 O   0  0  0  0  0  0  0  0  0  0  0  0
    2.8876   -2.8689    0.0000 O   0  0  0  0  0  0  0  0  0  0  0  0
    7.8377   -1.4399    0.0000 N   0  0  0  0  0  0  0  0  0  0  0  0
    8.6197    0.6253    0.0000 N   0  0  0  0  0  0  0  0  0  0  0  0
    5.7751   -2.1545    0.0000 N   0  0  0  0  0  0  0  0  0  0  0  0
    4.1251   -2.1545    0.0000 N   0  0  0  0  0  0  0  0  0  0  0  0
    9.2139    3.4208    0.0000 N   0  0  0  0  0  0  0  0  0  0  0  0
    2.0625   -1.4399    0.0000 N   0  0  0  0  0  0  0  0  0  0  0  0
    2.8876   -0.0110    0.0000 N   0  0  0  0  0  0  0  0  0  0  0  0
    9.1072   -1.0274    0.0000 C   0  0  1  0  0  0  0  0  0  0  0  0
    9.1072   -1.8524    0.0000 C   0  0  1  0  0  0  0  0  0  0  0  0
    8.3226   -0.7725    0.0000 C   0  0  1  0  0  0  0  0  0  0  0  0
    9.8879   -0.7760    0.0000 C   0  0  0  0  0  0  0  0  0  0  0  0
    9.8879   -2.1039    0.0000 C   0  0  0  0  0  0  0  0  0  0  0  0
    8.3226   -2.1074    0.0000 C   0  0  0  0  0  0  0  0  0  0  0  0
   10.3694   -1.4399    0.0000 C   0  0  0  0  0  0  0  0  0  0  0  0
    8.0677    0.0121    0.0000 C   0  0  0  0  0  0  0  0  0  0  0  0
    7.0127   -1.4399    0.0000 C   0  0  0  0  0  0  0  0  0  0  0  0
    6.6001   -2.1545    0.0000 C   0  0  2  0  0  0  0  0  0  0  0  0
    7.0127   -2.8689    0.0000 C   0  0  0  0  0  0  0  0  0  0  0  0
    8.3648    1.4099    0.0000 C   0  0  1  0  0  0  0  0  0  0  0  0
    7.4252   -3.5834    0.0000 C   0  0  0  0  0  0  0  0  0  0  0  0
    6.2982   -3.2814    0.0000 C   0  0  0  0  0  0  0  0  0  0  0  0
    7.7271   -2.4564    0.0000 C   0  0  0  0  0  0  0  0  0  0  0  0
    4.1251   -3.5834    0.0000 C   0  0  0  0  0  0  0  0  0  0  0  0
    4.5376   -2.8689    0.0000 C   0  0  1  0  0  0  0  0  0  0  0  0
    5.3626   -2.8689    0.0000 C   0  0  0  0  0  0  0  0  0  0  0  0
    7.5577    1.5814    0.0000 C   0  0  0  0  0  0  0  0  0  0  0  0
    3.3001   -3.5834    0.0000 C   0  0  0  0  0  0  0  0  0  0  0  0
    4.5376   -4.2979    0.0000 C   0  0  0  0  0  0  0  0  0  0  0  0
    8.9168    2.0230    0.0000 C   0  0  0  0  0  0  0  0  0  0  0  0
    2.8876   -4.2979    0.0000 C   0  0  0  0  0  0  0  0  0  0  0  0
    4.1251   -5.0124    0.0000 C   0  0  0  0  0  0  0  0  0  0  0  0
    3.3001   -5.0124    0.0000 C   0  0  0  0  0  0  0  0  0  0  0  0
    8.9590    4.2054    0.0000 C   0  0  0  0  0  0  0  0  0  0  0  0
    7.3028    2.3661    0.0000 C   0  0  0  0  0  0  0  0  0  0  0  0
    9.1305    5.0124    0.0000 C   0  0  0  0  0  0  0  0  0  0  0  0
    8.3459    4.7575    0.0000 C   0  0  0  0  0  0  0  0  0  0  0  0
    8.6619    2.8076    0.0000 C   0  0  0  0  0  0  0  0  0  0  0  0
    6.4959    2.5376    0.0000 C   0  0  0  0  0  0  0  0  0  0  0  0
    3.3001   -2.1545    0.0000 C   0  0  0  0  0  0  0  0  0  0  0  0
    2.8876   -1.4399    0.0000 C   0  0  0  0  0  0  0  0  0  0  0  0
    3.3001   -0.7254    0.0000 C   0  0  0  0  0  0  0  0  0  0  0  0
    1.6500   -0.7254    0.0000 C   0  0  0  0  0  0  0  0  0  0  0  0
    2.0625   -0.0110    0.0000 C   0  0  0  0  0  0  0  0  0  0  0  0
    9.1081   -0.3674    0.0000 H   0  0  0  0  0  0  0  0  0  0  0  0
    9.1081   -2.5124    0.0000 H   0  0  0  0  0  0  0  0  0  0  0  0
  1 21  2  0  0  0  0
  2 22  2  0  0  0  0
  3 31  2  0  0  0  0
  4 35  2  0  0  0  0
  5 43  2  0  0  0  0
  6 45  2  0  0  0  0
  7 16  1  0  0  0  0
  7 19  1  0  0  0  0
  7 22  1  0  0  0  0
  8 21  1  0  0  0  0
 25  8  1  1  0  0  0
 23  9  1  6  0  0  0
  9 31  1  0  0  0  0
 30 10  1  6  0  0  0
 10 45  1  0  0  0  0
 11 39  1  0  0  0  0
 11 43  1  0  0  0  0
 12 46  2  0  0  0  0
 12 48  1  0  0  0  0
 13 47  2  0  0  0  0
 13 49  1  0  0  0  0
 14 15  1  0  0  0  0
 14 16  1  0  0  0  0
 14 17  1  0  0  0  0
 14 50  1  6  0  0  0
 15 18  1  0  0  0  0
 15 19  1  0  0  0  0
 15 51  1  6  0  0  0
 16 21  1  6  0  0  0
 17 20  1  0  0  0  0
 18 20  1  0  0  0  0
 22 23  1  0  0  0  0
 23 24  1  0  0  0  0
 24 26  1  0  0  0  0
 24 27  1  0  0  0  0
 24 28  1  0  0  0  0
 25 32  1  0  0  0  0
 25 35  1  0  0  0  0
 29 30  1  0  0  0  0
 29 33  1  0  0  0  0
 29 34  1  0  0  0  0
 30 31  1  0  0  0  0
 32 40  1  0  0  0  0
 33 36  1  0  0  0  0
 34 37  1  0  0  0  0
 35 43  1  0  0  0  0
 36 38  1  0  0  0  0
 37 38  1  0  0  0  0
 39 41  1  0  0  0  0
 39 42  1  0  0  0  0
 40 44  1  0  0  0  0
 41 42  1  0  0  0  0
 45 46  1  0  0  0  0
 46 47  1  0  0  0  0
 48 49  2  0  0  0  0
M  END
> <DATABASE_ID>
DB05521

> <DATABASE_NAME>
drugbank

> <SMILES>
[H][C@@]12CCC[C@]1([H])[C@H](N(C2)C(=O)[C@@H](NC(=O)[C@@H](NC(=O)C1=NC=CN=C1)C1CCCCC1)C(C)(C)C)C(=O)N[C@@H](CCC)C(=O)C(=O)NC1CC1

> <INCHI_IDENTIFIER>
InChI=1S/C36H53N7O6/c1-5-10-25(29(44)34(48)39-23-15-16-23)40-33(47)28-24-14-9-13-22(24)20-43(28)35(49)30(36(2,3)4)42-32(46)27(21-11-7-6-8-12-21)41-31(45)26-19-37-17-18-38-26/h17-19,21-25,27-28,30H,5-16,20H2,1-4H3,(H,39,48)(H,40,47)(H,41,45)(H,42,46)/t22-,24-,25-,27-,28-,30+/m0/s1

> <INCHI_KEY>
BBAWEDCPNXPBQM-GDEBMMAJSA-N

> <FORMULA>
C36H53N7O6

> <MOLECULAR_WEIGHT>
679.8493

> <EXACT_MASS>
679.405732463

> <JCHEM_ACCEPTOR_COUNT>
8

> <JCHEM_AVERAGE_POLARIZABILITY>
74.36952961559653

> <JCHEM_BIOAVAILABILITY>
0

> <JCHEM_DONOR_COUNT>
4

> <JCHEM_FORMAL_CHARGE>
0

> <JCHEM_GHOSE_FILTER>
0

> <JCHEM_IUPAC>
(3S)-3-{[(1S,3aR,6aS)-2-[(2S)-2-[(2S)-2-cyclohexyl-2-(pyrazin-2-ylformamido)acetamido]-3,3-dimethylbutanoyl]-octahydrocyclopenta[c]pyrrol-1-yl]formamido}-N-cyclopropyl-2-oxohexanamide

> <ALOGPS_LOGP>
2.56

> <JCHEM_LOGP>
2.580292300333334

> <ALOGPS_LOGS>
-4.28

> <JCHEM_MDDR_LIKE_RULE>
1

> <JCHEM_NUMBER_OF_RINGS>
5

> <JCHEM_PHYSIOLOGICAL_CHARGE>
0

> <JCHEM_PKA>
12.38745817101361

> <JCHEM_PKA_STRONGEST_ACIDIC>
11.857239072699072

> <JCHEM_PKA_STRONGEST_BASIC>
-0.6902823851666152

> <JCHEM_POLAR_SURFACE_AREA>
179.55999999999995

> <JCHEM_REFRACTIVITY>
180.04029999999997

> <JCHEM_ROTATABLE_BOND_COUNT>
14

> <JCHEM_RULE_OF_FIVE>
0

> <ALOGPS_SOLUBILITY>
3.55e-02 g/l

> <JCHEM_TRADITIONAL_IUPAC>
incivek

> <JCHEM_VEBER_RULE>
0

> <DRUGBANK_ID>
DB05521

> <DRUG_GROUPS>
withdrawn

> <GENERIC_NAME>
Telaprevir

> <PRODUCTS>
Incivek; Incivo

$$$$

  Mrv0541 02231218142D          

 31 35  0  0  0  0            999 V2000
    1.6500   -0.3414    0.0000 Cl  0  0  0  0  0  0  0  0  0  0  0  0
    5.5992   -4.9670    0.0000 F   0  0  0  0  0  0  0  0  0  0  0  0
    8.1145    3.3560    0.0000 O   0  0  0  0  0  0  0  0  0  0  0  0
    5.3430    1.8501    0.0000 N   0  0  0  0  0  0  0  0  0  0  0  0
    4.5741   -1.8304    0.0000 N   0  0  0  0  0  0  0  0  0  0  0  0
    6.6628    3.5885    0.0000 N   0  0  0  0  0  0  0  0  0  0  0  0
    7.4493    4.6672    0.0000 N   0  0  0  0  0  0  0  0  0  0  0  0
    4.8304    0.2817    0.0000 C   0  0  0  0  0  0  0  0  0  0  0  0
    4.2794    0.8957    0.0000 C   0  0  0  0  0  0  0  0  0  0  0  0
    5.6377    0.4518    0.0000 C   0  0  0  0  0  0  0  0  0  0  0  0
    4.5357    1.6799    0.0000 C   0  0  0  0  0  0  0  0  0  0  0  0
    5.8939    1.2360    0.0000 C   0  0  0  0  0  0  0  0  0  0  0  0
    4.5741   -0.5025    0.0000 C   0  0  0  0  0  0  0  0  0  0  0  0
    5.5992    2.6343    0.0000 C   0  0  0  0  0  0  0  0  0  0  0  0
    3.7935   -0.7539    0.0000 C   0  0  0  0  0  0  0  0  0  0  0  0
    6.4066    2.8044    0.0000 C   0  0  0  0  0  0  0  0  0  0  0  0
    5.0556   -1.1664    0.0000 C   0  0  0  0  0  0  0  0  0  0  0  0
    3.7935   -1.5789    0.0000 C   0  0  0  0  0  0  0  0  0  0  0  0
    6.1791    4.2569    0.0000 C   0  0  0  0  0  0  0  0  0  0  0  0
    3.0790   -0.3414    0.0000 C   0  0  0  0  0  0  0  0  0  0  0  0
    6.6652    4.9235    0.0000 C   0  0  0  0  0  0  0  0  0  0  0  0
    3.0790   -1.9914    0.0000 C   0  0  0  0  0  0  0  0  0  0  0  0
    4.8304   -2.6145    0.0000 C   0  0  0  0  0  0  0  0  0  0  0  0
    7.4479    3.8421    0.0000 C   0  0  0  0  0  0  0  0  0  0  0  0
    2.3645   -0.7539    0.0000 C   0  0  0  0  0  0  0  0  0  0  0  0
    2.3645   -1.5789    0.0000 C   0  0  0  0  0  0  0  0  0  0  0  0
    5.6377   -2.7846    0.0000 C   0  0  0  0  0  0  0  0  0  0  0  0
    4.2794   -3.2286    0.0000 C   0  0  0  0  0  0  0  0  0  0  0  0
    5.8939   -3.5688    0.0000 C   0  0  0  0  0  0  0  0  0  0  0  0
    4.5357   -4.0128    0.0000 C   0  0  0  0  0  0  0  0  0  0  0  0
    5.3430   -4.1829    0.0000 C   0  0  0  0  0  0  0  0  0  0  0  0
  1 25  1  0  0  0  0
  2 31  1  0  0  0  0
  3 24  2  0  0  0  0
  4 11  1  0  0  0  0
  4 12  1  0  0  0  0
  4 14  1  0  0  0  0
  5 17  1  0  0  0  0
  5 18  1  0  0  0  0
  5 23  1  0  0  0  0
  6 16  1  0  0  0  0
  6 19  1  0  0  0  0
  6 24  1  0  0  0  0
  7 21  1  0  0  0  0
  7 24  1  0  0  0  0
  8  9  1  0  0  0  0
  8 10  1  0  0  0  0
  8 13  1  0  0  0  0
  9 11  1  0  0  0  0
 10 12  1  0  0  0  0
 13 15  1  0  0  0  0
 13 17  2  0  0  0  0
 14 16  1  0  0  0  0
 15 18  2  0  0  0  0
 15 20  1  0  0  0  0
 18 22  1  0  0  0  0
 19 21  1  0  0  0  0
 20 25  2  0  0  0  0
 22 26  2  0  0  0  0
 23 27  2  0  0  0  0
 23 28  1  0  0  0  0
 25 26  1  0  0  0  0
 27 29  1  0  0  0  0
 28 30  2  0  0  0  0
 29 31  2  0  0  0  0
 30 31  1  0  0  0  0
M  END
> <DATABASE_ID>
DB06144

> <DATABASE_NAME>
drugbank

> <SMILES>
FC1=CC=C(C=C1)N1C=C(C2CCN(CCN3CCNC3=O)CC2)C2=C1C=CC(Cl)=C2

> <INCHI_IDENTIFIER>
InChI=1S/C24H26ClFN4O/c25-18-1-6-23-21(15-18)22(16-30(23)20-4-2-19(26)3-5-20)17-7-10-28(11-8-17)13-14-29-12-9-27-24(29)31/h1-6,15-17H,7-14H2,(H,27,31)

> <INCHI_KEY>
GZKLJWGUPQBVJQ-UHFFFAOYSA-N

> <FORMULA>
C24H26ClFN4O

> <MOLECULAR_WEIGHT>
440.941

> <EXACT_MASS>
440.177917386

> <JCHEM_ACCEPTOR_COUNT>
2

> <JCHEM_AVERAGE_POLARIZABILITY>
47.17150851412664

> <JCHEM_BIOAVAILABILITY>
1

> <JCHEM_DONOR_COUNT>
1

> <JCHEM_FORMAL_CHARGE>
0

> <JCHEM_GHOSE_FILTER>
0

> <JCHEM_IUPAC>
1-(2-{4-[5-chloro-1-(4-fluorophenyl)-1H-indol-3-yl]piperidin-1-yl}ethyl)imidazolidin-2-one

> <ALOGPS_LOGP>
4.29

> <JCHEM_LOGP>
3.7738

> <ALOGPS_LOGS>
-4.66

> <JCHEM_MDDR_LIKE_RULE>
0

> <JCHEM_NUMBER_OF_RINGS>
5

> <JCHEM_PHYSIOLOGICAL_CHARGE>
1

> <JCHEM_PKA_STRONGEST_ACIDIC>
14.358150699540666

> <JCHEM_PKA_STRONGEST_BASIC>
8.585054865216964

> <JCHEM_POLAR_SURFACE_AREA>
40.510000000000005

> <JCHEM_REFRACTIVITY>
131.7697

> <JCHEM_ROTATABLE_BOND_COUNT>
5

> <JCHEM_RULE_OF_FIVE>
1

> <ALOGPS_SOLUBILITY>
9.63e-03 g/l

> <JCHEM_TRADITIONAL_IUPAC>
sertindole

> <JCHEM_VEBER_RULE>
0

> <DRUGBANK_ID>
DB06144

> <DRUG_GROUPS>
approved; withdrawn

> <GENERIC_NAME>
Sertindole

> <SYNONYMS>
Sertindol; Sertindolum

> <INTERNATIONAL_BRANDS>
Serdolect; Serlect

$$$$

  Mrv1572009161514202D          

 12 11  0  0  0  0            999 V2000
    1.0547   -0.9668    0.0000 C   0  0  0  0  0  0  0  0  0  0  0  0
    1.7691   -0.5543    0.0000 C   0  0  0  0  0  0  0  0  0  0  0  0
    2.4836   -0.9668    0.0000 C   0  0  0  0  0  0  0  0  0  0  0  0
    3.1981   -0.5543    0.0000 C   0  0  0  0  0  0  0  0  0  0  0  0
    3.9125   -0.1418    0.0000 C   0  0  0  0  0  0  0  0  0  0  0  0
    4.6270   -0.5543    0.0000 O   0  0  0  0  0  0  0  0  0  0  0  0
    0.3402   -0.5543    0.0000 N   0  0  0  0  0  0  0  0  0  0  0  0
    3.9125    0.6832    0.0000 O   0  0  0  0  0  0  0  0  0  0  0  0
    2.7856    0.1601    0.0000 C   0  0  0  0  0  0  0  0  0  0  0  0
    1.9606    0.1601    0.0000 F   0  0  0  0  0  0  0  0  0  0  0  0
    3.1981    0.8746    0.0000 F   0  0  0  0  0  0  0  0  0  0  0  0
    3.0225   -1.2367    0.0000 N   0  0  0  0  0  0  0  0  0  0  0  0
  2  1  1  0  0  0  0
  3  2  1  0  0  0  0
  4  3  1  0  0  0  0
  5  4  1  0  0  0  0
  6  5  1  0  0  0  0
  7  1  1  0  0  0  0
  8  5  2  0  0  0  0
  9  4  1  0  0  0  0
 10  9  1  0  0  0  0
 11  9  1  0  0  0  0
  4 12  1  0  0  0  0
M  END
> <DATABASE_ID>
DB06243

> <DATABASE_NAME>
drugbank

> <SMILES>
NCCCC(N)(C(F)F)C(O)=O

> <INCHI_IDENTIFIER>
InChI=1S/C6H12F2N2O2/c7-4(8)6(10,5(11)12)2-1-3-9/h4H,1-3,9-10H2,(H,11,12)

> <INCHI_KEY>
VLCYCQAOQCDTCN-UHFFFAOYSA-N

> <FORMULA>
C6H12F2N2O2

> <MOLECULAR_WEIGHT>
182.171

> <EXACT_MASS>
182.08668396

> <JCHEM_ACCEPTOR_COUNT>
4

> <JCHEM_ATOM_COUNT>
24

> <JCHEM_AVERAGE_POLARIZABILITY>
15.798819149867942

> <JCHEM_BIOAVAILABILITY>
1

> <JCHEM_DONOR_COUNT>
3

> <JCHEM_FORMAL_CHARGE>
0

> <JCHEM_GHOSE_FILTER>
0

> <JCHEM_IUPAC>
2,5-diamino-2-(difluoromethyl)pentanoic acid

> <ALOGPS_LOGP>
-2.05

> <JCHEM_LOGP>
-2.908437200546133

> <ALOGPS_LOGS>
-0.56

> <JCHEM_MDDR_LIKE_RULE>
0

> <JCHEM_NUMBER_OF_RINGS>
0

> <JCHEM_PHYSIOLOGICAL_CHARGE>
1

> <JCHEM_PKA_STRONGEST_ACIDIC>
2.190272271177595

> <JCHEM_PKA_STRONGEST_BASIC>
10.204405323783407

> <JCHEM_POLAR_SURFACE_AREA>
89.34

> <JCHEM_REFRACTIVITY>
37.7336

> <JCHEM_ROTATABLE_BOND_COUNT>
5

> <JCHEM_RULE_OF_FIVE>
1

> <ALOGPS_SOLUBILITY>
5.00e+01 g/l

> <JCHEM_TRADITIONAL_IUPAC>
vaniqa

> <JCHEM_VEBER_RULE>
0

> <DRUGBANK_ID>
DB06243

> <DRUG_GROUPS>
approved; withdrawn

> <GENERIC_NAME>
Eflornithine

> <SYNONYMS>
(RS)-2,5-diamino-2-(difluoromethyl)pentanoic acid; 2-(difluoromethyl)ornithine; alpha-difluoromethylornithine; DFMO; α-difluoromethylornithine

> <PRODUCTS>
Vaniqa

> <SALTS>
Eflornithine hydrochloride

$$$$
216235
  Mrv0541 02241213002D          

 29 32  0  0  0  0            999 V2000
    3.4449   -2.3243    0.0000 Cl  0  0  0  0  0  0  0  0  0  0  0  0
    4.1711    0.1898    0.0000 S   0  0  0  0  0  0  0  0  0  0  0  0
    5.0101    2.1528    0.0000 S   0  0  0  0  0  0  0  0  0  0  0  0
    8.7349   -0.0663    0.0000 O   0  0  0  0  0  0  0  0  0  0  0  0
    8.7349   -1.3942    0.0000 O   0  0  0  0  0  0  0  0  0  0  0  0
    6.5253    1.3322    0.0000 O   0  0  0  0  0  0  0  0  0  0  0  0
    3.3641    0.3613    0.0000 O   0  0  0  0  0  0  0  0  0  0  0  0
    4.9781    0.0182    0.0000 O   0  0  0  0  0  0  0  0  0  0  0  0
    2.5475   -0.3873    0.0000 O   0  0  0  0  0  0  0  0  0  0  0  0
    3.9996   -0.6173    0.0000 N   0  0  0  0  0  0  0  0  0  0  0  0
    1.8801   -0.8722    0.0000 N   0  0  0  0  0  0  0  0  0  0  0  0
    6.5253   -0.3178    0.0000 C   0  0  0  0  0  0  0  0  0  0  0  0
    5.8108    0.0947    0.0000 C   0  0  0  0  0  0  0  0  0  0  0  0
    6.5253   -1.1428    0.0000 C   0  0  0  0  0  0  0  0  0  0  0  0
    4.3426    0.9967    0.0000 C   0  0  0  0  0  0  0  0  0  0  0  0
    5.0963    1.3322    0.0000 C   0  0  0  0  0  0  0  0  0  0  0  0
    7.2398    0.0947    0.0000 C   0  0  0  0  0  0  0  0  0  0  0  0
    5.8108    0.9197    0.0000 C   0  0  0  0  0  0  0  0  0  0  0  0
    7.9542   -0.3178    0.0000 C   0  0  0  0  0  0  0  0  0  0  0  0
    7.9542   -1.1428    0.0000 C   0  0  0  0  0  0  0  0  0  0  0  0
    7.2398   -1.5553    0.0000 C   0  0  0  0  0  0  0  0  0  0  0  0
    5.8108   -1.5553    0.0000 C   0  0  0  0  0  0  0  0  0  0  0  0
    3.7906    1.6098    0.0000 C   0  0  0  0  0  0  0  0  0  0  0  0
    9.2164   -0.7303    0.0000 C   0  0  0  0  0  0  0  0  0  0  0  0
    4.2031    2.3243    0.0000 C   0  0  0  0  0  0  0  0  0  0  0  0
    3.2149   -0.8722    0.0000 C   0  0  0  0  0  0  0  0  0  0  0  0
    2.9600   -1.6569    0.0000 C   0  0  0  0  0  0  0  0  0  0  0  0
    2.1350   -1.6569    0.0000 C   0  0  0  0  0  0  0  0  0  0  0  0
    1.6500   -2.3243    0.0000 C   0  0  0  0  0  0  0  0  0  0  0  0
  1 27  1  0  0  0  0
  2  7  2  0  0  0  0
  2  8  2  0  0  0  0
  2 10  1  0  0  0  0
  2 15  1  0  0  0  0
  3 16  1  0  0  0  0
  3 25  1  0  0  0  0
  4 19  1  0  0  0  0
  4 24  1  0  0  0  0
  5 20  1  0  0  0  0
  5 24  1  0  0  0  0
  6 18  2  0  0  0  0
  9 11  1  0  0  0  0
  9 26  1  0  0  0  0
 10 26  1  0  0  0  0
 11 28  2  0  0  0  0
 12 13  1  0  0  0  0
 12 14  1  0  0  0  0
 12 17  2  0  0  0  0
 13 18  1  0  0  0  0
 14 21  2  0  0  0  0
 14 22  1  0  0  0  0
 15 16  2  0  0  0  0
 15 23  1  0  0  0  0
 16 18  1  0  0  0  0
 17 19  1  0  0  0  0
 19 20  2  0  0  0  0
 20 21  1  0  0  0  0
 23 25  2  0  0  0  0
 26 27  2  0  0  0  0
 27 28  1  0  0  0  0
 28 29  1  0  0  0  0
M  END
> <DATABASE_ID>
DB06268

> <DATABASE_NAME>
drugbank

> <SMILES>
CC1=NOC(NS(=O)(=O)C2=C(SC=C2)C(=O)CC2=CC3=C(OCO3)C=C2C)=C1Cl

> <INCHI_IDENTIFIER>
InChI=1S/C18H15ClN2O6S2/c1-9-5-13-14(26-8-25-13)7-11(9)6-12(22)17-15(3-4-28-17)29(23,24)21-18-16(19)10(2)20-27-18/h3-5,7,21H,6,8H2,1-2H3

> <INCHI_KEY>
PHWXUGHIIBDVKD-UHFFFAOYSA-N

> <FORMULA>
C18H15ClN2O6S2

> <MOLECULAR_WEIGHT>
454.905

> <EXACT_MASS>
454.006005309

> <JCHEM_ACCEPTOR_COUNT>
6

> <JCHEM_AVERAGE_POLARIZABILITY>
43.11652205319554

> <JCHEM_BIOAVAILABILITY>
1

> <JCHEM_DONOR_COUNT>
1

> <JCHEM_FORMAL_CHARGE>
0

> <JCHEM_GHOSE_FILTER>
1

> <JCHEM_IUPAC>
N-(4-chloro-3-methyl-1,2-oxazol-5-yl)-2-[2-(6-methyl-2H-1,3-benzodioxol-5-yl)acetyl]thiophene-3-sulfonamide

> <ALOGPS_LOGP>
3.35

> <JCHEM_LOGP>
3.091685922

> <ALOGPS_LOGS>
-4.40

> <JCHEM_MDDR_LIKE_RULE>
0

> <JCHEM_NUMBER_OF_RINGS>
4

> <JCHEM_PHYSIOLOGICAL_CHARGE>
-1

> <JCHEM_PKA>
11.420143849604173

> <JCHEM_PKA_STRONGEST_ACIDIC>
6.8883305321764725

> <JCHEM_PKA_STRONGEST_BASIC>
0.7450561162550599

> <JCHEM_POLAR_SURFACE_AREA>
107.73

> <JCHEM_REFRACTIVITY>
105.80450000000003

> <JCHEM_ROTATABLE_BOND_COUNT>
5

> <JCHEM_RULE_OF_FIVE>
1

> <ALOGPS_SOLUBILITY>
1.81e-02 g/l

> <JCHEM_TRADITIONAL_IUPAC>
thelin

> <JCHEM_VEBER_RULE>
0

> <DRUGBANK_ID>
DB06268

> <DRUG_GROUPS>
approved; investigational; withdrawn

> <GENERIC_NAME>
Sitaxentan

> <PRODUCTS>
Thelin

> <SALTS>
Sitaxentan sodium

$$$$
 
  Mrv1572002131601182D          

 33 37  0  0  1  0            999 V2000
   20.9613  -28.7386    0.0000 C   0  0  0  0  0  0  0  0  0  0  0  0
   20.9613  -29.5636    0.0000 C   0  0  0  0  0  0  0  0  0  0  0  0
   21.6626  -29.9761    0.0000 C   0  0  0  0  0  0  0  0  0  0  0  0
   22.3638  -29.5636    0.0000 C   0  0  0  0  0  0  0  0  0  0  0  0
   22.3638  -28.7386    0.0000 C   0  0  2  0  0  0  0  0  0  0  0  0
   21.6626  -28.3673    0.0000 C   0  0  0  0  0  0  0  0  0  0  0  0
   23.0651  -29.9761    0.0000 C   0  0  0  0  0  0  0  0  0  0  0  0
   23.8076  -29.5636    0.0000 C   0  0  0  0  0  0  0  0  0  0  0  0
   23.8076  -28.7386    0.0000 C   0  0  2  0  0  0  0  0  0  0  0  0
   23.0651  -28.3673    0.0000 C   0  0  2  0  0  0  0  0  0  0  0  0
   24.5088  -28.3673    0.0000 C   0  0  1  0  0  0  0  0  0  0  0  0
   24.5088  -27.5423    0.0000 C   0  0  1  0  0  0  0  0  0  0  0  0
   23.8076  -27.1298    0.0000 C   0  0  0  0  0  0  0  0  0  0  0  0
   23.0651  -27.5423    0.0000 C   0  0  2  0  0  0  0  0  0  0  0  0
   22.3638  -27.9548    0.0000 C   0  0  0  0  0  0  0  0  0  0  0  0
   23.8076  -27.9548    0.0000 H   0  0  0  0  0  0  0  0  0  0  0  0
   22.3638  -27.1298    0.0000 O   0  0  0  0  0  0  0  0  0  0  0  0
   24.5088  -26.7173    0.0000 C   0  0  0  0  0  0  0  0  0  0  0  0
   23.0651  -29.1511    0.0000 F   0  0  0  0  0  0  0  0  0  0  0  0
   24.5088  -29.1511    0.0000 H   0  0  0  0  0  0  0  0  0  0  0  0
   20.2601  -29.9761    0.0000 O   0  0  0  0  0  0  0  0  0  0  0  0
   25.9378  -28.3673    0.0000 C   0  0  0  0  0  0  0  0  0  0  0  0
   25.9378  -27.5423    0.0000 C   0  0  2  0  0  0  0  0  0  0  0  0
   25.2233  -27.1298    0.0000 C   0  0  2  0  0  0  0  0  0  0  0  0
   25.2233  -26.2225    0.0000 C   0  0  0  0  0  0  0  0  0  0  0  0
   24.4989  -25.8041    0.0000 C   0  0  0  0  0  0  0  0  0  0  0  0
   25.9278  -25.8156    0.0000 O   0  0  0  0  0  0  0  0  0  0  0  0
   23.7894  -26.2137    0.0000 Cl  0  0  0  0  0  0  0  0  0  0  0  0
   25.9277  -26.7230    0.0000 O   0  0  0  0  0  0  0  0  0  0  0  0
   26.7189  -27.2367    0.0000 O   0  0  0  0  0  0  0  0  0  0  0  0
   26.7527  -26.7230    0.0000 C   0  0  0  0  0  0  0  0  0  0  0  0
   26.7527  -25.8980    0.0000 C   0  0  0  0  0  0  0  0  0  0  0  0
   27.5777  -26.7230    0.0000 C   0  0  0  0  0  0  0  0  0  0  0  0
  1  2  1  0  0  0  0
  2  3  1  0  0  0  0
  3  4  2  0  0  0  0
  4  5  1  0  0  0  0
  5  6  1  0  0  0  0
  1  6  1  0  0  0  0
  4  7  1  0  0  0  0
  7  8  1  0  0  0  0
  8  9  1  0  0  0  0
  9 10  1  0  0  0  0
  5 10  1  0  0  0  0
  9 11  1  0  0  0  0
 11 12  1  0  0  0  0
 12 13  1  0  0  0  0
 13 14  1  0  0  0  0
 10 14  1  0  0  0  0
  5 15  1  1  0  0  0
  9 16  1  1  0  0  0
 14 17  1  1  0  0  0
 12 18  1  1  0  0  0
 10 19  1  6  0  0  0
 11 20  1  6  0  0  0
  2 21  2  0  0  0  0
 11 22  1  0  0  0  0
 22 23  1  0  0  0  0
 23 24  1  0  0  0  0
 12 24  1  0  0  0  0
 24 25  1  1  0  0  0
 25 26  1  0  0  0  0
 25 27  2  0  0  0  0
 26 28  1  0  0  0  0
 24 29  1  6  0  0  0
 23 30  1  6  0  0  0
 29 31  1  0  0  0  0
 31 30  1  0  0  0  0
 31 32  1  0  0  0  0
 31 33  1  0  0  0  0
M  END
> <DATABASE_ID>
DB06786

> <DATABASE_NAME>
drugbank

> <SMILES>
[H][C@@]12C[C@H]3OC(C)(C)O[C@@]3(C(=O)CCl)[C@@]1(C)C[C@H](O)[C@@]1(F)[C@@]2([H])CCC2=CC(=O)CC[C@]12C

> <INCHI_IDENTIFIER>
InChI=1S/C24H32ClFO5/c1-20(2)30-19-10-16-15-6-5-13-9-14(27)7-8-21(13,3)23(15,26)17(28)11-22(16,4)24(19,31-20)18(29)12-25/h9,15-17,19,28H,5-8,10-12H2,1-4H3/t15-,16-,17-,19+,21-,22-,23-,24+/m0/s1

> <INCHI_KEY>
MUQNGPZZQDCDFT-JNQJZLCISA-N

> <FORMULA>
C24H32ClFO5

> <MOLECULAR_WEIGHT>
454.96

> <EXACT_MASS>
454.19223

> <JCHEM_ACCEPTOR_COUNT>
5

> <JCHEM_ATOM_COUNT>
63

> <JCHEM_AVERAGE_POLARIZABILITY>
46.60725286381555

> <JCHEM_BIOAVAILABILITY>
1

> <JCHEM_DONOR_COUNT>
1

> <JCHEM_FORMAL_CHARGE>
0

> <JCHEM_GHOSE_FILTER>
1

> <JCHEM_IUPAC>
(1S,2S,4R,8S,9S,11S,12R,13S)-8-(2-chloroacetyl)-12-fluoro-11-hydroxy-6,6,9,13-tetramethyl-5,7-dioxapentacyclo[10.8.0.0²,⁹.0⁴,⁸.0¹³,¹⁸]icos-17-en-16-one

> <ALOGPS_LOGP>
3.31

> <JCHEM_LOGP>
3.300886228333331

> <ALOGPS_LOGS>
-4.61

> <JCHEM_MDDR_LIKE_RULE>
0

> <JCHEM_NUMBER_OF_RINGS>
5

> <JCHEM_PHYSIOLOGICAL_CHARGE>
0

> <JCHEM_PKA>
15.037330728878644

> <JCHEM_PKA_STRONGEST_ACIDIC>
13.632762911940176

> <JCHEM_PKA_STRONGEST_BASIC>
-3.3888281303583305

> <JCHEM_POLAR_SURFACE_AREA>
72.83

> <JCHEM_REFRACTIVITY>
113.54749999999999

> <JCHEM_ROTATABLE_BOND_COUNT>
2

> <JCHEM_RULE_OF_FIVE>
1

> <ALOGPS_SOLUBILITY>
1.12e-02 g/l

> <JCHEM_TRADITIONAL_IUPAC>
halog

> <JCHEM_VEBER_RULE>
0

> <DRUGBANK_ID>
DB06786

> <DRUG_GROUPS>
approved; investigational; withdrawn

> <GENERIC_NAME>
Halcinonide

> <SYNONYMS>
(4aS,4bR,5S,6aS,6bS,9aR,10aS,10bS)-6b-(chloroacetyl)-4b-fluoro-5-hydroxy-4a,6a,8,8-tetramethyl-3,4,4a,4b,5,6,6a,6b,9a,10,10a,10b,11,12-tetradecahydro-2H-naphtho[2',1':4,5]indeno[1,2-d][1,3]dioxol-2-one; Halcinonid; Halcinonida; Halcinonide; Halcinonidum

> <PRODUCTS>
Halog; Halog Cream 0.1%; Halog Liq 0.1%; Halog Ont 0.1%

> <INTERNATIONAL_BRANDS>
Adcortin; Berodan; Betacorton; Confumin; Cortilate; Ha Le Te; Halciderm; Halcinonide-Pacific Pharm; Sawastin

$$$$

  Mrv1572004031620382D          

 43 43  0  0  0  0            999 V2000
    0.4953    4.2330    0.0000 C   0  0  0  0  0  0  0  0  0  0  0  0
   -0.0990   -4.1186    0.0000 C   0  0  0  0  0  0  0  0  0  0  0  0
    0.2972    0.4576    0.0000 C   0  0  0  0  0  0  0  0  0  0  0  0
    0.0990   -0.3432    0.0000 C   0  0  0  0  0  0  0  0  0  0  0  0
   -0.0990    1.8305    0.0000 C   0  0  0  0  0  0  0  0  0  0  0  0
    0.4953   -1.7161    0.0000 C   0  0  0  0  0  0  0  0  0  0  0  0
    1.2880    1.4872    0.0000 C   0  0  0  0  0  0  0  0  0  0  0  0
   -0.8917   -1.3728    0.0000 C   0  0  0  0  0  0  0  0  0  0  0  0
    1.6843    0.1144    0.0000 C   0  0  0  0  0  0  0  0  0  0  0  0
   -1.2880    0.0000    0.0000 C   0  0  0  0  0  0  0  0  0  0  0  0
   -1.4861    2.1737    0.0000 C   0  0  0  0  0  0  0  0  0  0  0  0
    1.8825   -2.0593    0.0000 C   0  0  0  0  0  0  0  0  0  0  0  0
    0.2972    3.4322    0.0000 C   0  0  0  0  0  0  0  0  0  0  0  0
    0.0990   -3.3178    0.0000 C   0  0  0  0  0  0  0  0  0  0  0  0
    0.6935    2.0593    0.0000 C   0  0  0  0  0  0  0  0  0  0  0  0
   -0.2972   -1.9449    0.0000 C   0  0  0  0  0  0  0  0  0  0  0  0
   -0.6935    2.4025    0.0000 C   0  0  0  0  0  0  0  0  0  0  0  0
    1.0898   -2.2881    0.0000 C   0  0  0  0  0  0  0  0  0  0  0  0
    2.4769    0.3432    0.0000 C   0  0  0  0  0  0  0  0  0  0  0  0
   -2.0806   -0.2288    0.0000 C   0  0  0  0  0  0  0  0  0  0  0  0
    0.8917    2.8601    0.0000 C   0  0  0  0  0  0  0  0  0  0  0  0
   -0.4953   -2.7457    0.0000 C   0  0  0  0  0  0  0  0  0  0  0  0
   -0.4953    3.2033    0.0000 N   0  0  0  0  0  0  0  0  0  0  0  0
    0.8917   -3.0889    0.0000 N   0  0  0  0  0  0  0  0  0  0  0  0
    1.0898    0.6864    0.0000 N   0  0  0  0  0  0  0  0  0  0  0  0
   -0.6935   -0.5720    0.0000 N   0  0  0  0  0  0  0  0  0  0  0  0
    2.6751    1.1440    0.0000 O   0  0  0  0  0  0  0  0  0  0  0  0
    3.0714   -0.2288    0.0000 O   0  5  0  0  0  0  0  0  0  0  0  0
   -2.2788   -1.0296    0.0000 O   0  0  0  0  0  0  0  0  0  0  0  0
   -2.6751    0.3432    0.0000 O   0  5  0  0  0  0  0  0  0  0  0  0
    1.6843    3.0889    0.0000 O   0  0  0  0  0  0  0  0  0  0  0  0
   -1.2880   -2.9745    0.0000 O   0  0  0  0  0  0  0  0  0  0  0  0
   -3.6659    2.2881    0.0000 O   0  0  0  0  0  0  0  0  0  0  0  0
   -2.6444    1.7243    0.0000 O   0  0  0  0  0  0  0  0  0  0  0  0
   -3.1021    3.3095    0.0000 O   0  0  0  0  0  0  0  0  0  0  0  0
    3.0796   -3.6303    0.0000 O   0  0  0  0  0  0  0  0  0  0  0  0
    2.0806   -4.2330    0.0000 O   0  0  0  0  0  0  0  0  0  0  0  0
    1.4779   -3.2340    0.0000 O   0  0  0  0  0  0  0  0  0  0  0  0
   -2.0806    2.7457    0.0000 O   0  0  0  0  0  0  0  0  0  0  0  0
    2.4769   -2.6313    0.0000 O   0  0  0  0  0  0  0  0  0  0  0  0
   -2.8732    2.5169    0.0000 P   0  0  0  0  0  0  0  0  0  0  0  0
    2.2788   -3.4322    0.0000 P   0  0  0  0  0  0  0  0  0  0  0  0
    3.6659   -0.8008    0.0000 Mn  0  2  0  0  0  0  0  0  0  0  0  0
  4  3  1  0  0  0  0
 13  1  1  0  0  0  0
 14  2  1  0  0  0  0
 15  5  2  0  0  0  0
 15  7  1  0  0  0  0
 16  6  2  0  0  0  0
 16  8  1  0  0  0  0
 17  5  1  0  0  0  0
 17 11  1  0  0  0  0
 18  6  1  0  0  0  0
 18 12  1  0  0  0  0
 19  9  1  0  0  0  0
 20 10  1  0  0  0  0
 21 13  2  0  0  0  0
 21 15  1  0  0  0  0
 22 14  2  0  0  0  0
 22 16  1  0  0  0  0
 23 13  1  0  0  0  0
 23 17  2  0  0  0  0
 24 14  1  0  0  0  0
 24 18  2  0  0  0  0
 25  3  1  0  0  0  0
 25  7  1  0  0  0  0
 25  9  1  0  0  0  0
 26  4  1  0  0  0  0
 26  8  1  0  0  0  0
 26 10  1  0  0  0  0
 27 19  2  0  0  0  0
 28 19  1  0  0  0  0
 29 20  2  0  0  0  0
 30 20  1  0  0  0  0
 31 21  1  0  0  0  0
 32 22  1  0  0  0  0
 39 11  1  0  0  0  0
 40 12  1  0  0  0  0
 41 33  1  0  0  0  0
 41 34  1  0  0  0  0
 41 35  2  0  0  0  0
 41 39  1  0  0  0  0
 42 36  1  0  0  0  0
 42 37  1  0  0  0  0
 42 38  2  0  0  0  0
 42 40  1  0  0  0  0
M  CHG  3  28  -1  30  -1  43   2
M  END
> <DATABASE_ID>
DB06796

> <DATABASE_NAME>
drugbank

> <SMILES>
[Mn++].CC1=C(O)C(CN(CCN(CC([O-])=O)CC2=CC(COP(O)(O)=O)=NC(C)=C2O)CC([O-])=O)=CC(COP(O)(O)=O)=N1

> <INCHI_IDENTIFIER>
InChI=1S/C22H32N4O14P2.Mn/c1-13-21(31)15(5-17(23-13)11-39-41(33,34)35)7-25(9-19(27)28)3-4-26(10-20(29)30)8-16-6-18(12-40-42(36,37)38)24-14(2)22(16)32;/h5-6,31-32H,3-4,7-12H2,1-2H3,(H,27,28)(H,29,30)(H2,33,34,35)(H2,36,37,38);/q;+2/p-2

> <INCHI_KEY>
CXFKOLCMCRBYPL-UHFFFAOYSA-L

> <FORMULA>
C22H30MnN4O14P2

> <MOLECULAR_WEIGHT>
691.382

> <EXACT_MASS>
691.06142

> <JCHEM_ACCEPTOR_COUNT>
16

> <JCHEM_ATOM_COUNT>
73

> <JCHEM_AVERAGE_POLARIZABILITY>
56.97092072751037

> <JCHEM_BIOAVAILABILITY>
0

> <JCHEM_DONOR_COUNT>
6

> <JCHEM_FORMAL_CHARGE>
0

> <JCHEM_GHOSE_FILTER>
0

> <JCHEM_IUPAC>
manganese(2+) ion 2-({2-[(carboxylatomethyl)({3-hydroxy-2-methyl-6-[(phosphonooxy)methyl]pyridin-4-yl}methyl)amino]ethyl}({3-hydroxy-2-methyl-6-[(phosphonooxy)methyl]pyridin-4-yl}methyl)amino)acetate

> <ALOGPS_LOGP>
0.79

> <JCHEM_LOGP>
-1.7848961366666662

> <ALOGPS_LOGS>
-2.85

> <JCHEM_MDDR_LIKE_RULE>
0

> <JCHEM_NUMBER_OF_RINGS>
2

> <JCHEM_PHYSIOLOGICAL_CHARGE>
-4

> <JCHEM_PKA>
1.9665881904099587

> <JCHEM_PKA_STRONGEST_ACIDIC>
1.3768500519412896

> <JCHEM_PKA_STRONGEST_BASIC>
-6.37583692849238

> <JCHEM_POLAR_SURFACE_AREA>
286.5

> <JCHEM_REFRACTIVITY>
164.24000000000004

> <JCHEM_ROTATABLE_BOND_COUNT>
17

> <JCHEM_RULE_OF_FIVE>
0

> <ALOGPS_SOLUBILITY>
1.06e+00 g/l

> <JCHEM_TRADITIONAL_IUPAC>
manganese(2+) ion 2-({2-[(carboxylatomethyl)({3-hydroxy-2-methyl-6-[(phosphonooxy)methyl]pyridin-4-yl}methyl)amino]ethyl}({3-hydroxy-2-methyl-6-[(phosphonooxy)methyl]pyridin-4-yl}methyl)amino)acetate

> <JCHEM_VEBER_RULE>
0

> <DRUGBANK_ID>
DB06796

> <DRUG_GROUPS>
withdrawn

> <GENERIC_NAME>
Mangafodipir

> <PRODUCTS>
Teslascan

> <SALTS>
Mangafodipir trisodium

$$$$

  Mrv0541 02241214202D          

 43 43  0  0  0  0            999 V2000
   -6.4302    2.8875    0.0000 C   0  0  0  0  0  0  0  0  0  0  0  0
   -5.7158    2.4750    0.0000 C   0  0  0  0  0  0  0  0  0  0  0  0
   -5.0013    2.8875    0.0000 C   0  0  0  0  0  0  0  0  0  0  0  0
   -4.2868    2.4750    0.0000 C   0  0  0  0  0  0  0  0  0  0  0  0
   -3.5724    2.8875    0.0000 C   0  0  0  0  0  0  0  0  0  0  0  0
   -2.8579    2.4750    0.0000 C   0  0  0  0  0  0  0  0  0  0  0  0
   -2.1434    2.8875    0.0000 C   0  0  0  0  0  0  0  0  0  0  0  0
   -1.4289    2.4750    0.0000 C   0  0  0  0  0  0  0  0  0  0  0  0
   -0.7145    2.8875    0.0000 C   0  0  0  0  0  0  0  0  0  0  0  0
    0.0000    2.4750    0.0000 C   0  0  0  0  0  0  0  0  0  0  0  0
    0.7145    2.8875    0.0000 C   0  0  0  0  0  0  0  0  0  0  0  0
    1.4289    2.4750    0.0000 C   0  0  0  0  0  0  0  0  0  0  0  0
    1.4289    1.6500    0.0000 C   0  0  0  0  0  0  0  0  0  0  0  0
    0.7145    1.2375    0.0000 C   0  0  0  0  0  0  0  0  0  0  0  0
    0.0000    1.6500    0.0000 C   0  0  0  0  0  0  0  0  0  0  0  0
    2.1434    1.2375    0.0000 O   0  0  0  0  0  0  0  0  0  0  0  0
    2.8579    1.6500    0.0000 C   0  0  0  0  0  0  0  0  0  0  0  0
    3.5724    1.2375    0.0000 C   0  0  0  0  0  0  0  0  0  0  0  0
    4.2868    1.6500    0.0000 O   0  0  0  0  0  0  0  0  0  0  0  0
    5.0013    1.2375    0.0000 C   0  0  0  0  0  0  0  0  0  0  0  0
    5.7158    1.6500    0.0000 C   0  0  0  0  0  0  0  0  0  0  0  0
    6.4302    1.2375    0.0000 O   0  0  0  0  0  0  0  0  0  0  0  0
    7.1447    1.6500    0.0000 C   0  0  0  0  0  0  0  0  0  0  0  0
    7.8592    1.2375    0.0000 C   0  0  0  0  0  0  0  0  0  0  0  0
    8.5737    1.6500    0.0000 O   0  0  0  0  0  0  0  0  0  0  0  0
    9.2881    1.2375    0.0000 C   0  0  0  0  0  0  0  0  0  0  0  0
   10.0026    1.6500    0.0000 C   0  0  0  0  0  0  0  0  0  0  0  0
   10.7171    1.2375    0.0000 O   0  0  0  0  0  0  0  0  0  0  0  0
   11.4315    1.6500    0.0000 C   0  0  0  0  0  0  0  0  0  0  0  0
   12.1460    1.2375    0.0000 C   0  0  0  0  0  0  0  0  0  0  0  0
   12.8605    1.6500    0.0000 O   0  0  0  0  0  0  0  0  0  0  0  0
   13.5749    1.2375    0.0000 C   0  0  0  0  0  0  0  0  0  0  0  0
   14.2894    1.6500    0.0000 C   0  0  0  0  0  0  0  0  0  0  0  0
   15.0039    1.2375    0.0000 O   0  0  0  0  0  0  0  0  0  0  0  0
   15.7184    1.6500    0.0000 C   0  0  0  0  0  0  0  0  0  0  0  0
   16.4328    1.2375    0.0000 C   0  0  0  0  0  0  0  0  0  0  0  0
   17.1473    1.6500    0.0000 O   0  0  0  0  0  0  0  0  0  0  0  0
   17.8618    1.2375    0.0000 C   0  0  0  0  0  0  0  0  0  0  0  0
   18.5762    1.6500    0.0000 C   0  0  0  0  0  0  0  0  0  0  0  0
   19.2907    1.2375    0.0000 O   0  0  0  0  0  0  0  0  0  0  0  0
   20.0052    1.6500    0.0000 C   0  0  0  0  0  0  0  0  0  0  0  0
   20.7197    1.2375    0.0000 C   0  0  0  0  0  0  0  0  0  0  0  0
   21.4341    1.6500    0.0000 O   0  0  0  0  0  0  0  0  0  0  0  0
  1  2  1  0  0  0  0
  2  3  1  0  0  0  0
  3  4  1  0  0  0  0
  4  5  1  0  0  0  0
  5  6  1  0  0  0  0
  6  7  1  0  0  0  0
  7  8  1  0  0  0  0
  8  9  1  0  0  0  0
  9 10  1  0  0  0  0
 10 11  2  0  0  0  0
 11 12  1  0  0  0  0
 12 13  2  0  0  0  0
 13 14  1  0  0  0  0
 14 15  2  0  0  0  0
 10 15  1  0  0  0  0
 13 16  1  0  0  0  0
 16 17  1  0  0  0  0
 17 18  1  0  0  0  0
 18 19  1  0  0  0  0
 19 20  1  0  0  0  0
 20 21  1  0  0  0  0
 21 22  1  0  0  0  0
 22 23  1  0  0  0  0
 23 24  1  0  0  0  0
 24 25  1  0  0  0  0
 25 26  1  0  0  0  0
 26 27  1  0  0  0  0
 27 28  1  0  0  0  0
 28 29  1  0  0  0  0
 29 30  1  0  0  0  0
 30 31  1  0  0  0  0
 31 32  1  0  0  0  0
 32 33  1  0  0  0  0
 33 34  1  0  0  0  0
 34 35  1  0  0  0  0
 35 36  1  0  0  0  0
 36 37  1  0  0  0  0
 37 38  1  0  0  0  0
 38 39  1  0  0  0  0
 39 40  1  0  0  0  0
 40 41  1  0  0  0  0
 41 42  1  0  0  0  0
 42 43  1  0  0  0  0
M  END
> <DATABASE_ID>
DB06804

> <DATABASE_NAME>
drugbank

> <SMILES>
CCCCCCCCCC1=CC=C(OCCOCCOCCOCCOCCOCCOCCOCCOCCO)C=C1

> <INCHI_IDENTIFIER>
InChI=1S/C33H60O10/c1-2-3-4-5-6-7-8-9-32-10-12-33(13-11-32)43-31-30-42-29-28-41-27-26-40-25-24-39-23-22-38-21-20-37-19-18-36-17-16-35-15-14-34/h10-13,34H,2-9,14-31H2,1H3

> <INCHI_KEY>
FBWNMEQMRUMQSO-UHFFFAOYSA-N

> <FORMULA>
C33H60O10

> <MOLECULAR_WEIGHT>
616.8235

> <EXACT_MASS>
616.41864814

> <JCHEM_ACCEPTOR_COUNT>
10

> <JCHEM_AVERAGE_POLARIZABILITY>
77.06672800698095

> <JCHEM_BIOAVAILABILITY>
0

> <JCHEM_DONOR_COUNT>
1

> <JCHEM_FORMAL_CHARGE>
0

> <JCHEM_GHOSE_FILTER>
0

> <JCHEM_IUPAC>
26-(4-nonylphenoxy)-3,6,9,12,15,18,21,24-octaoxahexacosan-1-ol

> <ALOGPS_LOGP>
3.49

> <JCHEM_LOGP>
4.819639180999998

> <ALOGPS_LOGS>
-6.46

> <JCHEM_MDDR_LIKE_RULE>
0

> <JCHEM_NUMBER_OF_RINGS>
1

> <JCHEM_PHYSIOLOGICAL_CHARGE>
0

> <JCHEM_PKA_STRONGEST_ACIDIC>
15.121155523152112

> <JCHEM_PKA_STRONGEST_BASIC>
-2.7458065741732653

> <JCHEM_POLAR_SURFACE_AREA>
103.30000000000003

> <JCHEM_REFRACTIVITY>
169.01069999999999

> <JCHEM_ROTATABLE_BOND_COUNT>
35

> <JCHEM_RULE_OF_FIVE>
0

> <ALOGPS_SOLUBILITY>
2.14e-04 g/l

> <JCHEM_TRADITIONAL_IUPAC>
26-(4-nonylphenoxy)-3,6,9,12,15,18,21,24-octaoxahexacosan-1-ol

> <JCHEM_VEBER_RULE>
0

> <DRUGBANK_ID>
DB06804

> <DRUG_GROUPS>
approved; withdrawn

> <GENERIC_NAME>
Nonoxynol-9

> <SYNONYMS>
26-(Nonylphenoxy)-3,6,9,12,15,18,21,24-octaoxahexacosan-1-ol; Nonaethylene glycol mono(nonylphenyl) ether; Nonaethylene glycol nonylphenyl ether; Nonoxynol 9; Nonylphenol octa(oxyethylene) ethanol; PEG-9 nonyl phenyl ether; Tergitol NP-9; Tergitol NP9

> <PRODUCTS>
Conceptrol Options; Encare; Gynol II Extra Strength; Today Vaginal Contraceptive; VCF Contraceptive; VCF Contraceptive Pre-filled Applicators

> <INTERNATIONAL_BRANDS>
Advantage 24; Gynoll; Today; VCF

$$$$
 
  Mrv0541 02241214202D          

 76 83  0  0  1  0            999 V2000
   21.9292  -17.6589    0.0000 C   0  0  2  0  0  0  0  0  0  0  0  0
   21.2033  -17.2711    0.0000 O   0  0  0  0  0  0  0  0  0  0  0  0
   20.5028  -17.7070    0.0000 C   0  0  1  0  0  0  0  0  0  0  0  0
   20.4880  -18.5316    0.0000 C   0  0  2  0  0  0  0  0  0  0  0  0
   21.2560  -18.9193    0.0000 C   0  0  1  0  0  0  0  0  0  0  0  0
   21.9151  -18.4834    0.0000 C   0  0  0  0  0  0  0  0  0  0  0  0
   23.2854  -15.1345    0.0000 C   0  0  2  0  0  0  0  0  0  0  0  0
   22.5669  -14.7506    0.0000 O   0  0  0  0  0  0  0  0  0  0  0  0
   21.8664  -15.1864    0.0000 C   0  0  1  0  0  0  0  0  0  0  0  0
   21.8515  -16.0109    0.0000 C   0  0  1  0  0  0  0  0  0  0  0  0
   22.6119  -16.3948    0.0000 C   0  0  1  0  0  0  0  0  0  0  0  0
   23.2712  -15.9591    0.0000 C   0  0  0  0  0  0  0  0  0  0  0  0
   22.6391  -17.2172    0.0000 O   0  0  0  0  0  0  0  0  0  0  0  0
   24.6451  -12.6159    0.0000 C   0  0  2  0  0  0  0  0  0  0  0  0
   23.9162  -12.2152    0.0000 O   0  0  0  0  0  0  0  0  0  0  0  0
   23.2106  -12.6426    0.0000 C   0  0  1  0  0  0  0  0  0  0  0  0
   23.1867  -13.4674    0.0000 C   0  0  2  0  0  0  0  0  0  0  0  0
   23.9569  -13.8681    0.0000 C   0  0  1  0  0  0  0  0  0  0  0  0
   24.6625  -13.4407    0.0000 C   0  0  0  0  0  0  0  0  0  0  0  0
   18.1612  -11.8605    0.0000 C   0  0  2  0  0  0  0  0  0  0  0  0
   17.4517  -11.4509    0.0000 O   0  0  0  0  0  0  0  0  0  0  0  0
   16.7372  -11.8634    0.0000 C   0  0  1  0  0  0  0  0  0  0  0  0
   16.7372  -12.6884    0.0000 C   0  0  2  0  0  0  0  0  0  0  0  0
   17.4467  -13.0980    0.0000 C   0  0  1  0  0  0  0  0  0  0  0  0
   18.1612  -12.6855    0.0000 C   0  0  0  0  0  0  0  0  0  0  0  0
   18.1711   -9.3798    0.0000 C   0  0  2  0  0  0  0  0  0  0  0  0
   18.1711  -10.2048    0.0000 C   0  0  2  0  0  0  0  0  0  0  0  0
   18.8855  -10.6173    0.0000 C   0  0  1  0  0  0  0  0  0  0  0  0
   19.6000  -10.2048    0.0000 C   0  0  0  0  0  0  0  0  0  0  0  0
   19.6000   -9.3798    0.0000 C   0  0  1  0  0  0  0  0  0  0  0  0
   18.8855   -8.9673    0.0000 O   0  0  0  0  0  0  0  0  0  0  0  0
   21.0289  -10.2048    0.0000 C   0  0  0  0  0  0  0  0  0  0  0  0
   21.0289   -9.3798    0.0000 C   0  0  0  0  0  0  0  0  0  0  0  0
   20.3145   -8.9673    0.0000 O   0  0  0  0  0  0  0  0  0  0  0  0
   21.7435  -10.6173    0.0000 C   0  0  0  0  0  0  0  0  0  0  0  0
   22.4579  -10.2048    0.0000 C   0  0  0  0  0  0  0  0  0  0  0  0
   22.4579   -9.3798    0.0000 C   0  0  0  0  0  0  0  0  0  0  0  0
   21.7435   -8.9673    0.0000 C   0  0  0  0  0  0  0  0  0  0  0  0
   23.1724  -10.6173    0.0000 C   0  0  0  0  0  0  0  0  0  0  0  0
   23.8869  -10.2048    0.0000 C   0  0  0  0  0  0  0  0  0  0  0  0
   23.8869   -9.3798    0.0000 C   0  0  0  0  0  0  0  0  0  0  0  0
   23.1724   -8.9673    0.0000 C   0  0  0  0  0  0  0  0  0  0  0  0
   24.6013  -10.6173    0.0000 C   0  0  0  0  0  0  0  0  0  0  0  0
   25.3158  -10.2048    0.0000 C   0  0  2  0  0  0  0  0  0  0  0  0
   25.3158   -9.3798    0.0000 C   0  0  1  0  0  0  0  0  0  0  0  0
   24.6013   -8.9673    0.0000 C   0  0  0  0  0  0  0  0  0  0  0  0
   17.4566   -8.9673    0.0000 C   0  0  0  0  0  0  0  0  0  0  0  0
   18.8855  -11.4422    0.0000 O   0  0  0  0  0  0  0  0  0  0  0  0
   17.4566  -10.6173    0.0000 O   0  0  0  0  0  0  0  0  0  0  0  0
   26.7447  -10.2048    0.0000 O   0  0  0  0  0  0  0  0  0  0  0  0
   26.7447   -9.3798    0.0000 C   0  0  0  0  0  0  0  0  0  0  0  0
   26.0303   -8.9673    0.0000 C   0  0  1  0  0  0  0  0  0  0  0  0
   28.1738  -10.2048    0.0000 O   0  0  0  0  0  0  0  0  0  0  0  0
   28.1738   -9.3798    0.0000 C   0  0  1  0  0  0  0  0  0  0  0  0
   27.4592   -8.9673    0.0000 C   0  0  2  0  0  0  0  0  0  0  0  0
   25.3571  -12.1848    0.0000 O   0  0  0  0  0  0  0  0  0  0  0  0
   26.0303   -8.1425    0.0000 O   0  0  0  0  0  0  0  0  0  0  0  0
   24.6013  -11.4423    0.0000 O   0  0  0  0  0  0  0  0  0  0  0  0
   23.1724  -11.4423    0.0000 O   0  0  0  0  0  0  0  0  0  0  0  0
   21.7435  -11.4421    0.0000 O   0  0  0  0  0  0  0  0  0  0  0  0
   27.4592   -8.1423    0.0000 O   0  0  0  0  0  0  0  0  0  0  0  0
   28.8730   -8.9759    0.0000 C   0  0  0  0  0  0  0  0  0  0  0  0
   25.3305   -7.7384    0.0000 C   0  0  0  0  0  0  0  0  0  0  0  0
   22.4908  -12.2232    0.0000 C   0  0  0  0  0  0  0  0  0  0  0  0
   23.9840  -14.7002    0.0000 O   0  0  0  0  0  0  0  0  0  0  0  0
   17.4466  -13.9171    0.0000 O   0  0  0  0  0  0  0  0  0  0  0  0
   16.0116  -11.4445    0.0000 C   0  0  0  0  0  0  0  0  0  0  0  0
   16.0191  -13.1031    0.0000 O   0  0  0  0  0  0  0  0  0  0  0  0
   22.4896  -13.8770    0.0000 O   0  0  0  0  0  0  0  0  0  0  0  0
   21.1562  -14.8069    0.0000 C   0  0  0  0  0  0  0  0  0  0  0  0
   19.7926  -17.3275    0.0000 C   0  0  0  0  0  0  0  0  0  0  0  0
   20.6726  -19.6264    0.0000 C   0  0  0  0  0  0  0  0  0  0  0  0
   21.8394  -19.6264    0.0000 O   0  0  0  0  0  0  0  0  0  0  0  0
   19.8214  -18.9725    0.0000 O   0  0  0  0  0  0  0  0  0  0  0  0
   21.1812  -16.4539    0.0000 O   0  0  0  0  0  0  0  0  0  0  0  0
   20.3058  -10.6224    0.0000 C   0  0  0  0  0  0  0  0  0  0  0  0
  1  2  1  0  0  0  0
  2  3  1  0  0  0  0
  3  4  1  0  0  0  0
  4  5  1  0  0  0  0
  5  6  1  0  0  0  0
  1  6  1  0  0  0  0
  7  8  1  0  0  0  0
  8  9  1  0  0  0  0
  9 10  1  0  0  0  0
 10 11  1  0  0  0  0
 11 12  1  0  0  0  0
  7 12  1  0  0  0  0
 11 13  1  1  0  0  0
 14 15  1  0  0  0  0
 15 16  1  0  0  0  0
 16 17  1  0  0  0  0
 17 18  1  0  0  0  0
 18 19  1  0  0  0  0
 14 19  1  0  0  0  0
 20 21  1  0  0  0  0
 21 22  1  0  0  0  0
 22 23  1  0  0  0  0
 23 24  1  0  0  0  0
 24 25  1  0  0  0  0
 20 25  1  0  0  0  0
 26 27  1  0  0  0  0
 27 28  1  0  0  0  0
 28 29  1  0  0  0  0
 29 30  1  0  0  0  0
 30 31  1  0  0  0  0
 26 31  1  0  0  0  0
 32 33  2  0  0  0  0
 33 34  1  0  0  0  0
 32 35  1  0  0  0  0
 35 36  2  0  0  0  0
 36 37  1  0  0  0  0
 37 38  2  0  0  0  0
 33 38  1  0  0  0  0
 36 39  1  0  0  0  0
 39 40  2  0  0  0  0
 40 41  1  0  0  0  0
 41 42  2  0  0  0  0
 37 42  1  0  0  0  0
 40 43  1  0  0  0  0
 43 44  1  0  0  0  0
 44 45  1  0  0  0  0
 45 46  1  0  0  0  0
 41 46  1  0  0  0  0
 30 34  1  1  0  0  0
 26 47  1  1  0  0  0
 28 48  1  1  0  0  0
 27 49  1  6  0  0  0
 50 51  2  0  0  0  0
 51 52  1  0  0  0  0
 45 52  1  1  0  0  0
 54 55  1  0  0  0  0
 51 55  1  0  0  0  0
 44 56  1  6  0  0  0
 52 57  1  6  0  0  0
 43 58  2  0  0  0  0
 39 59  1  0  0  0  0
 35 60  1  0  0  0  0
 54 53  1  1  0  0  0
 55 61  1  1  0  0  0
 54 62  1  0  0  0  0
 57 63  1  0  0  0  0
 20 48  1  1  0  0  0
 14 56  1  1  0  0  0
 16 64  1  1  0  0  0
 18 65  1  1  0  0  0
 24 66  1  1  0  0  0
 22 67  1  1  0  0  0
 23 68  1  6  0  0  0
 17 69  1  6  0  0  0
  7 65  1  1  0  0  0
  1 13  1  1  0  0  0
  9 70  1  1  0  0  0
  3 71  1  1  0  0  0
  5 72  1  1  0  0  0
  5 73  1  6  0  0  0
  4 74  1  6  0  0  0
 10 75  1  1  0  0  0
 32 76  1  0  0  0  0
M  END
> <DATABASE_ID>
DB06810

> <DATABASE_NAME>
drugbank

> <SMILES>
CO[C@@H]([C@@H]1CC2=CC3=CC(O[C@H]4C[C@@H](O[C@H]5C[C@@H](O)[C@H](O)[C@@H](C)O5)[C@H](O)[C@@H](C)O4)=C(C)C(O)=C3C(O)=C2C(=O)[C@H]1O[C@H]1C[C@@H](O[C@H]2C[C@@H](O[C@H]3C[C@](C)(O)[C@H](O)[C@@H](C)O3)[C@@H](O)[C@@H](C)O2)[C@H](O)[C@@H](C)O1)C(=O)[C@@H](O)[C@@H](C)O

> <INCHI_IDENTIFIER>
InChI=1S/C52H76O24/c1-18-29(72-34-14-30(43(58)21(4)68-34)73-33-13-28(54)42(57)20(3)67-33)12-26-10-25-11-27(49(66-9)48(63)41(56)19(2)53)50(47(62)39(25)46(61)38(26)40(18)55)76-36-16-31(44(59)23(6)70-36)74-35-15-32(45(60)22(5)69-35)75-37-17-52(8,65)51(64)24(7)71-37/h10,12,19-24,27-28,30-37,41-45,49-51,53-61,64-65H,11,13-17H2,1-9H3/t19-,20-,21-,22-,23-,24-,27+,28-,30-,31-,32-,33+,34+,35+,36+,37+,41+,42-,43-,44-,45+,49+,50+,51-,52+/m1/s1

> <INCHI_KEY>
CFCUWKMKBJTWLW-BKHRDMLASA-N

> <FORMULA>
C52H76O24

> <MOLECULAR_WEIGHT>
1085.1454

> <EXACT_MASS>
1084.47265336

> <JCHEM_ACCEPTOR_COUNT>
24

> <JCHEM_AVERAGE_POLARIZABILITY>
114.41294542859433

> <JCHEM_BIOAVAILABILITY>
0

> <JCHEM_DONOR_COUNT>
11

> <JCHEM_FORMAL_CHARGE>
0

> <JCHEM_GHOSE_FILTER>
0

> <JCHEM_IUPAC>
(2S,3S)-3-[(1S,3S,4R)-3,4-dihydroxy-1-methoxy-2-oxopentyl]-2-{[(2S,4R,5R,6R)-4-{[(2S,4R,5S,6R)-4-{[(2S,4S,5R,6R)-4,5-dihydroxy-4,6-dimethyloxan-2-yl]oxy}-5-hydroxy-6-methyloxan-2-yl]oxy}-5-hydroxy-6-methyloxan-2-yl]oxy}-6-{[(2S,4R,5R,6R)-4-{[(2S,4R,5S,6R)-4,5-dihydroxy-6-methyloxan-2-yl]oxy}-5-hydroxy-6-methyloxan-2-yl]oxy}-8,9-dihydroxy-7-methyl-1,2,3,4-tetrahydroanthracen-1-one

> <ALOGPS_LOGP>
-0.23

> <JCHEM_LOGP>
2.072890882666668

> <ALOGPS_LOGS>
-2.92

> <JCHEM_MDDR_LIKE_RULE>
1

> <JCHEM_NUMBER_OF_RINGS>
8

> <JCHEM_PHYSIOLOGICAL_CHARGE>
0

> <JCHEM_PKA>
9.779212630730843

> <JCHEM_PKA_STRONGEST_ACIDIC>
8.491704000969955

> <JCHEM_PKA_STRONGEST_BASIC>
-3.5756061501231677

> <JCHEM_POLAR_SURFACE_AREA>
358.20000000000005

> <JCHEM_REFRACTIVITY>
257.00910000000016

> <JCHEM_ROTATABLE_BOND_COUNT>
15

> <JCHEM_RULE_OF_FIVE>
0

> <ALOGPS_SOLUBILITY>
1.30e+00 g/l

> <JCHEM_TRADITIONAL_IUPAC>
plicamycin

> <JCHEM_VEBER_RULE>
0

> <DRUGBANK_ID>
DB06810

> <DRUG_GROUPS>
approved; withdrawn

> <GENERIC_NAME>
Plicamycin

> <SYNONYMS>
Mithramycin

> <INTERNATIONAL_BRANDS>
Mithracin

$$$$
AZQ
  Mrv0541 02241213242D          

 23 25  0  0  0  0            999 V2000
   -0.2845   -0.9203    0.0000 C   0  0  0  0  0  0  0  0  0  0  0  0
   -1.0483   -0.6085    0.0000 C   0  0  1  0  0  0  0  0  0  0  0  0
   -0.9877    0.2143    0.0000 C   0  0  0  0  0  0  0  0  0  0  0  0
   -0.1865    0.4109    0.0000 N   0  0  0  0  0  0  0  0  0  0  0  0
    0.2035    1.1379    0.0000 C   0  0  0  0  0  0  0  0  0  0  0  0
    1.0281    1.1637    0.0000 N   0  0  0  0  0  0  0  0  0  0  0  0
    1.4627    0.4625    0.0000 C   0  0  0  0  0  0  0  0  0  0  0  0
    2.2873    0.4882    0.0000 C   0  0  0  0  0  0  0  0  0  0  0  0
    2.7219   -0.2130    0.0000 C   0  0  0  0  0  0  0  0  0  0  0  0
    2.3319   -0.9400    0.0000 C   0  0  0  0  0  0  0  0  0  0  0  0
    1.5073   -0.9658    0.0000 C   0  0  0  0  0  0  0  0  0  0  0  0
    1.0727   -0.2645    0.0000 C   0  0  0  0  0  0  0  0  0  0  0  0
    0.2481   -0.2903    0.0000 N   0  0  0  0  0  0  0  0  0  0  0  0
   -0.0879   -1.7216    0.0000 O   0  0  0  0  0  0  0  0  0  0  0  0
   -1.7496   -1.0431    0.0000 C   0  0  0  0  0  0  0  0  0  0  0  0
   -2.4766   -0.6531    0.0000 C   0  0  0  0  0  0  0  0  0  0  0  0
   -3.1778   -1.0877    0.0000 C   0  0  0  0  0  0  0  0  0  0  0  0
   -1.6178    0.7469    0.0000 O   0  0  0  0  0  0  0  0  0  0  0  0
   -0.2311    1.8392    0.0000 N   0  0  0  0  0  0  0  0  0  0  0  0
    0.1588    2.5662    0.0000 C   0  0  0  0  0  0  0  0  0  0  0  0
   -1.0557    1.8134    0.0000 C   0  0  0  0  0  0  0  0  0  0  0  0
    2.7665   -1.6413    0.0000 C   0  0  0  0  0  0  0  0  0  0  0  0
   -0.9996   -1.1904    0.0000 H   0  0  0  0  0  0  0  0  0  0  0  0
  1  2  1  0  0  0  0
  1 13  1  0  0  0  0
  1 14  2  0  0  0  0
  2  3  1  0  0  0  0
  2 15  1  6  0  0  0
  2 23  1  1  0  0  0
  3  4  1  0  0  0  0
  3 18  2  0  0  0  0
  4  5  1  0  0  0  0
  4 13  1  0  0  0  0
  5  6  2  0  0  0  0
  5 19  1  0  0  0  0
  6  7  1  0  0  0  0
  7  8  2  0  0  0  0
  7 12  1  0  0  0  0
  8  9  1  0  0  0  0
  9 10  2  0  0  0  0
 10 11  1  0  0  0  0
 10 22  1  0  0  0  0
 11 12  2  0  0  0  0
 12 13  1  0  0  0  0
 15 16  1  0  0  0  0
 16 17  2  0  0  0  0
 19 20  1  0  0  0  0
 19 21  1  0  0  0  0
M  END
> <DATABASE_ID>
DB07402

> <DATABASE_NAME>
drugbank

> <SMILES>
[H][C@@]1(CC=C)C(=O)N2N(C1=O)C1=CC(C)=CC=C1N=C2N(C)C

> <INCHI_IDENTIFIER>
InChI=1S/C16H18N4O2/c1-5-6-11-14(21)19-13-9-10(2)7-8-12(13)17-16(18(3)4)20(19)15(11)22/h5,7-9,11H,1,6H2,2-4H3/t11-/m0/s1

> <INCHI_KEY>
WOIIIUDZSOLAIW-NSHDSACASA-N

> <FORMULA>
C16H18N4O2

> <MOLECULAR_WEIGHT>
298.3397

> <EXACT_MASS>
298.14297584

> <JCHEM_ACCEPTOR_COUNT>
4

> <JCHEM_AVERAGE_POLARIZABILITY>
31.941668519875726

> <JCHEM_BIOAVAILABILITY>
1

> <JCHEM_DONOR_COUNT>
0

> <JCHEM_FORMAL_CHARGE>
0

> <JCHEM_GHOSE_FILTER>
1

> <JCHEM_IUPAC>
(4S)-7-(dimethylamino)-12-methyl-4-(prop-2-en-1-yl)-2,6,8-triazatricyclo[7.4.0.0²,⁶]trideca-1(13),7,9,11-tetraene-3,5-dione

> <ALOGPS_LOGP>
0.92

> <JCHEM_LOGP>
2.0770522305713186

> <ALOGPS_LOGS>
-2.67

> <JCHEM_MDDR_LIKE_RULE>
0

> <JCHEM_NUMBER_OF_RINGS>
3

> <JCHEM_PHYSIOLOGICAL_CHARGE>
0

> <JCHEM_PKA_STRONGEST_ACIDIC>
0.5158047408109683

> <JCHEM_PKA_STRONGEST_BASIC>
7.576685069604842

> <JCHEM_POLAR_SURFACE_AREA>
56.22

> <JCHEM_REFRACTIVITY>
85.68989999999998

> <JCHEM_ROTATABLE_BOND_COUNT>
2

> <JCHEM_RULE_OF_FIVE>
1

> <ALOGPS_SOLUBILITY>
6.41e-01 g/l

> <JCHEM_TRADITIONAL_IUPAC>
azapropazone

> <JCHEM_VEBER_RULE>
0

> <DRUGBANK_ID>
DB07402

> <DRUG_GROUPS>
withdrawn

> <GENERIC_NAME>
Azapropazone

> <INTERNATIONAL_BRANDS>
Rheumox

$$$$
HXS
  Mrv0541 02241213442D          

 22 23  0  0  0  0            999 V2000
   -1.0595    2.2472    0.0000 C   0  0  0  0  0  0  0  0  0  0  0  0
   -0.3450    2.6597    0.0000 C   0  0  0  0  0  0  0  0  0  0  0  0
    0.3695    2.2472    0.0000 C   0  0  0  0  0  0  0  0  0  0  0  0
    0.3695    1.4222    0.0000 C   0  0  0  0  0  0  0  0  0  0  0  0
   -0.3450    1.0097    0.0000 C   0  0  0  0  0  0  0  0  0  0  0  0
   -0.3450    3.4847    0.0000 O   0  0  0  0  0  0  0  0  0  0  0  0
   -1.0595    1.4222    0.0000 C   0  0  0  0  0  0  0  0  0  0  0  0
   -0.3450    0.1847    0.0000 C   0  0  2  0  0  0  0  0  0  0  0  0
   -1.0595   -0.2278    0.0000 C   0  0  0  0  0  0  0  0  0  0  0  0
   -1.7739    0.1847    0.0000 C   0  0  0  0  0  0  0  0  0  0  0  0
    0.3695   -0.2278    0.0000 C   0  0  2  0  0  0  0  0  0  0  0  0
    1.0840    0.1847    0.0000 C   0  0  0  0  0  0  0  0  0  0  0  0
    1.7984   -0.2278    0.0000 C   0  0  0  0  0  0  0  0  0  0  0  0
    0.3695   -1.0528    0.0000 C   0  0  0  0  0  0  0  0  0  0  0  0
    1.0840   -1.4653    0.0000 C   0  0  0  0  0  0  0  0  0  0  0  0
    1.0840   -2.2903    0.0000 C   0  0  0  0  0  0  0  0  0  0  0  0
    0.3695   -2.7028    0.0000 C   0  0  0  0  0  0  0  0  0  0  0  0
    0.3695   -3.5278    0.0000 O   0  0  0  0  0  0  0  0  0  0  0  0
   -0.3450   -2.2903    0.0000 C   0  0  0  0  0  0  0  0  0  0  0  0
   -0.3450   -1.4653    0.0000 C   0  0  0  0  0  0  0  0  0  0  0  0
   -0.8507    0.4767    0.0000 H   0  0  0  0  0  0  0  0  0  0  0  0
    0.3695    0.3562    0.0000 H   0  0  0  0  0  0  0  0  0  0  0  0
  1  2  2  0  0  0  0
  1  7  1  0  0  0  0
  2  3  1  0  0  0  0
  2  6  1  0  0  0  0
  3  4  2  0  0  0  0
  4  5  1  0  0  0  0
  5  7  2  0  0  0  0
  5  8  1  0  0  0  0
  8  9  1  1  0  0  0
  8 11  1  0  0  0  0
  8 21  1  6  0  0  0
  9 10  1  0  0  0  0
 11 12  1  0  0  0  0
 11 14  1  1  0  0  0
 11 22  1  1  0  0  0
 12 13  1  0  0  0  0
 14 15  2  0  0  0  0
 14 20  1  0  0  0  0
 15 16  1  0  0  0  0
 16 17  2  0  0  0  0
 17 18  1  0  0  0  0
 17 19  1  0  0  0  0
 19 20  2  0  0  0  0
M  END
> <DATABASE_ID>
DB07931

> <DATABASE_NAME>
drugbank

> <SMILES>
[H][C@](CC)(C1=CC=C(O)C=C1)[C@]([H])(CC)C1=CC=C(O)C=C1

> <INCHI_IDENTIFIER>
InChI=1S/C18H22O2/c1-3-17(13-5-9-15(19)10-6-13)18(4-2)14-7-11-16(20)12-8-14/h5-12,17-20H,3-4H2,1-2H3/t17-,18+

> <INCHI_KEY>
PBBGSZCBWVPOOL-HDICACEKSA-N

> <FORMULA>
C18H22O2

> <MOLECULAR_WEIGHT>
270.3661

> <EXACT_MASS>
270.161979948

> <JCHEM_ACCEPTOR_COUNT>
2

> <JCHEM_AVERAGE_POLARIZABILITY>
31.306252312554726

> <JCHEM_BIOAVAILABILITY>
1

> <JCHEM_DONOR_COUNT>
2

> <JCHEM_FORMAL_CHARGE>
0

> <JCHEM_GHOSE_FILTER>
1

> <JCHEM_IUPAC>
4-[(3R,4S)-4-(4-hydroxyphenyl)hexan-3-yl]phenol

> <ALOGPS_LOGP>
4.98

> <JCHEM_LOGP>
5.365653387333333

> <ALOGPS_LOGS>
-4.29

> <JCHEM_MDDR_LIKE_RULE>
0

> <JCHEM_NUMBER_OF_RINGS>
2

> <JCHEM_PHYSIOLOGICAL_CHARGE>
0

> <JCHEM_PKA>
10.528838560353584

> <JCHEM_PKA_STRONGEST_ACIDIC>
9.92658743011141

> <JCHEM_PKA_STRONGEST_BASIC>
-5.4484876357871075

> <JCHEM_POLAR_SURFACE_AREA>
40.46

> <JCHEM_REFRACTIVITY>
82.6572

> <JCHEM_ROTATABLE_BOND_COUNT>
5

> <JCHEM_RULE_OF_FIVE>
0

> <ALOGPS_SOLUBILITY>
1.39e-02 g/l

> <JCHEM_TRADITIONAL_IUPAC>
hexestrol

> <JCHEM_VEBER_RULE>
0

> <DRUGBANK_ID>
DB07931

> <SECONDARY_ACCESSION_NUMBERS>
DB08959

> <DRUG_GROUPS>
withdrawn

> <GENERIC_NAME>
Hexestrol

> <SYNONYMS>
4,4'-(1,2-diethylethylene)diphenol; Erythrohexestrol; Hexanoestrol; Hexoestrolum; Meso-3,4-di(p-hydroxyphenyl)-n-hexane; Meso-hexestrol; Mesohexestrol; Synoestrolum

> <INTERNATIONAL_BRANDS>
Hexoestrol; Synestrol

> <SALTS>
Hexestrol diphosphate sodium

$$$$

  Mrv1572004061620022D          

 30 33  0  0  0  0            999 V2000
    2.5006   -3.0937    0.0000 C   0  0  0  0  0  0  0  0  0  0  0  0
    2.5006   -2.2687    0.0000 C   0  0  0  0  0  0  0  0  0  0  0  0
    2.5006    2.6812    0.0000 C   0  0  0  0  0  0  0  0  0  0  0  0
   -2.5006   -1.0312    0.0000 C   0  0  0  0  0  0  0  0  0  0  0  0
    1.7861    3.0937    0.0000 C   0  0  0  0  0  0  0  0  0  0  0  0
   -2.5006   -1.8562    0.0000 C   0  0  0  0  0  0  0  0  0  0  0  0
    2.5006    1.8562    0.0000 C   0  0  0  0  0  0  0  0  0  0  0  0
   -1.7861   -0.6187    0.0000 C   0  0  0  0  0  0  0  0  0  0  0  0
    1.0717    2.6812    0.0000 C   0  0  0  0  0  0  0  0  0  0  0  0
   -1.7861   -2.2687    0.0000 C   0  0  0  0  0  0  0  0  0  0  0  0
    1.7861    1.4437    0.0000 C   0  0  0  0  0  0  0  0  0  0  0  0
   -1.0717   -1.0312    0.0000 C   0  0  0  0  0  0  0  0  0  0  0  0
    1.0717    1.8562    0.0000 C   0  0  0  0  0  0  0  0  0  0  0  0
   -1.0717   -1.8562    0.0000 C   0  0  0  0  0  0  0  0  0  0  0  0
    1.0717   -0.6187    0.0000 C   0  0  0  0  0  0  0  0  0  0  0  0
    1.0717    0.2062    0.0000 C   0  0  0  0  0  0  0  0  0  0  0  0
    0.3572   -1.0312    0.0000 C   0  0  0  0  0  0  0  0  0  0  0  0
    1.7861    0.6187    0.0000 C   0  0  0  0  0  0  0  0  0  0  0  0
   -0.3572   -0.6187    0.0000 C   0  0  0  0  0  0  0  0  0  0  0  0
    1.7861   -1.0312    0.0000 C   0  0  0  0  0  0  0  0  0  0  0  0
    0.3572    0.6187    0.0000 C   0  0  0  0  0  0  0  0  0  0  0  0
    0.3572   -1.8562    0.0000 C   0  0  0  0  0  0  0  0  0  0  0  0
    2.5006    0.2062    0.0000 O   0  0  0  0  0  0  0  0  0  0  0  0
   -0.3572    0.2062    0.0000 O   0  0  0  0  0  0  0  0  0  0  0  0
    2.5006   -0.6187    0.0000 O   0  0  0  0  0  0  0  0  0  0  0  0
   -0.4632    0.7049    0.0000 O   0  0  0  0  0  0  0  0  0  0  0  0
    1.0717   -2.2687    0.0000 O   0  0  0  0  0  0  0  0  0  0  0  0
    1.7861   -1.8562    0.0000 O   0  0  0  0  0  0  0  0  0  0  0  0
    0.3572    1.4437    0.0000 O   0  0  0  0  0  0  0  0  0  0  0  0
   -0.3572   -2.2687    0.0000 O   0  0  0  0  0  0  0  0  0  0  0  0
  2  1  1  0  0  0  0
  5  3  2  0  0  0  0
  6  4  2  0  0  0  0
  7  3  1  0  0  0  0
  8  4  1  0  0  0  0
  9  5  1  0  0  0  0
 10  6  1  0  0  0  0
 11  7  2  0  0  0  0
 12  8  2  0  0  0  0
 13  9  2  0  0  0  0
 13 11  1  0  0  0  0
 14 10  2  0  0  0  0
 14 12  1  0  0  0  0
 16 15  1  0  0  0  0
 17 15  1  0  0  0  0
 18 11  1  0  0  0  0
 18 16  2  0  0  0  0
 19 12  1  0  0  0  0
 19 17  2  0  0  0  0
 20 15  1  0  0  0  0
 21 16  1  0  0  0  0
 22 17  1  0  0  0  0
 23 18  1  0  0  0  0
 24 19  1  0  0  0  0
 25 20  2  0  0  0  0
 26 21  2  0  0  0  0
 27 22  2  0  0  0  0
 28  2  1  0  0  0  0
 28 20  1  0  0  0  0
 29 13  1  0  0  0  0
 29 21  1  0  0  0  0
 30 14  1  0  0  0  0
 30 22  1  0  0  0  0
M  END
> <DATABASE_ID>
DB08794

> <DATABASE_NAME>
drugbank

> <SMILES>
CCOC(=O)C(C1=C(O)C2=CC=CC=C2OC1=O)C1=C(O)C2=CC=CC=C2OC1=O

> <INCHI_IDENTIFIER>
InChI=1S/C22H16O8/c1-2-28-20(25)15(16-18(23)11-7-3-5-9-13(11)29-21(16)26)17-19(24)12-8-4-6-10-14(12)30-22(17)27/h3-10,15,23-24H,2H2,1H3

> <INCHI_KEY>
JCLHQFUTFHUXNN-UHFFFAOYSA-N

> <FORMULA>
C22H16O8

> <MOLECULAR_WEIGHT>
408.362

> <EXACT_MASS>
408.084517475

> <JCHEM_ACCEPTOR_COUNT>
5

> <JCHEM_ATOM_COUNT>
46

> <JCHEM_AVERAGE_POLARIZABILITY>
39.97888629716445

> <JCHEM_BIOAVAILABILITY>
1

> <JCHEM_DONOR_COUNT>
2

> <JCHEM_FORMAL_CHARGE>
0

> <JCHEM_GHOSE_FILTER>
1

> <JCHEM_IUPAC>
ethyl 2,2-bis(4-hydroxy-2-oxo-2H-chromen-3-yl)acetate

> <ALOGPS_LOGP>
2.18

> <JCHEM_LOGP>
1.6678783676666664

> <ALOGPS_LOGS>
-3.78

> <JCHEM_MDDR_LIKE_RULE>
0

> <JCHEM_NUMBER_OF_RINGS>
4

> <JCHEM_PHYSIOLOGICAL_CHARGE>
-2

> <JCHEM_PKA>
5.55610554044304

> <JCHEM_PKA_STRONGEST_ACIDIC>
4.822884030553499

> <JCHEM_PKA_STRONGEST_BASIC>
-6.689605904098842

> <JCHEM_POLAR_SURFACE_AREA>
119.36

> <JCHEM_REFRACTIVITY>
104.95039999999997

> <JCHEM_ROTATABLE_BOND_COUNT>
5

> <JCHEM_RULE_OF_FIVE>
1

> <ALOGPS_SOLUBILITY>
6.77e-02 g/l

> <JCHEM_TRADITIONAL_IUPAC>
ethyl biscoumacetate

> <JCHEM_VEBER_RULE>
0

> <DRUGBANK_ID>
DB08794

> <DRUG_GROUPS>
withdrawn

> <GENERIC_NAME>
Ethyl biscoumacetate

> <SYNONYMS>
Ethyl bis(4-hydroxy-2-oxo-2h-1-benzopyran-3-yl)acetate; Ethyldicoumarol

$$$$

  Mrv0541 02231218132D          

 39 41  0  0  1  0            999 V2000
    5.5001    0.5948    0.0000 O   0  0  0  0  0  0  0  0  0  0  0  0
    4.8396   -0.3143    0.0000 O   0  0  0  0  0  0  0  0  0  0  0  0
    6.9013    3.2187    0.0000 O   0  0  0  0  0  0  0  0  0  0  0  0
    4.0145   -3.1724    0.0000 O   0  0  0  0  0  0  0  0  0  0  0  0
    8.2182    1.4779    0.0000 O   0  0  0  0  0  0  0  0  0  0  0  0
    6.0771   -1.0289    0.0000 N   0  0  0  0  0  0  0  0  0  0  0  0
    6.8591    1.0364    0.0000 N   0  0  0  0  0  0  0  0  0  0  0  0
    4.0145   -1.7433    0.0000 N   0  0  0  0  0  0  0  0  0  0  0  0
    2.7770   -2.4578    0.0000 N   0  0  0  0  0  0  0  0  0  0  0  0
    8.5153    2.8757    0.0000 N   0  0  0  0  0  0  0  0  0  0  0  0
    7.3467   -0.6164    0.0000 C   0  0  1  0  0  0  0  0  0  0  0  0
    8.0616   -1.0289    0.0000 C   0  0  0  0  0  0  0  0  0  0  0  0
    7.3467   -1.4414    0.0000 C   0  0  1  0  0  0  0  0  0  0  0  0
    6.5620   -0.3614    0.0000 C   0  0  1  0  0  0  0  0  0  0  0  0
    6.5620   -1.6963    0.0000 C   0  0  0  0  0  0  0  0  0  0  0  0
    8.4741   -1.7433    0.0000 C   0  0  0  0  0  0  0  0  0  0  0  0
    8.4741   -0.3143    0.0000 C   0  0  0  0  0  0  0  0  0  0  0  0
    6.3071    0.4232    0.0000 C   0  0  0  0  0  0  0  0  0  0  0  0
    5.2521   -1.0289    0.0000 C   0  0  0  0  0  0  0  0  0  0  0  0
    4.8396   -1.7433    0.0000 C   0  0  2  0  0  0  0  0  0  0  0  0
    5.2521   -2.4578    0.0000 C   0  0  0  0  0  0  0  0  0  0  0  0
    6.6042    1.8210    0.0000 C   0  0  0  0  0  0  0  0  0  0  0  0
    5.7972    1.9925    0.0000 C   0  0  0  0  0  0  0  0  0  0  0  0
    5.5422    2.7772    0.0000 C   0  0  0  0  0  0  0  0  0  0  0  0
    5.6646   -3.1724    0.0000 C   0  0  0  0  0  0  0  0  0  0  0  0
    4.5376   -2.8703    0.0000 C   0  0  0  0  0  0  0  0  0  0  0  0
    5.9666   -2.0453    0.0000 C   0  0  0  0  0  0  0  0  0  0  0  0
    7.1562    2.4341    0.0000 C   0  0  0  0  0  0  0  0  0  0  0  0
    5.9168    3.5123    0.0000 C   0  0  0  0  0  0  0  0  0  0  0  0
    4.8071    3.1517    0.0000 C   0  0  0  0  0  0  0  0  0  0  0  0
    5.1817    3.8868    0.0000 C   0  0  0  0  0  0  0  0  0  0  0  0
    3.6020   -2.4578    0.0000 C   0  0  0  0  0  0  0  0  0  0  0  0
    7.9632    2.2625    0.0000 C   0  0  0  0  0  0  0  0  0  0  0  0
    2.3645   -3.1724    0.0000 C   0  0  0  0  0  0  0  0  0  0  0  0
    1.9520   -3.8868    0.0000 C   0  0  0  0  0  0  0  0  0  0  0  0
    1.6500   -2.7599    0.0000 C   0  0  0  0  0  0  0  0  0  0  0  0
    3.0791   -3.5849    0.0000 C   0  0  0  0  0  0  0  0  0  0  0  0
    7.6318    0.0243    0.0000 H   0  0  0  0  0  0  0  0  0  0  0  0
    7.6318   -2.0820    0.0000 H   0  0  0  0  0  0  0  0  0  0  0  0
  1 18  2  0  0  0  0
  2 19  2  0  0  0  0
  3 28  2  0  0  0  0
  4 32  2  0  0  0  0
  5 33  2  0  0  0  0
  6 14  1  0  0  0  0
  6 15  1  0  0  0  0
  6 19  1  0  0  0  0
  7 18  1  0  0  0  0
  7 22  1  0  0  0  0
 20  8  1  6  0  0  0
  8 32  1  0  0  0  0
  9 32  1  0  0  0  0
  9 34  1  0  0  0  0
 10 33  1  0  0  0  0
 11 12  1  0  0  0  0
 11 13  1  0  0  0  0
 11 14  1  0  0  0  0
 11 38  1  6  0  0  0
 12 13  1  0  0  0  0
 12 16  1  0  0  0  0
 12 17  1  0  0  0  0
 13 15  1  0  0  0  0
 13 39  1  6  0  0  0
 14 18  1  6  0  0  0
 19 20  1  0  0  0  0
 20 21  1  0  0  0  0
 21 25  1  0  0  0  0
 21 26  1  0  0  0  0
 21 27  1  0  0  0  0
 22 23  1  0  0  0  0
 22 28  1  0  0  0  0
 23 24  1  0  0  0  0
 24 29  1  0  0  0  0
 24 30  1  0  0  0  0
 28 33  1  0  0  0  0
 29 31  1  0  0  0  0
 30 31  1  0  0  0  0
 34 35  1  0  0  0  0
 34 36  1  0  0  0  0
 34 37  1  0  0  0  0
M  END
> <DATABASE_ID>
DB08873

> <DATABASE_NAME>
drugbank

> <SMILES>
[H][C@]12CN([C@H](C(=O)NC(CC3CCC3)C(=O)C(N)=O)[C@@]1([H])C2(C)C)C(=O)[C@@H](NC(=O)NC(C)(C)C)C(C)(C)C

> <INCHI_IDENTIFIER>
InChI=1S/C27H45N5O5/c1-25(2,3)20(30-24(37)31-26(4,5)6)23(36)32-13-15-17(27(15,7)8)18(32)22(35)29-16(19(33)21(28)34)12-14-10-9-11-14/h14-18,20H,9-13H2,1-8H3,(H2,28,34)(H,29,35)(H2,30,31,37)/t15-,16?,17-,18-,20+/m0/s1

> <INCHI_KEY>
LHHCSNFAOIFYRV-DOVBMPENSA-N

> <FORMULA>
C27H45N5O5

> <MOLECULAR_WEIGHT>
519.6767

> <EXACT_MASS>
519.342069575

> <JCHEM_ACCEPTOR_COUNT>
5

> <JCHEM_AVERAGE_POLARIZABILITY>
56.77517708289216

> <JCHEM_BIOAVAILABILITY>
1

> <JCHEM_DONOR_COUNT>
4

> <JCHEM_FORMAL_CHARGE>
0

> <JCHEM_GHOSE_FILTER>
0

> <JCHEM_IUPAC>
3-{[(1R,2S,5S)-3-[(2S)-2-[(tert-butylcarbamoyl)amino]-3,3-dimethylbutanoyl]-6,6-dimethyl-3-azabicyclo[3.1.0]hexan-2-yl]formamido}-4-cyclobutyl-2-oxobutanamide

> <ALOGPS_LOGP>
1.93

> <JCHEM_LOGP>
1.7752963963333332

> <ALOGPS_LOGS>
-4.35

> <JCHEM_MDDR_LIKE_RULE>
1

> <JCHEM_NUMBER_OF_RINGS>
3

> <JCHEM_PHYSIOLOGICAL_CHARGE>
0

> <JCHEM_PKA>
13.573599881096818

> <JCHEM_PKA_STRONGEST_ACIDIC>
12.435855168857742

> <JCHEM_PKA_STRONGEST_BASIC>
-0.9148137313763057

> <JCHEM_POLAR_SURFACE_AREA>
150.7

> <JCHEM_REFRACTIVITY>
138.202

> <JCHEM_ROTATABLE_BOND_COUNT>
10

> <JCHEM_RULE_OF_FIVE>
0

> <ALOGPS_SOLUBILITY>
2.34e-02 g/l

> <JCHEM_TRADITIONAL_IUPAC>
boceprevir

> <JCHEM_VEBER_RULE>
0

> <DRUGBANK_ID>
DB08873

> <SECONDARY_ACCESSION_NUMBERS>
DB05665

> <DRUG_GROUPS>
withdrawn

> <GENERIC_NAME>
Boceprevir

> <PRODUCTS>
Victrelis; Victrelis Triple

$$$$

  Mrv0541 05161311102D          

 32 34  0  0  1  0            999 V2000
    4.3405    2.0419    0.0000 N   0  0  0  0  0  0  0  0  0  0  0  0
    3.6302    3.2799    0.0000 N   0  0  0  0  0  0  0  0  0  0  0  0
    2.9150    2.0419    0.0000 C   0  0  0  0  0  0  0  0  0  0  0  0
    2.9150    2.8656    0.0000 C   0  0  0  0  0  0  0  0  0  0  0  0
    3.6302    1.6375    0.0000 C   0  0  0  0  0  0  0  0  0  0  0  0
    4.3405    2.8656    0.0000 C   0  0  0  0  0  0  0  0  0  0  0  0
    2.1949    1.6375    0.0000 N   0  0  0  0  0  0  0  0  0  0  0  0
   -2.8410    0.5770    0.0000 C   0  0  0  0  0  0  0  0  0  0  0  0
    2.1949    3.2799    0.0000 N   0  0  0  0  0  0  0  0  0  0  0  0
   -2.8804   -0.2417    0.0000 N   0  0  0  0  0  0  0  0  0  0  0  0
   -4.2911   -0.1677    0.0000 C   0  0  0  0  0  0  0  0  0  0  0  0
   -3.6054   -0.6116    0.0000 C   0  0  2  0  0  0  0  0  0  0  0  0
   -3.0136   -2.6832    0.0000 C   0  0  0  0  0  0  0  0  0  0  0  0
   -2.0962    0.9717    0.0000 C   0  0  0  0  0  0  0  0  0  0  0  0
    1.4847    2.0419    0.0000 C   0  0  0  0  0  0  0  0  0  0  0  0
   -4.2566    0.6510    0.0000 O   0  0  0  0  0  0  0  0  0  0  0  0
   -3.5315    1.0308    0.0000 O   0  0  0  0  0  0  0  0  0  0  0  0
   -2.3477   -3.2109    0.0000 O   0  0  0  0  0  0  0  0  0  0  0  0
   -5.0408   -0.5524    0.0000 O   0  0  0  0  0  0  0  0  0  0  0  0
    0.0937    2.0715    0.0000 N   0  0  0  0  0  0  0  0  0  0  0  0
   -3.7732   -2.9792    0.0000 O   0  0  0  0  0  0  0  0  0  0  0  0
    3.6302    0.7991    0.0000 N   0  0  0  0  0  0  0  0  0  0  0  0
    1.4847    2.8656    0.0000 C   0  0  0  0  0  0  0  0  0  0  0  0
    5.0457    3.2799    0.0000 N   0  0  0  0  0  0  0  0  0  0  0  0
   -3.6646   -1.4847    0.0000 C   0  0  0  0  0  0  0  0  0  0  0  0
   -1.4007    0.5179    0.0000 C   0  0  0  0  0  0  0  0  0  0  0  0
   -2.0567    1.7854    0.0000 C   0  0  0  0  0  0  0  0  0  0  0  0
    0.7744    1.6079    0.0000 C   0  0  0  0  0  0  0  0  0  0  0  0
   -2.9002   -1.8644    0.0000 C   0  0  0  0  0  0  0  0  0  0  0  0
   -0.6165    1.7263    0.0000 C   0  0  0  0  0  0  0  0  0  0  0  0
   -1.3120    2.1701    0.0000 C   0  0  0  0  0  0  0  0  0  0  0  0
   -0.6806    0.8879    0.0000 C   0  0  0  0  0  0  0  0  0  0  0  0
  2  6  2  0  0  0  0
  3  5  1  0  0  0  0
  4  2  1  0  0  0  0
  5  1  2  0  0  0  0
  6  1  1  0  0  0  0
  7  3  1  0  0  0  0
  8 14  1  0  0  0  0
  9  4  1  0  0  0  0
 10  8  1  0  0  0  0
 11 12  1  0  0  0  0
 12 10  1  1  0  0  0
 13 29  1  0  0  0  0
 14 26  1  0  0  0  0
 15  7  2  0  0  0  0
 16 11  1  0  0  0  0
 17  8  2  0  0  0  0
 18 13  1  0  0  0  0
 19 11  2  0  0  0  0
 20 28  1  0  0  0  0
 21 13  2  0  0  0  0
 22  5  1  0  0  0  0
 23  9  2  0  0  0  0
 24  6  1  0  0  0  0
 25 12  1  0  0  0  0
 26 32  2  0  0  0  0
 27 31  1  0  0  0  0
 28 15  1  0  0  0  0
 29 25  1  0  0  0  0
 30 20  1  0  0  0  0
 31 30  2  0  0  0  0
 32 30  1  0  0  0  0
  4  3  2  0  0  0  0
 23 15  1  0  0  0  0
 27 14  2  0  0  0  0
M  END
> <DATABASE_ID>
DB08878

> <DATABASE_NAME>
drugbank

> <SMILES>
NC1=NC2=C(N=C(CNC3=CC=C(C=C3)C(=O)N[C@@H](CCC(O)=O)C(O)=O)C=N2)C(N)=N1

> <INCHI_IDENTIFIER>
InChI=1S/C19H20N8O5/c20-15-14-16(27-19(21)26-15)23-8-11(24-14)7-22-10-3-1-9(2-4-10)17(30)25-12(18(31)32)5-6-13(28)29/h1-4,8,12,22H,5-7H2,(H,25,30)(H,28,29)(H,31,32)(H4,20,21,23,26,27)/t12-/m0/s1

> <INCHI_KEY>
TVZGACDUOSZQKY-LBPRGKRZSA-N

> <FORMULA>
C19H20N8O5

> <MOLECULAR_WEIGHT>
440.4127

> <EXACT_MASS>
440.15566579

> <JCHEM_ACCEPTOR_COUNT>
12

> <JCHEM_AVERAGE_POLARIZABILITY>
44.13591320538208

> <JCHEM_BIOAVAILABILITY>
0

> <JCHEM_DONOR_COUNT>
6

> <JCHEM_FORMAL_CHARGE>
0

> <JCHEM_GHOSE_FILTER>
0

> <JCHEM_IUPAC>
(2S)-2-[(4-{[(2,4-diaminopteridin-6-yl)methyl]amino}phenyl)formamido]pentanedioic acid

> <ALOGPS_LOGP>
-0.25

> <JCHEM_LOGP>
-0.9509002766697335

> <ALOGPS_LOGS>
-3.62

> <JCHEM_MDDR_LIKE_RULE>
1

> <JCHEM_NUMBER_OF_RINGS>
3

> <JCHEM_PHYSIOLOGICAL_CHARGE>
-2

> <JCHEM_PKA>
4.175127394711253

> <JCHEM_PKA_STRONGEST_ACIDIC>
3.3831794679262366

> <JCHEM_PKA_STRONGEST_BASIC>
2.2502863730564147

> <JCHEM_POLAR_SURFACE_AREA>
219.33000000000004

> <JCHEM_REFRACTIVITY>
114.97599999999998

> <JCHEM_ROTATABLE_BOND_COUNT>
9

> <JCHEM_RULE_OF_FIVE>
0

> <ALOGPS_SOLUBILITY>
1.06e-01 g/l

> <JCHEM_TRADITIONAL_IUPAC>
4-aminopteroylglutamic acid

> <JCHEM_VEBER_RULE>
0

> <DRUGBANK_ID>
DB08878

> <DRUG_GROUPS>
investigational; withdrawn

> <GENERIC_NAME>
Aminopterin

> <SYNONYMS>
4-amino-4-deoxypteroylglutamate; 4-amino-PGA; 4'-Amino-folsaeure; A-Ninopterin; Aminopteridine; Aminopterine; APGA; Minopterin ; N-(4-{[(2,4-Diamino-6-pteridinyl)methyl]amino}benzoyl)glutamic acid; Pteramina

$$$$
 
  Mrv0541 06131321242D          
 
 25 28  0  0  1  0            999 V2000
   14.3963   -9.9000    0.0000 C   0  0  1  0  0  0  0  0  0  0  0  0
   14.3963  -10.7250    0.0000 C   0  0  1  0  0  0  0  0  0  0  0  0
   15.8252  -10.7250    0.0000 C   0  0  0  0  0  0  0  0  0  0  0  0
   15.8252   -9.9000    0.0000 C   0  0  0  0  0  0  0  0  0  0  0  0
   15.1107   -9.4875    0.0000 C   0  0  0  0  0  0  0  0  0  0  0  0
   13.6818   -9.4875    0.0000 C   0  0  0  0  0  0  0  0  0  0  0  0
   12.9673   -9.9000    0.0000 C   0  0  0  0  0  0  0  0  0  0  0  0
   12.9673  -10.7250    0.0000 C   0  0  1  0  0  0  0  0  0  0  0  0
   13.6818  -11.1375    0.0000 C   0  0  1  0  0  0  0  0  0  0  0  0
   12.2528  -11.1375    0.0000 C   0  0  2  0  0  0  0  0  0  0  0  0
   12.2528  -11.9625    0.0000 C   0  0  0  0  0  0  0  0  0  0  0  0
   12.9673  -12.3750    0.0000 C   0  0  0  0  0  0  0  0  0  0  0  0
   13.6818  -11.9625    0.0000 C   0  0  0  0  0  0  0  0  0  0  0  0
   11.5384  -10.7250    0.0000 C   0  0  0  0  0  0  0  0  0  0  0  0
   10.8239  -11.1375    0.0000 C   0  0  0  0  0  0  0  0  0  0  0  0
   10.8239  -11.9625    0.0000 C   0  0  0  0  0  0  0  0  0  0  0  0
   11.5384  -12.3750    0.0000 C   0  0  0  0  0  0  0  0  0  0  0  0
   10.0972  -12.3822    0.0000 O   0  0  0  0  0  0  0  0  0  0  0  0
   15.1107   -8.6626    0.0000 O   0  0  0  0  0  0  0  0  0  0  0  0
   11.5384  -13.1999    0.0000 O   0  0  0  0  0  0  0  0  0  0  0  0
   12.2528  -10.3125    0.0000 C   0  0  0  0  0  0  0  0  0  0  0  0
   13.6818  -10.3125    0.0000 H   0  0  0  0  0  0  0  0  0  0  0  0
   14.3963   -9.0750    0.0000 C   0  0  0  0  0  0  0  0  0  0  0  0
   12.9673  -11.5500    0.0000 H   0  0  0  0  0  0  0  0  0  0  0  0
   14.3963  -11.5500    0.0000 H   0  0  0  0  0  0  0  0  0  0  0  0
  1  2  1  0  0  0  0
  2  3  1  0  0  0  0
  3  4  1  0  0  0  0
  4  5  1  0  0  0  0
  1  5  1  0  0  0  0
  1  6  1  0  0  0  0
  6  7  1  0  0  0  0
  7  8  1  0  0  0  0
  8  9  1  0  0  0  0
  9  2  1  0  0  0  0
  8 10  1  0  0  0  0
 10 11  1  0  0  0  0
 11 12  1  0  0  0  0
 12 13  1  0  0  0  0
 13  9  1  0  0  0  0
 10 14  1  0  0  0  0
 14 15  1  0  0  0  0
 15 16  1  0  0  0  0
 16 17  1  0  0  0  0
 17 11  2  0  0  0  0
 16 18  2  0  0  0  0
  5 19  2  0  0  0  0
 17 20  1  0  0  0  0
 10 21  1  1  0  0  0
  9 22  1  1  0  0  0
  1 23  1  1  0  0  0
  8 24  1  6  0  0  0
  2 25  1  6  0  0  0
M  END
> <DATABASE_ID>
DB08905

> <DATABASE_NAME>
drugbank

> <SMILES>
[H][C@@]12CCC(=O)[C@@]1(C)CC[C@@]1([H])[C@@]2([H])CCC2=C(O)C(=O)CC[C@]12C

> <INCHI_IDENTIFIER>
InChI=1S/C19H26O3/c1-18-10-8-15(20)17(22)14(18)4-3-11-12-5-6-16(21)19(12,2)9-7-13(11)18/h11-13,22H,3-10H2,1-2H3/t11-,12-,13-,18+,19-/m0/s1

> <INCHI_KEY>
OSVMTWJCGUFAOD-KZQROQTASA-N

> <FORMULA>
C19H26O3

> <MOLECULAR_WEIGHT>
302.4079

> <EXACT_MASS>
302.188194698

> <JCHEM_ACCEPTOR_COUNT>
3

> <JCHEM_AVERAGE_POLARIZABILITY>
34.072960394667355

> <JCHEM_BIOAVAILABILITY>
1

> <JCHEM_DONOR_COUNT>
1

> <JCHEM_FORMAL_CHARGE>
0

> <JCHEM_GHOSE_FILTER>
1

> <JCHEM_IUPAC>
(1S,2R,10R,11S,15S)-6-hydroxy-2,15-dimethyltetracyclo[8.7.0.0²,⁷.0¹¹,¹⁵]heptadec-6-ene-5,14-dione

> <ALOGPS_LOGP>
2.57

> <JCHEM_LOGP>
3.4102933220000002

> <ALOGPS_LOGS>
-3.72

> <JCHEM_MDDR_LIKE_RULE>
0

> <JCHEM_NUMBER_OF_RINGS>
4

> <JCHEM_PHYSIOLOGICAL_CHARGE>
0

> <JCHEM_PKA>
19.957139088182295

> <JCHEM_PKA_STRONGEST_ACIDIC>
9.209685009427508

> <JCHEM_PKA_STRONGEST_BASIC>
-3.69994377685071

> <JCHEM_POLAR_SURFACE_AREA>
54.370000000000005

> <JCHEM_REFRACTIVITY>
85.57489999999997

> <JCHEM_ROTATABLE_BOND_COUNT>
0

> <JCHEM_RULE_OF_FIVE>
1

> <ALOGPS_SOLUBILITY>
5.78e-02 g/l

> <JCHEM_TRADITIONAL_IUPAC>
formestane

> <JCHEM_VEBER_RULE>
0

> <DRUGBANK_ID>
DB08905

> <DRUG_GROUPS>
approved; investigational; withdrawn

> <GENERIC_NAME>
Formestane

> <SYNONYMS>
4-hydroxy-4-androstene-3,17-dione; 4-hydroxy-Δ4-androstenedione; 4-hydroxyandrostenedione; 4-OH-A

> <PRODUCTS>
Lentaron

$$$$

  Mrv1572004091620102D          

  8  4  0  0  0  0            999 V2000
   -1.1785    1.6500    0.0000 Al  0  1  0  0  0  0  0  0  0  0  0  0
   -1.1785   -1.6500    0.0000 Mg  0  2  0  0  0  0  0  0  0  0  0  0
   -1.1785    0.8250    0.0000 O   0  5  0  0  0  0  0  0  0  0  0  0
   -1.1785   -0.8250    0.0000 O   0  5  0  0  0  0  0  0  0  0  0  0
   -2.0035    0.0000    0.0000 O   0  0  0  0  0  0  0  0  0  0  0  0
   -0.3535    0.0000    0.0000 O   0  0  0  0  0  0  0  0  0  0  0  0
   -1.1785    0.0000    0.0000 S   0  0  0  0  0  0  0  0  0  0  0  0
    2.0035    0.0000    0.0000 O   0  5  0  0  0  0  0  0  0  0  0  0
  7  3  1  0  0  0  0
  7  4  1  0  0  0  0
  7  5  2  0  0  0  0
  7  6  2  0  0  0  0
M  CHG  5   1   3   2   2   3  -1   4  -1   8  -1
M  END
> <DATABASE_ID>
DB08938

> <DATABASE_NAME>
drugbank

> <SMILES>
[OH-].[Mg++].[Al+3].[O-]S([O-])(=O)=O

> <INCHI_IDENTIFIER>
InChI=1S/Al.Mg.H2O4S.H2O/c;;1-5(2,3)4;/h;;(H2,1,2,3,4);1H2/q+3;+2;;/p-3

> <INCHI_KEY>
JIFPTBLGXRKRAO-UHFFFAOYSA-K

> <FORMULA>
AlHMgO5S

> <MOLECULAR_WEIGHT>
164.35

> <EXACT_MASS>
163.9199523

> <JCHEM_ACCEPTOR_COUNT>
4

> <JCHEM_ATOM_COUNT>
9

> <JCHEM_AVERAGE_POLARIZABILITY>
5.805278247285028

> <JCHEM_BIOAVAILABILITY>
1

> <JCHEM_DONOR_COUNT>
0

> <JCHEM_FORMAL_CHARGE>
2

> <JCHEM_GHOSE_FILTER>
0

> <JCHEM_IUPAC>
aluminium(3+) ion magnesium(2+) ion hydroxide sulfate

> <JCHEM_LOGP>
-0.8415520233333333

> <JCHEM_MDDR_LIKE_RULE>
0

> <JCHEM_NUMBER_OF_RINGS>
0

> <JCHEM_PHYSIOLOGICAL_CHARGE>
-2

> <JCHEM_PKA>
1.8964254257138706

> <JCHEM_PKA_STRONGEST_ACIDIC>
-3.034349054191991

> <JCHEM_POLAR_SURFACE_AREA>
80.25999999999999

> <JCHEM_REFRACTIVITY>
11.5274

> <JCHEM_ROTATABLE_BOND_COUNT>
0

> <JCHEM_RULE_OF_FIVE>
1

> <JCHEM_TRADITIONAL_IUPAC>
aluminium(3+) ion magnesium(2+) ion hydroxide sulfate

> <JCHEM_VEBER_RULE>
0

> <DRUGBANK_ID>
DB08938

> <DRUG_GROUPS>
withdrawn

> <GENERIC_NAME>
Magaldrate

> <SYNONYMS>
Aluminium magnesium hydroxide sulfate hydrate; Aluminum magnesium hydroxide sulfate hydrate; Aluminum magnesium hydroxide sulphate hydrate; Hydrate magnesium aluminate activated sulfate; Magaldrato; Magaldratum; Magnesium aluminate hydrate

> <PRODUCTS>
Riopan Chewable Tablets 480mg; Riopan Plus Sus; Riopan Plus Suspension; Riopan Plus Tablets; Riopan Sus 480mg/5ml; Riopan Suspension 480mg/5ml; Riopan Tab 480mg; Zantanol Tab.

> <INTERNATIONAL_BRANDS>
Almadrat T; Almagel T; Antashin; Bemolan; Cremag; Glysan; Lowsium; Magacid; Malugastrin; Riopan; Sanaflat

$$$$

  Mrv1652306111720432D          

 22 23  0  0  0  0            999 V2000
   -0.7144   -1.0312    0.0000 C   0  0  0  0  0  0  0  0  0  0  0  0
   -0.7144   -0.2062    0.0000 C   0  0  2  0  0  0  0  0  0  0  0  0
   -1.4289    0.2062    0.0000 C   0  0  0  0  0  0  0  0  0  0  0  0
   -2.1434   -0.2062    0.0000 O   0  0  0  0  0  0  0  0  0  0  0  0
   -2.8578    0.2062    0.0000 C   0  0  0  0  0  0  0  0  0  0  0  0
   -3.5723   -0.2062    0.0000 C   0  0  0  0  0  0  0  0  0  0  0  0
   -4.2868    0.2062    0.0000 C   0  0  0  0  0  0  0  0  0  0  0  0
   -4.2868    1.0312    0.0000 C   0  0  0  0  0  0  0  0  0  0  0  0
   -3.5723    1.4437    0.0000 C   0  0  0  0  0  0  0  0  0  0  0  0
   -2.8578    1.0312    0.0000 C   0  0  0  0  0  0  0  0  0  0  0  0
    0.0000    0.2062    0.0000 N   0  0  0  0  0  0  0  0  0  0  0  0
    0.7144   -0.2062    0.0000 C   0  0  2  0  0  0  0  0  0  0  0  0
    0.7144   -1.0312    0.0000 C   0  0  0  0  0  0  0  0  0  0  0  0
    1.4289    0.2062    0.0000 C   0  0  1  0  0  0  0  0  0  0  0  0
    1.4289    1.0312    0.0000 O   0  0  0  0  0  0  0  0  0  0  0  0
    2.1434   -0.2062    0.0000 C   0  0  0  0  0  0  0  0  0  0  0  0
    2.8578    0.2062    0.0000 C   0  0  0  0  0  0  0  0  0  0  0  0
    3.5723   -0.2062    0.0000 C   0  0  0  0  0  0  0  0  0  0  0  0
    3.5723   -1.0312    0.0000 C   0  0  0  0  0  0  0  0  0  0  0  0
    4.2868   -1.4437    0.0000 O   0  0  0  0  0  0  0  0  0  0  0  0
    2.8578   -1.4437    0.0000 C   0  0  0  0  0  0  0  0  0  0  0  0
    2.1434   -1.0312    0.0000 C   0  0  0  0  0  0  0  0  0  0  0  0
  2  1  1  6  0  0  0
  2  3  1  0  0  0  0
  3  4  1  0  0  0  0
  4  5  1  0  0  0  0
  5  6  2  0  0  0  0
  6  7  1  0  0  0  0
  7  8  2  0  0  0  0
  8  9  1  0  0  0  0
  9 10  2  0  0  0  0
  5 10  1  0  0  0  0
  2 11  1  0  0  0  0
 11 12  1  0  0  0  0
 12 13  1  1  0  0  0
 12 14  1  0  0  0  0
 14 15  1  1  0  0  0
 14 16  1  0  0  0  0
 16 17  2  0  0  0  0
 17 18  1  0  0  0  0
 18 19  2  0  0  0  0
 19 20  1  0  0  0  0
 19 21  1  0  0  0  0
 21 22  2  0  0  0  0
 16 22  1  0  0  0  0
M  END
> <DATABASE_ID>
DB08941

> <DATABASE_NAME>
drugbank

> <SMILES>
C[C@H](COC1=CC=CC=C1)N[C@H](C)[C@@H](O)C1=CC=C(O)C=C1

> <INCHI_IDENTIFIER>
InChI=1S/C18H23NO3/c1-13(12-22-17-6-4-3-5-7-17)19-14(2)18(21)15-8-10-16(20)11-9-15/h3-11,13-14,18-21H,12H2,1-2H3/t13-,14-,18-/m1/s1

> <INCHI_KEY>
BMUKKTUHUDJSNZ-HBUWYVDXSA-N

> <FORMULA>
C18H23NO3

> <MOLECULAR_WEIGHT>
301.386

> <EXACT_MASS>
301.167793605

> <JCHEM_ACCEPTOR_COUNT>
4

> <JCHEM_ATOM_COUNT>
45

> <JCHEM_AVERAGE_POLARIZABILITY>
34.11587475759513

> <JCHEM_BIOAVAILABILITY>
1

> <JCHEM_DONOR_COUNT>
3

> <JCHEM_FORMAL_CHARGE>
0

> <JCHEM_GHOSE_FILTER>
1

> <JCHEM_IUPAC>
4-[(1S,2R)-1-hydroxy-2-{[(2R)-1-phenoxypropan-2-yl]amino}propyl]phenol

> <ALOGPS_LOGP>
2.06

> <JCHEM_LOGP>
2.5646005130617846

> <ALOGPS_LOGS>
-3.77

> <JCHEM_MDDR_LIKE_RULE>
0

> <JCHEM_NUMBER_OF_RINGS>
2

> <JCHEM_PHYSIOLOGICAL_CHARGE>
1

> <JCHEM_PKA>
14.029563160093545

> <JCHEM_PKA_STRONGEST_ACIDIC>
9.651482674333462

> <JCHEM_PKA_STRONGEST_BASIC>
8.997586357485336

> <JCHEM_POLAR_SURFACE_AREA>
61.72

> <JCHEM_REFRACTIVITY>
86.6392

> <JCHEM_ROTATABLE_BOND_COUNT>
7

> <JCHEM_RULE_OF_FIVE>
1

> <ALOGPS_SOLUBILITY>
5.07e-02 g/l

> <JCHEM_TRADITIONAL_IUPAC>
4-[(1S,2R)-1-hydroxy-2-{[(2R)-1-phenoxypropan-2-yl]amino}propyl]phenol

> <JCHEM_VEBER_RULE>
0

> <DRUGBANK_ID>
DB08941

> <DRUG_GROUPS>
approved; withdrawn

> <GENERIC_NAME>
Isoxsuprine

> <PRODUCTS>
Isoxsuprine Hydrochloride

> <SALTS>
Isoxsuprine hydrochloride

$$$$

  Mrv0541 05041405412D          

 23 25  0  0  0  0            999 V2000
    5.5156    1.7457    0.0000 C   0  0  0  0  0  0  0  0  0  0  0  0
    2.8579   -1.6500    0.0000 C   0  0  0  0  0  0  0  0  0  0  0  0
   -0.7145   -0.4125    0.0000 C   0  0  0  0  0  0  0  0  0  0  0  0
   -0.7145   -1.2375    0.0000 C   0  0  0  0  0  0  0  0  0  0  0  0
    0.0000    0.0000    0.0000 C   0  0  0  0  0  0  0  0  0  0  0  0
    0.0000   -1.6500    0.0000 C   0  0  0  0  0  0  0  0  0  0  0  0
    4.3731    0.8205    0.0000 C   0  0  0  0  0  0  0  0  0  0  0  0
    5.1800    0.9920    0.0000 C   0  0  0  0  0  0  0  0  0  0  0  0
    0.7145   -0.4125    0.0000 C   0  0  0  0  0  0  0  0  0  0  0  0
    0.7145   -1.2375    0.0000 C   0  0  0  0  0  0  0  0  0  0  0  0
    4.2868   -0.0000    0.0000 C   0  0  0  0  0  0  0  0  0  0  0  0
    2.1434   -0.4125    0.0000 C   0  0  0  0  0  0  0  0  0  0  0  0
    1.4289   -0.0000    0.0000 C   0  0  0  0  0  0  0  0  0  0  0  0
    2.8579   -0.0000    0.0000 C   0  0  0  0  0  0  0  0  0  0  0  0
    3.5724   -0.4125    0.0000 N   0  0  0  0  0  0  0  0  0  0  0  0
    5.0405   -0.3356    0.0000 N   0  0  0  0  0  0  0  0  0  0  0  0
    2.1434   -1.2375    0.0000 N   0  0  0  0  0  0  0  0  0  0  0  0
    1.4289    0.8250    0.0000 O   0  0  0  0  0  0  0  0  0  0  0  0
    2.8579    0.8250    0.0000 O   0  0  0  0  0  0  0  0  0  0  0  0
    1.0416   -2.3784    0.0000 O   0  0  0  0  0  0  0  0  0  0  0  0
    1.8163   -2.3784    0.0000 O   0  0  0  0  0  0  0  0  0  0  0  0
    5.5925    0.2775    0.0000 O   0  0  0  0  0  0  0  0  0  0  0  0
    1.4289   -1.6500    0.0000 S   0  0  0  0  0  0  0  0  0  0  0  0
  4  3  2  0  0  0  0
  5  3  1  0  0  0  0
  6  4  1  0  0  0  0
  8  1  1  0  0  0  0
  8  7  2  0  0  0  0
  9  5  2  0  0  0  0
 10  6  2  0  0  0  0
 10  9  1  0  0  0  0
 11  7  1  0  0  0  0
 13  9  1  0  0  0  0
 13 12  2  0  0  0  0
 14 12  1  0  0  0  0
 15 11  2  0  0  0  0
 15 14  1  4  0  0  0
 16 11  1  0  0  0  0
 17  2  1  0  0  0  0
 17 12  1  0  0  0  0
 18 13  1  0  0  0  0
 19 14  2  0  0  0  0
 22  8  1  0  0  0  0
 22 16  1  0  0  0  0
 23 10  1  0  0  0  0
 23 17  1  0  0  0  0
 23 20  2  0  0  0  0
 23 21  2  0  0  0  0
M  END
> <DATABASE_ID>
DB08942

> <DATABASE_NAME>
drugbank

> <SMILES>
CN1C(C(=O)N=C2NOC(C)=C2)=C(O)C2=CC=CC=C2S1(=O)=O

> <INCHI_IDENTIFIER>
InChI=1S/C14H13N3O5S/c1-8-7-11(16-22-8)15-14(19)12-13(18)9-5-3-4-6-10(9)23(20,21)17(12)2/h3-7,18H,1-2H3,(H,15,16,19)

> <INCHI_KEY>
YYUAYBYLJSNDCX-UHFFFAOYSA-N

> <FORMULA>
C14H13N3O5S

> <MOLECULAR_WEIGHT>
335.335

> <EXACT_MASS>
335.057591231

> <JCHEM_ACCEPTOR_COUNT>
7

> <JCHEM_AVERAGE_POLARIZABILITY>
32.242382047062605

> <JCHEM_BIOAVAILABILITY>
1

> <JCHEM_DONOR_COUNT>
2

> <JCHEM_FORMAL_CHARGE>
0

> <JCHEM_GHOSE_FILTER>
1

> <JCHEM_IUPAC>
4-hydroxy-2-methyl-N-(5-methyl-2,3-dihydro-1,2-oxazol-3-ylidene)-1,1-dioxo-2H-1λ⁶,2-benzothiazine-3-carboxamide

> <ALOGPS_LOGP>
0.60

> <JCHEM_LOGP>
-0.08529005333333302

> <ALOGPS_LOGS>
-3.00

> <JCHEM_MDDR_LIKE_RULE>
0

> <JCHEM_NUMBER_OF_RINGS>
3

> <JCHEM_PHYSIOLOGICAL_CHARGE>
-1

> <JCHEM_PKA>
8.97145391906675

> <JCHEM_PKA_STRONGEST_ACIDIC>
4.464686806172876

> <JCHEM_PKA_STRONGEST_BASIC>
-0.9712446597465346

> <JCHEM_POLAR_SURFACE_AREA>
108.3

> <JCHEM_REFRACTIVITY>
94.89979999999998

> <JCHEM_ROTATABLE_BOND_COUNT>
1

> <JCHEM_RULE_OF_FIVE>
1

> <ALOGPS_SOLUBILITY>
3.36e-01 g/l

> <JCHEM_TRADITIONAL_IUPAC>
maxicam

> <JCHEM_VEBER_RULE>
0

> <DRUGBANK_ID>
DB08942

> <DRUG_GROUPS>
withdrawn

> <GENERIC_NAME>
Isoxicam

> <INTERNATIONAL_BRANDS>
Maxicam

$$$$

  Mrv1652306111720452D          

 18 18  0  0  0  0            999 V2000
   -0.2062   -0.8250    0.0000 C   0  0  0  0  0  0  0  0  0  0  0  0
   -0.2062    0.0000    0.0000 C   0  0  1  0  0  0  0  0  0  0  0  0
   -0.2062    0.8250    0.0000 C   0  0  0  0  0  0  0  0  0  0  0  0
    0.5082    1.2375    0.0000 C   0  0  1  0  0  0  0  0  0  0  0  0
    0.5082    2.0625    0.0000 N   0  0  0  0  0  0  0  0  0  0  0  0
   -0.2062    2.4750    0.0000 C   0  0  0  0  0  0  0  0  0  0  0  0
    1.2226    2.4750    0.0000 C   0  0  0  0  0  0  0  0  0  0  0  0
    1.2226    0.8250    0.0000 C   0  0  0  0  0  0  0  0  0  0  0  0
   -1.0312    0.0000    0.0000 C   0  0  0  0  0  0  0  0  0  0  0  0
   -1.4437    0.7144    0.0000 C   0  0  0  0  0  0  0  0  0  0  0  0
   -1.4437   -0.7144    0.0000 C   0  0  0  0  0  0  0  0  0  0  0  0
    0.6187    0.0000    0.0000 C   0  0  0  0  0  0  0  0  0  0  0  0
    1.4437    0.0000    0.0000 N   0  0  0  0  0  0  0  0  0  0  0  0
    0.5082   -1.2375    0.0000 C   0  0  0  0  0  0  0  0  0  0  0  0
    0.5082   -2.0625    0.0000 C   0  0  0  0  0  0  0  0  0  0  0  0
   -0.2062   -2.4750    0.0000 C   0  0  0  0  0  0  0  0  0  0  0  0
   -0.9207   -2.0625    0.0000 C   0  0  0  0  0  0  0  0  0  0  0  0
   -0.9207   -1.2375    0.0000 C   0  0  0  0  0  0  0  0  0  0  0  0
  1  2  1  0  0  0  0
  2  3  1  6  0  0  0
  3  4  1  0  0  0  0
  4  5  1  0  0  0  0
  5  6  1  0  0  0  0
  5  7  1  0  0  0  0
  4  8  1  1  0  0  0
  2  9  1  0  0  0  0
  9 10  1  0  0  0  0
  9 11  1  0  0  0  0
  2 12  1  1  0  0  0
 12 13  3  0  0  0  0
  1 14  2  0  0  0  0
 14 15  1  0  0  0  0
 15 16  2  0  0  0  0
 16 17  1  0  0  0  0
 17 18  2  0  0  0  0
  1 18  1  0  0  0  0
M  END
> <DATABASE_ID>
DB08944

> <DATABASE_NAME>
drugbank

> <SMILES>
CC(C)[C@@](C[C@H](C)N(C)C)(C#N)C1=CC=CC=C1

> <INCHI_IDENTIFIER>
InChI=1S/C16H24N2/c1-13(2)16(12-17,11-14(3)18(4)5)15-9-7-6-8-10-15/h6-10,13-14H,11H2,1-5H3/t14-,16+/m0/s1

> <INCHI_KEY>
WFLSCFISQHLEED-GOEBONIOSA-N

> <FORMULA>
C16H24N2

> <MOLECULAR_WEIGHT>
244.382

> <EXACT_MASS>
244.193948781

> <JCHEM_ACCEPTOR_COUNT>
2

> <JCHEM_ATOM_COUNT>
42

> <JCHEM_AVERAGE_POLARIZABILITY>
29.30550421534086

> <JCHEM_BIOAVAILABILITY>
1

> <JCHEM_DONOR_COUNT>
0

> <JCHEM_FORMAL_CHARGE>
0

> <JCHEM_GHOSE_FILTER>
1

> <JCHEM_IUPAC>
(2R,4S)-4-(dimethylamino)-2-phenyl-2-(propan-2-yl)pentanenitrile

> <ALOGPS_LOGP>
3.44

> <JCHEM_LOGP>
3.6327429209999997

> <ALOGPS_LOGS>
-3.56

> <JCHEM_MDDR_LIKE_RULE>
0

> <JCHEM_NUMBER_OF_RINGS>
1

> <JCHEM_PHYSIOLOGICAL_CHARGE>
1

> <JCHEM_PKA_STRONGEST_BASIC>
8.72951902017234

> <JCHEM_POLAR_SURFACE_AREA>
27.03

> <JCHEM_REFRACTIVITY>
77.24530000000001

> <JCHEM_ROTATABLE_BOND_COUNT>
5

> <JCHEM_RULE_OF_FIVE>
1

> <ALOGPS_SOLUBILITY>
6.72e-02 g/l

> <JCHEM_TRADITIONAL_IUPAC>
(2R,4S)-4-(dimethylamino)-2-isopropyl-2-phenylpentanenitrile

> <JCHEM_VEBER_RULE>
1

> <DRUGBANK_ID>
DB08944

> <DRUG_GROUPS>
approved; withdrawn

> <GENERIC_NAME>
Isoaminile

> <INTERNATIONAL_BRANDS>
Peracon

> <SALTS>
Isoaminile citrate; Isoaminile cyclamate

$$$$

  Mrv0541 05271409282D          

 17 17  0  0  0  0            999 V2000
   -2.1434   -0.4125    0.0000 C   0  0  0  0  0  0  0  0  0  0  0  0
   -1.4289    0.0000    0.0000 C   0  0  0  0  0  0  0  0  0  0  0  0
   -0.7144    1.2375    0.0000 C   0  0  0  0  0  0  0  0  0  0  0  0
    1.4289    0.8250    0.0000 C   0  0  0  0  0  0  0  0  0  0  0  0
   -1.4289    0.8250    0.0000 C   0  0  0  0  0  0  0  0  0  0  0  0
    0.0000    0.8250    0.0000 C   0  0  0  0  0  0  0  0  0  0  0  0
    0.7144    1.2375    0.0000 C   0  0  0  0  0  0  0  0  0  0  0  0
    1.4289    0.0000    0.0000 C   0  0  0  0  0  0  0  0  0  0  0  0
    0.0000    0.0000    0.0000 C   0  0  0  0  0  0  0  0  0  0  0  0
    0.7144   -0.4125    0.0000 C   0  0  0  0  0  0  0  0  0  0  0  0
   -2.1434    1.2375    0.0000 C   0  0  0  0  0  0  0  0  0  0  0  0
    0.7144    2.0625    0.0000 I   0  0  0  0  0  0  0  0  0  0  0  0
    2.1434   -0.4125    0.0000 I   0  0  0  0  0  0  0  0  0  0  0  0
   -0.7144   -0.4125    0.0000 I   0  0  0  0  0  0  0  0  0  0  0  0
    0.7144   -1.2375    0.0000 N   0  0  0  0  0  0  0  0  0  0  0  0
   -2.1434    2.0625    0.0000 O   0  0  0  0  0  0  0  0  0  0  0  0
   -2.8578    0.8250    0.0000 O   0  0  0  0  0  0  0  0  0  0  0  0
  2  1  1  0  0  0  0
  5  2  1  0  0  0  0
  5  3  1  0  0  0  0
  6  3  1  0  0  0  0
  7  4  2  0  0  0  0
  7  6  1  0  0  0  0
  8  4  1  0  0  0  0
  9  6  2  0  0  0  0
 10  8  2  0  0  0  0
 10  9  1  0  0  0  0
 11  5  1  0  0  0  0
 12  7  1  0  0  0  0
 13  8  1  0  0  0  0
 14  9  1  0  0  0  0
 15 10  1  0  0  0  0
 16 11  2  0  0  0  0
 17 11  1  0  0  0  0
M  END
> <DATABASE_ID>
DB08946

> <DATABASE_NAME>
drugbank

> <SMILES>
CCC(CC1=C(I)C(N)=C(I)C=C1I)C(O)=O

> <INCHI_IDENTIFIER>
InChI=1S/C11H12I3NO2/c1-2-5(11(16)17)3-6-7(12)4-8(13)10(15)9(6)14/h4-5H,2-3,15H2,1H3,(H,16,17)

> <INCHI_KEY>
OIRFJRBSRORBCM-UHFFFAOYSA-N

> <FORMULA>
C11H12I3NO2

> <MOLECULAR_WEIGHT>
570.9319

> <EXACT_MASS>
570.800208893

> <JCHEM_ACCEPTOR_COUNT>
3

> <JCHEM_AVERAGE_POLARIZABILITY>
36.914839525546824

> <JCHEM_BIOAVAILABILITY>
1

> <JCHEM_DONOR_COUNT>
2

> <JCHEM_FORMAL_CHARGE>
0

> <JCHEM_GHOSE_FILTER>
0

> <JCHEM_IUPAC>
2-[(3-amino-2,4,6-triiodophenyl)methyl]butanoic acid

> <ALOGPS_LOGP>
3.93

> <JCHEM_LOGP>
4.578601728785412

> <ALOGPS_LOGS>
-4.62

> <JCHEM_MDDR_LIKE_RULE>
0

> <JCHEM_NUMBER_OF_RINGS>
1

> <JCHEM_PHYSIOLOGICAL_CHARGE>
-1

> <JCHEM_PKA>
19.252301713431148

> <JCHEM_PKA_STRONGEST_ACIDIC>
2.854922641229148

> <JCHEM_PKA_STRONGEST_BASIC>
1.7640419437609438

> <JCHEM_POLAR_SURFACE_AREA>
63.32000000000001

> <JCHEM_REFRACTIVITY>
95.93

> <JCHEM_ROTATABLE_BOND_COUNT>
4

> <JCHEM_RULE_OF_FIVE>
0

> <ALOGPS_SOLUBILITY>
1.38e-02 g/l

> <JCHEM_TRADITIONAL_IUPAC>
iopanoic acid

> <JCHEM_VEBER_RULE>
0

> <DRUGBANK_ID>
DB08946

> <DRUG_GROUPS>
approved; withdrawn

> <GENERIC_NAME>
Iopanoic acid

> <SYNONYMS>
Acidum iopanoicum; Iodopanoic acid

> <PRODUCTS>
Telepaque  -  Tablet - 500mg; Telepaque Tab; Telepaque Tab 500mg

> <INTERNATIONAL_BRANDS>
Colegraf

$$$$

  Mrv0541 05271410402D          

 21 21  0  0  0  0            999 V2000
    2.8578    3.3000    0.0000 C   0  0  0  0  0  0  0  0  0  0  0  0
    0.0000   -2.4750    0.0000 C   0  0  0  0  0  0  0  0  0  0  0  0
    2.1434    1.2375    0.0000 C   0  0  0  0  0  0  0  0  0  0  0  0
    2.8578    2.4750    0.0000 C   0  0  0  0  0  0  0  0  0  0  0  0
    0.0000   -1.6500    0.0000 C   0  0  0  0  0  0  0  0  0  0  0  0
    1.4289    0.8250    0.0000 C   0  0  0  0  0  0  0  0  0  0  0  0
    0.0000    0.8250    0.0000 C   0  0  0  0  0  0  0  0  0  0  0  0
    0.7144    1.2375    0.0000 C   0  0  0  0  0  0  0  0  0  0  0  0
    1.4289    0.0000    0.0000 C   0  0  0  0  0  0  0  0  0  0  0  0
    0.0000    0.0000    0.0000 C   0  0  0  0  0  0  0  0  0  0  0  0
    0.7144   -0.4125    0.0000 C   0  0  0  0  0  0  0  0  0  0  0  0
   -0.7144    1.2375    0.0000 C   0  0  0  0  0  0  0  0  0  0  0  0
    0.7144    2.0625    0.0000 I   0  0  0  0  0  0  0  0  0  0  0  0
    2.1434   -0.4125    0.0000 I   0  0  0  0  0  0  0  0  0  0  0  0
   -0.7144   -0.4125    0.0000 I   0  0  0  0  0  0  0  0  0  0  0  0
    2.1434    2.0625    0.0000 N   0  0  0  0  0  0  0  0  0  0  0  0
    0.7144   -1.2375    0.0000 N   0  0  0  0  0  0  0  0  0  0  0  0
    3.5723    2.0625    0.0000 O   0  0  0  0  0  0  0  0  0  0  0  0
   -0.7144   -1.2375    0.0000 O   0  0  0  0  0  0  0  0  0  0  0  0
   -1.4289    0.8250    0.0000 O   0  0  0  0  0  0  0  0  0  0  0  0
   -0.7144    2.0625    0.0000 O   0  0  0  0  0  0  0  0  0  0  0  0
  4  1  1  0  0  0  0
  5  2  1  0  0  0  0
  6  3  1  0  0  0  0
  8  6  2  0  0  0  0
  8  7  1  0  0  0  0
  9  6  1  0  0  0  0
 10  7  2  0  0  0  0
 11  9  2  0  0  0  0
 11 10  1  0  0  0  0
 12  7  1  0  0  0  0
 13  8  1  0  0  0  0
 14  9  1  0  0  0  0
 15 10  1  0  0  0  0
 16  3  1  4  0  0  0
 16  4  2  0  0  0  0
 17  5  2  0  0  0  0
 17 11  1  4  0  0  0
 18  4  1  0  0  0  0
 19  5  1  0  0  0  0
 20 12  2  0  0  0  0
 21 12  1  0  0  0  0
M  END
> <DATABASE_ID>
DB08948

> <DATABASE_NAME>
drugbank

> <SMILES>
CC(O)=NCC1=C(I)C(C(O)=O)=C(I)C(N=C(C)O)=C1I

> <INCHI_IDENTIFIER>
InChI=1S/C12H11I3N2O4/c1-4(18)16-3-6-8(13)7(12(20)21)10(15)11(9(6)14)17-5(2)19/h3H2,1-2H3,(H,16,18)(H,17,19)(H,20,21)

> <INCHI_KEY>
VVDGWALACJEJKG-UHFFFAOYSA-N

> <FORMULA>
C12H11I3N2O4

> <MOLECULAR_WEIGHT>
627.9402

> <EXACT_MASS>
627.78528711

> <JCHEM_ACCEPTOR_COUNT>
6

> <JCHEM_AVERAGE_POLARIZABILITY>
40.981032755469194

> <JCHEM_BIOAVAILABILITY>
1

> <JCHEM_DONOR_COUNT>
3

> <JCHEM_FORMAL_CHARGE>
0

> <JCHEM_GHOSE_FILTER>
0

> <JCHEM_IUPAC>
3-[(1-hydroxyethylidene)amino]-5-{[(1-hydroxyethylidene)amino]methyl}-2,4,6-triiodobenzoic acid

> <ALOGPS_LOGP>
2.47

> <JCHEM_LOGP>
3.710861979039636

> <ALOGPS_LOGS>
-4.54

> <JCHEM_MDDR_LIKE_RULE>
0

> <JCHEM_NUMBER_OF_RINGS>
1

> <JCHEM_PHYSIOLOGICAL_CHARGE>
-1

> <JCHEM_PKA>
6.00764790295139

> <JCHEM_PKA_STRONGEST_ACIDIC>
3.060733166198964

> <JCHEM_PKA_STRONGEST_BASIC>
2.1650587780210695

> <JCHEM_POLAR_SURFACE_AREA>
102.48

> <JCHEM_REFRACTIVITY>
107.45870000000002

> <JCHEM_ROTATABLE_BOND_COUNT>
4

> <JCHEM_RULE_OF_FIVE>
0

> <ALOGPS_SOLUBILITY>
1.82e-02 g/l

> <JCHEM_TRADITIONAL_IUPAC>
uromiro

> <JCHEM_VEBER_RULE>
0

> <DRUGBANK_ID>
DB08948

> <DRUG_GROUPS>
withdrawn

> <GENERIC_NAME>
Iodamide

> <SYNONYMS>
Ametriodinic acid; Radiomiro; Rayomiro; Triomiro

> <INTERNATIONAL_BRANDS>
Angiomiron; Uromiron

> <SALTS>
Iodamide meglumine

$$$$

  Mrv1652306061722112D          

 60 66  0  0  0  0            999 V2000
    0.7144   -0.4125    0.0000 C   0  0  1  0  0  0  0  0  0  0  0  0
    0.0000   -0.8250    0.0000 C   0  0  1  0  0  0  0  0  0  0  0  0
   -0.7145   -0.4125    0.0000 C   0  0  2  0  0  0  0  0  0  0  0  0
   -0.7145    0.4125    0.0000 C   0  0  1  0  0  0  0  0  0  0  0  0
    0.0000    0.8249    0.0000 C   0  0  2  0  0  0  0  0  0  0  0  0
    0.7144    0.4125    0.0000 C   0  0  1  0  0  0  0  0  0  0  0  0
    0.0000    1.6500    0.0000 O   0  0  0  0  0  0  0  0  0  0  0  0
    1.4289    0.8249    0.0000 O   0  0  0  0  0  0  0  0  0  0  0  0
    0.0000   -1.6500    0.0000 O   0  0  0  0  0  0  0  0  0  0  0  0
   -1.4289   -0.8250    0.0000 O   0  0  0  0  0  0  0  0  0  0  0  0
    1.4289   -0.8250    0.0000 O   0  0  0  0  0  0  0  0  0  0  0  0
   -1.4289    0.8249    0.0000 O   0  0  0  0  0  0  0  0  0  0  0  0
    1.4289    4.1251    0.0000 N   0  0  0  0  0  0  0  0  0  0  0  0
    1.4289    3.3000    0.0000 C   0  0  0  0  0  0  0  0  0  0  0  0
    0.7144    2.8875    0.0000 C   0  0  0  0  0  0  0  0  0  0  0  0
    0.0000    3.3000    0.0000 C   0  0  0  0  0  0  0  0  0  0  0  0
    0.0000    4.1251    0.0000 C   0  0  0  0  0  0  0  0  0  0  0  0
    0.7144    4.5376    0.0000 C   0  0  0  0  0  0  0  0  0  0  0  0
    0.7144    2.0625    0.0000 C   0  0  0  0  0  0  0  0  0  0  0  0
    1.4289    1.6500    0.0000 O   0  0  0  0  0  0  0  0  0  0  0  0
   -2.8579    3.3000    0.0000 N   0  0  0  0  0  0  0  0  0  0  0  0
   -2.1434    2.8875    0.0000 C   0  0  0  0  0  0  0  0  0  0  0  0
   -2.1434    2.0625    0.0000 C   0  0  0  0  0  0  0  0  0  0  0  0
   -2.8579    1.6500    0.0000 C   0  0  0  0  0  0  0  0  0  0  0  0
   -3.5724    2.0625    0.0000 C   0  0  0  0  0  0  0  0  0  0  0  0
   -3.5724    2.8875    0.0000 C   0  0  0  0  0  0  0  0  0  0  0  0
   -1.4289    1.6500    0.0000 C   0  0  0  0  0  0  0  0  0  0  0  0
   -0.7145    2.0625    0.0000 O   0  0  0  0  0  0  0  0  0  0  0  0
   -4.2869   -0.8250    0.0000 N   0  0  0  0  0  0  0  0  0  0  0  0
   -3.5724   -0.4125    0.0000 C   0  0  0  0  0  0  0  0  0  0  0  0
   -2.8579   -0.8250    0.0000 C   0  0  0  0  0  0  0  0  0  0  0  0
   -2.8579   -1.6500    0.0000 C   0  0  0  0  0  0  0  0  0  0  0  0
   -3.5724   -2.0625    0.0000 C   0  0  0  0  0  0  0  0  0  0  0  0
   -4.2869   -1.6500    0.0000 C   0  0  0  0  0  0  0  0  0  0  0  0
   -2.1434   -0.4125    0.0000 C   0  0  0  0  0  0  0  0  0  0  0  0
   -2.1434    0.4125    0.0000 O   0  0  0  0  0  0  0  0  0  0  0  0
   -1.4289   -4.1251    0.0000 N   0  0  0  0  0  0  0  0  0  0  0  0
   -1.4289   -3.3000    0.0000 C   0  0  0  0  0  0  0  0  0  0  0  0
   -0.7145   -2.8876    0.0000 C   0  0  0  0  0  0  0  0  0  0  0  0
    0.0000   -3.3000    0.0000 C   0  0  0  0  0  0  0  0  0  0  0  0
    0.0000   -4.1251    0.0000 C   0  0  0  0  0  0  0  0  0  0  0  0
   -0.7145   -4.5376    0.0000 C   0  0  0  0  0  0  0  0  0  0  0  0
   -0.7145   -2.0625    0.0000 C   0  0  0  0  0  0  0  0  0  0  0  0
   -1.4289   -1.6500    0.0000 O   0  0  0  0  0  0  0  0  0  0  0  0
    4.2869    0.8249    0.0000 N   0  0  0  0  0  0  0  0  0  0  0  0
    3.5724    0.4125    0.0000 C   0  0  0  0  0  0  0  0  0  0  0  0
    2.8579    0.8249    0.0000 C   0  0  0  0  0  0  0  0  0  0  0  0
    2.8579    1.6500    0.0000 C   0  0  0  0  0  0  0  0  0  0  0  0
    3.5724    2.0625    0.0000 C   0  0  0  0  0  0  0  0  0  0  0  0
    4.2869    1.6500    0.0000 C   0  0  0  0  0  0  0  0  0  0  0  0
    2.1434    0.4125    0.0000 C   0  0  0  0  0  0  0  0  0  0  0  0
    2.1434   -0.4125    0.0000 O   0  0  0  0  0  0  0  0  0  0  0  0
    2.8579   -3.3000    0.0000 N   0  0  0  0  0  0  0  0  0  0  0  0
    2.1434   -2.8876    0.0000 C   0  0  0  0  0  0  0  0  0  0  0  0
    2.1434   -2.0625    0.0000 C   0  0  0  0  0  0  0  0  0  0  0  0
    2.8579   -1.6500    0.0000 C   0  0  0  0  0  0  0  0  0  0  0  0
    3.5724   -2.0625    0.0000 C   0  0  0  0  0  0  0  0  0  0  0  0
    3.5724   -2.8876    0.0000 C   0  0  0  0  0  0  0  0  0  0  0  0
    1.4289   -1.6500    0.0000 C   0  0  0  0  0  0  0  0  0  0  0  0
    0.7144   -2.0625    0.0000 O   0  0  0  0  0  0  0  0  0  0  0  0
  1  2  1  0  0  0  0
  1  6  1  0  0  0  0
  2  3  1  0  0  0  0
  3  4  1  0  0  0  0
  4  5  1  0  0  0  0
  5  6  1  0  0  0  0
  5  7  1  1  0  0  0
  6  8  1  1  0  0  0
  2  9  1  6  0  0  0
  3 10  1  1  0  0  0
  1 11  1  1  0  0  0
  4 12  1  6  0  0  0
 13 14  2  0  0  0  0
 13 18  1  0  0  0  0
 14 15  1  0  0  0  0
 15 16  2  0  0  0  0
 15 19  1  0  0  0  0
 16 17  1  0  0  0  0
 17 18  2  0  0  0  0
 19  7  1  0  0  0  0
 19 20  2  0  0  0  0
 21 22  2  0  0  0  0
 21 26  1  0  0  0  0
 22 23  1  0  0  0  0
 23 24  2  0  0  0  0
 23 27  1  0  0  0  0
 24 25  1  0  0  0  0
 25 26  2  0  0  0  0
 27 12  1  0  0  0  0
 27 28  2  0  0  0  0
 29 30  2  0  0  0  0
 29 34  1  0  0  0  0
 30 31  1  0  0  0  0
 31 32  2  0  0  0  0
 31 35  1  0  0  0  0
 32 33  1  0  0  0  0
 33 34  2  0  0  0  0
 35 10  1  0  0  0  0
 35 36  2  0  0  0  0
 37 38  2  0  0  0  0
 37 42  1  0  0  0  0
 38 39  1  0  0  0  0
 39 40  2  0  0  0  0
 39 43  1  0  0  0  0
 40 41  1  0  0  0  0
 41 42  2  0  0  0  0
 43  9  1  0  0  0  0
 43 44  2  0  0  0  0
 45 46  2  0  0  0  0
 45 50  1  0  0  0  0
 46 47  1  0  0  0  0
 47 48  2  0  0  0  0
 47 51  1  0  0  0  0
 48 49  1  0  0  0  0
 49 50  2  0  0  0  0
 51 52  2  0  0  0  0
  8 51  1  0  0  0  0
 53 54  2  0  0  0  0
 53 58  1  0  0  0  0
 54 55  1  0  0  0  0
 55 56  2  0  0  0  0
 55 59  1  0  0  0  0
 56 57  1  0  0  0  0
 57 58  2  0  0  0  0
 59 11  1  0  0  0  0
 59 60  2  0  0  0  0
M  END
> <DATABASE_ID>
DB08949

> <DATABASE_NAME>
drugbank

> <SMILES>
O=C(O[C@H]1[C@H](OC(=O)C2=CC=CN=C2)[C@@H](OC(=O)C2=CC=CN=C2)[C@H](OC(=O)C2=CC=CN=C2)[C@H](OC(=O)C2=CC=CN=C2)[C@@H]1OC(=O)C1=CC=CN=C1)C1=CC=CN=C1

> <INCHI_IDENTIFIER>
InChI=1S/C42H30N6O12/c49-37(25-7-1-13-43-19-25)55-31-32(56-38(50)26-8-2-14-44-20-26)34(58-40(52)28-10-4-16-46-22-28)36(60-42(54)30-12-6-18-48-24-30)35(59-41(53)29-11-5-17-47-23-29)33(31)57-39(51)27-9-3-15-45-21-27/h1-24,31-36H/t31-,32-,33-,34+,35-,36-

> <INCHI_KEY>
MFZCIDXOLLEMOO-GYSGTQPESA-N

> <FORMULA>
C42H30N6O12

> <MOLECULAR_WEIGHT>
810.732

> <EXACT_MASS>
810.19217043

> <JCHEM_ACCEPTOR_COUNT>
12

> <JCHEM_ATOM_COUNT>
90

> <JCHEM_AVERAGE_POLARIZABILITY>
76.08197104297136

> <JCHEM_BIOAVAILABILITY>
0

> <JCHEM_DONOR_COUNT>
0

> <JCHEM_FORMAL_CHARGE>
0

> <JCHEM_GHOSE_FILTER>
0

> <JCHEM_IUPAC>
(1R,2S,3R,4R,5S,6s)-2,3,4,5,6-pentakis(pyridine-3-carbonyloxy)cyclohexyl pyridine-3-carboxylate

> <ALOGPS_LOGP>
3.49

> <JCHEM_LOGP>
3.883754877999999

> <ALOGPS_LOGS>
-4.67

> <JCHEM_MDDR_LIKE_RULE>
1

> <JCHEM_NUMBER_OF_RINGS>
7

> <JCHEM_PHYSIOLOGICAL_CHARGE>
0

> <JCHEM_PKA_STRONGEST_BASIC>
4.017191554377561

> <JCHEM_POLAR_SURFACE_AREA>
235.13999999999993

> <JCHEM_REFRACTIVITY>
201.76559999999992

> <JCHEM_ROTATABLE_BOND_COUNT>
18

> <JCHEM_RULE_OF_FIVE>
0

> <ALOGPS_SOLUBILITY>
1.74e-02 g/l

> <JCHEM_TRADITIONAL_IUPAC>
(1R,2S,3R,4R,5S,6s)-2,3,4,5,6-pentakis(pyridine-3-carbonyloxy)cyclohexyl pyridine-3-carboxylate

> <JCHEM_VEBER_RULE>
0

> <DRUGBANK_ID>
DB08949

> <DRUG_GROUPS>
withdrawn

> <GENERIC_NAME>
Inositol nicotinate

> <SYNONYMS>
hexanicotol; Inositol hexanicotinate; Inositol niacinate; mesoinositol hexanicotinate; myo-inositol hexanicotinate

> <PRODUCTS>
Advanced 2000 Capsules; Alertonic; American Eagle Energizer Plus Vitamin Supplement Drink; American Plus Energy & Vitamin Drink; B 50 Capsules; B Complex 25mg Vitamin Supplement; B Complex 50 Vitamin Cap; B Complex 50+ Caplet; B Compound 50mg Tab; B-100 Caps; B-100 Vitamin Supplement; B-50 Complex; B-50 Hi Potency B Vitamins Tab; B-complex; B-complex 100; B-complex 50; B-complex Tab; B-complex With Vitamin C, Biotin, Folic Acid; B-complex-50 Tab; B-plex; B-plus - Tab; B50 Complex; Balanced B 125 Srt; Bev 29 Tab; Bev B-150; Bev-lipo-1000; C.A.G. Tab; Calcium Magnesium Plus Vitamin D Liquid; Choline & Inositol Caps; Choline and Inositol 250mg/250mg; Complete Mega B; Complete Multivitamins and Minerals Tablets Timed Release; Complexe B Compose 75; Cyruta Tab; Derma-force; DermaNIC; Dp 2000; Essential B Tablets; Flush Free Niacin With Inositol; Formula 9 Tab; Formula C.I. Tab; Formula Cm; Formula Lf; Formula Pro-B; Forty Plus Vitamin Supplement; Fusion PM Formula Tab; Gnc Choline/inositol 250mg Tablets; Harvest Of Values All B Complex Tab; Hi Potency B Complex W Chelated Minerals; Hi Potency B52 B Complex Tab; Hi Potency Stress B Tension With C; Inositol 250mg - Tab; Inositol 500mg; Inositol Caps 500mg; Inositol Ctr Srt 400mg; Inositol Nicotinate 250 mg; Inositol Nicotinate Plus CR; Inositol Tab 250mg; Inositol Tab 405mg; Inositol-S Tab 400mg; Inositolex 400mgms; Insur-all Vitamin Supplement; Lipo-B-C Tab; Lipotropics 600 Tab; Liqui B Complex; Liqui B Complex Plus; Liqui Vita; Liquid B Complex 50; Low Potency B Complex Tab; Mega 13 Multivitamin Formula; Mini-B Tab; Multi B; Multi Vitamin-mineral Formula; My Favorite Niacin and Inositol Tab; Niacin 500 Mg and Inositol; Onccor; One A Day Tab; Orti B; Palm Spring's PM Form Tab; Phytopure; Red American Eagle Vitamin Supplement Drink; Revitex Ampoules Et Comprimes; Spectrum 2 Cap; Stress B & C  Caplet; Stress B Capsules With Vitamin C; Stress B With 1000 Mg Vitamin C; Stress B&c Tab; Stress Ctr Srt; Stress Formula B-comp + 500mg Vit C Tab; Stress Formula Multi-B Comp + 500mg Vit C Cap; Stress Formula Vit B With C Complex; Stress Forte Plus Lipotropic Factors; Stress Vitamin B With C Complex Tablets; Stressmates; Super B Compound W 500mg Vit C; Super Daily No 2; Super Stress Capsules; Super Stress Mega B Plus 1000mg Vit C Tab; Super-pote Vitamin Supplement; Time Release B 100 Compound  -  Tablet; Timed Release B Complex 100 Srt; Timed Release B-complex 100; Timed Release B-complex 50; Ultra Hr; Usana Megavitamin Tablets - Tab; Vit B Complex Ctr; Vit-HA Multi Vitamin and Zinc Supplement; Vita B Complex Tab; Vita-B; Vita-worth B-complex Tablets; Vitachrom Gc; Vitalife  -  Capsule; Vitamin B + C Cap; Vitamin B Complex 100 Tab; Vitamin B Complex 50; Vitamin B Complex Suppl; Vitamin B Complex W C Tab; Vitamin B Compound W C Tab 500mg; Vitamin B Compound W Vit C 250mg Tab; Vitamin B Tablets; Women's Formula

> <INTERNATIONAL_BRANDS>
Hexaniton; Hexazin; Hexin; Hexopal; Iexaniton; Nicoxatin

$$$$

  Mrv0541 05271412172D          

 26 29  0  0  0  0            999 V2000
   -2.5147   -5.7645    0.0000 C   0  0  0  0  0  0  0  0  0  0  0  0
   -1.7077   -5.5929    0.0000 C   0  0  0  0  0  0  0  0  0  0  0  0
   -3.0667   -5.1514    0.0000 C   0  0  0  0  0  0  0  0  0  0  0  0
    3.3522    1.1104    0.0000 C   0  0  0  0  0  0  0  0  0  0  0  0
    3.3522    1.9354    0.0000 C   0  0  0  0  0  0  0  0  0  0  0  0
   -1.4528   -4.8083    0.0000 C   0  0  0  0  0  0  0  0  0  0  0  0
   -2.8118   -4.3668    0.0000 C   0  0  0  0  0  0  0  0  0  0  0  0
    2.6378    0.6979    0.0000 C   0  0  0  0  0  0  0  0  0  0  0  0
    2.6378    2.3479    0.0000 C   0  0  0  0  0  0  0  0  0  0  0  0
    0.8837    0.0708    0.0000 C   0  0  0  0  0  0  0  0  0  0  0  0
    0.1189   -2.2829    0.0000 C   0  0  0  0  0  0  0  0  0  0  0  0
   -1.2400   -1.8414    0.0000 C   0  0  0  0  0  0  0  0  0  0  0  0
    0.0768   -0.1006    0.0000 C   0  0  0  0  0  0  0  0  0  0  0  0
    0.3739   -1.4983    0.0000 C   0  0  0  0  0  0  0  0  0  0  0  0
   -0.9851   -1.0567    0.0000 C   0  0  0  0  0  0  0  0  0  0  0  0
    0.6537    1.5229    0.0000 C   0  0  0  0  0  0  0  0  0  0  0  0
   -2.0048   -4.1952    0.0000 C   0  0  0  0  0  0  0  0  0  0  0  0
    1.1387    0.8555    0.0000 C   0  0  0  0  0  0  0  0  0  0  0  0
   -0.6880   -2.4545    0.0000 C   0  0  0  0  0  0  0  0  0  0  0  0
    1.9233    1.1104    0.0000 C   0  0  0  0  0  0  0  0  0  0  0  0
    1.9233    1.9354    0.0000 C   0  0  0  0  0  0  0  0  0  0  0  0
   -1.7499   -3.4106    0.0000 C   0  0  0  0  0  0  0  0  0  0  0  0
    1.1387    2.1903    0.0000 N   0  0  0  0  0  0  0  0  0  0  0  0
   -0.9429   -3.2391    0.0000 N   0  0  0  0  0  0  0  0  0  0  0  0
   -0.1781   -0.8852    0.0000 N   0  0  0  0  0  0  0  0  0  0  0  0
   -2.3019   -2.7975    0.0000 O   0  0  0  0  0  0  0  0  0  0  0  0
  2  1  2  0  0  0  0
  3  1  1  0  0  0  0
  5  4  2  0  0  0  0
  6  2  1  0  0  0  0
  7  3  2  0  0  0  0
  8  4  1  0  0  0  0
  9  5  1  0  0  0  0
 13 10  1  0  0  0  0
 14 11  1  0  0  0  0
 15 12  1  0  0  0  0
 17  6  2  0  0  0  0
 17  7  1  0  0  0  0
 18 10  1  0  0  0  0
 18 16  2  0  0  0  0
 19 11  1  0  0  0  0
 19 12  1  0  0  0  0
 20  8  2  0  0  0  0
 20 18  1  0  0  0  0
 21  9  2  0  0  0  0
 21 20  1  0  0  0  0
 22 17  1  0  0  0  0
 23 16  1  0  0  0  0
 23 21  1  0  0  0  0
 24 19  1  4  0  0  0
 24 22  2  0  0  0  0
 25 13  1  0  0  0  0
 25 14  1  0  0  0  0
 25 15  1  0  0  0  0
 26 22  1  0  0  0  0
M  END
> <DATABASE_ID>
DB08950

> <DATABASE_NAME>
drugbank

> <SMILES>
OC(=NC1CCN(CCC2=CNC3=CC=CC=C23)CC1)C1=CC=CC=C1

> <INCHI_IDENTIFIER>
InChI=1S/C22H25N3O/c26-22(17-6-2-1-3-7-17)24-19-11-14-25(15-12-19)13-10-18-16-23-21-9-5-4-8-20(18)21/h1-9,16,19,23H,10-15H2,(H,24,26)

> <INCHI_KEY>
JXZZEXZZKAWDSP-UHFFFAOYSA-N

> <FORMULA>
C22H25N3O

> <MOLECULAR_WEIGHT>
347.4534

> <EXACT_MASS>
347.199762437

> <JCHEM_ACCEPTOR_COUNT>
3

> <JCHEM_AVERAGE_POLARIZABILITY>
40.941669986284566

> <JCHEM_BIOAVAILABILITY>
1

> <JCHEM_DONOR_COUNT>
2

> <JCHEM_FORMAL_CHARGE>
0

> <JCHEM_GHOSE_FILTER>
1

> <JCHEM_IUPAC>
N-{1-[2-(1H-indol-3-yl)ethyl]piperidin-4-yl}benzenecarboximidic acid

> <ALOGPS_LOGP>
4.02

> <JCHEM_LOGP>
3.0204246314780487

> <ALOGPS_LOGS>
-4.84

> <JCHEM_MDDR_LIKE_RULE>
0

> <JCHEM_NUMBER_OF_RINGS>
4

> <JCHEM_PHYSIOLOGICAL_CHARGE>
2

> <JCHEM_PKA>
17.16469799214586

> <JCHEM_PKA_STRONGEST_ACIDIC>
8.473076122228045

> <JCHEM_PKA_STRONGEST_BASIC>
9.590776905136664

> <JCHEM_POLAR_SURFACE_AREA>
51.620000000000005

> <JCHEM_REFRACTIVITY>
106.46000000000001

> <JCHEM_ROTATABLE_BOND_COUNT>
5

> <JCHEM_RULE_OF_FIVE>
1

> <ALOGPS_SOLUBILITY>
4.98e-03 g/l

> <JCHEM_TRADITIONAL_IUPAC>
indoramin

> <JCHEM_VEBER_RULE>
0

> <DRUGBANK_ID>
DB08950

> <DRUG_GROUPS>
withdrawn

> <GENERIC_NAME>
Indoramin

> <SYNONYMS>
Indoramina; Indoramine

> <INTERNATIONAL_BRANDS>
Baratol; Doralese; Doralese; Vidora; Wydora

> <SALTS>
Indoramin Hydrochloride

$$$$

  Mrv0541 05271412302D          

 21 23  0  0  0  0            999 V2000
   -3.0587    0.8084    0.0000 C   0  0  0  0  0  0  0  0  0  0  0  0
    3.3522    1.1104    0.0000 C   0  0  0  0  0  0  0  0  0  0  0  0
    3.3522    1.9354    0.0000 C   0  0  0  0  0  0  0  0  0  0  0  0
    2.6378    0.6979    0.0000 C   0  0  0  0  0  0  0  0  0  0  0  0
    2.6378    2.3479    0.0000 C   0  0  0  0  0  0  0  0  0  0  0  0
   -1.4087    0.8084    0.0000 C   0  0  0  0  0  0  0  0  0  0  0  0
   -1.4087    2.2374    0.0000 C   0  0  0  0  0  0  0  0  0  0  0  0
   -0.5837    0.8084    0.0000 C   0  0  0  0  0  0  0  0  0  0  0  0
   -0.5837    2.2374    0.0000 C   0  0  0  0  0  0  0  0  0  0  0  0
    1.1387    0.8555    0.0000 C   0  0  0  0  0  0  0  0  0  0  0  0
   -2.6462    1.5229    0.0000 C   0  0  0  0  0  0  0  0  0  0  0  0
   -1.8212    1.5229    0.0000 C   0  0  0  0  0  0  0  0  0  0  0  0
    1.9233    1.1104    0.0000 C   0  0  0  0  0  0  0  0  0  0  0  0
   -0.1712    1.5229    0.0000 C   0  0  0  0  0  0  0  0  0  0  0  0
    1.9233    1.9354    0.0000 C   0  0  0  0  0  0  0  0  0  0  0  0
    1.1387    2.1903    0.0000 C   0  0  0  0  0  0  0  0  0  0  0  0
   -3.0587    2.2374    0.0000 C   0  0  0  0  0  0  0  0  0  0  0  0
    0.6537    1.5229    0.0000 N   0  0  0  0  0  0  0  0  0  0  0  0
    0.8837    2.9750    0.0000 O   0  0  0  0  0  0  0  0  0  0  0  0
   -3.8837    2.2374    0.0000 O   0  0  0  0  0  0  0  0  0  0  0  0
   -2.6462    2.9518    0.0000 O   0  0  0  0  0  0  0  0  0  0  0  0
  3  2  2  0  0  0  0
  4  2  1  0  0  0  0
  5  3  1  0  0  0  0
  8  6  1  0  0  0  0
  9  7  2  0  0  0  0
 11  1  1  0  0  0  0
 12  6  2  0  0  0  0
 12  7  1  0  0  0  0
 12 11  1  0  0  0  0
 13  4  2  0  0  0  0
 13 10  1  0  0  0  0
 14  8  2  0  0  0  0
 14  9  1  0  0  0  0
 15  5  2  0  0  0  0
 15 13  1  0  0  0  0
 16 15  1  0  0  0  0
 17 11  1  0  0  0  0
 18 10  1  0  0  0  0
 18 14  1  0  0  0  0
 18 16  1  0  0  0  0
 19 16  2  0  0  0  0
 20 17  2  0  0  0  0
 21 17  1  0  0  0  0
M  END
> <DATABASE_ID>
DB08951

> <DATABASE_NAME>
drugbank

> <SMILES>
CC(C(O)=O)C1=CC=C(C=C1)N1CC2=CC=CC=C2C1=O

> <INCHI_IDENTIFIER>
InChI=1S/C17H15NO3/c1-11(17(20)21)12-6-8-14(9-7-12)18-10-13-4-2-3-5-15(13)16(18)19/h2-9,11H,10H2,1H3,(H,20,21)

> <INCHI_KEY>
RJMIEHBSYVWVIN-UHFFFAOYSA-N

> <FORMULA>
C17H15NO3

> <MOLECULAR_WEIGHT>
281.3059

> <EXACT_MASS>
281.105193351

> <JCHEM_ACCEPTOR_COUNT>
3

> <JCHEM_AVERAGE_POLARIZABILITY>
30.244359054041514

> <JCHEM_BIOAVAILABILITY>
1

> <JCHEM_DONOR_COUNT>
1

> <JCHEM_FORMAL_CHARGE>
0

> <JCHEM_GHOSE_FILTER>
1

> <JCHEM_IUPAC>
2-[4-(1-oxo-2,3-dihydro-1H-isoindol-2-yl)phenyl]propanoic acid

> <ALOGPS_LOGP>
2.44

> <JCHEM_LOGP>
2.8611585593333335

> <ALOGPS_LOGS>
-3.34

> <JCHEM_MDDR_LIKE_RULE>
0

> <JCHEM_NUMBER_OF_RINGS>
3

> <JCHEM_PHYSIOLOGICAL_CHARGE>
-1

> <JCHEM_PKA>
14.683431218934714

> <JCHEM_PKA_STRONGEST_ACIDIC>
3.7421788243955914

> <JCHEM_PKA_STRONGEST_BASIC>
-3.4730183754982424

> <JCHEM_POLAR_SURFACE_AREA>
57.61

> <JCHEM_REFRACTIVITY>
79.1441

> <JCHEM_ROTATABLE_BOND_COUNT>
3

> <JCHEM_RULE_OF_FIVE>
1

> <ALOGPS_SOLUBILITY>
1.28e-01 g/l

> <JCHEM_TRADITIONAL_IUPAC>
indoprofen

> <JCHEM_VEBER_RULE>
0

> <DRUGBANK_ID>
DB08951

> <DRUG_GROUPS>
withdrawn

> <GENERIC_NAME>
Indoprofen

$$$$

  Mrv0541 05271412452D          

 18 19  0  0  0  0            999 V2000
    3.5723    2.0625    0.0000 C   0  0  0  0  0  0  0  0  0  0  0  0
    2.8578    3.3000    0.0000 C   0  0  0  0  0  0  0  0  0  0  0  0
   -3.1354    1.1692    0.0000 C   0  0  0  0  0  0  0  0  0  0  0  0
   -2.1434    3.7125    0.0000 C   0  0  0  0  0  0  0  0  0  0  0  0
   -3.4709    1.9229    0.0000 C   0  0  0  0  0  0  0  0  0  0  0  0
   -2.8578    3.3000    0.0000 C   0  0  0  0  0  0  0  0  0  0  0  0
   -2.3149    1.2555    0.0000 C   0  0  0  0  0  0  0  0  0  0  0  0
   -1.4289    3.3000    0.0000 C   0  0  0  0  0  0  0  0  0  0  0  0
    1.4289    2.4750    0.0000 C   0  0  0  0  0  0  0  0  0  0  0  0
    0.0000    2.4750    0.0000 C   0  0  0  0  0  0  0  0  0  0  0  0
    2.8578    2.4750    0.0000 C   0  0  0  0  0  0  0  0  0  0  0  0
   -2.8578    2.4750    0.0000 C   0  0  0  0  0  0  0  0  0  0  0  0
    0.7144    2.0625    0.0000 C   0  0  0  0  0  0  0  0  0  0  0  0
   -2.1434    2.0625    0.0000 C   0  0  0  0  0  0  0  0  0  0  0  0
   -1.4289    2.4750    0.0000 C   0  0  0  0  0  0  0  0  0  0  0  0
    2.1434    2.0625    0.0000 N   0  0  0  0  0  0  0  0  0  0  0  0
    0.7144    1.2375    0.0000 O   0  0  0  0  0  0  0  0  0  0  0  0
   -0.7144    2.0625    0.0000 O   0  0  0  0  0  0  0  0  0  0  0  0
  5  3  1  0  0  0  0
  6  4  2  0  0  0  0
  7  3  2  0  0  0  0
  8  4  1  0  0  0  0
 11  1  1  0  0  0  0
 11  2  1  0  0  0  0
 12  5  1  0  0  0  0
 12  6  1  0  0  0  0
 13  9  1  0  0  0  0
 13 10  1  0  0  0  0
 14  7  1  0  0  0  0
 14 12  2  0  0  0  0
 15  8  2  0  0  0  0
 15 14  1  0  0  0  0
 16  9  1  0  0  0  0
 16 11  1  0  0  0  0
 17 13  1  0  0  0  0
 18 10  1  0  0  0  0
 18 15  1  0  0  0  0
M  END
> <DATABASE_ID>
DB08952

> <DATABASE_NAME>
drugbank

> <SMILES>
CC(C)NCC(O)COC1=CC=CC2=C1C=CC2

> <INCHI_IDENTIFIER>
InChI=1S/C15H21NO2/c1-11(2)16-9-13(17)10-18-15-8-4-6-12-5-3-7-14(12)15/h3-4,6-8,11,13,16-17H,5,9-10H2,1-2H3

> <INCHI_KEY>
MPGBPFMOOXKQRX-UHFFFAOYSA-N

> <FORMULA>
C15H21NO2

> <MOLECULAR_WEIGHT>
247.3327

> <EXACT_MASS>
247.157228921

> <JCHEM_ACCEPTOR_COUNT>
3

> <JCHEM_AVERAGE_POLARIZABILITY>
28.655038995663478

> <JCHEM_BIOAVAILABILITY>
1

> <JCHEM_DONOR_COUNT>
2

> <JCHEM_FORMAL_CHARGE>
0

> <JCHEM_GHOSE_FILTER>
1

> <JCHEM_IUPAC>
1-(1H-inden-4-yloxy)-3-[(propan-2-yl)amino]propan-2-ol

> <ALOGPS_LOGP>
2.53

> <JCHEM_LOGP>
2.322683057

> <ALOGPS_LOGS>
-2.95

> <JCHEM_MDDR_LIKE_RULE>
0

> <JCHEM_NUMBER_OF_RINGS>
2

> <JCHEM_PHYSIOLOGICAL_CHARGE>
1

> <JCHEM_PKA>
18.652834249533473

> <JCHEM_PKA_STRONGEST_ACIDIC>
14.087918433957654

> <JCHEM_PKA_STRONGEST_BASIC>
9.666166403684079

> <JCHEM_POLAR_SURFACE_AREA>
41.489999999999995

> <JCHEM_REFRACTIVITY>
74.3733

> <JCHEM_ROTATABLE_BOND_COUNT>
6

> <JCHEM_RULE_OF_FIVE>
1

> <ALOGPS_SOLUBILITY>
2.77e-01 g/l

> <JCHEM_TRADITIONAL_IUPAC>
1-(1H-inden-4-yloxy)-3-(isopropylamino)propan-2-ol

> <JCHEM_VEBER_RULE>
0

> <DRUGBANK_ID>
DB08952

> <DRUG_GROUPS>
withdrawn

> <GENERIC_NAME>
Indenolol

$$$$

  Mrv0541 05281410052D          

 17 19  0  0  0  0            999 V2000
    3.3522    1.1104    0.0000 C   0  0  0  0  0  0  0  0  0  0  0  0
    3.3522    1.9354    0.0000 C   0  0  0  0  0  0  0  0  0  0  0  0
    2.6378    0.6979    0.0000 C   0  0  0  0  0  0  0  0  0  0  0  0
    2.6378    2.3479    0.0000 C   0  0  0  0  0  0  0  0  0  0  0  0
    0.0768   -0.1006    0.0000 C   0  0  0  0  0  0  0  0  0  0  0  0
    0.8837    0.0708    0.0000 C   0  0  0  0  0  0  0  0  0  0  0  0
   -0.9851   -1.0567    0.0000 C   0  0  0  0  0  0  0  0  0  0  0  0
    0.3739   -1.4983    0.0000 C   0  0  0  0  0  0  0  0  0  0  0  0
   -1.2400   -1.8414    0.0000 C   0  0  0  0  0  0  0  0  0  0  0  0
    0.1189   -2.2829    0.0000 C   0  0  0  0  0  0  0  0  0  0  0  0
    0.6537    1.5229    0.0000 C   0  0  0  0  0  0  0  0  0  0  0  0
   -0.1781   -0.8852    0.0000 C   0  0  0  0  0  0  0  0  0  0  0  0
    1.1387    0.8555    0.0000 C   0  0  0  0  0  0  0  0  0  0  0  0
    1.9233    1.1104    0.0000 C   0  0  0  0  0  0  0  0  0  0  0  0
    1.9233    1.9354    0.0000 C   0  0  0  0  0  0  0  0  0  0  0  0
   -0.6880   -2.4545    0.0000 N   0  0  0  0  0  0  0  0  0  0  0  0
    1.1387    2.1903    0.0000 N   0  0  0  0  0  0  0  0  0  0  0  0
  2  1  2  0  0  0  0
  3  1  1  0  0  0  0
  4  2  1  0  0  0  0
  6  5  1  0  0  0  0
  9  7  1  0  0  0  0
 10  8  1  0  0  0  0
 12  5  1  0  0  0  0
 12  7  1  0  0  0  0
 12  8  1  0  0  0  0
 13  6  1  0  0  0  0
 13 11  2  0  0  0  0
 14  3  2  0  0  0  0
 14 13  1  0  0  0  0
 15  4  2  0  0  0  0
 15 14  1  0  0  0  0
 16  9  1  0  0  0  0
 16 10  1  0  0  0  0
 17 11  1  0  0  0  0
 17 15  1  0  0  0  0
M  END
> <DATABASE_ID>
DB08953

> <DATABASE_NAME>
drugbank

> <SMILES>
C(CC1=CNC2=CC=CC=C12)C1CCNCC1

> <INCHI_IDENTIFIER>
InChI=1S/C15H20N2/c1-2-4-15-14(3-1)13(11-17-15)6-5-12-7-9-16-10-8-12/h1-4,11-12,16-17H,5-10H2

> <INCHI_KEY>
SADQVAVFGNTEOD-UHFFFAOYSA-N

> <FORMULA>
C15H20N2

> <MOLECULAR_WEIGHT>
228.3327

> <EXACT_MASS>
228.16264865

> <JCHEM_ACCEPTOR_COUNT>
1

> <JCHEM_AVERAGE_POLARIZABILITY>
27.586915814128364

> <JCHEM_BIOAVAILABILITY>
1

> <JCHEM_DONOR_COUNT>
2

> <JCHEM_FORMAL_CHARGE>
0

> <JCHEM_GHOSE_FILTER>
1

> <JCHEM_IUPAC>
3-[2-(piperidin-4-yl)ethyl]-1H-indole

> <ALOGPS_LOGP>
3.58

> <JCHEM_LOGP>
3.0662100519999993

> <ALOGPS_LOGS>
-4.26

> <JCHEM_MDDR_LIKE_RULE>
0

> <JCHEM_NUMBER_OF_RINGS>
3

> <JCHEM_PHYSIOLOGICAL_CHARGE>
1

> <JCHEM_PKA_STRONGEST_ACIDIC>
17.31878029195073

> <JCHEM_PKA_STRONGEST_BASIC>
10.355899821464133

> <JCHEM_POLAR_SURFACE_AREA>
27.82

> <JCHEM_REFRACTIVITY>
71.76750000000001

> <JCHEM_ROTATABLE_BOND_COUNT>
3

> <JCHEM_RULE_OF_FIVE>
1

> <ALOGPS_SOLUBILITY>
1.25e-02 g/l

> <JCHEM_TRADITIONAL_IUPAC>
indalpine

> <JCHEM_VEBER_RULE>
1

> <DRUGBANK_ID>
DB08953

> <DRUG_GROUPS>
investigational; withdrawn

> <GENERIC_NAME>
Indalpine

> <INTERNATIONAL_BRANDS>
Upstène

$$$$

  Mrv0541 05281411122D          

 24 26  0  0  0  0            999 V2000
   -4.2868    5.7750    0.0000 C   0  0  0  0  0  0  0  0  0  0  0  0
   -0.7144    2.0625    0.0000 C   0  0  0  0  0  0  0  0  0  0  0  0
    0.0000    2.4750    0.0000 C   0  0  0  0  0  0  0  0  0  0  0  0
   -1.4289    2.4750    0.0000 C   0  0  0  0  0  0  0  0  0  0  0  0
    0.0000    3.3000    0.0000 C   0  0  0  0  0  0  0  0  0  0  0  0
   -1.4289    3.3000    0.0000 C   0  0  0  0  0  0  0  0  0  0  0  0
   -4.2868    8.2500    0.0000 C   0  0  0  0  0  0  0  0  0  0  0  0
   -5.0012    7.0125    0.0000 C   0  0  0  0  0  0  0  0  0  0  0  0
   -5.0012    8.6625    0.0000 C   0  0  0  0  0  0  0  0  0  0  0  0
   -5.7157    7.4250    0.0000 C   0  0  0  0  0  0  0  0  0  0  0  0
   -1.4289    5.7750    0.0000 C   0  0  0  0  0  0  0  0  0  0  0  0
   -2.1434    4.5375    0.0000 C   0  0  0  0  0  0  0  0  0  0  0  0
   -2.1434    6.1875    0.0000 C   0  0  0  0  0  0  0  0  0  0  0  0
   -2.8578    4.9500    0.0000 C   0  0  0  0  0  0  0  0  0  0  0  0
   -0.7144    4.5375    0.0000 C   0  0  0  0  0  0  0  0  0  0  0  0
   -3.5723    6.1875    0.0000 C   0  0  0  0  0  0  0  0  0  0  0  0
   -0.7144    3.7125    0.0000 C   0  0  0  0  0  0  0  0  0  0  0  0
   -1.4289    4.9500    0.0000 C   0  0  0  0  0  0  0  0  0  0  0  0
   -4.2868    7.4250    0.0000 C   0  0  0  0  0  0  0  0  0  0  0  0
   -5.7157    8.2500    0.0000 C   0  0  0  0  0  0  0  0  0  0  0  0
   -3.5723    7.0125    0.0000 C   0  0  0  0  0  0  0  0  0  0  0  0
   -2.8578    5.7750    0.0000 N   0  0  0  0  0  0  0  0  0  0  0  0
   -6.4302    8.6625    0.0000 O   0  0  0  0  0  0  0  0  0  0  0  0
   -2.8578    7.4250    0.0000 O   0  0  0  0  0  0  0  0  0  0  0  0
  3  2  2  0  0  0  0
  4  2  1  0  0  0  0
  5  3  1  0  0  0  0
  6  4  2  0  0  0  0
  9  7  1  0  0  0  0
 10  8  2  0  0  0  0
 13 11  1  0  0  0  0
 14 12  1  0  0  0  0
 16  1  1  0  0  0  0
 17  5  2  0  0  0  0
 17  6  1  0  0  0  0
 17 15  1  0  0  0  0
 18 11  1  0  0  0  0
 18 12  1  0  0  0  0
 18 15  1  0  0  0  0
 19  7  2  0  0  0  0
 19  8  1  0  0  0  0
 20  9  2  0  0  0  0
 20 10  1  0  0  0  0
 21 16  1  0  0  0  0
 21 19  1  0  0  0  0
 22 13  1  0  0  0  0
 22 14  1  0  0  0  0
 22 16  1  0  0  0  0
 23 20  1  0  0  0  0
 24 21  1  0  0  0  0
M  END
> <DATABASE_ID>
DB08954

> <DATABASE_NAME>
drugbank

> <SMILES>
CC(C(O)C1=CC=C(O)C=C1)N1CCC(CC2=CC=CC=C2)CC1

> <INCHI_IDENTIFIER>
InChI=1S/C21H27NO2/c1-16(21(24)19-7-9-20(23)10-8-19)22-13-11-18(12-14-22)15-17-5-3-2-4-6-17/h2-10,16,18,21,23-24H,11-15H2,1H3

> <INCHI_KEY>
UYNVMODNBIQBMV-UHFFFAOYSA-N

> <FORMULA>
C21H27NO2

> <MOLECULAR_WEIGHT>
325.4446

> <EXACT_MASS>
325.204179113

> <JCHEM_ACCEPTOR_COUNT>
3

> <JCHEM_AVERAGE_POLARIZABILITY>
37.52432476297191

> <JCHEM_BIOAVAILABILITY>
1

> <JCHEM_DONOR_COUNT>
2

> <JCHEM_FORMAL_CHARGE>
0

> <JCHEM_GHOSE_FILTER>
1

> <JCHEM_IUPAC>
4-[2-(4-benzylpiperidin-1-yl)-1-hydroxypropyl]phenol

> <ALOGPS_LOGP>
3.98

> <JCHEM_LOGP>
3.5710014461647885

> <ALOGPS_LOGS>
-3.49

> <JCHEM_MDDR_LIKE_RULE>
0

> <JCHEM_NUMBER_OF_RINGS>
3

> <JCHEM_PHYSIOLOGICAL_CHARGE>
1

> <JCHEM_PKA>
14.022389337135788

> <JCHEM_PKA_STRONGEST_ACIDIC>
9.66631038886235

> <JCHEM_PKA_STRONGEST_BASIC>
9.025073855378915

> <JCHEM_POLAR_SURFACE_AREA>
43.7

> <JCHEM_REFRACTIVITY>
98.3495

> <JCHEM_ROTATABLE_BOND_COUNT>
5

> <JCHEM_RULE_OF_FIVE>
1

> <ALOGPS_SOLUBILITY>
1.05e-01 g/l

> <JCHEM_TRADITIONAL_IUPAC>
ifenprodil

> <JCHEM_VEBER_RULE>
0

> <DRUGBANK_ID>
DB08954

> <DRUG_GROUPS>
approved; withdrawn

> <GENERIC_NAME>
Ifenprodil

> <INTERNATIONAL_BRANDS>
Cerocral; Furezanil; Iburonol; Linbulane; Technis; Vadilex; Vasculodil; Youajyl

> <SALTS>
Ifenprodil Tartrate

$$$$

  Mrv0541 05281412112D          

 16 16  0  0  0  0            999 V2000
    0.0000   -2.4750    0.0000 C   0  0  0  0  0  0  0  0  0  0  0  0
   -0.7144   -1.2375    0.0000 C   0  0  0  0  0  0  0  0  0  0  0  0
    1.4289    2.4750    0.0000 C   0  0  0  0  0  0  0  0  0  0  0  0
    1.4289    0.0000    0.0000 C   0  0  0  0  0  0  0  0  0  0  0  0
    0.0000    0.0000    0.0000 C   0  0  0  0  0  0  0  0  0  0  0  0
    1.4289    0.8250    0.0000 C   0  0  0  0  0  0  0  0  0  0  0  0
    0.0000    0.8250    0.0000 C   0  0  0  0  0  0  0  0  0  0  0  0
    0.7144   -1.2375    0.0000 C   0  0  0  0  0  0  0  0  0  0  0  0
    0.0000   -1.6500    0.0000 C   0  0  0  0  0  0  0  0  0  0  0  0
    0.7144    2.0625    0.0000 C   0  0  0  0  0  0  0  0  0  0  0  0
    0.7144   -0.4125    0.0000 C   0  0  0  0  0  0  0  0  0  0  0  0
    0.7144    1.2375    0.0000 C   0  0  0  0  0  0  0  0  0  0  0  0
    0.0000    2.4750    0.0000 C   0  0  0  0  0  0  0  0  0  0  0  0
    0.0000    3.3000    0.0000 N   0  0  0  0  0  0  0  0  0  0  0  0
   -0.7144    2.0625    0.0000 O   0  0  0  0  0  0  0  0  0  0  0  0
   -0.7144    3.7125    0.0000 O   0  0  0  0  0  0  0  0  0  0  0  0
  6  4  1  0  0  0  0
  7  5  2  0  0  0  0
  9  1  1  0  0  0  0
  9  2  1  0  0  0  0
  9  8  1  0  0  0  0
 10  3  1  0  0  0  0
 11  4  2  0  0  0  0
 11  5  1  0  0  0  0
 11  8  1  0  0  0  0
 12  6  2  0  0  0  0
 12  7  1  0  0  0  0
 12 10  1  0  0  0  0
 13 10  1  0  0  0  0
 14 13  2  0  0  0  0
 15 13  1  0  0  0  0
 14 16  1  4  0  0  0
M  END
> <DATABASE_ID>
DB08955

> <DATABASE_NAME>
drugbank

> <SMILES>
CC(C)CC1=CC=C(C=C1)C(C)C(O)=NO

> <INCHI_IDENTIFIER>
InChI=1S/C13H19NO2/c1-9(2)8-11-4-6-12(7-5-11)10(3)13(15)14-16/h4-7,9-10,16H,8H2,1-3H3,(H,14,15)

> <INCHI_KEY>
BYPIURIATSUHDW-UHFFFAOYSA-N

> <FORMULA>
C13H19NO2

> <MOLECULAR_WEIGHT>
221.2955

> <EXACT_MASS>
221.141578857

> <JCHEM_ACCEPTOR_COUNT>
3

> <JCHEM_AVERAGE_POLARIZABILITY>
25.408698501594746

> <JCHEM_BIOAVAILABILITY>
1

> <JCHEM_DONOR_COUNT>
2

> <JCHEM_FORMAL_CHARGE>
0

> <JCHEM_GHOSE_FILTER>
1

> <JCHEM_IUPAC>
N-hydroxy2-[4-(2-methylpropyl)phenyl]propanimidic acid

> <ALOGPS_LOGP>
3.17

> <JCHEM_LOGP>
3.8530379853333336

> <ALOGPS_LOGS>
-3.51

> <JCHEM_MDDR_LIKE_RULE>
0

> <JCHEM_NUMBER_OF_RINGS>
1

> <JCHEM_PHYSIOLOGICAL_CHARGE>
-1

> <JCHEM_PKA>
12.738729682898498

> <JCHEM_PKA_STRONGEST_ACIDIC>
6.667331484243184

> <JCHEM_PKA_STRONGEST_BASIC>
1.070395645391011

> <JCHEM_POLAR_SURFACE_AREA>
52.82000000000001

> <JCHEM_REFRACTIVITY>
64.84040000000002

> <JCHEM_ROTATABLE_BOND_COUNT>
4

> <JCHEM_RULE_OF_FIVE>
1

> <ALOGPS_SOLUBILITY>
6.82e-02 g/l

> <JCHEM_TRADITIONAL_IUPAC>
ibuproxam

> <JCHEM_VEBER_RULE>
0

> <DRUGBANK_ID>
DB08955

> <DRUG_GROUPS>
withdrawn

> <GENERIC_NAME>
Ibuproxam

> <INTERNATIONAL_BRANDS>
Ibudros

$$$$

  Mrv0541 05281412422D          

 29 32  0  0  0  0            999 V2000
    4.5465    1.3336    0.0000 C   0  0  0  0  0  0  0  0  0  0  0  0
    2.0306    1.7357    0.0000 C   0  0  0  0  0  0  0  0  0  0  0  0
    4.5753   -0.8489    0.0000 C   0  0  0  0  0  0  0  0  0  0  0  0
    3.7632   -0.7037    0.0000 C   0  0  0  0  0  0  0  0  0  0  0  0
    2.0195   -0.2889    0.0000 C   0  0  0  0  0  0  0  0  0  0  0  0
    1.3366    0.1740    0.0000 C   0  0  0  0  0  0  0  0  0  0  0  0
    6.1708    1.0432    0.0000 C   0  0  0  0  0  0  0  0  0  0  0  0
    3.7344    1.4788    0.0000 C   0  0  0  0  0  0  0  0  0  0  0  0
    5.3587    1.1884    0.0000 C   0  0  0  0  0  0  0  0  0  0  0  0
    2.9223    1.6240    0.0000 C   0  0  0  0  0  0  0  0  0  0  0  0
    5.9193   -0.3634    0.0000 C   0  0  0  0  0  0  0  0  0  0  0  0
    0.2423    1.5050    0.0000 C   0  0  0  0  0  0  0  0  0  0  0  0
    5.1071   -0.2182    0.0000 C   0  0  2  0  0  0  0  0  0  0  0  0
    6.4511    0.2672    0.0000 C   0  0  0  0  0  0  0  0  0  0  0  0
    3.4829    0.0722    0.0000 C   0  0  1  0  0  0  0  0  0  0  0  0
    2.6708    0.2174    0.0000 C   0  0  1  0  0  0  0  0  0  0  0  0
    4.0147    0.7029    0.0000 C   0  0  1  0  0  0  0  0  0  0  0  0
    1.5659    0.9665    0.0000 C   0  0  2  0  0  0  0  0  0  0  0  0
    1.0596    1.6178    0.0000 C   0  0  0  0  0  0  0  0  0  0  0  0
    4.8268    0.5577    0.0000 C   0  0  2  0  0  0  0  0  0  0  0  0
    2.3905    0.9933    0.0000 C   0  0  2  0  0  0  0  0  0  0  0  0
   -0.2639    2.1563    0.0000 O   0  0  0  0  0  0  0  0  0  0  0  0
    7.2632    0.1220    0.0000 O   0  0  0  0  0  0  0  0  0  0  0  0
    1.3705    2.3820    0.0000 O   0  0  0  0  0  0  0  0  0  0  0  0
    5.3874   -0.9941    0.0000 H   0  0  0  0  0  0  0  0  0  0  0  0
    3.1989   -0.7023    0.0000 H   0  0  0  0  0  0  0  0  0  0  0  0
    2.5826   -0.6028    0.0000 H   0  0  0  0  0  0  0  0  0  0  0  0
    4.2988    1.4774    0.0000 H   0  0  0  0  0  0  0  0  0  0  0  0
    0.7557    0.8110    0.0000 H   0  0  0  0  0  0  0  0  0  0  0  0
  4  3  1  0  0  0  0
  6  5  1  0  0  0  0
  9  7  1  0  0  0  0
 10  8  1  0  0  0  0
 13  3  1  0  0  0  0
 13 11  1  0  0  0  0
 14  7  1  0  0  0  0
 14 11  1  0  0  0  0
 15  4  1  0  0  0  0
 16  5  1  0  0  0  0
 16 15  1  0  0  0  0
 17  8  1  0  0  0  0
 17 15  1  0  0  0  0
 18  6  1  0  0  0  0
 19 12  1  0  0  0  0
 18 19  1  6  0  0  0
 20  1  1  6  0  0  0
 20  9  1  0  0  0  0
 20 13  1  0  0  0  0
 20 17  1  0  0  0  0
 21  2  1  6  0  0  0
 21 10  1  0  0  0  0
 21 16  1  0  0  0  0
 21 18  1  0  0  0  0
 22 12  1  0  0  0  0
 23 14  2  0  0  0  0
 24 19  2  0  0  0  0
 13 25  1  6  0  0  0
 15 26  1  6  0  0  0
 16 27  1  1  0  0  0
 17 28  1  1  0  0  0
 18 29  1  1  0  0  0
M  END
> <DATABASE_ID>
DB08956

> <DATABASE_NAME>
drugbank

> <SMILES>
[H][C@@]1(CC[C@@]2([H])[C@]3([H])CC[C@]4([H])CC(=O)CC[C@]4(C)[C@@]3([H])CC[C@]12C)C(=O)CO

> <INCHI_IDENTIFIER>
InChI=1S/C21H32O3/c1-20-9-7-14(23)11-13(20)3-4-15-16-5-6-18(19(24)12-22)21(16,2)10-8-17(15)20/h13,15-18,22H,3-12H2,1-2H3/t13-,15+,16+,17+,18-,20+,21+/m1/s1

> <INCHI_KEY>
USPYDUPOCUYHQL-VEVMSBRDSA-N

> <FORMULA>
C21H32O3

> <MOLECULAR_WEIGHT>
332.477

> <EXACT_MASS>
332.23514489

> <JCHEM_ACCEPTOR_COUNT>
3

> <JCHEM_AVERAGE_POLARIZABILITY>
38.60562526332246

> <JCHEM_BIOAVAILABILITY>
1

> <JCHEM_DONOR_COUNT>
1

> <JCHEM_FORMAL_CHARGE>
0

> <JCHEM_GHOSE_FILTER>
1

> <JCHEM_IUPAC>
(1S,2S,7R,10R,11S,14S,15S)-14-(2-hydroxyacetyl)-2,15-dimethyltetracyclo[8.7.0.0²,⁷.0¹¹,¹⁵]heptadecan-5-one

> <ALOGPS_LOGP>
3.43

> <JCHEM_LOGP>
3.3771906896666675

> <ALOGPS_LOGS>
-4.33

> <JCHEM_MDDR_LIKE_RULE>
0

> <JCHEM_NUMBER_OF_RINGS>
4

> <JCHEM_PHYSIOLOGICAL_CHARGE>
0

> <JCHEM_PKA_STRONGEST_ACIDIC>
13.86472632401048

> <JCHEM_PKA_STRONGEST_BASIC>
-3.2953178742344527

> <JCHEM_POLAR_SURFACE_AREA>
54.37

> <JCHEM_REFRACTIVITY>
93.58079999999994

> <JCHEM_ROTATABLE_BOND_COUNT>
2

> <JCHEM_RULE_OF_FIVE>
1

> <ALOGPS_SOLUBILITY>
1.56e-02 g/l

> <JCHEM_TRADITIONAL_IUPAC>
hydroxydione

> <JCHEM_VEBER_RULE>
0

> <DRUGBANK_ID>
DB08956

> <DRUG_GROUPS>
investigational; withdrawn

> <GENERIC_NAME>
Hydroxydione

> <SYNONYMS>
21-hydroxy-5β-pregnane-3,20-dione; 5beta-dihydrodeoxycorticosterone; 5β-dihydrodeoxycorticosterone

> <INTERNATIONAL_BRANDS>
Viadril

> <SALTS>
Hydroxydione sodium

$$$$

  Mrv0541 05281413042D          

 30 31  0  0  0  0            999 V2000
    2.8578    2.4750    0.0000 C   0  0  0  0  0  0  0  0  0  0  0  0
    2.1434    2.0625    0.0000 C   0  0  0  0  0  0  0  0  0  0  0  0
    3.5723    2.0625    0.0000 C   0  0  0  0  0  0  0  0  0  0  0  0
    1.4289    2.4750    0.0000 C   0  0  0  0  0  0  0  0  0  0  0  0
    7.8591    2.0625    0.0000 C   0  0  0  0  0  0  0  0  0  0  0  0
   -2.8578    2.4750    0.0000 C   0  0  0  0  0  0  0  0  0  0  0  0
    8.5736    2.4750    0.0000 C   0  0  0  0  0  0  0  0  0  0  0  0
   -3.5723    2.0625    0.0000 C   0  0  0  0  0  0  0  0  0  0  0  0
    4.2868    2.4750    0.0000 C   0  0  0  0  0  0  0  0  0  0  0  0
    0.7144    2.0625    0.0000 C   0  0  0  0  0  0  0  0  0  0  0  0
    7.1447    3.3000    0.0000 C   0  0  0  0  0  0  0  0  0  0  0  0
   -2.1434    1.2375    0.0000 C   0  0  0  0  0  0  0  0  0  0  0  0
    5.7157    2.4750    0.0000 C   0  0  0  0  0  0  0  0  0  0  0  0
   -0.7144    2.0625    0.0000 C   0  0  0  0  0  0  0  0  0  0  0  0
    7.1447    2.4750    0.0000 C   0  0  0  0  0  0  0  0  0  0  0  0
   -2.1434    2.0625    0.0000 C   0  0  0  0  0  0  0  0  0  0  0  0
    8.5736    3.3000    0.0000 C   0  0  0  0  0  0  0  0  0  0  0  0
   -3.5723    1.2375    0.0000 C   0  0  0  0  0  0  0  0  0  0  0  0
    7.8591    3.7125    0.0000 C   0  0  0  0  0  0  0  0  0  0  0  0
   -2.8578    0.8250    0.0000 C   0  0  0  0  0  0  0  0  0  0  0  0
    6.4302    2.0625    0.0000 C   0  0  0  0  0  0  0  0  0  0  0  0
   -1.4289    2.4750    0.0000 C   0  0  0  0  0  0  0  0  0  0  0  0
    5.0012    2.0625    0.0000 N   0  0  0  0  0  0  0  0  0  0  0  0
    0.0000    2.4750    0.0000 N   0  0  0  0  0  0  0  0  0  0  0  0
    9.2881    3.7125    0.0000 O   0  0  0  0  0  0  0  0  0  0  0  0
   -4.2868    0.8250    0.0000 O   0  0  0  0  0  0  0  0  0  0  0  0
    7.8591    4.5375    0.0000 O   0  0  0  0  0  0  0  0  0  0  0  0
   -2.8578    0.0000    0.0000 O   0  0  0  0  0  0  0  0  0  0  0  0
    6.4302    1.2375    0.0000 O   0  0  0  0  0  0  0  0  0  0  0  0
   -1.4289    3.3000    0.0000 O   0  0  0  0  0  0  0  0  0  0  0  0
  2  1  1  0  0  0  0
  3  1  1  0  0  0  0
  4  2  1  0  0  0  0
  7  5  2  0  0  0  0
  8  6  2  0  0  0  0
  9  3  1  0  0  0  0
 10  4  1  0  0  0  0
 15  5  1  0  0  0  0
 15 11  2  0  0  0  0
 16  6  1  0  0  0  0
 16 12  2  0  0  0  0
 17  7  1  0  0  0  0
 18  8  1  0  0  0  0
 19 11  1  0  0  0  0
 19 17  2  0  0  0  0
 20 12  1  0  0  0  0
 20 18  2  0  0  0  0
 21 13  1  0  0  0  0
 21 15  1  0  0  0  0
 22 14  1  0  0  0  0
 22 16  1  0  0  0  0
 23  9  1  0  0  0  0
 23 13  1  0  0  0  0
 24 10  1  0  0  0  0
 24 14  1  0  0  0  0
 25 17  1  0  0  0  0
 26 18  1  0  0  0  0
 27 19  1  0  0  0  0
 28 20  1  0  0  0  0
 29 21  1  0  0  0  0
 30 22  1  0  0  0  0
M  END
> <DATABASE_ID>
DB08957

> <DATABASE_NAME>
drugbank

> <SMILES>
OC(CNCCCCCCNCC(O)C1=CC(O)=C(O)C=C1)C1=CC(O)=C(O)C=C1

> <INCHI_IDENTIFIER>
InChI=1S/C22H32N2O6/c25-17-7-5-15(11-19(17)27)21(29)13-23-9-3-1-2-4-10-24-14-22(30)16-6-8-18(26)20(28)12-16/h5-8,11-12,21-30H,1-4,9-10,13-14H2

> <INCHI_KEY>
OXLZNBCNGJWPRV-UHFFFAOYSA-N

> <FORMULA>
C22H32N2O6

> <MOLECULAR_WEIGHT>
420.4993

> <EXACT_MASS>
420.226036766

> <JCHEM_ACCEPTOR_COUNT>
8

> <JCHEM_AVERAGE_POLARIZABILITY>
45.95956498304316

> <JCHEM_BIOAVAILABILITY>
0

> <JCHEM_DONOR_COUNT>
8

> <JCHEM_FORMAL_CHARGE>
0

> <JCHEM_GHOSE_FILTER>
1

> <JCHEM_IUPAC>
4-{2-[(6-{[2-(3,4-dihydroxyphenyl)-2-hydroxyethyl]amino}hexyl)amino]-1-hydroxyethyl}benzene-1,2-diol

> <ALOGPS_LOGP>
1.14

> <JCHEM_LOGP>
0.21793020466054183

> <ALOGPS_LOGS>
-3.33

> <JCHEM_MDDR_LIKE_RULE>
0

> <JCHEM_NUMBER_OF_RINGS>
2

> <JCHEM_PHYSIOLOGICAL_CHARGE>
2

> <JCHEM_PKA>
9.188558389974705

> <JCHEM_PKA_STRONGEST_ACIDIC>
8.685962897108913

> <JCHEM_PKA_STRONGEST_BASIC>
10.177128940899111

> <JCHEM_POLAR_SURFACE_AREA>
145.44

> <JCHEM_REFRACTIVITY>
115.20359999999997

> <JCHEM_ROTATABLE_BOND_COUNT>
13

> <JCHEM_RULE_OF_FIVE>
0

> <ALOGPS_SOLUBILITY>
1.99e-01 g/l

> <JCHEM_TRADITIONAL_IUPAC>
hexoprenaline

> <JCHEM_VEBER_RULE>
0

> <DRUGBANK_ID>
DB08957

> <DRUG_GROUPS>
approved; withdrawn

> <GENERIC_NAME>
Hexoprenaline

> <INTERNATIONAL_BRANDS>
Argocian; Etoscol; Gynipral; Hexoline; Ipradol; Taicopin

> <SALTS>
Hexoprenaline Sulfate

$$$$

  Mrv1572004121620582D          

 25 27  0  0  0  0            999 V2000
    0.9549    0.6952    0.0000 S   0  0  0  0  0  0  0  0  0  0  0  0
    0.2444    1.1305    0.0000 N   0  0  0  0  0  0  0  0  0  0  0  0
   -0.4736    0.7180    0.0000 C   0  0  0  0  0  0  0  0  0  0  0  0
   -1.1153    1.0694    0.0000 N   0  0  0  0  0  0  0  0  0  0  0  0
    1.6729    0.2520    0.0000 C   0  0  0  0  0  0  0  0  0  0  0  0
    1.3826    1.4056    0.0000 O   0  0  0  0  0  0  0  0  0  0  0  0
    0.5347   -0.0381    0.0000 O   0  0  0  0  0  0  0  0  0  0  0  0
   -0.4736   -0.1069    0.0000 O   0  0  0  0  0  0  0  0  0  0  0  0
    1.6729   -0.5575    0.0000 C   0  0  0  0  0  0  0  0  0  0  0  0
    2.3758    0.6646    0.0000 C   0  0  0  0  0  0  0  0  0  0  0  0
    3.0939    0.2520    0.0000 C   0  0  0  0  0  0  0  0  0  0  0  0
    2.3758   -0.9777    0.0000 C   0  0  0  0  0  0  0  0  0  0  0  0
    3.0939   -0.5575    0.0000 C   0  0  0  0  0  0  0  0  0  0  0  0
    3.8196   -0.9777    0.0000 C   0  0  0  0  0  0  0  0  0  0  0  0
   -1.8105    0.6569    0.0000 C   0  0  1  0  0  0  0  0  0  0  0  0
   -2.5209    1.0542    0.0000 C   0  0  1  0  0  0  0  0  0  0  0  0
   -1.8105   -0.1681    0.0000 C   0  0  1  0  0  0  0  0  0  0  0  0
   -3.2237    0.6417    0.0000 C   0  0  0  0  0  0  0  0  0  0  0  0
   -2.5133   -0.5806    0.0000 C   0  0  2  0  0  0  0  0  0  0  0  0
   -3.2237   -0.1832    0.0000 C   0  0  0  0  0  0  0  0  0  0  0  0
   -2.9563    0.3132    0.0000 C   0  0  0  0  0  0  0  0  0  0  0  0
   -2.7271   -1.4056    0.0000 C   0  0  0  0  0  0  0  0  0  0  0  0
   -1.0542   -0.5958    0.0000 O   0  0  0  0  0  0  0  0  0  0  0  0
   -3.8196    0.3132    0.0000 C   0  0  0  0  0  0  0  0  0  0  0  0
   -1.3215    0.3132    0.0000 C   0  0  0  0  0  0  0  0  0  0  0  0
  1  2  1  0  0  0  0
  1  5  1  0  0  0  0
  1  6  2  0  0  0  0
  1  7  2  0  0  0  0
  2  3  1  0  0  0  0
  3  4  1  0  0  0  0
  3  8  2  0  0  0  0
 15  4  1  6  0  0  0
  5  9  2  0  0  0  0
  5 10  1  0  0  0  0
  9 12  1  0  0  0  0
 10 11  2  0  0  0  0
 11 13  1  0  0  0  0
 12 13  2  0  0  0  0
 13 14  1  0  0  0  0
 15 16  1  0  0  0  0
 15 17  1  0  0  0  0
 16 18  1  0  0  0  0
 16 21  1  1  0  0  0
 17 19  1  0  0  0  0
 17 23  1  6  0  0  0
 18 20  1  0  0  0  0
 19 20  1  0  0  0  0
 19 21  1  1  0  0  0
 19 22  1  1  0  0  0
 21 24  1  0  0  0  0
 21 25  1  0  0  0  0
M  END
> <DATABASE_ID>
DB08962

> <DATABASE_NAME>
drugbank

> <SMILES>
CC1=CC=C(C=C1)S(=O)(=O)NC(=O)N[C@@H]1[C@H](O)[C@]2(C)CC[C@H]1C2(C)C

> <INCHI_IDENTIFIER>
InChI=1S/C18H26N2O4S/c1-11-5-7-12(8-6-11)25(23,24)20-16(22)19-14-13-9-10-18(4,15(14)21)17(13,2)3/h5-8,13-15,21H,9-10H2,1-4H3,(H2,19,20,22)/t13-,14+,15+,18+/m1/s1

> <INCHI_KEY>
RMTYNAPTNBJHQI-LLDVTBCESA-N

> <FORMULA>
C18H26N2O4S

> <MOLECULAR_WEIGHT>
366.48

> <EXACT_MASS>
366.161328499

> <JCHEM_ACCEPTOR_COUNT>
4

> <JCHEM_ATOM_COUNT>
51

> <JCHEM_AVERAGE_POLARIZABILITY>
38.550506349192034

> <JCHEM_BIOAVAILABILITY>
1

> <JCHEM_DONOR_COUNT>
3

> <JCHEM_FORMAL_CHARGE>
0

> <JCHEM_GHOSE_FILTER>
1

> <JCHEM_IUPAC>
3-[(1S,2S,3R,4R)-3-hydroxy-4,7,7-trimethylbicyclo[2.2.1]heptan-2-yl]-1-(4-methylbenzenesulfonyl)urea

> <ALOGPS_LOGP>
2.09

> <JCHEM_LOGP>
2.4825218886666662

> <ALOGPS_LOGS>
-3.76

> <JCHEM_MDDR_LIKE_RULE>
0

> <JCHEM_NUMBER_OF_RINGS>
3

> <JCHEM_PHYSIOLOGICAL_CHARGE>
-1

> <JCHEM_PKA>
14.181146001390353

> <JCHEM_PKA_STRONGEST_ACIDIC>
4.318726562396377

> <JCHEM_PKA_STRONGEST_BASIC>
-3.1897936587010864

> <JCHEM_POLAR_SURFACE_AREA>
95.5

> <JCHEM_REFRACTIVITY>
94.7339

> <JCHEM_ROTATABLE_BOND_COUNT>
2

> <JCHEM_RULE_OF_FIVE>
1

> <ALOGPS_SOLUBILITY>
6.35e-02 g/l

> <JCHEM_TRADITIONAL_IUPAC>
3-[(1S,2S,3R,4R)-3-hydroxy-4,7,7-trimethylbicyclo[2.2.1]heptan-2-yl]-1-(4-methylbenzenesulfonyl)urea

> <JCHEM_VEBER_RULE>
0

> <DRUGBANK_ID>
DB08962

> <DRUG_GROUPS>
withdrawn

> <GENERIC_NAME>
Glibornuride

> <SYNONYMS>
Glibornurid; Glibornurida; Glibornuride; Glibornuridum

> <INTERNATIONAL_BRANDS>
Glutril

$$$$

  Mrv1572012161520292D          

 28 28  0  0  0  0            999 V2000
   -2.5715    0.4053    0.0000 C   0  0  2  0  0  0  0  0  0  0  0  0
   -2.5715   -0.4192    0.0000 C   0  0  2  0  0  0  0  0  0  0  0  0
   -3.3686    0.6527    0.0000 C   0  0  0  0  0  0  0  0  0  0  0  0
   -1.8568    1.0233    0.0000 C   0  0  0  0  0  0  0  0  0  0  0  0
   -3.3686   -0.6940    0.0000 C   0  0  1  0  0  0  0  0  0  0  0  0
   -1.8568   -1.0373    0.0000 C   0  0  0  0  0  0  0  0  0  0  0  0
   -3.8358   -0.0344    0.0000 C   0  0  0  0  0  0  0  0  0  0  0  0
   -3.6161    1.4224    0.0000 O   0  0  0  0  0  0  0  0  0  0  0  0
   -3.6161   -1.4638    0.0000 O   0  0  0  0  0  0  0  0  0  0  0  0
   -1.1420   -0.6249    0.0000 C   0  0  0  0  0  0  0  0  0  0  0  0
   -0.4274   -1.0373    0.0000 C   0  0  2  0  0  0  0  0  0  0  0  0
    0.2872   -0.6249    0.0000 C   0  0  0  0  0  0  0  0  0  0  0  0
    1.0019   -1.0373    0.0000 C   0  0  0  0  0  0  0  0  0  0  0  0
    1.7165   -0.6249    0.0000 C   0  0  0  0  0  0  0  0  0  0  0  0
    2.4313   -1.0373    0.0000 C   0  0  0  0  0  0  0  0  0  0  0  0
    3.1459   -0.6249    0.0000 C   0  0  0  0  0  0  0  0  0  0  0  0
   -1.1552    0.6220    0.0000 C   0  0  0  0  0  0  0  0  0  0  0  0
   -0.4416    1.0341    0.0000 C   0  0  0  0  0  0  0  0  0  0  0  0
    0.2721    0.6220    0.0000 C   0  0  0  0  0  0  0  0  0  0  0  0
    0.9857    1.0341    0.0000 C   0  0  0  0  0  0  0  0  0  0  0  0
    1.6994    0.6220    0.0000 C   0  0  0  0  0  0  0  0  0  0  0  0
    2.4131    1.0341    0.0000 C   0  0  0  0  0  0  0  0  0  0  0  0
    3.1267    0.6220    0.0000 O   0  0  0  0  0  0  0  0  0  0  0  0
   -0.4275   -1.8660    0.0000 O   0  0  0  0  0  0  0  0  0  0  0  0
    0.8659   -0.0547    0.0000 C   0  0  0  0  0  0  0  0  0  0  0  0
   -0.2868   -0.0547    0.0000 C   0  0  0  0  0  0  0  0  0  0  0  0
    2.4132    1.8660    0.0000 O   0  0  0  0  0  0  0  0  0  0  0  0
    3.8358    1.0315    0.0000 C   0  0  0  0  0  0  0  0  0  0  0  0
  1  2  1  0  0  0  0
  1  3  1  0  0  0  0
  1  4  1  6  0  0  0
  2  5  1  0  0  0  0
  2  6  1  1  0  0  0
  3  7  1  0  0  0  0
  3  8  2  0  0  0  0
  5  9  1  6  0  0  0
  6 10  2  0  0  0  0
 10 11  1  0  0  0  0
 11 12  1  0  0  0  0
 12 13  1  0  0  0  0
 13 14  1  0  0  0  0
 14 15  1  0  0  0  0
 15 16  1  0  0  0  0
  5  7  1  0  0  0  0
  4 17  1  0  0  0  0
 17 18  1  0  0  0  0
 18 19  1  0  0  0  0
 19 20  1  0  0  0  0
 20 21  2  0  0  0  0
 21 22  1  0  0  0  0
 22 23  1  0  0  0  0
 11 24  1  6  0  0  0
 12 25  1  0  0  0  0
 12 26  1  0  0  0  0
 22 27  2  0  0  0  0
 23 28  1  0  0  0  0
M  END
> <DATABASE_ID>
DB08964

> <DATABASE_NAME>
drugbank

> <SMILES>
CCCCC(C)(C)[C@H](O)\C=C\[C@H]1[C@H](O)CC(=O)[C@@H]1CCCC\C=C\C(=O)OC

> <INCHI_IDENTIFIER>
InChI=1S/C23H38O5/c1-5-6-15-23(2,3)21(26)14-13-18-17(19(24)16-20(18)25)11-9-7-8-10-12-22(27)28-4/h10,12-14,17-18,20-21,25-26H,5-9,11,15-16H2,1-4H3/b12-10+,14-13+/t17-,18-,20-,21-/m1/s1

> <INCHI_KEY>
KYBOHGVERHWSSV-VNIVIJDLSA-N

> <FORMULA>
C23H38O5

> <MOLECULAR_WEIGHT>
394.552

> <EXACT_MASS>
394.271924324

> <JCHEM_ACCEPTOR_COUNT>
4

> <JCHEM_ATOM_COUNT>
66

> <JCHEM_AVERAGE_POLARIZABILITY>
46.30028757993688

> <JCHEM_BIOAVAILABILITY>
1

> <JCHEM_DONOR_COUNT>
2

> <JCHEM_FORMAL_CHARGE>
0

> <JCHEM_GHOSE_FILTER>
1

> <JCHEM_IUPAC>
methyl (2E)-7-[(1R,2R,3R)-3-hydroxy-2-[(1E,3R)-3-hydroxy-4,4-dimethyloct-1-en-1-yl]-5-oxocyclopentyl]hept-2-enoate

> <ALOGPS_LOGP>
4.02

> <JCHEM_LOGP>
4.707216349000003

> <ALOGPS_LOGS>
-4.35

> <JCHEM_MDDR_LIKE_RULE>
0

> <JCHEM_NUMBER_OF_RINGS>
1

> <JCHEM_PHYSIOLOGICAL_CHARGE>
0

> <JCHEM_PKA>
17.424965772518657

> <JCHEM_PKA_STRONGEST_ACIDIC>
14.680473082030609

> <JCHEM_PKA_STRONGEST_BASIC>
-1.1052306708791018

> <JCHEM_POLAR_SURFACE_AREA>
83.83000000000001

> <JCHEM_REFRACTIVITY>
113.05059999999997

> <JCHEM_ROTATABLE_BOND_COUNT>
13

> <JCHEM_RULE_OF_FIVE>
1

> <ALOGPS_SOLUBILITY>
1.76e-02 g/l

> <JCHEM_TRADITIONAL_IUPAC>
gemeprost

> <JCHEM_VEBER_RULE>
0

> <DRUGBANK_ID>
DB08964

> <DRUG_GROUPS>
approved; withdrawn

> <GENERIC_NAME>
Gemeprost

> <SYNONYMS>
16,16-Dimethyl-trans-delta-2-PGE1 methyl ester; 16,16-Dimethyl-trans-delta(sup 2)-prostaglandin E1 methyl ester; SC-37681

> <INTERNATIONAL_BRANDS>
Cergem; Cervagem; Cervagème; Cervidil

$$$$

  Mrv0541 06091408072D          

 51 51  0  0  0  0            999 V2000
    4.4675    2.5381    0.0000 C   0  0  0  0  0  0  0  0  0  0  0  0
    5.7788    1.9703    0.0000 C   0  0  0  0  0  0  0  0  0  0  0  0
    2.6645   -3.4238    0.0000 C   0  0  0  0  0  0  0  0  0  0  0  0
    3.8119   -2.5720    0.0000 C   0  0  0  0  0  0  0  0  0  0  0  0
    0.8615    1.4025    0.0000 C   0  0  0  0  0  0  0  0  0  0  0  0
   -0.2858    0.5508    0.0000 C   0  0  0  0  0  0  0  0  0  0  0  0
    4.1397   -1.8150    0.0000 C   0  0  0  0  0  0  0  0  0  0  0  0
    5.2871   -0.9633    0.0000 C   0  0  0  0  0  0  0  0  0  0  0  0
    2.3367    3.0113    0.0000 C   0  0  0  0  0  0  0  0  0  0  0  0
    1.1893    2.1595    0.0000 C   0  0  0  0  0  0  0  0  0  0  0  0
    0.5337   -2.9506    0.0000 C   0  0  0  0  0  0  0  0  0  0  0  0
   -0.7775   -2.3828    0.0000 C   0  0  0  0  0  0  0  0  0  0  0  0
    5.9427    0.5508    0.0000 C   0  0  0  0  0  0  0  0  0  0  0  0
    1.3448    1.5650    0.0000 C   0  0  0  0  0  0  0  0  0  0  0  0
    1.3532   -2.8560    0.0000 C   0  0  0  0  0  0  0  0  0  0  0  0
    4.9593    1.8756    0.0000 C   0  0  0  0  0  0  0  0  0  0  0  0
    2.9923   -2.6667    0.0000 C   0  0  0  0  0  0  0  0  0  0  0  0
    0.5337    0.6454    0.0000 C   0  0  0  0  0  0  0  0  0  0  0  0
    4.4675   -1.0579    0.0000 C   0  0  0  0  0  0  0  0  0  0  0  0
    2.0089    2.2542    0.0000 C   0  0  0  0  0  0  0  0  0  0  0  0
    0.0419   -2.2881    0.0000 C   0  0  0  0  0  0  0  0  0  0  0  0
    4.6314    1.1186    0.0000 C   0  0  1  0  0  0  0  0  0  0  0  0
    2.5006   -2.0042    0.0000 C   0  0  1  0  0  0  0  0  0  0  0  0
    1.0254   -0.0169    0.0000 C   0  0  1  0  0  0  0  0  0  0  0  0
    3.9758   -0.3955    0.0000 C   0  0  0  0  0  0  0  0  0  0  0  0
    2.5006    1.5917    0.0000 C   0  0  0  0  0  0  0  0  0  0  0  0
    0.3698   -1.5311    0.0000 C   0  0  0  0  0  0  0  0  0  0  0  0
    4.7954   -0.3008    0.0000 C   0  0  0  0  0  0  0  0  0  0  0  0
    2.1728    0.8347    0.0000 C   0  0  0  0  0  0  0  0  0  0  0  0
    1.1893   -1.4364    0.0000 C   0  0  0  0  0  0  0  0  0  0  0  0
    3.8119    1.0239    0.0000 C   0  0  0  0  0  0  0  0  0  0  0  0
    2.8284   -1.2472    0.0000 C   0  0  0  0  0  0  0  0  0  0  0  0
    0.2058   -0.1116    0.0000 C   0  0  0  0  0  0  0  0  0  0  0  0
    5.1232    0.4561    0.0000 N   0  0  0  0  0  0  0  0  0  0  0  0
    1.3532    0.7400    0.0000 N   0  0  0  0  0  0  0  0  0  0  0  0
    1.6810   -2.0989    0.0000 N   0  0  0  0  0  0  0  0  0  0  0  0
    5.5825   -0.5477    0.0000 O   0  0  0  0  0  0  0  0  0  0  0  0
    2.6645    0.1722    0.0000 O   0  0  0  0  0  0  0  0  0  0  0  0
    1.5171   -0.6794    0.0000 O   0  0  0  0  0  0  0  0  0  0  0  0
    3.4841    0.2669    0.0000 O   0  0  0  0  0  0  0  0  0  0  0  0
    2.3367   -0.5847    0.0000 O   0  0  0  0  0  0  0  0  0  0  0  0
   -0.5812    0.1352    0.0000 O   0  0  0  0  0  0  0  0  0  0  0  0
    3.3202    1.6864    0.0000 O   0  0  0  0  0  0  0  0  0  0  0  0
    3.6480   -1.1525    0.0000 O   0  0  0  0  0  0  0  0  0  0  0  0
   -0.1219   -0.8686    0.0000 O   0  0  0  0  0  0  0  0  0  0  0  0
    4.1397    1.7810    0.0000 H   0  0  0  0  0  0  0  0  0  0  0  0
    3.3202   -1.9096    0.0000 H   0  0  0  0  0  0  0  0  0  0  0  0
    0.2683    0.3108    0.0000 H   0  0  0  0  0  0  0  0  0  0  0  0
    4.7329   -0.7233    0.0000 H   0  0  0  0  0  0  0  0  0  0  0  0
    1.6810    1.4971    0.0000 H   0  0  0  0  0  0  0  0  0  0  0  0
    0.8615   -2.1935    0.0000 H   0  0  0  0  0  0  0  0  0  0  0  0
 16  1  1  0  0  0  0
 16  2  1  0  0  0  0
 17  3  1  0  0  0  0
 17  4  1  0  0  0  0
 18  5  1  0  0  0  0
 18  6  1  0  0  0  0
 19  7  1  0  0  0  0
 19  8  1  0  0  0  0
 20  9  1  0  0  0  0
 20 10  1  0  0  0  0
 21 11  1  0  0  0  0
 21 12  1  0  0  0  0
 22 16  1  6  0  0  0
 23 17  1  6  0  0  0
 24 18  1  6  0  0  0
 25 19  1  0  0  0  0
 26 20  1  0  0  0  0
 27 21  1  0  0  0  0
 28 25  1  0  0  0  0
 29 26  1  0  0  0  0
 30 27  1  0  0  0  0
 31 22  1  0  0  0  0
 32 23  1  0  0  0  0
 33 24  1  0  0  0  0
 34 13  1  0  0  0  0
 34 22  1  0  0  0  0
 34 28  1  0  0  0  0
 35 14  1  0  0  0  0
 35 24  1  0  0  0  0
 35 29  1  0  0  0  0
 36 15  1  0  0  0  0
 36 23  1  0  0  0  0
 36 30  1  0  0  0  0
 37 28  2  0  0  0  0
 38 29  2  0  0  0  0
 39 30  2  0  0  0  0
 40 31  2  0  0  0  0
 41 32  2  0  0  0  0
 42 33  2  0  0  0  0
 43 26  1  0  0  0  0
 43 31  1  0  0  0  0
 44 25  1  0  0  0  0
 44 32  1  0  0  0  0
 45 27  1  0  0  0  0
 45 33  1  0  0  0  0
 22 46  1  1  0  0  0
 23 47  1  1  0  0  0
 24 48  1  1  0  0  0
 49 25  1  0  0  0  0
 50 26  1  0  0  0  0
 51 27  1  0  0  0  0
M  END
> <DATABASE_ID>
DB08965

> <DATABASE_NAME>
drugbank

> <SMILES>
[H]C1(OC(=O)[C@]([H])(C(C)C)N(C)C(=O)C([H])(OC(=O)[C@]([H])(C(C)C)N(C)C(=O)C([H])(OC(=O)[C@]([H])(C(C)C)N(C)C1=O)C(C)C)C(C)C)C(C)C

> <INCHI_IDENTIFIER>
InChI=1S/C33H57N3O9/c1-16(2)22-31(40)43-26(20(9)10)29(38)35(14)24(18(5)6)33(42)45-27(21(11)12)30(39)36(15)23(17(3)4)32(41)44-25(19(7)8)28(37)34(22)13/h16-27H,1-15H3/t22-,23-,24-,25?,26?,27?/m0/s1

> <INCHI_KEY>
MIZMDSVSLSIMSC-OGLSAIDSSA-N

> <FORMULA>
C33H57N3O9

> <MOLECULAR_WEIGHT>
639.8204

> <EXACT_MASS>
639.409480437

> <JCHEM_ACCEPTOR_COUNT>
6

> <JCHEM_AVERAGE_POLARIZABILITY>
69.2691140028898

> <JCHEM_BIOAVAILABILITY>
1

> <JCHEM_DONOR_COUNT>
0

> <JCHEM_FORMAL_CHARGE>
0

> <JCHEM_GHOSE_FILTER>
0

> <JCHEM_IUPAC>
(3S,9S,15S)-4,10,16-trimethyl-3,6,9,12,15,18-hexakis(propan-2-yl)-1,7,13-trioxa-4,10,16-triazacyclooctadecane-2,5,8,11,14,17-hexone

> <ALOGPS_LOGP>
3.81

> <JCHEM_LOGP>
4.964367353

> <ALOGPS_LOGS>
-4.54

> <JCHEM_MDDR_LIKE_RULE>
0

> <JCHEM_NUMBER_OF_RINGS>
1

> <JCHEM_PHYSIOLOGICAL_CHARGE>
0

> <JCHEM_PKA>
19.2792958962065

> <JCHEM_PKA_STRONGEST_ACIDIC>
18.8019123820987

> <JCHEM_PKA_STRONGEST_BASIC>
-5.404252844249662

> <JCHEM_POLAR_SURFACE_AREA>
139.82999999999998

> <JCHEM_REFRACTIVITY>
166.59870000000015

> <JCHEM_ROTATABLE_BOND_COUNT>
6

> <JCHEM_RULE_OF_FIVE>
0

> <ALOGPS_SOLUBILITY>
1.84e-02 g/l

> <JCHEM_TRADITIONAL_IUPAC>
(3S,9S,15S)-3,6,9,12,15,18-hexaisopropyl-4,10,16-trimethyl-1,7,13-trioxa-4,10,16-triazacyclooctadecane-2,5,8,11,14,17-hexone

> <JCHEM_VEBER_RULE>
0

> <DRUGBANK_ID>
DB08965

> <DRUG_GROUPS>
approved; withdrawn

> <GENERIC_NAME>
Fusafungine

$$$$

  Mrv0541 06091408592D          

 28 30  0  0  0  0            999 V2000
   -1.4289    1.6500    0.0000 C   0  0  0  0  0  0  0  0  0  0  0  0
   -4.2868    6.6000    0.0000 C   0  0  0  0  0  0  0  0  0  0  0  0
   -5.0012    6.1875    0.0000 C   0  0  0  0  0  0  0  0  0  0  0  0
   -3.5723    6.1875    0.0000 C   0  0  0  0  0  0  0  0  0  0  0  0
   -4.2868    1.6500    0.0000 C   0  0  0  0  0  0  0  0  0  0  0  0
   -5.0012    5.3625    0.0000 C   0  0  0  0  0  0  0  0  0  0  0  0
   -3.5723    5.3625    0.0000 C   0  0  0  0  0  0  0  0  0  0  0  0
   -3.5723    1.2375    0.0000 C   0  0  0  0  0  0  0  0  0  0  0  0
   -4.2868    2.4750    0.0000 C   0  0  0  0  0  0  0  0  0  0  0  0
    1.4289    2.4750    0.0000 C   0  0  0  0  0  0  0  0  0  0  0  0
    0.7144    3.7125    0.0000 C   0  0  0  0  0  0  0  0  0  0  0  0
    2.1434    2.8875    0.0000 C   0  0  0  0  0  0  0  0  0  0  0  0
    1.4289    4.1250    0.0000 C   0  0  0  0  0  0  0  0  0  0  0  0
   -2.1434    2.8875    0.0000 C   0  0  0  0  0  0  0  0  0  0  0  0
   -0.7144    2.8875    0.0000 C   0  0  0  0  0  0  0  0  0  0  0  0
   -4.2868    4.9500    0.0000 C   0  0  0  0  0  0  0  0  0  0  0  0
   -2.8578    2.4750    0.0000 C   0  0  0  0  0  0  0  0  0  0  0  0
   -2.8578    1.6500    0.0000 C   0  0  0  0  0  0  0  0  0  0  0  0
   -3.5723    2.8875    0.0000 C   0  0  0  0  0  0  0  0  0  0  0  0
    0.0000    2.4750    0.0000 C   0  0  0  0  0  0  0  0  0  0  0  0
   -4.2868    4.1250    0.0000 C   0  0  0  0  0  0  0  0  0  0  0  0
   -2.1434    1.2375    0.0000 Cl  0  0  0  0  0  0  0  0  0  0  0  0
   -3.5723    3.7125    0.0000 N   0  0  0  0  0  0  0  0  0  0  0  0
   -1.4289    2.4750    0.0000 N   0  0  0  0  0  0  0  0  0  0  0  0
    0.7144    2.8875    0.0000 N   0  0  0  0  0  0  0  0  0  0  0  0
    0.0000    1.6500    0.0000 O   0  0  0  0  0  0  0  0  0  0  0  0
   -5.0012    3.7125    0.0000 O   0  0  0  0  0  0  0  0  0  0  0  0
    2.1434    3.7125    0.0000 O   0  0  0  0  0  0  0  0  0  0  0  0
  3  2  2  0  0  0  0
  4  2  1  0  0  0  0
  6  3  1  0  0  0  0
  7  4  2  0  0  0  0
  8  5  2  0  0  0  0
  9  5  1  0  0  0  0
 12 10  1  0  0  0  0
 13 11  1  0  0  0  0
 16  6  2  0  0  0  0
 16  7  1  0  0  0  0
 17 14  1  0  0  0  0
 18  8  1  0  0  0  0
 18 17  2  0  0  0  0
 19  9  2  0  0  0  0
 19 17  1  0  0  0  0
 20 15  1  0  0  0  0
 21 16  1  0  0  0  0
 22 18  1  0  0  0  0
 23 19  1  4  0  0  0
 23 21  2  0  0  0  0
 24  1  1  0  0  0  0
 24 14  1  0  0  0  0
 24 15  1  0  0  0  0
 25 10  1  0  0  0  0
 25 11  1  0  0  0  0
 25 20  1  0  0  0  0
 26 20  2  0  0  0  0
 27 21  1  0  0  0  0
 28 12  1  0  0  0  0
 28 13  1  0  0  0  0
M  END
> <DATABASE_ID>
DB08968

> <DATABASE_NAME>
drugbank

> <SMILES>
CN(CC(=O)N1CCOCC1)CC1=C(Cl)C=CC=C1N=C(O)C1=CC=CC=C1

> <INCHI_IDENTIFIER>
InChI=1S/C21H24ClN3O3/c1-24(15-20(26)25-10-12-28-13-11-25)14-17-18(22)8-5-9-19(17)23-21(27)16-6-3-2-4-7-16/h2-9H,10-15H2,1H3,(H,23,27)

> <INCHI_KEY>
KSNNEUZOAFRTDS-UHFFFAOYSA-N

> <FORMULA>
C21H24ClN3O3

> <MOLECULAR_WEIGHT>
401.887

> <EXACT_MASS>
401.150619356

> <JCHEM_ACCEPTOR_COUNT>
5

> <JCHEM_AVERAGE_POLARIZABILITY>
41.39813458025831

> <JCHEM_BIOAVAILABILITY>
1

> <JCHEM_DONOR_COUNT>
1

> <JCHEM_FORMAL_CHARGE>
0

> <JCHEM_GHOSE_FILTER>
1

> <JCHEM_IUPAC>
N-[3-chloro-2-({methyl[2-(morpholin-4-yl)-2-oxoethyl]amino}methyl)phenyl]benzenecarboximidic acid

> <ALOGPS_LOGP>
2.56

> <JCHEM_LOGP>
2.954357702592874

> <ALOGPS_LOGS>
-3.79

> <JCHEM_MDDR_LIKE_RULE>
1

> <JCHEM_NUMBER_OF_RINGS>
3

> <JCHEM_PHYSIOLOGICAL_CHARGE>
0

> <JCHEM_PKA_STRONGEST_ACIDIC>
6.838048353060415

> <JCHEM_PKA_STRONGEST_BASIC>
5.706426066996914

> <JCHEM_POLAR_SURFACE_AREA>
65.37

> <JCHEM_REFRACTIVITY>
112.46879999999997

> <JCHEM_ROTATABLE_BOND_COUNT>
6

> <JCHEM_RULE_OF_FIVE>
1

> <ALOGPS_SOLUBILITY>
6.56e-02 g/l

> <JCHEM_TRADITIONAL_IUPAC>
N-[3-chloro-2-({methyl[2-(morpholin-4-yl)-2-oxoethyl]amino}methyl)phenyl]benzenecarboximidic acid

> <JCHEM_VEBER_RULE>
0

> <DRUGBANK_ID>
DB08968

> <DRUG_GROUPS>
approved; withdrawn

> <GENERIC_NAME>
Fominoben

$$$$

  Mrv0541 06091409042D          

 11 10  0  0  0  0            999 V2000
   -0.4125   -0.7144    0.0000 C   0  0  0  0  0  0  0  0  0  0  0  0
    0.8250    0.0000    0.0000 C   0  0  0  0  0  0  0  0  0  0  0  0
   -1.2375   -0.7144    0.0000 C   0  0  0  0  0  0  0  0  0  0  0  0
    1.2375    0.7144    0.0000 C   0  0  0  0  0  0  0  0  0  0  0  0
   -2.0625   -0.7144    0.0000 F   0  0  0  0  0  0  0  0  0  0  0  0
   -1.2375   -1.5394    0.0000 F   0  0  0  0  0  0  0  0  0  0  0  0
   -1.2375    0.1105    0.0000 F   0  0  0  0  0  0  0  0  0  0  0  0
    1.6500    1.4289    0.0000 F   0  0  0  0  0  0  0  0  0  0  0  0
    1.9519    0.3019    0.0000 F   0  0  0  0  0  0  0  0  0  0  0  0
    0.5230    1.1269    0.0000 F   0  0  0  0  0  0  0  0  0  0  0  0
    0.0000    0.0000    0.0000 O   0  0  0  0  0  0  0  0  0  0  0  0
  3  1  1  0  0  0  0
  4  2  1  0  0  0  0
  5  3  1  0  0  0  0
  6  3  1  0  0  0  0
  7  3  1  0  0  0  0
  8  4  1  0  0  0  0
  9  4  1  0  0  0  0
 10  4  1  0  0  0  0
 11  1  1  0  0  0  0
 11  2  1  0  0  0  0
M  END
> <DATABASE_ID>
DB08969

> <DATABASE_NAME>
drugbank

> <SMILES>
FC(F)(F)COCC(F)(F)F

> <INCHI_IDENTIFIER>
InChI=1S/C4H4F6O/c5-3(6,7)1-11-2-4(8,9)10/h1-2H2

> <INCHI_KEY>
KGPPDNUWZNWPSI-UHFFFAOYSA-N

> <FORMULA>
C4H4F6O

> <MOLECULAR_WEIGHT>
182.0644

> <EXACT_MASS>
182.01663398

> <JCHEM_ACCEPTOR_COUNT>
1

> <JCHEM_AVERAGE_POLARIZABILITY>
9.939935139185026

> <JCHEM_BIOAVAILABILITY>
1

> <JCHEM_DONOR_COUNT>
0

> <JCHEM_FORMAL_CHARGE>
0

> <JCHEM_GHOSE_FILTER>
0

> <JCHEM_IUPAC>
1,1,1-trifluoro-2-(2,2,2-trifluoroethoxy)ethane

> <ALOGPS_LOGP>
1.94

> <JCHEM_LOGP>
2.0347419089999996

> <ALOGPS_LOGS>
-1.93

> <JCHEM_MDDR_LIKE_RULE>
0

> <JCHEM_NUMBER_OF_RINGS>
0

> <JCHEM_PHYSIOLOGICAL_CHARGE>
0

> <JCHEM_PKA_STRONGEST_BASIC>
-4.249105797899077

> <JCHEM_POLAR_SURFACE_AREA>
9.23

> <JCHEM_REFRACTIVITY>
23.912699999999997

> <JCHEM_ROTATABLE_BOND_COUNT>
4

> <JCHEM_RULE_OF_FIVE>
1

> <ALOGPS_SOLUBILITY>
2.14e+00 g/l

> <JCHEM_TRADITIONAL_IUPAC>
flurothyl

> <JCHEM_VEBER_RULE>
1

> <DRUGBANK_ID>
DB08969

> <DRUG_GROUPS>
withdrawn

> <GENERIC_NAME>
Flurothyl

> <SYNONYMS>
Flurotyl

$$$$

  Mrv0541 06091409242D          

 31 34  0  0  0  0            999 V2000
    7.9361   -1.3437    0.0000 C   0  0  0  0  0  0  0  0  0  0  0  0
    3.9503    0.0961    0.0000 C   0  0  0  0  0  0  0  0  0  0  0  0
    6.4662    0.4982    0.0000 C   0  0  0  0  0  0  0  0  0  0  0  0
    3.9215   -2.0864    0.0000 C   0  0  0  0  0  0  0  0  0  0  0  0
    4.7336   -1.9412    0.0000 C   0  0  0  0  0  0  0  0  0  0  0  0
    2.3260   -0.1942    0.0000 C   0  0  0  0  0  0  0  0  0  0  0  0
    3.1381   -0.0490    0.0000 C   0  0  0  0  0  0  0  0  0  0  0  0
    6.4773   -1.5264    0.0000 C   0  0  0  0  0  0  0  0  0  0  0  0
    2.5775   -1.6009    0.0000 C   0  0  0  0  0  0  0  0  0  0  0  0
    5.5745    0.3865    0.0000 C   0  0  0  0  0  0  0  0  0  0  0  0
    8.2748   -0.7564    0.0000 C   0  0  0  0  0  0  0  0  0  0  0  0
    7.1602   -1.0634    0.0000 C   0  0  0  0  0  0  0  0  0  0  0  0
    3.3897   -1.4557    0.0000 C   0  0  0  0  0  0  0  0  0  0  0  0
    2.0457   -0.9702    0.0000 C   0  0  0  0  0  0  0  0  0  0  0  0
    5.0139   -1.1652    0.0000 C   0  0  1  0  0  0  0  0  0  0  0  0
    5.8260   -1.0200    0.0000 C   0  0  1  0  0  0  0  0  0  0  0  0
    4.7624    0.2413    0.0000 C   0  0  1  0  0  0  0  0  0  0  0  0
    7.7430   -0.1257    0.0000 C   0  0  0  0  0  0  0  0  0  0  0  0
    3.6700   -0.6797    0.0000 C   0  0  2  0  0  0  0  0  0  0  0  0
    6.1063   -0.2441    0.0000 C   0  0  2  0  0  0  0  0  0  0  0  0
    4.4821   -0.5345    0.0000 C   0  0  2  0  0  0  0  0  0  0  0  0
    6.9309   -0.2709    0.0000 C   0  0  2  0  0  0  0  0  0  0  0  0
    4.4225    0.2882    0.0000 F   0  0  0  0  0  0  0  0  0  0  0  0
    9.0869   -0.6112    0.0000 O   0  0  0  0  0  0  0  0  0  0  0  0
    1.2336   -1.1154    0.0000 O   0  0  0  0  0  0  0  0  0  0  0  0
    4.2306    0.8720    0.0000 O   0  0  0  0  0  0  0  0  0  0  0  0
    8.0233    0.6501    0.0000 O   0  0  0  0  0  0  0  0  0  0  0  0
    6.8713    0.5519    0.0000 O   0  0  0  0  0  0  0  0  0  0  0  0
    5.7294   -1.5760    0.0000 H   0  0  0  0  0  0  0  0  0  0  0  0
    5.9142   -1.8403    0.0000 H   0  0  0  0  0  0  0  0  0  0  0  0
    5.0427    1.0172    0.0000 H   0  0  0  0  0  0  0  0  0  0  0  0
  5  4  1  0  0  0  0
  7  6  2  0  0  0  0
 12  1  2  0  0  0  0
 12  8  1  0  0  0  0
 13  4  1  0  0  0  0
 13  9  2  0  0  0  0
 14  6  1  0  0  0  0
 14  9  1  0  0  0  0
 15  5  1  0  0  0  0
 16  8  1  0  0  0  0
 16 15  1  0  0  0  0
 17 10  1  0  0  0  0
 18 11  1  0  0  0  0
 19  2  1  1  0  0  0
 19  7  1  0  0  0  0
 19 13  1  0  0  0  0
 20  3  1  1  0  0  0
 20 10  1  0  0  0  0
 20 16  1  0  0  0  0
 21 15  1  0  0  0  0
 21 17  1  0  0  0  0
 21 19  1  0  0  0  0
 22 12  1  0  0  0  0
 22 18  1  1  0  0  0
 22 20  1  0  0  0  0
 21 23  1  6  0  0  0
 24 11  1  0  0  0  0
 25 14  2  0  0  0  0
 17 26  1  1  0  0  0
 27 18  2  0  0  0  0
 22 28  1  6  0  0  0
 15 29  1  1  0  0  0
 16 30  1  6  0  0  0
 17 31  1  6  0  0  0
M  END
> <DATABASE_ID>
DB08970

> <DATABASE_NAME>
drugbank

> <SMILES>
[H][C@@]12CC(=C)[C@](O)(C(=O)CO)[C@@]1(C)C[C@]([H])(O)[C@@]1(F)[C@@]2([H])CCC2=CC(=O)C=C[C@]12C

> <INCHI_IDENTIFIER>
InChI=1S/C22H27FO5/c1-12-8-16-15-5-4-13-9-14(25)6-7-19(13,2)21(15,23)17(26)10-20(16,3)22(12,28)18(27)11-24/h6-7,9,15-17,24,26,28H,1,4-5,8,10-11H2,2-3H3/t15-,16-,17-,19-,20-,21-,22-/m0/s1

> <INCHI_KEY>
YVHXHNGGPURVOS-SBTDHBFYSA-N

> <FORMULA>
C22H27FO5

> <MOLECULAR_WEIGHT>
390.4452

> <EXACT_MASS>
390.184252179

> <JCHEM_ACCEPTOR_COUNT>
5

> <JCHEM_AVERAGE_POLARIZABILITY>
40.30880749480292

> <JCHEM_BIOAVAILABILITY>
1

> <JCHEM_DONOR_COUNT>
3

> <JCHEM_FORMAL_CHARGE>
0

> <JCHEM_GHOSE_FILTER>
1

> <JCHEM_IUPAC>
(1R,2S,10S,11S,14R,15S,17S)-1-fluoro-14,17-dihydroxy-14-(2-hydroxyacetyl)-2,15-dimethyl-13-methylidenetetracyclo[8.7.0.0²,⁷.0¹¹,¹⁵]heptadeca-3,6-dien-5-one

> <ALOGPS_LOGP>
1.65

> <JCHEM_LOGP>
1.4118775986666672

> <ALOGPS_LOGS>
-3.52

> <JCHEM_MDDR_LIKE_RULE>
0

> <JCHEM_NUMBER_OF_RINGS>
4

> <JCHEM_PHYSIOLOGICAL_CHARGE>
0

> <JCHEM_PKA>
13.45603167089891

> <JCHEM_PKA_STRONGEST_ACIDIC>
12.108120710840666

> <JCHEM_PKA_STRONGEST_BASIC>
-3.3347174990174704

> <JCHEM_POLAR_SURFACE_AREA>
94.83

> <JCHEM_REFRACTIVITY>
102.19339999999995

> <JCHEM_ROTATABLE_BOND_COUNT>
2

> <JCHEM_RULE_OF_FIVE>
1

> <ALOGPS_SOLUBILITY>
1.17e-01 g/l

> <JCHEM_TRADITIONAL_IUPAC>
fluprednidene

> <JCHEM_VEBER_RULE>
0

> <DRUGBANK_ID>
DB08970

> <DRUG_GROUPS>
approved; withdrawn

> <GENERIC_NAME>
Fluprednidene

> <SALTS>
Fluprednidene acetate

$$$$

  Mrv0541 06091409292D          

 34 37  0  0  0  0            999 V2000
   -1.3626    2.0416    0.0000 C   0  0  0  0  0  0  0  0  0  0  0  0
    2.6232    0.6018    0.0000 C   0  0  0  0  0  0  0  0  0  0  0  0
    0.1073    0.1997    0.0000 C   0  0  0  0  0  0  0  0  0  0  0  0
    4.2474    0.8922    0.0000 C   0  0  0  0  0  0  0  0  0  0  0  0
    3.4353    0.7470    0.0000 C   0  0  0  0  0  0  0  0  0  0  0  0
    0.0961    2.2243    0.0000 C   0  0  0  0  0  0  0  0  0  0  0  0
    3.9959    2.2988    0.0000 C   0  0  0  0  0  0  0  0  0  0  0  0
    1.8399    2.6391    0.0000 C   0  0  0  0  0  0  0  0  0  0  0  0
    0.9990    0.3113    0.0000 C   0  0  0  0  0  0  0  0  0  0  0  0
   -1.6809    0.4304    0.0000 C   0  0  0  0  0  0  0  0  0  0  0  0
   -0.5866    1.7613    0.0000 C   0  0  2  0  0  0  0  0  0  0  0  0
    4.5277    1.6681    0.0000 C   0  0  0  0  0  0  0  0  0  0  0  0
    1.5596    1.8632    0.0000 C   0  0  1  0  0  0  0  0  0  0  0  0
    0.7474    1.7180    0.0000 C   0  0  1  0  0  0  0  0  0  0  0  0
    3.1838    2.1536    0.0000 C   0  0  0  0  0  0  0  0  0  0  0  0
    2.6520    2.7843    0.0000 C   0  0  1  0  0  0  0  0  0  0  0  0
    1.8111    0.4565    0.0000 C   0  0  1  0  0  0  0  0  0  0  0  0
   -0.8637    0.3175    0.0000 C   0  0  0  0  0  0  0  0  0  0  0  0
   -0.3573    0.9688    0.0000 C   0  0  2  0  0  0  0  0  0  0  0  0
    2.0914    1.2325    0.0000 C   0  0  2  0  0  0  0  0  0  0  0  0
    2.9035    1.3777    0.0000 C   0  0  2  0  0  0  0  0  0  0  0  0
    0.4671    0.9420    0.0000 C   0  0  2  0  0  0  0  0  0  0  0  0
    2.9323    3.5602    0.0000 F   0  0  0  0  0  0  0  0  0  0  0  0
   -2.1873   -0.2209    0.0000 O   0  0  0  0  0  0  0  0  0  0  0  0
    5.3399    1.8133    0.0000 O   0  0  0  0  0  0  0  0  0  0  0  0
    2.3429   -0.1741    0.0000 O   0  0  0  0  0  0  0  0  0  0  0  0
   -0.5528   -0.4466    0.0000 O   0  0  0  0  0  0  0  0  0  0  0  0
   -0.6891    2.5799    0.0000 H   0  0  0  0  0  0  0  0  0  0  0  0
    0.8441    2.2739    0.0000 H   0  0  0  0  0  0  0  0  0  0  0  0
    0.6592    2.5382    0.0000 H   0  0  0  0  0  0  0  0  0  0  0  0
    2.1202    3.4150    0.0000 H   0  0  0  0  0  0  0  0  0  0  0  0
    1.5308   -0.3193    0.0000 H   0  0  0  0  0  0  0  0  0  0  0  0
   -1.1675    1.1243    0.0000 H   0  0  0  0  0  0  0  0  0  0  0  0
    2.3754    0.4579    0.0000 H   0  0  0  0  0  0  0  0  0  0  0  0
  5  4  2  0  0  0  0
 11  1  1  6  0  0  0
 11  6  1  0  0  0  0
 12  4  1  0  0  0  0
 12  7  1  0  0  0  0
 13  8  1  0  0  0  0
 14  6  1  0  0  0  0
 14 13  1  0  0  0  0
 15  7  2  0  0  0  0
 16  8  1  0  0  0  0
 16 15  1  0  0  0  0
 17  9  1  0  0  0  0
 18 10  1  0  0  0  0
 19 11  1  0  0  0  0
 19 18  1  1  0  0  0
 20 13  1  0  0  0  0
 20 17  1  0  0  0  0
 21  2  1  1  0  0  0
 21  5  1  0  0  0  0
 21 15  1  0  0  0  0
 21 20  1  0  0  0  0
 22  3  1  1  0  0  0
 22  9  1  0  0  0  0
 22 14  1  0  0  0  0
 22 19  1  0  0  0  0
 16 23  1  6  0  0  0
 24 10  1  0  0  0  0
 25 12  2  0  0  0  0
 17 26  1  1  0  0  0
 27 18  2  0  0  0  0
 11 28  1  1  0  0  0
 13 29  1  1  0  0  0
 14 30  1  6  0  0  0
 16 31  1  1  0  0  0
 17 32  1  6  0  0  0
 19 33  1  6  0  0  0
 20 34  1  6  0  0  0
M  END
> <DATABASE_ID>
DB08971

> <DATABASE_NAME>
drugbank

> <SMILES>
[H][C@@]1(C)C[C@@]2([H])[C@]3([H])C[C@]([H])(F)C4=CC(=O)C=C[C@]4(C)[C@@]3([H])[C@@]([H])(O)C[C@]2(C)[C@@]1([H])C(=O)CO

> <INCHI_IDENTIFIER>
InChI=1S/C22H29FO4/c1-11-6-14-13-8-16(23)15-7-12(25)4-5-21(15,2)20(13)17(26)9-22(14,3)19(11)18(27)10-24/h4-5,7,11,13-14,16-17,19-20,24,26H,6,8-10H2,1-3H3/t11-,13+,14+,16+,17+,19-,20-,21+,22+/m1/s1

> <INCHI_KEY>
GAKMQHDJQHZUTJ-ULHLPKEOSA-N

> <FORMULA>
C22H29FO4

> <MOLECULAR_WEIGHT>
376.4617

> <EXACT_MASS>
376.204987621

> <JCHEM_ACCEPTOR_COUNT>
4

> <JCHEM_AVERAGE_POLARIZABILITY>
40.065105285940184

> <JCHEM_BIOAVAILABILITY>
1

> <JCHEM_DONOR_COUNT>
2

> <JCHEM_FORMAL_CHARGE>
0

> <JCHEM_GHOSE_FILTER>
1

> <JCHEM_IUPAC>
(1S,2R,8S,10S,11S,13R,14S,15S,17S)-8-fluoro-17-hydroxy-14-(2-hydroxyacetyl)-2,13,15-trimethyltetracyclo[8.7.0.0²,⁷.0¹¹,¹⁵]heptadeca-3,6-dien-5-one

> <ALOGPS_LOGP>
2.09

> <JCHEM_LOGP>
1.9677148506666664

> <ALOGPS_LOGS>
-4.05

> <JCHEM_MDDR_LIKE_RULE>
0

> <JCHEM_NUMBER_OF_RINGS>
4

> <JCHEM_PHYSIOLOGICAL_CHARGE>
0

> <JCHEM_PKA>
15.183139599987939

> <JCHEM_PKA_STRONGEST_ACIDIC>
13.842935872066828

> <JCHEM_PKA_STRONGEST_BASIC>
-0.2328073366967066

> <JCHEM_POLAR_SURFACE_AREA>
74.6

> <JCHEM_REFRACTIVITY>
101.46529999999998

> <JCHEM_ROTATABLE_BOND_COUNT>
2

> <JCHEM_RULE_OF_FIVE>
1

> <ALOGPS_SOLUBILITY>
3.39e-02 g/l

> <JCHEM_TRADITIONAL_IUPAC>
fluocortolone

> <JCHEM_VEBER_RULE>
0

> <DRUGBANK_ID>
DB08971

> <DRUG_GROUPS>
approved; withdrawn

> <GENERIC_NAME>
Fluocortolone

$$$$

  Mrv0541 09131211462D          

 19 21  0  0  0  0            999 V2000
    0.0000    0.0000    0.0000 C   0  0  0  0  0  0  0  0  0  0  0  0
   -0.7145    1.2375    0.0000 C   0  0  0  0  0  0  0  0  0  0  0  0
   -0.7145    2.0625    0.0000 C   0  0  0  0  0  0  0  0  0  0  0  0
    0.0000    3.3000    0.0000 C   0  0  0  0  0  0  0  0  0  0  0  0
    1.4289    3.3000    0.0000 C   0  0  0  0  0  0  0  0  0  0  0  0
    1.4289    0.8250    0.0000 C   0  0  0  0  0  0  0  0  0  0  0  0
    0.0000    0.8250    0.0000 C   0  0  0  0  0  0  0  0  0  0  0  0
    0.0000    2.4750    0.0000 C   0  0  0  0  0  0  0  0  0  0  0  0
    0.7145    3.7125    0.0000 C   0  0  0  0  0  0  0  0  0  0  0  0
    1.4289    2.4750    0.0000 C   0  0  0  0  0  0  0  0  0  0  0  0
    2.1434    1.2375    0.0000 C   0  0  0  0  0  0  0  0  0  0  0  0
    0.7145    2.0625    0.0000 C   0  0  0  0  0  0  0  0  0  0  0  0
    2.1434    2.0625    0.0000 C   0  0  0  0  0  0  0  0  0  0  0  0
    2.8579    0.8250    0.0000 C   0  0  0  0  0  0  0  0  0  0  0  0
    0.7145    4.5375    0.0000 F   0  0  0  0  0  0  0  0  0  0  0  0
    0.7145    1.2375    0.0000 N   0  0  0  0  0  0  0  0  0  0  0  0
    2.8579    2.4750    0.0000 O   0  0  0  0  0  0  0  0  0  0  0  0
    3.5724    1.2375    0.0000 O   0  0  0  0  0  0  0  0  0  0  0  0
    2.8579    0.0000    0.0000 O   0  0  0  0  0  0  0  0  0  0  0  0
  3  2  1  0  0  0  0
  7  1  1  0  0  0  0
  7  2  1  0  0  0  0
  8  3  1  0  0  0  0
  8  4  2  0  0  0  0
  9  4  1  0  0  0  0
  9  5  2  0  0  0  0
 10  5  1  0  0  0  0
 11  6  2  0  0  0  0
 12  8  1  0  0  0  0
 12 10  2  0  0  0  0
 13 10  1  0  0  0  0
 13 11  1  0  0  0  0
 14 11  1  0  0  0  0
 15  9  1  0  0  0  0
 16  6  1  0  0  0  0
 16  7  1  0  0  0  0
 16 12  1  0  0  0  0
 17 13  2  0  0  0  0
 18 14  2  0  0  0  0
 19 14  1  0  0  0  0
M  END
> <DATABASE_ID>
DB08972

> <DATABASE_NAME>
drugbank

> <SMILES>
CC1CCC2=CC(F)=CC3=C2N1C=C(C(O)=O)C3=O

> <INCHI_IDENTIFIER>
InChI=1S/C14H12FNO3/c1-7-2-3-8-4-9(15)5-10-12(8)16(7)6-11(13(10)17)14(18)19/h4-7H,2-3H2,1H3,(H,18,19)

> <INCHI_KEY>
DPSPPJIUMHPXMA-UHFFFAOYSA-N

> <FORMULA>
C14H12FNO3

> <MOLECULAR_WEIGHT>
261.2484

> <EXACT_MASS>
261.08012146

> <JCHEM_ACCEPTOR_COUNT>
4

> <JCHEM_AVERAGE_POLARIZABILITY>
25.246669797951256

> <JCHEM_BIOAVAILABILITY>
1

> <JCHEM_DONOR_COUNT>
1

> <JCHEM_FORMAL_CHARGE>
0

> <JCHEM_GHOSE_FILTER>
1

> <JCHEM_IUPAC>
7-fluoro-12-methyl-4-oxo-1-azatricyclo[7.3.1.0⁵,¹³]trideca-2,5(13),6,8-tetraene-3-carboxylic acid

> <ALOGPS_LOGP>
1.62

> <JCHEM_LOGP>
2.416839571

> <ALOGPS_LOGS>
-2.32

> <JCHEM_MDDR_LIKE_RULE>
0

> <JCHEM_NUMBER_OF_RINGS>
3

> <JCHEM_PHYSIOLOGICAL_CHARGE>
-1

> <JCHEM_PKA_STRONGEST_ACIDIC>
6.004770867103982

> <JCHEM_PKA_STRONGEST_BASIC>
-4.310946343966191

> <JCHEM_POLAR_SURFACE_AREA>
57.61

> <JCHEM_REFRACTIVITY>
67.8736

> <JCHEM_ROTATABLE_BOND_COUNT>
1

> <JCHEM_RULE_OF_FIVE>
1

> <ALOGPS_SOLUBILITY>
1.24e+00 g/l

> <JCHEM_TRADITIONAL_IUPAC>
flumequine

> <JCHEM_VEBER_RULE>
0

> <DRUGBANK_ID>
DB08972

> <DRUG_GROUPS>
withdrawn

> <GENERIC_NAME>
Flumequine

$$$$

  Mrv1572012161520342D          

 35 39  0  0  0  0            999 V2000
   -2.9056   -2.0855    0.0000 C   0  0  0  0  0  0  0  0  0  0  0  0
   -2.7424   -1.2786    0.0000 C   0  0  0  0  0  0  0  0  0  0  0  0
   -2.7523   -0.4550    0.0000 O   0  0  0  0  0  0  0  0  0  0  0  0
   -1.9679   -0.1956    0.0000 C   0  0  2  0  0  0  0  0  0  0  0  0
   -1.4875    0.4798    0.0000 C   0  0  0  0  0  0  0  0  0  0  0  0
   -0.7049    0.2347    0.0000 C   0  0  1  0  0  0  0  0  0  0  0  0
    0.0066    0.6515    0.0000 C   0  0  2  0  0  0  0  0  0  0  0  0
   -0.0032    1.4753    0.0000 C   0  0  0  0  0  0  0  0  0  0  0  0
    0.7040    1.8964    0.0000 C   0  0  1  0  0  0  0  0  0  0  0  0
    1.4257    1.4894    0.0000 C   0  0  0  0  0  0  0  0  0  0  0  0
    2.1331    1.9107    0.0000 C   0  0  0  0  0  0  0  0  0  0  0  0
    2.8548    1.5039    0.0000 C   0  0  0  0  0  0  0  0  0  0  0  0
    3.5665    1.9250    0.0000 O   0  0  0  0  0  0  0  0  0  0  0  0
    2.8612    0.6822    0.0000 C   0  0  0  0  0  0  0  0  0  0  0  0
    2.1537    0.2610    0.0000 C   0  0  0  0  0  0  0  0  0  0  0  0
    1.4322    0.6637    0.0000 C   0  0  2  0  0  0  0  0  0  0  0  0
    0.7203    0.2468    0.0000 C   0  0  1  0  0  0  0  0  0  0  0  0
    0.7347   -0.5768    0.0000 C   0  0  2  0  0  0  0  0  0  0  0  0
    0.0230   -0.9938    0.0000 C   0  0  0  0  0  0  0  0  0  0  0  0
   -0.6986   -0.5911    0.0000 C   0  0  2  0  0  0  0  0  0  0  0  0
   -1.4788   -0.8545    0.0000 C   0  0  2  0  0  0  0  0  0  0  0  0
   -1.9554   -1.5236    0.0000 O   0  0  0  0  0  0  0  0  0  0  0  0
   -0.8871   -2.0326    0.0000 C   0  0  0  0  0  0  0  0  0  0  0  0
   -0.0638   -2.0815    0.0000 O   0  0  0  0  0  0  0  0  0  0  0  0
   -1.3443   -2.7224    0.0000 C   0  0  0  0  0  0  0  0  0  0  0  0
   -2.1674   -2.6735    0.0000 O   0  0  0  0  0  0  0  0  0  0  0  0
   -0.6269   -1.4151    0.0000 C   0  0  0  0  0  0  0  0  0  0  0  0
    1.2647   -1.2047    0.0000 Cl  0  0  0  0  0  0  0  0  0  0  0  0
    1.8773   -0.4012    0.0000 Cl  0  0  0  0  0  0  0  0  0  0  0  0
    0.6976    2.7224    0.0000 F   0  0  0  0  0  0  0  0  0  0  0  0
   -3.5665   -1.2025    0.0000 C   0  0  0  0  0  0  0  0  0  0  0  0
    0.6781    1.1010    0.0000 C   0  0  0  0  0  0  0  0  0  0  0  0
   -0.7130    1.0882    0.0000 H   0  0  0  0  0  0  0  0  0  0  0  0
   -2.5765    0.4096    0.0000 H   0  0  0  0  0  0  0  0  0  0  0  0
   -0.0002   -0.1956    0.0000 H   0  0  0  0  0  0  0  0  0  0  0  0
  4  5  1  0  0  0  0
  6  5  1  0  0  0  0
  6  7  1  0  0  0  0
  7  8  1  0  0  0  0
  8  9  1  0  0  0  0
  9 10  1  0  0  0  0
 10 11  2  0  0  0  0
 11 12  1  0  0  0  0
 12 13  2  0  0  0  0
 12 14  1  0  0  0  0
 14 15  2  0  0  0  0
 15 16  1  0  0  0  0
 10 16  1  0  0  0  0
 16 17  1  0  0  0  0
  7 17  1  0  0  0  0
 17 18  1  0  0  0  0
 18 19  1  0  0  0  0
 19 20  1  0  0  0  0
  6 20  1  0  0  0  0
 20 21  1  0  0  0  0
  4 21  1  0  0  0  0
 21 22  1  0  0  0  0
  2 22  1  0  0  0  0
 21 23  1  1  0  0  0
 23 24  2  0  0  0  0
 23 25  1  0  0  0  0
 25 26  1  0  0  0  0
 20 27  1  1  0  0  0
 18 28  1  1  0  0  0
 17 29  1  6  0  0  0
  9 30  1  6  0  0  0
  2 31  1  0  0  0  0
 16 32  1  1  0  0  0
  1  2  1  0  0  0  0
  6 33  1  6  0  0  0
  2  3  1  0  0  0  0
  4 34  1  1  0  0  0
  4  3  1  0  0  0  0
  7 35  1  1  0  0  0
M  END
> <DATABASE_ID>
DB08973

> <DATABASE_NAME>
drugbank

> <SMILES>
[H][C@@]12C[C@@]3([H])[C@]4([H])C[C@H](F)C5=CC(=O)C=C[C@]5(C)[C@@]4(Cl)[C@@H](Cl)C[C@]3(C)[C@@]1(OC(C)(C)O2)C(=O)CO

> <INCHI_IDENTIFIER>
InChI=1S/C24H29Cl2FO5/c1-20(2)31-19-9-13-14-8-16(27)15-7-12(29)5-6-21(15,3)23(14,26)17(25)10-22(13,4)24(19,32-20)18(30)11-28/h5-7,13-14,16-17,19,28H,8-11H2,1-4H3/t13-,14-,16-,17-,19+,21-,22-,23-,24+/m0/s1

> <INCHI_KEY>
NJNWEGFJCGYWQT-VSXGLTOVSA-N

> <FORMULA>
C24H29Cl2FO5

> <MOLECULAR_WEIGHT>
487.39

> <EXACT_MASS>
486.1376076

> <JCHEM_ACCEPTOR_COUNT>
5

> <JCHEM_ATOM_COUNT>
61

> <JCHEM_AVERAGE_POLARIZABILITY>
47.43796933658143

> <JCHEM_BIOAVAILABILITY>
1

> <JCHEM_DONOR_COUNT>
1

> <JCHEM_FORMAL_CHARGE>
0

> <JCHEM_GHOSE_FILTER>
0

> <JCHEM_IUPAC>
(1S,2S,4R,8S,9S,11S,12R,13S,19S)-11,12-dichloro-19-fluoro-8-(2-hydroxyacetyl)-6,6,9,13-tetramethyl-5,7-dioxapentacyclo[10.8.0.0²,⁹.0⁴,⁸.0¹³,¹⁸]icosa-14,17-dien-16-one

> <ALOGPS_LOGP>
4.22

> <JCHEM_LOGP>
3.4224905069999987

> <ALOGPS_LOGS>
-5.45

> <JCHEM_MDDR_LIKE_RULE>
0

> <JCHEM_NUMBER_OF_RINGS>
5

> <JCHEM_PHYSIOLOGICAL_CHARGE>
0

> <JCHEM_PKA>
14.790224849252478

> <JCHEM_PKA_STRONGEST_ACIDIC>
13.731827374057339

> <JCHEM_PKA_STRONGEST_BASIC>
-3.3320858711255354

> <JCHEM_POLAR_SURFACE_AREA>
72.83

> <JCHEM_REFRACTIVITY>
119.20729999999998

> <JCHEM_ROTATABLE_BOND_COUNT>
2

> <JCHEM_RULE_OF_FIVE>
1

> <ALOGPS_SOLUBILITY>
1.75e-03 g/l

> <JCHEM_TRADITIONAL_IUPAC>
flucloronide

> <JCHEM_VEBER_RULE>
0

> <DRUGBANK_ID>
DB08973

> <DRUG_GROUPS>
approved; withdrawn

> <GENERIC_NAME>
Fluclorolone acetonide

> <SYNONYMS>
Flucloronide

$$$$

  Mrv0541 06091413222D          

 23 25  0  0  0  0            999 V2000
   -1.1800    1.8414    0.0000 C   0  0  0  0  0  0  0  0  0  0  0  0
    6.1368   -0.4125    0.0000 C   0  0  0  0  0  0  0  0  0  0  0  0
    5.4223    0.8250    0.0000 C   0  0  0  0  0  0  0  0  0  0  0  0
    3.9933    0.8250    0.0000 C   0  0  0  0  0  0  0  0  0  0  0  0
    6.8512    0.0000    0.0000 C   0  0  0  0  0  0  0  0  0  0  0  0
    6.1368    1.2375    0.0000 C   0  0  0  0  0  0  0  0  0  0  0  0
    3.2789    1.2375    0.0000 C   0  0  0  0  0  0  0  0  0  0  0  0
    3.2789   -0.4125    0.0000 C   0  0  0  0  0  0  0  0  0  0  0  0
    5.4223    0.0000    0.0000 C   0  0  0  0  0  0  0  0  0  0  0  0
    3.9933    0.0000    0.0000 C   0  0  0  0  0  0  0  0  0  0  0  0
    6.8512    0.8250    0.0000 C   0  0  0  0  0  0  0  0  0  0  0  0
    2.5644    0.8250    0.0000 C   0  0  0  0  0  0  0  0  0  0  0  0
    2.5644    0.0000    0.0000 C   0  0  0  0  0  0  0  0  0  0  0  0
    4.7078   -0.4125    0.0000 C   0  0  0  0  0  0  0  0  0  0  0  0
    1.2949    0.4125    0.0000 C   0  0  0  0  0  0  0  0  0  0  0  0
    0.0574    1.1269    0.0000 C   0  0  0  0  0  0  0  0  0  0  0  0
    7.5657    1.2375    0.0000 F   0  0  0  0  0  0  0  0  0  0  0  0
    1.7798    1.0799    0.0000 N   0  0  0  0  0  0  0  0  0  0  0  0
    1.7798   -0.2549    0.0000 N   0  0  0  0  0  0  0  0  0  0  0  0
    0.4699    0.4125    0.0000 N   0  0  0  0  0  0  0  0  0  0  0  0
    4.7078   -1.2375    0.0000 O   0  0  0  0  0  0  0  0  0  0  0  0
    0.4699    1.8414    0.0000 O   0  0  0  0  0  0  0  0  0  0  0  0
   -0.7675    1.1269    0.0000 O   0  0  0  0  0  0  0  0  0  0  0  0
  5  2  1  0  0  0  0
  6  3  2  0  0  0  0
  7  4  2  0  0  0  0
  9  2  2  0  0  0  0
  9  3  1  0  0  0  0
 10  4  1  0  0  0  0
 10  8  2  0  0  0  0
 11  5  2  0  0  0  0
 11  6  1  0  0  0  0
 12  7  1  0  0  0  0
 13  8  1  0  0  0  0
 13 12  2  0  0  0  0
 14  9  1  0  0  0  0
 14 10  1  0  0  0  0
 17 11  1  0  0  0  0
 18 12  1  0  0  0  0
 18 15  2  0  0  0  0
 19 13  1  0  0  0  0
 19 15  1  0  0  0  0
 20 15  1  4  0  0  0
 20 16  2  0  0  0  0
 21 14  2  0  0  0  0
 22 16  1  0  0  0  0
 23  1  1  0  0  0  0
 23 16  1  0  0  0  0
M  END
> <DATABASE_ID>
DB08974

> <DATABASE_NAME>
drugbank

> <SMILES>
COC(O)=NC1=NC2=C(N1)C=C(C=C2)C(=O)C1=CC=C(F)C=C1

> <INCHI_IDENTIFIER>
InChI=1S/C16H12FN3O3/c1-23-16(22)20-15-18-12-7-4-10(8-13(12)19-15)14(21)9-2-5-11(17)6-3-9/h2-8H,1H3,(H2,18,19,20,22)

> <INCHI_KEY>
CPEUVMUXAHMANV-UHFFFAOYSA-N

> <FORMULA>
C16H12FN3O3

> <MOLECULAR_WEIGHT>
313.2832

> <EXACT_MASS>
313.08626947

> <JCHEM_ACCEPTOR_COUNT>
5

> <JCHEM_AVERAGE_POLARIZABILITY>
31.229898340215158

> <JCHEM_BIOAVAILABILITY>
1

> <JCHEM_DONOR_COUNT>
2

> <JCHEM_FORMAL_CHARGE>
0

> <JCHEM_GHOSE_FILTER>
1

> <JCHEM_IUPAC>
N-[6-(4-fluorobenzoyl)-1H-1,3-benzodiazol-2-yl]methoxycarboximidic acid

> <ALOGPS_LOGP>
2.51

> <JCHEM_LOGP>
4.097200484666667

> <ALOGPS_LOGS>
-3.97

> <JCHEM_MDDR_LIKE_RULE>
0

> <JCHEM_NUMBER_OF_RINGS>
3

> <JCHEM_PHYSIOLOGICAL_CHARGE>
0

> <JCHEM_PKA>
9.405593847584973

> <JCHEM_PKA_STRONGEST_ACIDIC>
7.082789145637529

> <JCHEM_PKA_STRONGEST_BASIC>
1.9170796588089605

> <JCHEM_POLAR_SURFACE_AREA>
87.57000000000001

> <JCHEM_REFRACTIVITY>
82.74430000000001

> <JCHEM_ROTATABLE_BOND_COUNT>
4

> <JCHEM_RULE_OF_FIVE>
1

> <ALOGPS_SOLUBILITY>
3.34e-02 g/l

> <JCHEM_TRADITIONAL_IUPAC>
flubenol

> <JCHEM_VEBER_RULE>
0

> <DRUGBANK_ID>
DB08974

> <DRUG_GROUPS>
approved; withdrawn

> <GENERIC_NAME>
Flubendazole

$$$$

  Mrv1652306131722022D          

 23 26  0  0  0  0            999 V2000
   -1.2665    1.0256    0.0000 C   0  0  0  0  0  0  0  0  0  0  0  0
   -1.5214    0.2410    0.0000 C   0  0  0  0  0  0  0  0  0  0  0  0
   -0.9694   -0.3721    0.0000 C   0  0  0  0  0  0  0  0  0  0  0  0
   -1.0023   -1.3566    0.0000 C   0  0  0  0  0  0  0  0  0  0  0  0
   -0.3349   -1.8416    0.0000 C   0  0  0  0  0  0  0  0  0  0  0  0
    0.4188   -1.5060    0.0000 C   0  0  0  0  0  0  0  0  0  0  0  0
    0.5050   -0.6855    0.0000 C   0  0  0  0  0  0  0  0  0  0  0  0
   -0.1624   -0.2006    0.0000 C   0  0  0  0  0  0  0  0  0  0  0  0
    0.0925    0.5840    0.0000 C   0  0  0  0  0  0  0  0  0  0  0  0
   -0.4595    1.1971    0.0000 C   0  0  0  0  0  0  0  0  0  0  0  0
    0.9175    0.5840    0.0000 C   0  0  0  0  0  0  0  0  0  0  0  0
    1.1724   -0.2006    0.0000 C   0  0  0  0  0  0  0  0  0  0  0  0
    1.9794   -0.3721    0.0000 C   0  0  0  0  0  0  0  0  0  0  0  0
    2.5314    0.2410    0.0000 C   0  0  0  0  0  0  0  0  0  0  0  0
    2.2765    1.0256    0.0000 C   0  0  0  0  0  0  0  0  0  0  0  0
    1.4695    1.1971    0.0000 C   0  0  0  0  0  0  0  0  0  0  0  0
    3.3384    0.0694    0.0000 C   0  0  0  0  0  0  0  0  0  0  0  0
    3.8904    0.6825    0.0000 O   0  0  0  0  0  0  0  0  0  0  0  0
    3.5934   -0.7152    0.0000 C   0  0  0  0  0  0  0  0  0  0  0  0
    4.4003   -0.8867    0.0000 C   0  0  0  0  0  0  0  0  0  0  0  0
    4.6553   -1.6713    0.0000 C   0  0  0  0  0  0  0  0  0  0  0  0
    5.4622   -1.8429    0.0000 O   0  0  0  0  0  0  0  0  0  0  0  0
    4.1032   -2.2844    0.0000 O   0  0  0  0  0  0  0  0  0  0  0  0
  1  2  1  0  0  0  0
  2  3  2  0  0  0  0
  3  4  1  0  0  0  0
  4  5  2  0  0  0  0
  5  6  1  0  0  0  0
  6  7  2  0  0  0  0
  7  8  1  0  0  0  0
  3  8  1  0  0  0  0
  8  9  2  0  0  0  0
  9 10  1  0  0  0  0
  1 10  2  0  0  0  0
  9 11  1  0  0  0  0
 11 12  2  0  0  0  0
  7 12  1  0  0  0  0
 12 13  1  0  0  0  0
 13 14  2  0  0  0  0
 14 15  1  0  0  0  0
 15 16  2  0  0  0  0
 11 16  1  0  0  0  0
 14 17  1  0  0  0  0
 17 18  2  0  0  0  0
 17 19  1  0  0  0  0
 19 20  1  0  0  0  0
 20 21  1  0  0  0  0
 21 22  2  0  0  0  0
 21 23  1  0  0  0  0
M  END
> <DATABASE_ID>
DB08975

> <DATABASE_NAME>
drugbank

> <SMILES>
OC(=O)CCC(=O)C1=CC2=C(C=C1)C1=C3C2=CC=CC3=CC=C1

> <INCHI_IDENTIFIER>
InChI=1S/C20H14O3/c21-18(9-10-19(22)23)13-7-8-14-15-5-1-3-12-4-2-6-16(20(12)15)17(14)11-13/h1-8,11H,9-10H2,(H,22,23)

> <INCHI_KEY>
QOBAOSCOLAGPKI-UHFFFAOYSA-N

> <FORMULA>
C20H14O3

> <MOLECULAR_WEIGHT>
302.329

> <EXACT_MASS>
302.094294311

> <JCHEM_ACCEPTOR_COUNT>
3

> <JCHEM_ATOM_COUNT>
37

> <JCHEM_AVERAGE_POLARIZABILITY>
33.115857873118046

> <JCHEM_BIOAVAILABILITY>
1

> <JCHEM_DONOR_COUNT>
1

> <JCHEM_FORMAL_CHARGE>
0

> <JCHEM_GHOSE_FILTER>
1

> <JCHEM_IUPAC>
4-(fluoranthen-8-yl)-4-oxobutanoic acid

> <ALOGPS_LOGP>
3.99

> <JCHEM_LOGP>
3.666437746333333

> <ALOGPS_LOGS>
-5.62

> <JCHEM_MDDR_LIKE_RULE>
0

> <JCHEM_NUMBER_OF_RINGS>
4

> <JCHEM_PHYSIOLOGICAL_CHARGE>
-1

> <JCHEM_PKA>
16.82733752822315

> <JCHEM_PKA_STRONGEST_ACIDIC>
4.60868740085285

> <JCHEM_PKA_STRONGEST_BASIC>
-7.460194306056517

> <JCHEM_POLAR_SURFACE_AREA>
54.370000000000005

> <JCHEM_REFRACTIVITY>
88.01869999999998

> <JCHEM_ROTATABLE_BOND_COUNT>
4

> <JCHEM_RULE_OF_FIVE>
1

> <ALOGPS_SOLUBILITY>
7.29e-04 g/l

> <JCHEM_TRADITIONAL_IUPAC>
florantyrone

> <JCHEM_VEBER_RULE>
0

> <DRUGBANK_ID>
DB08975

> <DRUG_GROUPS>
withdrawn

> <GENERIC_NAME>
Florantyrone

$$$$

  Mrv1652312141622192D          

 29 31  0  0  0  0            999 V2000
   -2.5006    0.8250    0.0000 C   0  0  0  0  0  0  0  0  0  0  0  0
   -1.7861    0.4125    0.0000 C   0  0  0  0  0  0  0  0  0  0  0  0
   -1.0717    0.8250    0.0000 C   0  0  0  0  0  0  0  0  0  0  0  0
   -0.3572    0.4125    0.0000 N   0  0  0  0  0  0  0  0  0  0  0  0
   -0.3572   -0.4125    0.0000 C   0  0  0  0  0  0  0  0  0  0  0  0
    0.3572   -0.8250    0.0000 C   0  0  0  0  0  0  0  0  0  0  0  0
    1.0717   -0.4125    0.0000 C   0  0  0  0  0  0  0  0  0  0  0  0
    1.7861   -0.8250    0.0000 O   0  0  0  0  0  0  0  0  0  0  0  0
    2.5006   -0.4125    0.0000 C   0  0  0  0  0  0  0  0  0  0  0  0
    3.2151   -0.8250    0.0000 C   0  0  1  0  0  0  0  0  0  0  0  0
    3.9295   -0.4125    0.0000 C   0  0  0  0  0  0  0  0  0  0  0  0
    4.6440   -0.8250    0.0000 O   0  0  0  0  0  0  0  0  0  0  0  0
    3.2151   -1.6500    0.0000 O   0  0  0  0  0  0  0  0  0  0  0  0
    1.0717    0.4125    0.0000 O   0  0  0  0  0  0  0  0  0  0  0  0
    0.3572   -1.6500    0.0000 C   0  0  0  0  0  0  0  0  0  0  0  0
   -0.3572   -2.0625    0.0000 C   0  0  0  0  0  0  0  0  0  0  0  0
   -1.0717   -1.6500    0.0000 C   0  0  0  0  0  0  0  0  0  0  0  0
   -1.0717   -0.8250    0.0000 C   0  0  0  0  0  0  0  0  0  0  0  0
   -1.0717    1.6500    0.0000 C   0  0  0  0  0  0  0  0  0  0  0  0
   -1.7861    2.0625    0.0000 C   0  0  0  0  0  0  0  0  0  0  0  0
   -2.5006    1.6500    0.0000 N   0  0  0  0  0  0  0  0  0  0  0  0
   -1.7861   -0.4125    0.0000 C   0  0  0  0  0  0  0  0  0  0  0  0
   -2.5006   -0.8250    0.0000 C   0  0  0  0  0  0  0  0  0  0  0  0
   -3.2151   -0.4125    0.0000 C   0  0  0  0  0  0  0  0  0  0  0  0
   -3.2151    0.4125    0.0000 C   0  0  0  0  0  0  0  0  0  0  0  0
   -3.9295    0.8250    0.0000 C   0  0  0  0  0  0  0  0  0  0  0  0
   -4.6440    1.2375    0.0000 F   0  0  0  0  0  0  0  0  0  0  0  0
   -3.5170    1.5394    0.0000 F   0  0  0  0  0  0  0  0  0  0  0  0
   -4.3420    0.1105    0.0000 F   0  0  0  0  0  0  0  0  0  0  0  0
  1  2  1  0  0  0  0
  2  3  2  0  0  0  0
  3  4  1  0  0  0  0
  4  5  1  0  0  0  0
  5  6  2  0  0  0  0
  6  7  1  0  0  0  0
  7  8  1  0  0  0  0
  8  9  1  0  0  0  0
  9 10  1  0  0  0  0
 10 11  1  0  0  0  0
 11 12  1  0  0  0  0
 10 13  1  1  0  0  0
  7 14  2  0  0  0  0
  6 15  1  0  0  0  0
 15 16  2  0  0  0  0
 16 17  1  0  0  0  0
 17 18  2  0  0  0  0
  5 18  1  0  0  0  0
  3 19  1  0  0  0  0
 19 20  2  0  0  0  0
 20 21  1  0  0  0  0
  1 21  2  0  0  0  0
  2 22  1  0  0  0  0
 22 23  2  0  0  0  0
 23 24  1  0  0  0  0
 24 25  2  0  0  0  0
  1 25  1  0  0  0  0
 25 26  1  0  0  0  0
 26 27  1  0  0  0  0
 26 28  1  0  0  0  0
 26 29  1  0  0  0  0
M  END
> <DATABASE_ID>
DB08976

> <DATABASE_NAME>
drugbank

> <SMILES>
OC[C@@H](O)COC(=O)C1=C(NC2=C3C=CC=C(C3=NC=C2)C(F)(F)F)C=CC=C1

> <INCHI_IDENTIFIER>
InChI=1S/C20H17F3N2O4/c21-20(22,23)15-6-3-5-13-17(8-9-24-18(13)15)25-16-7-2-1-4-14(16)19(28)29-11-12(27)10-26/h1-9,12,26-27H,10-11H2,(H,24,25)/t12-/m1/s1

> <INCHI_KEY>
APQPGQGAWABJLN-GFCCVEGCSA-N

> <FORMULA>
C20H17F3N2O4

> <MOLECULAR_WEIGHT>
406.361

> <EXACT_MASS>
406.114041524

> <JCHEM_ACCEPTOR_COUNT>
5

> <JCHEM_ATOM_COUNT>
46

> <JCHEM_AVERAGE_POLARIZABILITY>
38.112745441581524

> <JCHEM_BIOAVAILABILITY>
1

> <JCHEM_DONOR_COUNT>
3

> <JCHEM_FORMAL_CHARGE>
0

> <JCHEM_GHOSE_FILTER>
1

> <JCHEM_IUPAC>
(2R)-2,3-dihydroxypropyl 2-{[8-(trifluoromethyl)quinolin-4-yl]amino}benzoate

> <ALOGPS_LOGP>
3.05

> <JCHEM_LOGP>
4.4317147383333335

> <ALOGPS_LOGS>
-4.07

> <JCHEM_MDDR_LIKE_RULE>
1

> <JCHEM_NUMBER_OF_RINGS>
3

> <JCHEM_PHYSIOLOGICAL_CHARGE>
0

> <JCHEM_PKA>
15.52147651035277

> <JCHEM_PKA_STRONGEST_ACIDIC>
13.61817495283358

> <JCHEM_PKA_STRONGEST_BASIC>
5.844358018359863

> <JCHEM_POLAR_SURFACE_AREA>
91.67999999999999

> <JCHEM_REFRACTIVITY>
98.71930000000003

> <JCHEM_ROTATABLE_BOND_COUNT>
8

> <JCHEM_RULE_OF_FIVE>
1

> <ALOGPS_SOLUBILITY>
3.46e-02 g/l

> <JCHEM_TRADITIONAL_IUPAC>
(2R)-2,3-dihydroxypropyl 2-{[8-(trifluoromethyl)quinolin-4-yl]amino}benzoate

> <JCHEM_VEBER_RULE>
0

> <DRUGBANK_ID>
DB08976

> <DRUG_GROUPS>
approved; withdrawn

> <GENERIC_NAME>
Floctafenine

> <PRODUCTS>
Floctafenine; Idarac

$$$$

  Mrv1572003301602562D          

 40 44  0  0  0  0            999 V2000
    0.3896   -0.3913    0.0000 C   0  0  0  0  0  0  0  0  0  0  0  0
   -4.7529    2.8735    0.0000 C   0  0  0  0  0  0  0  0  0  0  0  0
    3.4817   -3.4342    0.0000 C   0  0  0  0  0  0  0  0  0  0  0  0
   -4.5699    2.0691    0.0000 C   0  0  0  0  0  0  0  0  0  0  0  0
   -4.1476    3.4342    0.0000 C   0  0  0  0  0  0  0  0  0  0  0  0
    4.1784   -2.9924    0.0000 C   0  0  0  0  0  0  0  0  0  0  0  0
    2.7507   -3.0518    0.0000 C   0  0  0  0  0  0  0  0  0  0  0  0
   -3.7818    1.8253    0.0000 C   0  0  0  0  0  0  0  0  0  0  0  0
   -3.3595    3.1904    0.0000 C   0  0  0  0  0  0  0  0  0  0  0  0
    4.1441   -2.1681    0.0000 C   0  0  0  0  0  0  0  0  0  0  0  0
    2.7164   -2.2275    0.0000 C   0  0  0  0  0  0  0  0  0  0  0  0
   -2.2054    1.3377    0.0000 C   0  0  0  0  0  0  0  0  0  0  0  0
   -1.7832    2.7028    0.0000 C   0  0  0  0  0  0  0  0  0  0  0  0
   -1.4173    1.0939    0.0000 C   0  0  0  0  0  0  0  0  0  0  0  0
   -0.9950    2.4591    0.0000 C   0  0  0  0  0  0  0  0  0  0  0  0
   -0.8408   -0.5437    0.0000 C   0  0  0  0  0  0  0  0  0  0  0  0
   -0.8408    0.2812    0.0000 C   0  0  0  0  0  0  0  0  0  0  0  0
    0.6084   -0.8745    0.0000 C   0  0  0  0  0  0  0  0  0  0  0  0
    0.6084    0.6120    0.0000 C   0  0  0  0  0  0  0  0  0  0  0  0
    0.1871    0.4825    0.0000 C   0  0  0  0  0  0  0  0  0  0  0  0
    3.9461   -0.3330    0.0000 C   0  0  0  0  0  0  0  0  0  0  0  0
   -3.1765    2.3860    0.0000 C   0  0  0  0  0  0  0  0  0  0  0  0
   -2.3884    2.1422    0.0000 C   0  0  0  0  0  0  0  0  0  0  0  0
    3.4131   -1.7856    0.0000 C   0  0  0  0  0  0  0  0  0  0  0  0
   -0.8121    1.6546    0.0000 C   0  0  0  0  0  0  0  0  0  0  0  0
   -0.1958   -1.0581    0.0000 C   0  0  2  0  0  0  0  0  0  0  0  0
   -0.1958    0.7955    0.0000 C   0  0  1  0  0  0  0  0  0  0  0  0
    0.9664   -0.1312    0.0000 C   0  0  1  0  0  0  0  0  0  0  0  0
    3.3788   -0.9614    0.0000 C   0  0  2  0  0  0  0  0  0  0  0  0
   -0.0239    1.4108    0.0000 C   0  0  0  0  0  0  0  0  0  0  0  0
    2.6085   -0.5583    0.0000 C   0  0  0  0  0  0  0  0  0  0  0  0
   -0.4275   -0.1312    0.0000 N   0  3  0  0  0  0  0  0  0  0  0  0
    4.7529   -0.5056    0.0000 O   0  0  0  0  0  0  0  0  0  0  0  0
    0.5812    1.9715    0.0000 O   0  0  0  0  0  0  0  0  0  0  0  0
    2.6054   -1.3833    0.0000 O   0  0  0  0  0  0  0  0  0  0  0  0
    1.8798   -0.1341    0.0000 O   0  0  0  0  0  0  0  0  0  0  0  0
   -0.3794   -1.8624    0.0000 H   0  0  0  0  0  0  0  0  0  0  0  0
   -0.8836    1.2511    0.0000 H   0  0  0  0  0  0  0  0  0  0  0  0
    1.4064    0.5665    0.0000 H   0  0  0  0  0  0  0  0  0  0  0  0
    4.1548   -1.2415    0.0000 H   0  0  0  0  0  0  0  0  0  0  0  0
  4  2  2  0  0  0  0
  5  2  1  0  0  0  0
  6  3  2  0  0  0  0
  7  3  1  0  0  0  0
  8  4  1  0  0  0  0
  9  5  2  0  0  0  0
 10  6  1  0  0  0  0
 11  7  2  0  0  0  0
 14 12  1  0  0  0  0
 15 13  2  0  0  0  0
 17 16  1  0  0  0  0
 22  8  2  0  0  0  0
 22  9  1  0  0  0  0
 23 12  2  0  0  0  0
 23 13  1  0  0  0  0
 23 22  1  0  0  0  0
 24 10  2  0  0  0  0
 24 11  1  0  0  0  0
 25 14  2  0  0  0  0
 25 15  1  0  0  0  0
 26 16  1  0  0  0  0
 26 18  1  0  0  0  0
 27 17  1  0  0  0  0
 27 19  1  0  0  0  0
 28 18  1  0  0  0  0
 28 19  1  0  0  0  0
 29 21  1  0  0  0  0
 29 24  1  0  0  0  0
 30 20  1  0  0  0  0
 30 25  1  0  0  0  0
 29 31  1  1  0  0  0
 32  1  1  0  0  0  0
 32 20  1  0  0  0  0
 32 26  1  0  0  0  0
 32 27  1  0  0  0  0
 33 21  1  0  0  0  0
 34 30  2  0  0  0  0
 35 31  2  0  0  0  0
 28 36  1  1  0  0  0
 36 31  1  0  0  0  0
 26 37  1  6  0  0  0
 27 38  1  6  0  0  0
 28 39  1  6  0  0  0
 29 40  1  1  0  0  0
M  CHG  1  32   1
M  END
> <DATABASE_ID>
DB08978

> <DATABASE_NAME>
drugbank

> <SMILES>
[H][C@](CO)(C(=O)O[C@]1([H])C[C@]2([H])CC[C@]([H])(C1)[N+]2(C)CC(=O)C1=CC=C(C=C1)C1=CC=CC=C1)C1=CC=CC=C1

> <INCHI_IDENTIFIER>
InChI=1S/C31H34NO4/c1-32(20-30(34)25-14-12-23(13-15-25)22-8-4-2-5-9-22)26-16-17-27(32)19-28(18-26)36-31(35)29(21-33)24-10-6-3-7-11-24/h2-15,26-29,33H,16-21H2,1H3/q+1/t26-,27+,28+,29-,32?/m1/s1

> <INCHI_KEY>
CSYZZFNWCDOVIM-OCTNZTSRSA-N

> <FORMULA>
C31H34NO4

> <MOLECULAR_WEIGHT>
484.615

> <EXACT_MASS>
484.248234999

> <JCHEM_ACCEPTOR_COUNT>
3

> <JCHEM_ATOM_COUNT>
70

> <JCHEM_AVERAGE_POLARIZABILITY>
54.505320508841386

> <JCHEM_BIOAVAILABILITY>
1

> <JCHEM_DONOR_COUNT>
1

> <JCHEM_FORMAL_CHARGE>
1

> <JCHEM_GHOSE_FILTER>
0

> <JCHEM_IUPAC>
(1R,3R,5S)-8-(2-{[1,1'-biphenyl]-4-yl}-2-oxoethyl)-3-{[(2S)-3-hydroxy-2-phenylpropanoyl]oxy}-8-methyl-8-azabicyclo[3.2.1]octan-8-ium

> <ALOGPS_LOGP>
2.83

> <JCHEM_LOGP>
0.28835211952825335

> <ALOGPS_LOGS>
-6.95

> <JCHEM_MDDR_LIKE_RULE>
1

> <JCHEM_NUMBER_OF_RINGS>
5

> <JCHEM_PHYSIOLOGICAL_CHARGE>
1

> <JCHEM_PKA_STRONGEST_ACIDIC>
15.14573979457521

> <JCHEM_PKA_STRONGEST_BASIC>
-2.7350534138528033

> <JCHEM_POLAR_SURFACE_AREA>
63.599999999999994

> <JCHEM_REFRACTIVITY>
151.7679

> <JCHEM_ROTATABLE_BOND_COUNT>
9

> <JCHEM_RULE_OF_FIVE>
1

> <ALOGPS_SOLUBILITY>
5.82e-05 g/l

> <JCHEM_TRADITIONAL_IUPAC>
(1R,3R,5S)-8-(2-{[1,1'-biphenyl]-4-yl}-2-oxoethyl)-3-{[(2S)-3-hydroxy-2-phenylpropanoyl]oxy}-8-methyl-8-azabicyclo[3.2.1]octan-8-ium

> <JCHEM_VEBER_RULE>
0

> <DRUGBANK_ID>
DB08978

> <DRUG_GROUPS>
withdrawn

> <GENERIC_NAME>
Fentonium

> <SALTS>
Fentonium bromide

$$$$

  Mrv0541 06101408412D          

 24 26  0  0  0  0            999 V2000
    3.5723   -0.4125    0.0000 C   0  0  0  0  0  0  0  0  0  0  0  0
    1.4289   -2.4750    0.0000 C   0  0  0  0  0  0  0  0  0  0  0  0
    8.5736   -2.4750    0.0000 C   0  0  0  0  0  0  0  0  0  0  0  0
    6.4302    1.2375    0.0000 C   0  0  0  0  0  0  0  0  0  0  0  0
    2.1434   -2.8875    0.0000 C   0  0  0  0  0  0  0  0  0  0  0  0
    1.4289   -1.6500    0.0000 C   0  0  0  0  0  0  0  0  0  0  0  0
    8.5736   -1.6500    0.0000 C   0  0  0  0  0  0  0  0  0  0  0  0
    7.8591   -2.8875    0.0000 C   0  0  0  0  0  0  0  0  0  0  0  0
    5.7157    0.8250    0.0000 C   0  0  0  0  0  0  0  0  0  0  0  0
    7.1447    0.8250    0.0000 C   0  0  0  0  0  0  0  0  0  0  0  0
    2.8578   -2.4750    0.0000 C   0  0  0  0  0  0  0  0  0  0  0  0
    2.1434   -1.2375    0.0000 C   0  0  0  0  0  0  0  0  0  0  0  0
    7.8591   -1.2375    0.0000 C   0  0  0  0  0  0  0  0  0  0  0  0
    7.1447   -2.4750    0.0000 C   0  0  0  0  0  0  0  0  0  0  0  0
    5.7157    0.0000    0.0000 C   0  0  0  0  0  0  0  0  0  0  0  0
    7.1447    0.0000    0.0000 C   0  0  0  0  0  0  0  0  0  0  0  0
    5.7157   -1.6500    0.0000 C   0  0  0  0  0  0  0  0  0  0  0  0
    5.0012   -1.2375    0.0000 C   0  0  0  0  0  0  0  0  0  0  0  0
    3.5723   -1.2375    0.0000 C   0  0  0  0  0  0  0  0  0  0  0  0
    2.8578   -1.6500    0.0000 C   0  0  0  0  0  0  0  0  0  0  0  0
    7.1447   -1.6500    0.0000 C   0  0  0  0  0  0  0  0  0  0  0  0
    6.4302   -0.4125    0.0000 C   0  0  0  0  0  0  0  0  0  0  0  0
    6.4302   -1.2375    0.0000 C   0  0  0  0  0  0  0  0  0  0  0  0
    4.2868   -1.6500    0.0000 N   0  0  0  0  0  0  0  0  0  0  0  0
  5  2  2  0  0  0  0
  6  2  1  0  0  0  0
  7  3  2  0  0  0  0
  8  3  1  0  0  0  0
  9  4  2  0  0  0  0
 10  4  1  0  0  0  0
 11  5  1  0  0  0  0
 12  6  2  0  0  0  0
 13  7  1  0  0  0  0
 14  8  2  0  0  0  0
 15  9  1  0  0  0  0
 16 10  2  0  0  0  0
 18 17  1  0  0  0  0
 19  1  1  0  0  0  0
 20 11  2  0  0  0  0
 20 12  1  0  0  0  0
 20 19  1  0  0  0  0
 21 13  2  0  0  0  0
 21 14  1  0  0  0  0
 22 15  2  0  0  0  0
 22 16  1  0  0  0  0
 23 17  1  0  0  0  0
 23 21  1  0  0  0  0
 23 22  1  0  0  0  0
 24 18  1  0  0  0  0
 24 19  1  0  0  0  0
M  END
> <DATABASE_ID>
DB08980

> <DATABASE_NAME>
drugbank

> <SMILES>
CC(NCCC(C1=CC=CC=C1)C1=CC=CC=C1)C1=CC=CC=C1

> <INCHI_IDENTIFIER>
InChI=1S/C23H25N/c1-19(20-11-5-2-6-12-20)24-18-17-23(21-13-7-3-8-14-21)22-15-9-4-10-16-22/h2-16,19,23-24H,17-18H2,1H3

> <INCHI_KEY>
NMKSAYKQLCHXDK-UHFFFAOYSA-N

> <FORMULA>
C23H25N

> <MOLECULAR_WEIGHT>
315.4513

> <EXACT_MASS>
315.198699805

> <JCHEM_ACCEPTOR_COUNT>
1

> <JCHEM_AVERAGE_POLARIZABILITY>
37.619725839338486

> <JCHEM_BIOAVAILABILITY>
1

> <JCHEM_DONOR_COUNT>
1

> <JCHEM_FORMAL_CHARGE>
0

> <JCHEM_GHOSE_FILTER>
0

> <JCHEM_IUPAC>
(3,3-diphenylpropyl)(1-phenylethyl)amine

> <ALOGPS_LOGP>
5.63

> <JCHEM_LOGP>
5.826695726666667

> <ALOGPS_LOGS>
-6.71

> <JCHEM_MDDR_LIKE_RULE>
1

> <JCHEM_NUMBER_OF_RINGS>
3

> <JCHEM_PHYSIOLOGICAL_CHARGE>
1

> <JCHEM_PKA_STRONGEST_BASIC>
10.069546266056747

> <JCHEM_POLAR_SURFACE_AREA>
12.03

> <JCHEM_REFRACTIVITY>
102.337

> <JCHEM_ROTATABLE_BOND_COUNT>
7

> <JCHEM_RULE_OF_FIVE>
0

> <ALOGPS_SOLUBILITY>
6.22e-05 g/l

> <JCHEM_TRADITIONAL_IUPAC>
sensit

> <JCHEM_VEBER_RULE>
1

> <DRUGBANK_ID>
DB08980

> <DRUG_GROUPS>
withdrawn

> <GENERIC_NAME>
Fendiline

$$$$

  Mrv0541 06101410582D          

 13 13  0  0  0  0            999 V2000
    2.1434   -0.4125    0.0000 C   0  0  0  0  0  0  0  0  0  0  0  0
    2.8578   -0.8250    0.0000 C   0  0  0  0  0  0  0  0  0  0  0  0
    7.1447   -0.8250    0.0000 C   0  0  0  0  0  0  0  0  0  0  0  0
    6.4302   -0.4125    0.0000 C   0  0  0  0  0  0  0  0  0  0  0  0
    7.1447   -1.6500    0.0000 C   0  0  0  0  0  0  0  0  0  0  0  0
    5.7157   -1.6500    0.0000 C   0  0  0  0  0  0  0  0  0  0  0  0
    4.2868   -0.8250    0.0000 C   0  0  0  0  0  0  0  0  0  0  0  0
    5.7157   -0.8250    0.0000 C   0  0  0  0  0  0  0  0  0  0  0  0
    6.4302   -2.0625    0.0000 C   0  0  0  0  0  0  0  0  0  0  0  0
    5.0012   -0.4125    0.0000 C   0  0  0  0  0  0  0  0  0  0  0  0
    3.5723   -0.4125    0.0000 N   0  0  0  0  0  0  0  0  0  0  0  0
    6.4302   -2.8875    0.0000 O   0  0  0  0  0  0  0  0  0  0  0  0
    5.0012    0.4125    0.0000 O   0  0  0  0  0  0  0  0  0  0  0  0
  2  1  1  0  0  0  0
  4  3  2  0  0  0  0
  5  3  1  0  0  0  0
  8  4  1  0  0  0  0
  8  6  2  0  0  0  0
  9  5  2  0  0  0  0
  9  6  1  0  0  0  0
 10  7  1  0  0  0  0
 10  8  1  0  0  0  0
 11  2  1  0  0  0  0
 11  7  1  0  0  0  0
 12  9  1  0  0  0  0
 13 10  1  0  0  0  0
M  END
> <DATABASE_ID>
DB08985

> <DATABASE_NAME>
drugbank

> <SMILES>
CCNCC(O)C1=CC(O)=CC=C1

> <INCHI_IDENTIFIER>
InChI=1S/C10H15NO2/c1-2-11-7-10(13)8-4-3-5-9(12)6-8/h3-6,10-13H,2,7H2,1H3

> <INCHI_KEY>
SQVIAVUSQAWMKL-UHFFFAOYSA-N

> <FORMULA>
C10H15NO2

> <MOLECULAR_WEIGHT>
181.2316

> <EXACT_MASS>
181.110278729

> <JCHEM_ACCEPTOR_COUNT>
3

> <JCHEM_AVERAGE_POLARIZABILITY>
19.776840418183127

> <JCHEM_BIOAVAILABILITY>
1

> <JCHEM_DONOR_COUNT>
3

> <JCHEM_FORMAL_CHARGE>
0

> <JCHEM_GHOSE_FILTER>
1

> <JCHEM_IUPAC>
3-[2-(ethylamino)-1-hydroxyethyl]phenol

> <ALOGPS_LOGP>
0.01

> <JCHEM_LOGP>
0.23289200996352086

> <ALOGPS_LOGS>
-1.12

> <JCHEM_MDDR_LIKE_RULE>
0

> <JCHEM_NUMBER_OF_RINGS>
1

> <JCHEM_PHYSIOLOGICAL_CHARGE>
1

> <JCHEM_PKA>
14.239329783146264

> <JCHEM_PKA_STRONGEST_ACIDIC>
9.104647437506527

> <JCHEM_PKA_STRONGEST_BASIC>
9.732244838342494

> <JCHEM_POLAR_SURFACE_AREA>
52.489999999999995

> <JCHEM_REFRACTIVITY>
51.998

> <JCHEM_ROTATABLE_BOND_COUNT>
4

> <JCHEM_RULE_OF_FIVE>
1

> <ALOGPS_SOLUBILITY>
1.38e+01 g/l

> <JCHEM_TRADITIONAL_IUPAC>
thomasin

> <JCHEM_VEBER_RULE>
0

> <DRUGBANK_ID>
DB08985

> <DRUG_GROUPS>
withdrawn

> <GENERIC_NAME>
Etilefrine

$$$$

  Mrv1652306111721552D          

 21 23  0  0  0  0            999 V2000
    0.3555   -0.4242    0.0000 C   0  0  0  0  0  0  0  0  0  0  0  0
   -0.3525   -0.0200    0.0000 C   0  0  0  0  0  0  0  0  0  0  0  0
    0.3555    1.2098    0.0000 N   0  0  0  0  0  0  0  0  0  0  0  0
    1.0664    0.8112    0.0000 C   0  0  0  0  0  0  0  0  0  0  0  0
    1.0664   -0.0200    0.0000 O   0  0  0  0  0  0  0  0  0  0  0  0
   -0.3525    0.8112    0.0000 C   0  0  0  0  0  0  0  0  0  0  0  0
   -1.0722   -0.4242    0.0000 C   0  0  0  0  0  0  0  0  0  0  0  0
    0.0029   -1.0607    0.0000 C   0  0  0  0  0  0  0  0  0  0  0  0
   -1.0722    1.2098    0.0000 C   0  0  0  0  0  0  0  0  0  0  0  0
    1.7918    1.2241    0.0000 N   0  0  0  0  0  0  0  0  0  0  0  0
   -1.7803   -0.0200    0.0000 C   0  0  0  0  0  0  0  0  0  0  0  0
    1.0235   -0.9230    0.0000 C   0  0  0  0  0  0  0  0  0  0  0  0
   -1.7803    0.8112    0.0000 C   0  0  0  0  0  0  0  0  0  0  0  0
   -2.5027   -0.4358    0.0000 Cl  0  0  0  0  0  0  0  0  0  0  0  0
   -0.8227   -1.0607    0.0000 C   0  0  0  0  0  0  0  0  0  0  0  0
    0.4157   -1.7517    0.0000 C   0  0  0  0  0  0  0  0  0  0  0  0
    1.7918    2.0526    0.0000 C   0  0  0  0  0  0  0  0  0  0  0  0
    2.5027    2.4712    0.0000 C   0  0  0  0  0  0  0  0  0  0  0  0
    0.0029   -2.4712    0.0000 C   0  0  0  0  0  0  0  0  0  0  0  0
   -1.2270   -1.7775    0.0000 C   0  0  0  0  0  0  0  0  0  0  0  0
   -0.8227   -2.4712    0.0000 C   0  0  0  0  0  0  0  0  0  0  0  0
  2  1  1  0  0  0  0
  3  4  2  0  0  0  0
  4  5  1  0  0  0  0
  5  1  1  0  0  0  0
  6  2  1  0  0  0  0
  7  2  2  0  0  0  0
  8  1  1  0  0  0  0
  9  6  2  0  0  0  0
 10  4  1  0  0  0  0
 11  7  1  0  0  0  0
 12  1  1  0  0  0  0
 13 11  2  0  0  0  0
 14 11  1  0  0  0  0
 15  8  2  0  0  0  0
 16  8  1  0  0  0  0
 17 10  1  0  0  0  0
 18 17  1  0  0  0  0
 19 16  2  0  0  0  0
 20 15  1  0  0  0  0
 21 19  1  0  0  0  0
  6  3  1  0  0  0  0
 20 21  2  0  0  0  0
  9 13  1  0  0  0  0
M  END
> <DATABASE_ID>
DB08986

> <DATABASE_NAME>
drugbank

> <SMILES>
CCNC1=NC2=CC=C(Cl)C=C2C(C)(O1)C1=CC=CC=C1

> <INCHI_IDENTIFIER>
InChI=1S/C17H17ClN2O/c1-3-19-16-20-15-10-9-13(18)11-14(15)17(2,21-16)12-7-5-4-6-8-12/h4-11H,3H2,1-2H3,(H,19,20)

> <INCHI_KEY>
IBYCYJFUEJQSMK-UHFFFAOYSA-N

> <FORMULA>
C17H17ClN2O

> <MOLECULAR_WEIGHT>
300.79

> <EXACT_MASS>
300.1029409

> <JCHEM_ACCEPTOR_COUNT>
3

> <JCHEM_ATOM_COUNT>
38

> <JCHEM_AVERAGE_POLARIZABILITY>
32.25148854510429

> <JCHEM_BIOAVAILABILITY>
1

> <JCHEM_DONOR_COUNT>
1

> <JCHEM_FORMAL_CHARGE>
0

> <JCHEM_GHOSE_FILTER>
1

> <JCHEM_IUPAC>
6-chloro-N-ethyl-4-methyl-4-phenyl-4H-3,1-benzoxazin-2-amine

> <ALOGPS_LOGP>
4.52

> <JCHEM_LOGP>
4.590647957666667

> <ALOGPS_LOGS>
-5.14

> <JCHEM_MDDR_LIKE_RULE>
0

> <JCHEM_NUMBER_OF_RINGS>
3

> <JCHEM_PHYSIOLOGICAL_CHARGE>
0

> <JCHEM_PKA_STRONGEST_BASIC>
5.179179486548087

> <JCHEM_POLAR_SURFACE_AREA>
33.62

> <JCHEM_REFRACTIVITY>
87.2307

> <JCHEM_ROTATABLE_BOND_COUNT>
2

> <JCHEM_RULE_OF_FIVE>
1

> <ALOGPS_SOLUBILITY>
2.16e-03 g/l

> <JCHEM_TRADITIONAL_IUPAC>
etifoxine

> <JCHEM_VEBER_RULE>
1

> <DRUGBANK_ID>
DB08986

> <DRUG_GROUPS>
withdrawn

> <GENERIC_NAME>
Etifoxine

> <INTERNATIONAL_BRANDS>
Exsist; Stresam

> <SALTS>
Etifoxine hydrochloride

$$$$

  Mrv0541 06101415062D          

 19 20  0  0  0  0            999 V2000
    3.6184   -1.0852    0.0000 C   0  0  0  0  0  0  0  0  0  0  0  0
    0.0058    2.0279    0.0000 C   0  0  0  0  0  0  0  0  0  0  0  0
    3.0053   -1.6372    0.0000 C   0  0  0  0  0  0  0  0  0  0  0  0
    1.2645   -2.7954    0.0000 C   0  0  0  0  0  0  0  0  0  0  0  0
    1.9790   -2.3829    0.0000 C   0  0  0  0  0  0  0  0  0  0  0  0
    0.5501   -2.3829    0.0000 C   0  0  0  0  0  0  0  0  0  0  0  0
   -0.2126   -0.1539    0.0000 C   0  0  0  0  0  0  0  0  0  0  0  0
    1.9790   -1.5579    0.0000 C   0  0  0  0  0  0  0  0  0  0  0  0
    0.5501   -1.5579    0.0000 C   0  0  0  0  0  0  0  0  0  0  0  0
    0.4858   -0.5929    0.0000 C   0  0  0  0  0  0  0  0  0  0  0  0
    1.5370    0.4582    0.0000 C   0  0  0  0  0  0  0  0  0  0  0  0
   -0.3050    0.6658    0.0000 C   0  0  0  0  0  0  0  0  0  0  0  0
    1.0981    1.1568    0.0000 C   0  0  0  0  0  0  0  0  0  0  0  0
    1.2645   -1.1454    0.0000 C   0  0  0  0  0  0  0  0  0  0  0  0
    2.0492   -0.5753    0.0000 C   0  0  0  0  0  0  0  0  0  0  0  0
    1.2645   -0.3204    0.0000 C   0  0  0  0  0  0  0  0  0  0  0  0
    0.2783    1.2491    0.0000 N   0  0  0  0  0  0  0  0  0  0  0  0
    2.6623   -0.0233    0.0000 O   0  0  0  0  0  0  0  0  0  0  0  0
    2.2207   -1.3823    0.0000 O   0  0  0  0  0  0  0  0  0  0  0  0
  3  1  1  0  0  0  0
  5  4  2  0  0  0  0
  6  4  1  0  0  0  0
  8  5  1  0  0  0  0
  9  6  2  0  0  0  0
 10  7  1  0  0  0  0
 12  7  1  0  0  0  0
 13 11  1  0  0  0  0
 14  8  2  0  0  0  0
 14  9  1  0  0  0  0
 16 10  1  0  0  0  0
 16 11  1  0  0  0  0
 16 14  1  0  0  0  0
 16 15  1  0  0  0  0
 17  2  1  0  0  0  0
 17 12  1  0  0  0  0
 17 13  1  0  0  0  0
 18 15  2  0  0  0  0
 19  3  1  0  0  0  0
 19 15  1  0  0  0  0
M  END
> <DATABASE_ID>
DB08988

> <DATABASE_NAME>
drugbank

> <SMILES>
CCOC(=O)C1(CCCN(C)CC1)C1=CC=CC=C1

> <INCHI_IDENTIFIER>
InChI=1S/C16H23NO2/c1-3-19-15(18)16(14-8-5-4-6-9-14)10-7-12-17(2)13-11-16/h4-6,8-9H,3,7,10-13H2,1-2H3

> <INCHI_KEY>
WGJHHMKQBWSQIY-UHFFFAOYSA-N

> <FORMULA>
C16H23NO2

> <MOLECULAR_WEIGHT>
261.3593

> <EXACT_MASS>
261.172878985

> <JCHEM_ACCEPTOR_COUNT>
2

> <JCHEM_AVERAGE_POLARIZABILITY>
29.919523819168763

> <JCHEM_BIOAVAILABILITY>
1

> <JCHEM_DONOR_COUNT>
0

> <JCHEM_FORMAL_CHARGE>
0

> <JCHEM_GHOSE_FILTER>
1

> <JCHEM_IUPAC>
ethyl 1-methyl-4-phenylazepane-4-carboxylate

> <ALOGPS_LOGP>
3.32

> <JCHEM_LOGP>
2.900369060999999

> <ALOGPS_LOGS>
-2.66

> <JCHEM_MDDR_LIKE_RULE>
0

> <JCHEM_NUMBER_OF_RINGS>
2

> <JCHEM_PHYSIOLOGICAL_CHARGE>
1

> <JCHEM_PKA_STRONGEST_BASIC>
8.688102645501859

> <JCHEM_POLAR_SURFACE_AREA>
29.540000000000003

> <JCHEM_REFRACTIVITY>
77.08470000000001

> <JCHEM_ROTATABLE_BOND_COUNT>
4

> <JCHEM_RULE_OF_FIVE>
1

> <ALOGPS_SOLUBILITY>
5.75e-01 g/l

> <JCHEM_TRADITIONAL_IUPAC>
ethoheptazine

> <JCHEM_VEBER_RULE>
1

> <DRUGBANK_ID>
DB08988

> <DRUG_GROUPS>
withdrawn

> <GENERIC_NAME>
Ethoheptazine

> <SYNONYMS>
Ethoheptazin; Ethoheptazine; Ethoheptazinum; Etoheptazina

> <PRODUCTS>
Equagesic Tablets

> <SALTS>
Ethoheptazine citrate; Ethoheptazine hydrochloride

$$$$

  Mrv0541 05031420592D          

 16 16  0  0  0  0            999 V2000
    2.1434   -0.4125    0.0000 C   0  0  0  0  0  0  0  0  0  0  0  0
    0.7145   -2.8875    0.0000 C   0  0  0  0  0  0  0  0  0  0  0  0
   -1.4289    0.8250    0.0000 C   0  0  0  0  0  0  0  0  0  0  0  0
    2.1434   -1.2375    0.0000 C   0  0  0  0  0  0  0  0  0  0  0  0
    1.4289   -2.4750    0.0000 C   0  0  0  0  0  0  0  0  0  0  0  0
    1.4289   -0.0000    0.0000 C   0  0  0  0  0  0  0  0  0  0  0  0
    1.4289    0.8250    0.0000 C   0  0  0  0  0  0  0  0  0  0  0  0
    0.0000   -0.0000    0.0000 C   0  0  0  0  0  0  0  0  0  0  0  0
    0.7145   -0.4125    0.0000 C   0  0  0  0  0  0  0  0  0  0  0  0
    0.7145    1.2375    0.0000 C   0  0  0  0  0  0  0  0  0  0  0  0
    0.0000    0.8250    0.0000 C   0  0  0  0  0  0  0  0  0  0  0  0
    0.7145   -1.2375    0.0000 C   0  0  0  0  0  0  0  0  0  0  0  0
    1.4289   -1.6500    0.0000 N   0  0  0  0  0  0  0  0  0  0  0  0
    0.7145    2.0625    0.0000 O   0  0  0  0  0  0  0  0  0  0  0  0
   -0.0000   -1.6500    0.0000 O   0  0  0  0  0  0  0  0  0  0  0  0
   -0.7145    1.2375    0.0000 O   0  0  0  0  0  0  0  0  0  0  0  0
  4  1  1  0  0  0  0
  5  2  1  0  0  0  0
  7  6  2  0  0  0  0
  9  6  1  0  0  0  0
  9  8  2  0  0  0  0
 10  7  1  0  0  0  0
 11  8  1  0  0  0  0
 11 10  2  0  0  0  0
 12  9  1  0  0  0  0
 13  4  1  0  0  0  0
 13  5  1  0  0  0  0
 13 12  1  0  0  0  0
 14 10  1  0  0  0  0
 15 12  2  0  0  0  0
 16  3  1  0  0  0  0
 16 11  1  0  0  0  0
M  END
> <DATABASE_ID>
DB08989

> <DATABASE_NAME>
drugbank

> <SMILES>
CCN(CC)C(=O)C1=CC(OC)=C(O)C=C1

> <INCHI_IDENTIFIER>
InChI=1S/C12H17NO3/c1-4-13(5-2)12(15)9-6-7-10(14)11(8-9)16-3/h6-8,14H,4-5H2,1-3H3

> <INCHI_KEY>
BQJODPIMMWWMFC-UHFFFAOYSA-N

> <FORMULA>
C12H17NO3

> <MOLECULAR_WEIGHT>
223.2683

> <EXACT_MASS>
223.120843415

> <JCHEM_ACCEPTOR_COUNT>
3

> <JCHEM_AVERAGE_POLARIZABILITY>
24.064723881066943

> <JCHEM_BIOAVAILABILITY>
1

> <JCHEM_DONOR_COUNT>
1

> <JCHEM_FORMAL_CHARGE>
0

> <JCHEM_GHOSE_FILTER>
1

> <JCHEM_IUPAC>
N,N-diethyl-4-hydroxy-3-methoxybenzamide

> <ALOGPS_LOGP>
1.81

> <JCHEM_LOGP>
1.5236175636666671

> <ALOGPS_LOGS>
-1.26

> <JCHEM_MDDR_LIKE_RULE>
0

> <JCHEM_NUMBER_OF_RINGS>
1

> <JCHEM_PHYSIOLOGICAL_CHARGE>
0

> <JCHEM_PKA_STRONGEST_ACIDIC>
8.946831677381185

> <JCHEM_PKA_STRONGEST_BASIC>
-0.3494245477282981

> <JCHEM_POLAR_SURFACE_AREA>
49.769999999999996

> <JCHEM_REFRACTIVITY>
62.871100000000006

> <JCHEM_ROTATABLE_BOND_COUNT>
4

> <JCHEM_RULE_OF_FIVE>
1

> <ALOGPS_SOLUBILITY>
1.24e+01 g/l

> <JCHEM_TRADITIONAL_IUPAC>
simaron

> <JCHEM_VEBER_RULE>
0

> <DRUGBANK_ID>
DB08989

> <DRUG_GROUPS>
withdrawn

> <GENERIC_NAME>
Etamivan

> <SYNONYMS>
Ethamivan

> <INTERNATIONAL_BRANDS>
Analepticon

$$$$

  Mrv1652306031607122D          

 28 30  0  0  0  0            999 V2000
    2.1434   -0.4125    0.0000 C   0  0  0  0  0  0  0  0  0  0  0  0
    2.8579   -2.4750    0.0000 C   0  0  0  0  0  0  0  0  0  0  0  0
    2.8579    0.0000    0.0000 C   0  0  0  0  0  0  0  0  0  0  0  0
    3.5724    3.7125    0.0000 C   0  0  0  0  0  0  0  0  0  0  0  0
    1.4289   -4.9500    0.0000 C   0  0  0  0  0  0  0  0  0  0  0  0
    2.8579    3.3000    0.0000 C   0  0  0  0  0  0  0  0  0  0  0  0
    4.2868    3.3000    0.0000 C   0  0  0  0  0  0  0  0  0  0  0  0
    2.1434   -5.3625    0.0000 C   0  0  0  0  0  0  0  0  0  0  0  0
    1.4289   -4.1250    0.0000 C   0  0  0  0  0  0  0  0  0  0  0  0
    2.8579    2.4750    0.0000 C   0  0  0  0  0  0  0  0  0  0  0  0
    4.2868    2.4750    0.0000 C   0  0  0  0  0  0  0  0  0  0  0  0
    2.8579   -4.9500    0.0000 C   0  0  0  0  0  0  0  0  0  0  0  0
    2.1434   -3.7125    0.0000 C   0  0  0  0  0  0  0  0  0  0  0  0
    5.0013   -1.2375    0.0000 C   0  0  0  0  0  0  0  0  0  0  0  0
    3.5724   -1.2375    0.0000 C   0  0  0  0  0  0  0  0  0  0  0  0
    5.0013   -0.4125    0.0000 C   0  0  0  0  0  0  0  0  0  0  0  0
    3.5724   -0.4125    0.0000 C   0  0  0  0  0  0  0  0  0  0  0  0
    4.2868   -2.4750    0.0000 C   0  0  0  0  0  0  0  0  0  0  0  0
    4.2868    0.8250    0.0000 C   0  0  0  0  0  0  0  0  0  0  0  0
    3.5724   -2.8875    0.0000 C   0  0  0  0  0  0  0  0  0  0  0  0
    3.5724    2.0625    0.0000 C   0  0  0  0  0  0  0  0  0  0  0  0
    2.8579   -4.1250    0.0000 C   0  0  0  0  0  0  0  0  0  0  0  0
    3.5724    1.2375    0.0000 C   0  0  0  0  0  0  0  0  0  0  0  0
    3.5724   -3.7125    0.0000 C   0  0  0  0  0  0  0  0  0  0  0  0
    4.2868   -1.6500    0.0000 N   0  0  0  0  0  0  0  0  0  0  0  0
    4.2868    0.0000    0.0000 N   0  0  0  0  0  0  0  0  0  0  0  0
    4.2868   -4.1250    0.0000 O   0  0  0  0  0  0  0  0  0  0  0  0
    2.8579    0.8250    0.0000 O   0  0  0  0  0  0  0  0  0  0  0  0
  3  1  1  0  0  0  0
  6  4  2  0  0  0  0
  7  4  1  0  0  0  0
  8  5  2  0  0  0  0
  9  5  1  0  0  0  0
 10  6  1  0  0  0  0
 11  7  2  0  0  0  0
 12  8  1  0  0  0  0
 13  9  2  0  0  0  0
 16 14  1  0  0  0  0
 17 15  1  0  0  0  0
 20  2  1  0  0  0  0
 20 18  1  0  0  0  0
 21 10  2  0  0  0  0
 21 11  1  0  0  0  0
 22 12  2  0  0  0  0
 22 13  1  0  0  0  0
 23 19  1  0  0  0  0
 23 21  1  0  0  0  0
 24 20  1  0  0  0  0
 24 22  1  0  0  0  0
 25 14  1  0  0  0  0
 25 15  1  0  0  0  0
 25 18  1  0  0  0  0
 26 16  1  0  0  0  0
 26 17  1  0  0  0  0
 26 19  1  0  0  0  0
 27 24  2  0  0  0  0
 28  3  1  0  0  0  0
 28 23  1  0  0  0  0
M  END
> <DATABASE_ID>
DB08990

> <DATABASE_NAME>
drugbank

> <SMILES>
CCOC(CN1CCN(CC(C)C(=O)C2=CC=CC=C2)CC1)C1=CC=CC=C1

> <INCHI_IDENTIFIER>
InChI=1S/C24H32N2O2/c1-3-28-23(21-10-6-4-7-11-21)19-26-16-14-25(15-17-26)18-20(2)24(27)22-12-8-5-9-13-22/h4-13,20,23H,3,14-19H2,1-2H3

> <INCHI_KEY>
BSHWLCACYCVCJE-UHFFFAOYSA-N

> <FORMULA>
C24H32N2O2

> <MOLECULAR_WEIGHT>
380.532

> <EXACT_MASS>
380.246378278

> <JCHEM_ACCEPTOR_COUNT>
4

> <JCHEM_ATOM_COUNT>
60

> <JCHEM_AVERAGE_POLARIZABILITY>
44.38030944645915

> <JCHEM_BIOAVAILABILITY>
1

> <JCHEM_DONOR_COUNT>
0

> <JCHEM_FORMAL_CHARGE>
0

> <JCHEM_GHOSE_FILTER>
1

> <JCHEM_IUPAC>
3-[4-(2-ethoxy-2-phenylethyl)piperazin-1-yl]-2-methyl-1-phenylpropan-1-one

> <ALOGPS_LOGP>
3.78

> <JCHEM_LOGP>
4.1435830503333335

> <ALOGPS_LOGS>
-3.90

> <JCHEM_MDDR_LIKE_RULE>
1

> <JCHEM_NUMBER_OF_RINGS>
3

> <JCHEM_PHYSIOLOGICAL_CHARGE>
1

> <JCHEM_PKA_STRONGEST_ACIDIC>
16.21440432186071

> <JCHEM_PKA_STRONGEST_BASIC>
7.320028352381414

> <JCHEM_POLAR_SURFACE_AREA>
32.78

> <JCHEM_REFRACTIVITY>
115.28869999999996

> <JCHEM_ROTATABLE_BOND_COUNT>
9

> <JCHEM_RULE_OF_FIVE>
1

> <ALOGPS_SOLUBILITY>
4.84e-02 g/l

> <JCHEM_TRADITIONAL_IUPAC>
eprazinone

> <JCHEM_VEBER_RULE>
1

> <DRUGBANK_ID>
DB08990

> <DRUG_GROUPS>
approved; withdrawn

> <GENERIC_NAME>
Eprazinone

> <SYNONYMS>
Eprazinone; Éprazinone

> <SALTS>
Eprazinone Hydrochloride

$$$$

  Mrv0541 06161411332D          

 24 26  0  0  0  0            999 V2000
    4.4222   -3.3243    0.0000 C   0  0  0  0  0  0  0  0  0  0  0  0
    8.1567   -3.3243    0.0000 C   0  0  0  0  0  0  0  0  0  0  0  0
    5.2426   -3.4105    0.0000 C   0  0  0  0  0  0  0  0  0  0  0  0
    4.0866   -2.5706    0.0000 C   0  0  0  0  0  0  0  0  0  0  0  0
    8.4923   -2.5706    0.0000 C   0  0  0  0  0  0  0  0  0  0  0  0
    7.3362   -3.4105    0.0000 C   0  0  0  0  0  0  0  0  0  0  0  0
    5.7276   -2.7431    0.0000 C   0  0  0  0  0  0  0  0  0  0  0  0
    4.5715   -1.9032    0.0000 C   0  0  0  0  0  0  0  0  0  0  0  0
    8.0073   -1.9032    0.0000 C   0  0  0  0  0  0  0  0  0  0  0  0
    6.8513   -2.7431    0.0000 C   0  0  0  0  0  0  0  0  0  0  0  0
    5.5750    1.1850    0.0000 C   0  0  0  0  0  0  0  0  0  0  0  0
    7.0039    1.1850    0.0000 C   0  0  0  0  0  0  0  0  0  0  0  0
    5.5750    2.0100    0.0000 C   0  0  0  0  0  0  0  0  0  0  0  0
    7.0039    2.0100    0.0000 C   0  0  0  0  0  0  0  0  0  0  0  0
    5.3920   -1.9894    0.0000 C   0  0  0  0  0  0  0  0  0  0  0  0
    7.1868   -1.9894    0.0000 C   0  0  0  0  0  0  0  0  0  0  0  0
    5.8769   -1.3220    0.0000 C   0  0  0  0  0  0  0  0  0  0  0  0
    6.7019   -1.3220    0.0000 C   0  0  0  0  0  0  0  0  0  0  0  0
    6.2894   -0.0524    0.0000 C   0  0  0  0  0  0  0  0  0  0  0  0
    5.6220   -0.5374    0.0000 N   0  0  0  0  0  0  0  0  0  0  0  0
    6.2894    0.7725    0.0000 N   0  0  0  0  0  0  0  0  0  0  0  0
    4.8605    2.4225    0.0000 O   0  0  0  0  0  0  0  0  0  0  0  0
    7.7184    2.4225    0.0000 O   0  0  0  0  0  0  0  0  0  0  0  0
    6.9569   -0.5374    0.0000 O   0  0  0  0  0  0  0  0  0  0  0  0
  3  1  2  0  0  0  0
  4  1  1  0  0  0  0
  5  2  2  0  0  0  0
  6  2  1  0  0  0  0
  7  3  1  0  0  0  0
  8  4  2  0  0  0  0
  9  5  1  0  0  0  0
 10  6  2  0  0  0  0
 13 11  1  0  0  0  0
 14 12  1  0  0  0  0
 15  7  2  0  0  0  0
 15  8  1  0  0  0  0
 16  9  2  0  0  0  0
 16 10  1  0  0  0  0
 17 15  1  0  0  0  0
 18 16  1  0  0  0  0
 18 17  2  0  0  0  0
 20 17  1  0  0  0  0
 20 19  2  0  0  0  0
 21 11  1  0  0  0  0
 21 12  1  0  0  0  0
 21 19  1  0  0  0  0
 22 13  1  0  0  0  0
 23 14  1  0  0  0  0
 24 18  1  0  0  0  0
 24 19  1  0  0  0  0
M  END
> <DATABASE_ID>
DB08994

> <DATABASE_NAME>
drugbank

> <SMILES>
OCCN(CCO)C1=NC(=C(O1)C1=CC=CC=C1)C1=CC=CC=C1

> <INCHI_IDENTIFIER>
InChI=1S/C19H20N2O3/c22-13-11-21(12-14-23)19-20-17(15-7-3-1-4-8-15)18(24-19)16-9-5-2-6-10-16/h1-10,22-23H,11-14H2

> <INCHI_KEY>
UUCMDZWCRNZCOY-UHFFFAOYSA-N

> <FORMULA>
C19H20N2O3

> <MOLECULAR_WEIGHT>
324.3737

> <EXACT_MASS>
324.147392516

> <JCHEM_ACCEPTOR_COUNT>
4

> <JCHEM_AVERAGE_POLARIZABILITY>
35.889844059152026

> <JCHEM_BIOAVAILABILITY>
1

> <JCHEM_DONOR_COUNT>
2

> <JCHEM_FORMAL_CHARGE>
0

> <JCHEM_GHOSE_FILTER>
1

> <JCHEM_IUPAC>
2-[(diphenyl-1,3-oxazol-2-yl)(2-hydroxyethyl)amino]ethan-1-ol

> <ALOGPS_LOGP>
2.86

> <JCHEM_LOGP>
2.9275292136666664

> <ALOGPS_LOGS>
-3.35

> <JCHEM_MDDR_LIKE_RULE>
1

> <JCHEM_NUMBER_OF_RINGS>
3

> <JCHEM_PHYSIOLOGICAL_CHARGE>
0

> <JCHEM_PKA>
15.874069670203294

> <JCHEM_PKA_STRONGEST_ACIDIC>
15.27179708338533

> <JCHEM_PKA_STRONGEST_BASIC>
-0.1245390430354375

> <JCHEM_POLAR_SURFACE_AREA>
69.73

> <JCHEM_REFRACTIVITY>
93.0318

> <JCHEM_ROTATABLE_BOND_COUNT>
7

> <JCHEM_RULE_OF_FIVE>
1

> <ALOGPS_SOLUBILITY>
1.46e-01 g/l

> <JCHEM_TRADITIONAL_IUPAC>
ditazole

> <JCHEM_VEBER_RULE>
0

> <DRUGBANK_ID>
DB08994

> <DRUG_GROUPS>
approved; withdrawn

> <GENERIC_NAME>
Ditazole

> <SYNONYMS>
2,2'-(4,5-Diphenyloxazol-2-ylazanediyl)diethanol

> <INTERNATIONAL_BRANDS>
Ageroplas

$$$$

  Mrv0541 06161412062D          

 22 24  0  0  0  0            999 V2000
    6.7124    0.3627    0.0000 C   0  0  0  0  0  0  0  0  0  0  0  0
    7.2427   -0.5557    0.0000 C   0  0  0  0  0  0  0  0  0  0  0  0
    1.4289   -1.6500    0.0000 C   0  0  0  0  0  0  0  0  0  0  0  0
    2.1434   -0.4125    0.0000 C   0  0  0  0  0  0  0  0  0  0  0  0
    5.0012    1.2375    0.0000 C   0  0  0  0  0  0  0  0  0  0  0  0
    7.1447   -2.4750    0.0000 C   0  0  0  0  0  0  0  0  0  0  0  0
    4.2868    0.8250    0.0000 C   0  0  0  0  0  0  0  0  0  0  0  0
    6.4302   -2.8875    0.0000 C   0  0  0  0  0  0  0  0  0  0  0  0
    3.5723   -1.2375    0.0000 C   0  0  0  0  0  0  0  0  0  0  0  0
    5.7157    0.8250    0.0000 C   0  0  0  0  0  0  0  0  0  0  0  0
    7.1447   -1.6500    0.0000 C   0  0  0  0  0  0  0  0  0  0  0  0
    4.2868    0.0000    0.0000 C   0  0  0  0  0  0  0  0  0  0  0  0
    5.7157   -2.4750    0.0000 C   0  0  0  0  0  0  0  0  0  0  0  0
    2.8578   -1.6500    0.0000 C   0  0  0  0  0  0  0  0  0  0  0  0
    4.2868   -1.6500    0.0000 C   0  0  0  0  0  0  0  0  0  0  0  0
    5.7157    0.0000    0.0000 C   0  0  0  0  0  0  0  0  0  0  0  0
    6.4302   -1.2375    0.0000 C   0  0  0  0  0  0  0  0  0  0  0  0
    5.0012   -0.4125    0.0000 C   0  0  0  0  0  0  0  0  0  0  0  0
    5.7157   -1.6500    0.0000 C   0  0  0  0  0  0  0  0  0  0  0  0
    6.4302   -0.4125    0.0000 C   0  0  0  0  0  0  0  0  0  0  0  0
    2.1434   -1.2375    0.0000 N   0  0  0  0  0  0  0  0  0  0  0  0
    5.0012   -1.2375    0.0000 N   0  0  0  0  0  0  0  0  0  0  0  0
  7  5  2  0  0  0  0
  8  6  2  0  0  0  0
 10  5  1  0  0  0  0
 11  6  1  0  0  0  0
 12  7  1  0  0  0  0
 13  8  1  0  0  0  0
 14  9  1  0  0  0  0
 15  9  1  0  0  0  0
 16 10  2  0  0  0  0
 17 11  2  0  0  0  0
 18 12  2  0  0  0  0
 18 16  1  0  0  0  0
 19 13  2  0  0  0  0
 19 17  1  0  0  0  0
 20  1  1  0  0  0  0
 20  2  1  0  0  0  0
 20 16  1  0  0  0  0
 20 17  1  0  0  0  0
 21  3  1  0  0  0  0
 21  4  1  0  0  0  0
 21 14  1  0  0  0  0
 22 15  1  0  0  0  0
 22 18  1  0  0  0  0
 22 19  1  0  0  0  0
M  END
> <DATABASE_ID>
DB08996

> <DATABASE_NAME>
drugbank

> <SMILES>
CN(C)CCCN1C2=CC=CC=C2C(C)(C)C2=CC=CC=C12

> <INCHI_IDENTIFIER>
InChI=1S/C20H26N2/c1-20(2)16-10-5-7-12-18(16)22(15-9-14-21(3)4)19-13-8-6-11-17(19)20/h5-8,10-13H,9,14-15H2,1-4H3

> <INCHI_KEY>
RYQOGSFEJBUZBX-UHFFFAOYSA-N

> <FORMULA>
C20H26N2

> <MOLECULAR_WEIGHT>
294.4338

> <EXACT_MASS>
294.209598842

> <JCHEM_ACCEPTOR_COUNT>
2

> <JCHEM_AVERAGE_POLARIZABILITY>
35.86948942071865

> <JCHEM_BIOAVAILABILITY>
1

> <JCHEM_DONOR_COUNT>
0

> <JCHEM_FORMAL_CHARGE>
0

> <JCHEM_GHOSE_FILTER>
1

> <JCHEM_IUPAC>
[3-(9,9-dimethyl-9,10-dihydroacridin-10-yl)propyl]dimethylamine

> <ALOGPS_LOGP>
4.96

> <JCHEM_LOGP>
4.421066345666667

> <ALOGPS_LOGS>
-3.93

> <JCHEM_MDDR_LIKE_RULE>
0

> <JCHEM_NUMBER_OF_RINGS>
3

> <JCHEM_PHYSIOLOGICAL_CHARGE>
1

> <JCHEM_PKA_STRONGEST_BASIC>
9.196977069511535

> <JCHEM_POLAR_SURFACE_AREA>
6.48

> <JCHEM_REFRACTIVITY>
105.52269999999997

> <JCHEM_ROTATABLE_BOND_COUNT>
4

> <JCHEM_RULE_OF_FIVE>
1

> <ALOGPS_SOLUBILITY>
3.43e-02 g/l

> <JCHEM_TRADITIONAL_IUPAC>
dimetacrine

> <JCHEM_VEBER_RULE>
1

> <DRUGBANK_ID>
DB08996

> <DRUG_GROUPS>
approved; withdrawn

> <GENERIC_NAME>
Dimetacrine

> <SYNONYMS>
3-(9,9-dimethylacridin-10-yl)-N,N-dimethyl-propan-1-amine; Dimetacrine; Istonil; Istonyl; Linostil; Miroistonil

> <SALTS>
Dimetacrine bitartrate; Dimetacrine tartrate

$$$$

  Mrv0541 06161412472D          

 27 30  0  0  0  0            999 V2000
    2.8175   -1.5617    0.0000 C   0  0  0  0  0  0  0  0  0  0  0  0
   -1.2788   -1.1379    0.0000 C   0  0  0  0  0  0  0  0  0  0  0  0
    3.3478   -0.9297    0.0000 C   0  0  0  0  0  0  0  0  0  0  0  0
    2.0050   -1.4185    0.0000 C   0  0  0  0  0  0  0  0  0  0  0  0
   -0.5643   -0.7254    0.0000 C   0  0  0  0  0  0  0  0  0  0  0  0
   -1.9932   -0.7254    0.0000 C   0  0  0  0  0  0  0  0  0  0  0  0
    3.0656   -0.1545    0.0000 C   0  0  0  0  0  0  0  0  0  0  0  0
    1.7229   -0.6432    0.0000 C   0  0  0  0  0  0  0  0  0  0  0  0
   -0.5643    0.0995    0.0000 C   0  0  0  0  0  0  0  0  0  0  0  0
   -1.9932    0.0995    0.0000 C   0  0  0  0  0  0  0  0  0  0  0  0
   -2.6215    1.8257    0.0000 C   0  0  0  0  0  0  0  0  0  0  0  0
   -0.1841    0.4185    0.0000 C   0  0  0  0  0  0  0  0  0  0  0  0
    0.0639    1.8257    0.0000 C   0  0  0  0  0  0  0  0  0  0  0  0
   -2.0912    1.1937    0.0000 C   0  0  0  0  0  0  0  0  0  0  0  0
    0.6282    0.2752    0.0000 C   0  0  0  0  0  0  0  0  0  0  0  0
    0.8764    1.6824    0.0000 C   0  0  0  0  0  0  0  0  0  0  0  0
    1.9710    0.7639    0.0000 C   0  0  0  0  0  0  0  0  0  0  0  0
    2.2532   -0.0112    0.0000 C   0  0  0  0  0  0  0  0  0  0  0  0
   -1.2788    0.5120    0.0000 C   0  0  0  0  0  0  0  0  0  0  0  0
   -0.4663    1.1937    0.0000 C   0  0  0  0  0  0  0  0  0  0  0  0
   -2.3394    2.6009    0.0000 C   0  0  0  0  0  0  0  0  0  0  0  0
   -0.9966    2.1122    0.0000 C   0  0  0  0  0  0  0  0  0  0  0  0
   -1.2788    1.3370    0.0000 C   0  0  1  0  0  0  0  0  0  0  0  0
   -1.5269    2.7442    0.0000 N   0  0  0  0  0  0  0  0  0  0  0  0
    1.1585    0.9072    0.0000 N   0  0  0  0  0  0  0  0  0  0  0  0
   -2.8697    3.2329    0.0000 O   0  0  0  0  0  0  0  0  0  0  0  0
   -0.1841    2.2555    0.0000 O   0  0  0  0  0  0  0  0  0  0  0  0
  3  1  2  0  0  0  0
  4  1  1  0  0  0  0
  5  2  2  0  0  0  0
  6  2  1  0  0  0  0
  7  3  1  0  0  0  0
  8  4  2  0  0  0  0
  9  5  1  0  0  0  0
 10  6  2  0  0  0  0
 14 11  1  0  0  0  0
 15 12  1  0  0  0  0
 16 13  1  0  0  0  0
 18  7  2  0  0  0  0
 18  8  1  0  0  0  0
 18 17  1  0  0  0  0
 19  9  2  0  0  0  0
 19 10  1  0  0  0  0
 20 12  1  0  0  0  0
 20 13  1  0  0  0  0
 21 11  1  0  0  0  0
 23 14  1  0  0  0  0
 23 19  1  1  0  0  0
 23 20  1  6  0  0  0
 23 22  1  0  0  0  0
 24 21  2  0  0  0  0
 24 22  1  0  0  0  0
 25 15  1  0  0  0  0
 25 16  1  0  0  0  0
 25 17  1  0  0  0  0
 26 21  1  0  0  0  0
 27 22  2  0  0  0  0
M  END
> <DATABASE_ID>
DB08997

> <DATABASE_NAME>
drugbank

> <SMILES>
OC1=NC(=O)[C@@](CC1)(C1CCN(CC2=CC=CC=C2)CC1)C1=CC=CC=C1

> <INCHI_IDENTIFIER>
InChI=1S/C23H26N2O2/c26-21-11-14-23(22(27)24-21,19-9-5-2-6-10-19)20-12-15-25(16-13-20)17-18-7-3-1-4-8-18/h1-10,20H,11-17H2,(H,24,26,27)/t23-/m1/s1

> <INCHI_KEY>
LQQIVYSCPWCSSD-HSZRJFAPSA-N

> <FORMULA>
C23H26N2O2

> <MOLECULAR_WEIGHT>
362.4647

> <EXACT_MASS>
362.199428086

> <JCHEM_ACCEPTOR_COUNT>
4

> <JCHEM_AVERAGE_POLARIZABILITY>
40.547973141404306

> <JCHEM_BIOAVAILABILITY>
1

> <JCHEM_DONOR_COUNT>
1

> <JCHEM_FORMAL_CHARGE>
0

> <JCHEM_GHOSE_FILTER>
1

> <JCHEM_IUPAC>
(3S)-3-(1-benzylpiperidin-4-yl)-6-hydroxy-3-phenyl-2,3,4,5-tetrahydropyridin-2-one

> <ALOGPS_LOGP>
3.75

> <JCHEM_LOGP>
2.853379211118404

> <ALOGPS_LOGS>
-4.86

> <JCHEM_MDDR_LIKE_RULE>
0

> <JCHEM_NUMBER_OF_RINGS>
4

> <JCHEM_PHYSIOLOGICAL_CHARGE>
1

> <JCHEM_PKA_STRONGEST_ACIDIC>
7.669823209664749

> <JCHEM_PKA_STRONGEST_BASIC>
8.426419247007457

> <JCHEM_POLAR_SURFACE_AREA>
52.9

> <JCHEM_REFRACTIVITY>
106.66169999999997

> <JCHEM_ROTATABLE_BOND_COUNT>
4

> <JCHEM_RULE_OF_FIVE>
1

> <ALOGPS_SOLUBILITY>
5.05e-03 g/l

> <JCHEM_TRADITIONAL_IUPAC>
dexetimide

> <JCHEM_VEBER_RULE>
0

> <DRUGBANK_ID>
DB08997

> <DRUG_GROUPS>
withdrawn

> <GENERIC_NAME>
Dexetimide

$$$$

  Mrv1652306031606262D          

 10 10  0  0  0  0            999 V2000
    1.9967    1.9393    0.0000 C   0  0  0  0  0  0  0  0  0  0  0  0
    1.9967    3.5893    0.0000 C   0  0  0  0  0  0  0  0  0  0  0  0
    0.1553   -0.1553    0.0000 C   0  0  0  0  0  0  0  0  0  0  0  0
    0.9803   -0.1553    0.0000 C   0  0  0  0  0  0  0  0  0  0  0  0
   -0.0997    0.6294    0.0000 C   0  0  0  0  0  0  0  0  0  0  0  0
    1.2352    0.6294    0.0000 C   0  0  0  0  0  0  0  0  0  0  0  0
    0.5678    1.9393    0.0000 C   0  0  0  0  0  0  0  0  0  0  0  0
    1.2822    2.3518    0.0000 C   0  0  0  0  0  0  0  0  0  0  0  0
    0.5678    1.1143    0.0000 C   0  0  0  0  0  0  0  0  0  0  0  0
    1.2822    3.1768    0.0000 N   0  0  0  0  0  0  0  0  0  0  0  0
  4  3  1  0  0  0  0
  5  3  1  0  0  0  0
  6  4  1  0  0  0  0
  8  1  1  0  0  0  0
  8  7  1  0  0  0  0
  9  5  1  0  0  0  0
  9  6  1  0  0  0  0
  9  7  1  0  0  0  0
 10  2  1  0  0  0  0
 10  8  1  0  0  0  0
M  END
> <DATABASE_ID>
DB08999

> <DATABASE_NAME>
drugbank

> <SMILES>
CNC(C)CC1CCCC1

> <INCHI_IDENTIFIER>
InChI=1S/C9H19N/c1-8(10-2)7-9-5-3-4-6-9/h8-10H,3-7H2,1-2H3

> <INCHI_KEY>
HFXKQSZZZPGLKQ-UHFFFAOYSA-N

> <FORMULA>
C9H19N

> <MOLECULAR_WEIGHT>
141.258

> <EXACT_MASS>
141.151749616

> <JCHEM_ACCEPTOR_COUNT>
1

> <JCHEM_ATOM_COUNT>
29

> <JCHEM_AVERAGE_POLARIZABILITY>
18.39844018267545

> <JCHEM_BIOAVAILABILITY>
1

> <JCHEM_DONOR_COUNT>
1

> <JCHEM_FORMAL_CHARGE>
0

> <JCHEM_GHOSE_FILTER>
0

> <JCHEM_IUPAC>
(1-cyclopentylpropan-2-yl)(methyl)amine

> <ALOGPS_LOGP>
2.86

> <JCHEM_LOGP>
2.260026091333333

> <ALOGPS_LOGS>
-2.47

> <JCHEM_MDDR_LIKE_RULE>
0

> <JCHEM_NUMBER_OF_RINGS>
1

> <JCHEM_PHYSIOLOGICAL_CHARGE>
1

> <JCHEM_PKA_STRONGEST_BASIC>
10.614016211465419

> <JCHEM_POLAR_SURFACE_AREA>
12.03

> <JCHEM_REFRACTIVITY>
44.9342

> <JCHEM_ROTATABLE_BOND_COUNT>
3

> <JCHEM_RULE_OF_FIVE>
1

> <ALOGPS_SOLUBILITY>
4.76e-01 g/l

> <JCHEM_TRADITIONAL_IUPAC>
sinos

> <JCHEM_VEBER_RULE>
1

> <DRUGBANK_ID>
DB08999

> <DRUG_GROUPS>
withdrawn

> <GENERIC_NAME>
Cyclopentamine

> <SALTS>
Cyclopentamine hydrochloride

$$$$

  Mrv0541 05061306242D          

 17 17  0  0  0  0            999 V2000
   -1.4289   -1.6500    0.0000 C   0  0  0  0  0  0  0  0  0  0  0  0
   -0.4125   -0.9355    0.0000 C   0  0  0  0  0  0  0  0  0  0  0  0
   -1.4289   -4.1250    0.0000 C   0  0  0  0  0  0  0  0  0  0  0  0
   -2.1434   -2.8875    0.0000 C   0  0  0  0  0  0  0  0  0  0  0  0
    1.4289    0.0000    0.0000 C   0  0  0  0  0  0  0  0  0  0  0  0
    0.0000    0.0000    0.0000 C   0  0  0  0  0  0  0  0  0  0  0  0
    1.4289    0.8250    0.0000 C   0  0  0  0  0  0  0  0  0  0  0  0
    0.0000    0.8250    0.0000 C   0  0  0  0  0  0  0  0  0  0  0  0
    0.7145   -1.2375    0.0000 C   0  0  0  0  0  0  0  0  0  0  0  0
   -0.7145   -2.8875    0.0000 C   0  0  0  0  0  0  0  0  0  0  0  0
   -0.7145   -2.0625    0.0000 C   0  0  0  0  0  0  0  0  0  0  0  0
    0.7145   -0.4125    0.0000 C   0  0  0  0  0  0  0  0  0  0  0  0
    0.7145    1.2375    0.0000 C   0  0  0  0  0  0  0  0  0  0  0  0
    0.0000   -1.6500    0.0000 C   0  0  0  0  0  0  0  0  0  0  0  0
    0.7145    2.0625    0.0000 Cl  0  0  0  0  0  0  0  0  0  0  0  0
   -1.4289   -3.3000    0.0000 N   0  0  0  0  0  0  0  0  0  0  0  0
    0.4125   -2.3645    0.0000 O   0  0  0  0  0  0  0  0  0  0  0  0
  7  5  1  0  0  0  0
  8  6  2  0  0  0  0
 11  1  1  0  0  0  0
 11 10  1  0  0  0  0
 12  5  2  0  0  0  0
 12  6  1  0  0  0  0
 12  9  1  0  0  0  0
 13  7  2  0  0  0  0
 13  8  1  0  0  0  0
 14  2  1  0  0  0  0
 14  9  1  0  0  0  0
 14 11  1  0  0  0  0
 15 13  1  0  0  0  0
 16  3  1  0  0  0  0
 16  4  1  0  0  0  0
 16 10  1  0  0  0  0
 17 14  1  0  0  0  0
M  END
> <DATABASE_ID>
DB09004

> <DATABASE_NAME>
drugbank

> <SMILES>
CC(CN(C)C)C(C)(O)CC1=CC=C(Cl)C=C1

> <INCHI_IDENTIFIER>
InChI=1S/C14H22ClNO/c1-11(10-16(3)4)14(2,17)9-12-5-7-13(15)8-6-12/h5-8,11,17H,9-10H2,1-4H3

> <INCHI_KEY>
KVHHQGIIZCJATJ-UHFFFAOYSA-N

> <FORMULA>
C14H22ClNO

> <MOLECULAR_WEIGHT>
255.784

> <EXACT_MASS>
255.138992038

> <JCHEM_ACCEPTOR_COUNT>
2

> <JCHEM_AVERAGE_POLARIZABILITY>
28.85317005998315

> <JCHEM_BIOAVAILABILITY>
1

> <JCHEM_DONOR_COUNT>
1

> <JCHEM_FORMAL_CHARGE>
0

> <JCHEM_GHOSE_FILTER>
1

> <JCHEM_IUPAC>
1-(4-chlorophenyl)-4-(dimethylamino)-2,3-dimethylbutan-2-ol

> <ALOGPS_LOGP>
3.15

> <JCHEM_LOGP>
2.9968734889999995

> <ALOGPS_LOGS>
-2.68

> <JCHEM_MDDR_LIKE_RULE>
0

> <JCHEM_NUMBER_OF_RINGS>
1

> <JCHEM_PHYSIOLOGICAL_CHARGE>
1

> <JCHEM_PKA_STRONGEST_ACIDIC>
14.636906330307433

> <JCHEM_PKA_STRONGEST_BASIC>
9.412844860988665

> <JCHEM_POLAR_SURFACE_AREA>
23.47

> <JCHEM_REFRACTIVITY>
74.043

> <JCHEM_ROTATABLE_BOND_COUNT>
5

> <JCHEM_RULE_OF_FIVE>
1

> <ALOGPS_SOLUBILITY>
5.35e-01 g/l

> <JCHEM_TRADITIONAL_IUPAC>
iversal

> <JCHEM_VEBER_RULE>
1

> <DRUGBANK_ID>
DB09004

> <DRUG_GROUPS>
withdrawn

> <GENERIC_NAME>
Clobutinol

> <SALTS>
Clobutinol hydrochloride

$$$$

  Mrv0541 06191417162D          

 21 22  0  0  0  0            999 V2000
    0.1105    5.1414    0.0000 C   0  0  0  0  0  0  0  0  0  0  0  0
    3.4105    2.8875    0.0000 C   0  0  0  0  0  0  0  0  0  0  0  0
    2.1730    2.1730    0.0000 C   0  0  0  0  0  0  0  0  0  0  0  0
    0.1105    1.8414    0.0000 C   0  0  0  0  0  0  0  0  0  0  0  0
    0.8250    2.2539    0.0000 C   0  0  0  0  0  0  0  0  0  0  0  0
   -0.6039    2.2539    0.0000 C   0  0  0  0  0  0  0  0  0  0  0  0
    0.8250    3.0789    0.0000 C   0  0  0  0  0  0  0  0  0  0  0  0
   -0.6039    3.0789    0.0000 C   0  0  0  0  0  0  0  0  0  0  0  0
   -1.1269    5.0309    0.0000 C   0  0  0  0  0  0  0  0  0  0  0  0
   -1.1269    3.6019    0.0000 C   0  0  0  0  0  0  0  0  0  0  0  0
   -1.9519    5.0309    0.0000 C   0  0  0  0  0  0  0  0  0  0  0  0
   -1.9519    3.6019    0.0000 C   0  0  0  0  0  0  0  0  0  0  0  0
    2.1730    3.6019    0.0000 C   0  0  0  0  0  0  0  0  0  0  0  0
    1.3480    3.6019    0.0000 C   0  0  0  0  0  0  0  0  0  0  0  0
    0.1105    3.4914    0.0000 C   0  0  0  0  0  0  0  0  0  0  0  0
   -0.7144    4.3164    0.0000 C   0  0  0  0  0  0  0  0  0  0  0  0
   -2.3644    4.3164    0.0000 C   0  0  0  0  0  0  0  0  0  0  0  0
    0.1105    4.3164    0.0000 C   0  0  0  0  0  0  0  0  0  0  0  0
   -3.1894    4.3164    0.0000 Cl  0  0  0  0  0  0  0  0  0  0  0  0
    2.5855    2.8875    0.0000 N   0  0  0  0  0  0  0  0  0  0  0  0
    0.9355    4.3164    0.0000 O   0  0  0  0  0  0  0  0  0  0  0  0
  5  4  2  0  0  0  0
  6  4  1  0  0  0  0
  7  5  1  0  0  0  0
  8  6  2  0  0  0  0
 11  9  1  0  0  0  0
 12 10  2  0  0  0  0
 14 13  1  0  0  0  0
 15  7  2  0  0  0  0
 15  8  1  0  0  0  0
 16  9  2  0  0  0  0
 16 10  1  0  0  0  0
 17 11  2  0  0  0  0
 17 12  1  0  0  0  0
 18  1  1  0  0  0  0
 18 15  1  0  0  0  0
 18 16  1  0  0  0  0
 19 17  1  0  0  0  0
 20  2  1  0  0  0  0
 20  3  1  0  0  0  0
 20 13  1  0  0  0  0
 21 14  1  0  0  0  0
 21 18  1  0  0  0  0
M  END
> <DATABASE_ID>
DB09007

> <DATABASE_NAME>
drugbank

> <SMILES>
CN(C)CCOC(C)(C1=CC=CC=C1)C1=CC=C(Cl)C=C1

> <INCHI_IDENTIFIER>
InChI=1S/C18H22ClNO/c1-18(21-14-13-20(2)3,15-7-5-4-6-8-15)16-9-11-17(19)12-10-16/h4-12H,13-14H2,1-3H3

> <INCHI_KEY>
KKHPNPMTPORSQE-UHFFFAOYSA-N

> <FORMULA>
C18H22ClNO

> <MOLECULAR_WEIGHT>
303.826

> <EXACT_MASS>
303.138992038

> <JCHEM_ACCEPTOR_COUNT>
2

> <JCHEM_AVERAGE_POLARIZABILITY>
34.03136075683058

> <JCHEM_BIOAVAILABILITY>
1

> <JCHEM_DONOR_COUNT>
0

> <JCHEM_FORMAL_CHARGE>
0

> <JCHEM_GHOSE_FILTER>
1

> <JCHEM_IUPAC>
{2-[1-(4-chlorophenyl)-1-phenylethoxy]ethyl}dimethylamine

> <ALOGPS_LOGP>
4.45

> <JCHEM_LOGP>
4.397809001333334

> <ALOGPS_LOGS>
-4.72

> <JCHEM_MDDR_LIKE_RULE>
0

> <JCHEM_NUMBER_OF_RINGS>
2

> <JCHEM_PHYSIOLOGICAL_CHARGE>
1

> <JCHEM_PKA_STRONGEST_BASIC>
8.866470050489616

> <JCHEM_POLAR_SURFACE_AREA>
12.47

> <JCHEM_REFRACTIVITY>
89.571

> <JCHEM_ROTATABLE_BOND_COUNT>
6

> <JCHEM_RULE_OF_FIVE>
1

> <ALOGPS_SOLUBILITY>
5.82e-03 g/l

> <JCHEM_TRADITIONAL_IUPAC>
systral

> <JCHEM_VEBER_RULE>
1

> <DRUGBANK_ID>
DB09007

> <DRUG_GROUPS>
withdrawn

> <GENERIC_NAME>
Chlorphenoxamine

> <INTERNATIONAL_BRANDS>
Sistral; Systral

> <SALTS>
Chlorphenoxamine hydrochloride

$$$$

  Mrv0541 08131209382D          

 30 33  0  0  0  0            999 V2000
    5.9773    0.9760    0.0000 C   0  0  0  0  0  0  0  0  0  0  0  0
    5.9773    1.8010    0.0000 C   0  0  0  0  0  0  0  0  0  0  0  0
    5.2628    0.5635    0.0000 C   0  0  0  0  0  0  0  0  0  0  0  0
   -2.2177   -0.8440    0.0000 C   0  0  0  0  0  0  0  0  0  0  0  0
   -1.5258   -1.2933    0.0000 C   0  0  0  0  0  0  0  0  0  0  0  0
    5.2628    2.2135    0.0000 C   0  0  0  0  0  0  0  0  0  0  0  0
    4.5483    0.9760    0.0000 C   0  0  0  0  0  0  0  0  0  0  0  0
   -2.0042   -0.0471    0.0000 C   0  0  0  0  0  0  0  0  0  0  0  0
   -0.0877   -0.9876    0.0000 C   0  0  0  0  0  0  0  0  0  0  0  0
    3.8339    2.2135    0.0000 C   0  0  0  0  0  0  0  0  0  0  0  0
    3.1194    0.9760    0.0000 C   0  0  0  0  0  0  0  0  0  0  0  0
    3.1194    1.8010    0.0000 C   0  0  0  0  0  0  0  0  0  0  0  0
   -0.8846   -0.7741    0.0000 C   0  0  0  0  0  0  0  0  0  0  0  0
    0.4956   -0.4043    0.0000 C   0  0  0  0  0  0  0  0  0  0  0  0
    0.8655    0.9760    0.0000 C   0  0  2  0  0  0  0  0  0  0  0  0
    2.4049    2.2135    0.0000 C   0  0  0  0  0  0  0  0  0  0  0  0
    0.8655    1.8010    0.0000 C   0  0  0  0  0  0  0  0  0  0  0  0
    1.6905    0.9760    0.0000 C   0  0  2  0  0  0  0  0  0  0  0  0
    2.4049    3.0385    0.0000 C   0  0  0  0  0  0  0  0  0  0  0  0
    0.2821    0.3926    0.0000 N   0  0  0  0  0  0  0  0  0  0  0  0
    4.5483    1.8010    0.0000 N   0  3  0  0  0  0  0  0  0  0  0  0
    1.6905    1.8010    0.0000 N   0  0  0  0  0  0  0  0  0  0  0  0
    1.2925   -0.6178    0.0000 O   0  0  0  0  0  0  0  0  0  0  0  0
    0.2821    2.3843    0.0000 O   0  0  0  0  0  0  0  0  0  0  0  0
    1.6905    3.4510    0.0000 O   0  0  0  0  0  0  0  0  0  0  0  0
    3.1194    3.4510    0.0000 O   0  5  0  0  0  0  0  0  0  0  0  0
   -1.1803   -0.0039    0.0000 S   0  0  0  0  0  0  0  0  0  0  0  0
    2.4049    0.5635    0.0000 S   0  0  0  0  0  0  0  0  0  0  0  0
    0.1033    1.2917    0.0000 H   0  0  0  0  0  0  0  0  0  0  0  0
    1.4769    0.1791    0.0000 H   0  0  0  0  0  0  0  0  0  0  0  0
  2  1  2  0  0  0  0
  3  1  1  0  0  0  0
  5  4  1  0  0  0  0
  6  2  1  0  0  0  0
  7  3  2  0  0  0  0
  8  4  2  0  0  0  0
 12 10  1  0  0  0  0
 12 11  1  0  0  0  0
 13  5  2  0  0  0  0
 13  9  1  0  0  0  0
 14  9  1  0  0  0  0
 16 12  2  0  0  0  0
 17 15  1  0  0  0  0
 18 15  1  0  0  0  0
 19 16  1  0  0  0  0
 20 14  2  0  0  0  0
 15 20  1  6  0  0  0
 21  6  2  0  0  0  0
 21  7  1  0  0  0  0
 21 10  1  0  0  0  0
 22 16  1  0  0  0  0
 22 17  1  0  0  0  0
 22 18  1  0  0  0  0
 14 23  1  4  0  0  0
 24 17  2  0  0  0  0
 25 19  2  0  0  0  0
 26 19  1  0  0  0  0
 27  8  1  0  0  0  0
 27 13  1  0  0  0  0
 28 11  1  0  0  0  0
 28 18  1  0  0  0  0
 15 29  1  1  0  0  0
 18 30  1  1  0  0  0
M  CHG  2  21   1  26  -1
M  END
> <DATABASE_ID>
DB09008

> <DATABASE_NAME>
drugbank

> <SMILES>
[H][C@]12SCC(C[N+]3=CC=CC=C3)=C(N1C(=O)[C@@]2([H])N=C(O)CC1=CC=CS1)C([O-])=O

> <INCHI_IDENTIFIER>
InChI=1S/C19H17N3O4S2/c23-14(9-13-5-4-8-27-13)20-15-17(24)22-16(19(25)26)12(11-28-18(15)22)10-21-6-2-1-3-7-21/h1-8,15,18H,9-11H2,(H-,20,23,25,26)/t15-,18-/m1/s1

> <INCHI_KEY>
CZTQZXZIADLWOZ-CRAIPNDOSA-N

> <FORMULA>
C19H17N3O4S2

> <MOLECULAR_WEIGHT>
415.486

> <EXACT_MASS>
415.066047427

> <JCHEM_ACCEPTOR_COUNT>
5

> <JCHEM_AVERAGE_POLARIZABILITY>
41.487163034228416

> <JCHEM_BIOAVAILABILITY>
1

> <JCHEM_DONOR_COUNT>
1

> <JCHEM_FORMAL_CHARGE>
0

> <JCHEM_GHOSE_FILTER>
0

> <JCHEM_IUPAC>
1-{[(6R,7R)-2-carboxylato-7-{[1-hydroxy-2-(thiophen-2-yl)ethylidene]amino}-8-oxo-5-thia-1-azabicyclo[4.2.0]oct-2-en-3-yl]methyl}pyridin-1-ium

> <ALOGPS_LOGP>
-0.78

> <JCHEM_LOGP>
-2.2744662788050785

> <ALOGPS_LOGS>
-4.81

> <JCHEM_MDDR_LIKE_RULE>
1

> <JCHEM_NUMBER_OF_RINGS>
4

> <JCHEM_PHYSIOLOGICAL_CHARGE>
-1

> <JCHEM_PKA>
6.167036352754299

> <JCHEM_PKA_STRONGEST_ACIDIC>
3.2677238200677863

> <JCHEM_PKA_STRONGEST_BASIC>
-0.016566255740443014

> <JCHEM_POLAR_SURFACE_AREA>
96.91

> <JCHEM_REFRACTIVITY>
117.79649999999997

> <JCHEM_ROTATABLE_BOND_COUNT>
6

> <JCHEM_RULE_OF_FIVE>
1

> <ALOGPS_SOLUBILITY>
7.19e-03 g/l

> <JCHEM_TRADITIONAL_IUPAC>
deflorin

> <JCHEM_VEBER_RULE>
0

> <DRUGBANK_ID>
DB09008

> <DRUG_GROUPS>
approved; withdrawn

> <GENERIC_NAME>
Cephaloridine

> <SYNONYMS>
(6R,7R)-8-oxo-3-(pyridin-1-ium-1-ylmethyl)- 7-[(2-thiophen-2-ylacetyl)amino]-5-thia-1- azabicyclo[4.2.0]oct-2-ene-2-carboxylate; Cefaloridin; Cefaloridina; Céfaloridine; cefaloridine; Cefaloridinum; Cephalomycine

> <INTERNATIONAL_BRANDS>
Cephalin; Ceporan

$$$$

  Mrv0541 06201411042D          

 18 18  0  0  0  0            999 V2000
   -3.5723    5.3625    0.0000 C   0  0  0  0  0  0  0  0  0  0  0  0
   -2.8578    4.9500    0.0000 C   0  0  0  0  0  0  0  0  0  0  0  0
   -2.1434    5.3625    0.0000 C   0  0  0  0  0  0  0  0  0  0  0  0
   -1.4289    4.9500    0.0000 C   0  0  0  0  0  0  0  0  0  0  0  0
   -0.7144    5.3625    0.0000 C   0  0  0  0  0  0  0  0  0  0  0  0
    0.0000    4.9500    0.0000 C   0  0  0  0  0  0  0  0  0  0  0  0
    2.8578    4.9500    0.0000 C   0  0  0  0  0  0  0  0  0  0  0  0
    3.5723    5.3625    0.0000 C   0  0  0  0  0  0  0  0  0  0  0  0
    3.5723    6.1875    0.0000 C   0  0  0  0  0  0  0  0  0  0  0  0
    1.4289    4.9500    0.0000 C   0  0  0  0  0  0  0  0  0  0  0  0
    2.1434    6.1875    0.0000 C   0  0  0  0  0  0  0  0  0  0  0  0
    4.2868    4.9500    0.0000 F   0  0  0  0  0  0  0  0  0  0  0  0
    0.7144    5.3625    0.0000 N   0  0  0  0  0  0  0  0  0  0  0  0
    2.8578    6.6000    0.0000 N   0  0  0  0  0  0  0  0  0  0  0  0
    2.1434    5.3625    0.0000 N   0  0  0  0  0  0  0  0  0  0  0  0
    4.2868    6.6000    0.0000 O   0  0  0  0  0  0  0  0  0  0  0  0
    1.4289    4.1250    0.0000 O   0  0  0  0  0  0  0  0  0  0  0  0
    1.4289    6.6000    0.0000 O   0  0  0  0  0  0  0  0  0  0  0  0
  2  1  1  0  0  0  0
  3  2  1  0  0  0  0
  4  3  1  0  0  0  0
  5  4  1  0  0  0  0
  6  5  1  0  0  0  0
  8  7  2  0  0  0  0
  9  8  1  0  0  0  0
 12  8  1  0  0  0  0
 13  6  1  4  0  0  0
 13 10  2  0  0  0  0
 14  9  2  0  0  0  0
 14 11  1  0  0  0  0
 15  7  1  0  0  0  0
 15 10  1  0  0  0  0
 15 11  1  0  0  0  0
 16  9  1  0  0  0  0
 17 10  1  0  0  0  0
 18 11  2  0  0  0  0
M  END
> <DATABASE_ID>
DB09010

> <DATABASE_NAME>
drugbank

> <SMILES>
CCCCCCN=C(O)N1C=C(F)C(O)=NC1=O

> <INCHI_IDENTIFIER>
InChI=1S/C11H16FN3O3/c1-2-3-4-5-6-13-10(17)15-7-8(12)9(16)14-11(15)18/h7H,2-6H2,1H3,(H,13,17)(H,14,16,18)

> <INCHI_KEY>
AOCCBINRVIKJHY-UHFFFAOYSA-N

> <FORMULA>
C11H16FN3O3

> <MOLECULAR_WEIGHT>
257.2614

> <EXACT_MASS>
257.117569598

> <JCHEM_ACCEPTOR_COUNT>
5

> <JCHEM_AVERAGE_POLARIZABILITY>
25.844932341952404

> <JCHEM_BIOAVAILABILITY>
1

> <JCHEM_DONOR_COUNT>
2

> <JCHEM_FORMAL_CHARGE>
0

> <JCHEM_GHOSE_FILTER>
1

> <JCHEM_IUPAC>
5-fluoro-N-hexyl-4-hydroxy-2-oxo-1,2-dihydropyrimidine-1-carboximidic acid

> <ALOGPS_LOGP>
1.74

> <JCHEM_LOGP>
2.623032023666667

> <ALOGPS_LOGS>
-3.97

> <JCHEM_MDDR_LIKE_RULE>
0

> <JCHEM_NUMBER_OF_RINGS>
1

> <JCHEM_PHYSIOLOGICAL_CHARGE>
-2

> <JCHEM_PKA>
6.346913485785168

> <JCHEM_PKA_STRONGEST_ACIDIC>
5.54914244321593

> <JCHEM_PKA_STRONGEST_BASIC>
-4.917724012437623

> <JCHEM_POLAR_SURFACE_AREA>
85.49000000000001

> <JCHEM_REFRACTIVITY>
63.2305

> <JCHEM_ROTATABLE_BOND_COUNT>
5

> <JCHEM_RULE_OF_FIVE>
1

> <ALOGPS_SOLUBILITY>
2.73e-02 g/l

> <JCHEM_TRADITIONAL_IUPAC>
HCFU

> <JCHEM_VEBER_RULE>
0

> <DRUGBANK_ID>
DB09010

> <DRUG_GROUPS>
withdrawn

> <GENERIC_NAME>
Carmofur

> <INTERNATIONAL_BRANDS>
Mifurol

$$$$

  Mrv1572012161520492D          

 17 18  0  0  0  0            999 V2000
    2.5528   -1.3543    0.0000 O   0  0  0  0  0  0  0  0  0  0  0  0
   -0.6339    0.9260    0.0000 O   0  0  0  0  0  0  0  0  0  0  0  0
   -2.0634   -1.5545    0.0000 O   0  0  0  0  0  0  0  0  0  0  0  0
    2.2970    0.7647    0.0000 N   0  0  0  0  0  0  0  0  0  0  0  0
   -0.6339   -0.7257    0.0000 N   0  0  0  0  0  0  0  0  0  0  0  0
   -1.3515   -0.3142    0.0000 N   0  0  0  0  0  0  0  0  0  0  0  0
   -2.7809   -0.3142    0.0000 N   0  0  0  0  0  0  0  0  0  0  0  0
    1.5072   -0.3142    0.0000 C   0  0  0  0  0  0  0  0  0  0  0  0
    1.5072    0.5089    0.0000 C   0  0  0  0  0  0  0  0  0  0  0  0
    2.2970   -0.5700    0.0000 C   0  0  0  0  0  0  0  0  0  0  0  0
    0.0778   -0.3142    0.0000 C   0  0  0  0  0  0  0  0  0  0  0  0
    0.7953   -0.7257    0.0000 C   0  0  0  0  0  0  0  0  0  0  0  0
    0.0778    0.5089    0.0000 C   0  0  0  0  0  0  0  0  0  0  0  0
    0.7953    0.9260    0.0000 C   0  0  0  0  0  0  0  0  0  0  0  0
    2.7809    0.0973    0.0000 C   0  0  0  0  0  0  0  0  0  0  0  0
    2.5473    1.5545    0.0000 C   0  0  0  0  0  0  0  0  0  0  0  0
   -2.0634   -0.7313    0.0000 C   0  0  0  0  0  0  0  0  0  0  0  0
  1 10  1  0  0  0  0
  2 13  2  0  0  0  0
  3 17  2  0  0  0  0
  4  9  1  0  0  0  0
  4 15  1  0  0  0  0
  4 16  1  0  0  0  0
  5  6  1  0  0  0  0
  5 11  2  0  0  0  0
  6 17  1  0  0  0  0
  7 17  1  0  0  0  0
  8  9  1  0  0  0  0
  8 10  1  0  0  0  0
  8 12  2  0  0  0  0
  9 14  2  0  0  0  0
 10 15  1  0  0  0  0
 11 12  1  0  0  0  0
 11 13  1  0  0  0  0
 13 14  1  0  0  0  0
M  END
> <DATABASE_ID>
DB09012

> <DATABASE_NAME>
drugbank

> <SMILES>
CN1CC(O)C2=C\C(=N\NC(N)=O)C(=O)C=C12

> <INCHI_IDENTIFIER>
InChI=1S/C10H12N4O3/c1-14-4-9(16)5-2-6(12-13-10(11)17)8(15)3-7(5)14/h2-3,9,16H,4H2,1H3,(H3,11,13,17)/b12-6-

> <INCHI_KEY>
XSXCZNVKFKNLPR-SDQBBNPISA-N

> <FORMULA>
C10H12N4O3

> <MOLECULAR_WEIGHT>
236.231

> <EXACT_MASS>
236.090940262

> <JCHEM_ACCEPTOR_COUNT>
5

> <JCHEM_ATOM_COUNT>
29

> <JCHEM_AVERAGE_POLARIZABILITY>
23.088957709174483

> <JCHEM_BIOAVAILABILITY>
1

> <JCHEM_DONOR_COUNT>
3

> <JCHEM_FORMAL_CHARGE>
0

> <JCHEM_GHOSE_FILTER>
0

> <JCHEM_IUPAC>
{[(5Z)-3-hydroxy-1-methyl-6-oxo-2,3,5,6-tetrahydro-1H-indol-5-ylidene]amino}urea

> <ALOGPS_LOGP>
-0.47

> <JCHEM_LOGP>
-1.2234083796666664

> <ALOGPS_LOGS>
-1.91

> <JCHEM_MDDR_LIKE_RULE>
0

> <JCHEM_NUMBER_OF_RINGS>
2

> <JCHEM_PHYSIOLOGICAL_CHARGE>
0

> <JCHEM_PKA>
14.125876783565523

> <JCHEM_PKA_STRONGEST_ACIDIC>
11.640177343591024

> <JCHEM_PKA_STRONGEST_BASIC>
1.9761649317534462

> <JCHEM_POLAR_SURFACE_AREA>
108.02

> <JCHEM_REFRACTIVITY>
62.1557

> <JCHEM_ROTATABLE_BOND_COUNT>
1

> <JCHEM_RULE_OF_FIVE>
1

> <ALOGPS_SOLUBILITY>
2.91e+00 g/l

> <JCHEM_TRADITIONAL_IUPAC>
carbazochrome

> <JCHEM_VEBER_RULE>
0

> <DRUGBANK_ID>
DB09012

> <DRUG_GROUPS>
approved; investigational; withdrawn

> <GENERIC_NAME>
Carbazochrome

> <SYNONYMS>
3-Hydroxy-1-methyl-5,6-inodlindionsemicarbazon; Adchnon; Adedolon; Adrenostan; Carbazochrom; Carbazochromum; Carbazocromo; EINECS 200-717-0; NSC 73742

> <INTERNATIONAL_BRANDS>
Adcar AC; Adona; Adonamin; Adrenochrome; Adrenoxil; Adrome; Almetex; Anaroxyl; Auzei; Carbajust; Chichina; Chromazol; Crome; Cromin's; Di Ka Ning; Fleboside; Fleboton; Ge Dan; Hemosin K; Le Ka Ning; Le Zhi Na; Luoye; Na Neng; Odanon; Ophthalm K; Ranobi; Styptochrome; Su Bo Te; Tai Si Neng; Toxivenol; Velchrome; Xue Yi Ting

$$$$

  Mrv1572004121615042D          

 29 32  0  0  0  0            999 V2000
    3.2547   -0.1813    0.0000 O   0  0  0  0  0  0  0  0  0  0  0  0
   -3.2546   -1.1710    0.0000 O   0  0  0  0  0  0  0  0  0  0  0  0
    0.8387    2.0389    0.0000 O   0  0  0  0  0  0  0  0  0  0  0  0
    2.2640    2.1420    0.0000 O   0  0  0  0  0  0  0  0  0  0  0  0
    1.6179   -0.2997    0.0000 C   0  0  1  0  0  0  0  0  0  0  0  0
    1.3377   -1.0756    0.0000 C   0  0  2  0  0  0  0  0  0  0  0  0
    2.4426   -0.3265    0.0000 C   0  0  2  0  0  0  0  0  0  0  0  0
    0.5256   -1.2208    0.0000 C   0  0  1  0  0  0  0  0  0  0  0  0
   -0.0062   -0.5901    0.0000 C   0  0  1  0  0  0  0  0  0  0  0  0
   -0.8184   -0.7353    0.0000 C   0  0  2  0  0  0  0  0  0  0  0  0
    1.0862    0.3309    0.0000 C   0  0  0  0  0  0  0  0  0  0  0  0
    1.9890   -1.5820    0.0000 C   0  0  0  0  0  0  0  0  0  0  0  0
    2.6719   -1.1190    0.0000 C   0  0  0  0  0  0  0  0  0  0  0  0
   -1.0986   -1.5112    0.0000 C   0  0  0  0  0  0  0  0  0  0  0  0
    0.2740    0.1857    0.0000 C   0  0  0  0  0  0  0  0  0  0  0  0
    0.2452   -1.9967    0.0000 C   0  0  0  0  0  0  0  0  0  0  0  0
    2.3830    0.4963    0.0000 C   0  0  0  0  0  0  0  0  0  0  0  0
    1.9779    0.4426    0.0000 C   0  0  0  0  0  0  0  0  0  0  0  0
   -0.5668   -2.1420    0.0000 C   0  0  0  0  0  0  0  0  0  0  0  0
   -1.3501   -0.1046    0.0000 C   0  0  0  0  0  0  0  0  0  0  0  0
   -1.9108   -1.6565    0.0000 C   0  0  0  0  0  0  0  0  0  0  0  0
   -0.5380    0.0405    0.0000 C   0  0  0  0  0  0  0  0  0  0  0  0
   -2.4425   -1.0258    0.0000 C   0  0  0  0  0  0  0  0  0  0  0  0
   -2.1622   -0.2498    0.0000 C   0  0  0  0  0  0  0  0  0  0  0  0
    1.6406    0.8561    0.0000 C   0  0  0  0  0  0  0  0  0  0  0  0
    1.5811    1.6790    0.0000 C   0  0  0  0  0  0  0  0  0  0  0  0
   -0.6508    0.1743    0.0000 H   0  0  0  0  0  0  0  0  0  0  0  0
    1.1701   -1.9853    0.0000 H   0  0  0  0  0  0  0  0  0  0  0  0
    1.0981   -2.0465    0.0000 H   0  0  0  0  0  0  0  0  0  0  0  0
  7  1  1  1  0  0  0
  2 23  2  0  0  0  0
  3 26  1  0  0  0  0
  4 26  2  0  0  0  0
  5  6  1  0  0  0  0
  5  7  1  0  0  0  0
  5 11  1  0  0  0  0
  5 18  1  1  0  0  0
  6  8  1  0  0  0  0
  6 12  1  0  0  0  0
  7 13  1  0  0  0  0
  7 17  1  0  0  0  0
  8  9  1  0  0  0  0
  8 16  1  0  0  0  0
  9 10  1  0  0  0  0
  9 15  1  0  0  0  0
 10 14  1  0  0  0  0
 10 20  1  0  0  0  0
 10 22  1  1  0  0  0
 11 15  1  0  0  0  0
 12 13  1  0  0  0  0
 14 19  1  0  0  0  0
 14 21  2  0  0  0  0
 16 19  2  0  0  0  0
 17 25  1  0  0  0  0
 20 24  1  0  0  0  0
 21 23  1  0  0  0  0
 23 24  1  0  0  0  0
 25 26  1  0  0  0  0
  9 27  1  6  0  0  0
  8 28  1  1  0  0  0
  6 29  1  6  0  0  0
M  END
> <DATABASE_ID>
DB09015

> <DATABASE_NAME>
drugbank

> <SMILES>
[H][C@@]12CC[C@@](O)(CCC(O)=O)[C@@]1(C)CC[C@@]1([H])[C@@]2([H])C=CC2=CC(=O)CC[C@]12C

> <INCHI_IDENTIFIER>
InChI=1S/C22H30O4/c1-20-9-5-15(23)13-14(20)3-4-16-17(20)6-10-21(2)18(16)7-11-22(21,26)12-8-19(24)25/h3-4,13,16-18,26H,5-12H2,1-2H3,(H,24,25)/t16-,17+,18+,20+,21+,22-/m1/s1

> <INCHI_KEY>
PBKZPPIHUVSDNM-WNHSNXHDSA-N

> <FORMULA>
C22H30O4

> <MOLECULAR_WEIGHT>
358.478

> <EXACT_MASS>
358.214409446

> <JCHEM_ACCEPTOR_COUNT>
4

> <JCHEM_ATOM_COUNT>
56

> <JCHEM_AVERAGE_POLARIZABILITY>
40.435559646023094

> <JCHEM_BIOAVAILABILITY>
1

> <JCHEM_DONOR_COUNT>
2

> <JCHEM_FORMAL_CHARGE>
0

> <JCHEM_GHOSE_FILTER>
1

> <JCHEM_IUPAC>
3-[(1S,2R,10R,11S,14R,15S)-14-hydroxy-2,15-dimethyl-5-oxotetracyclo[8.7.0.0²,⁷.0¹¹,¹⁵]heptadeca-6,8-dien-14-yl]propanoic acid

> <ALOGPS_LOGP>
2.73

> <JCHEM_LOGP>
2.9309276043333328

> <ALOGPS_LOGS>
-3.91

> <JCHEM_MDDR_LIKE_RULE>
0

> <JCHEM_NUMBER_OF_RINGS>
4

> <JCHEM_PHYSIOLOGICAL_CHARGE>
-1

> <JCHEM_PKA>
14.367694604152305

> <JCHEM_PKA_STRONGEST_ACIDIC>
4.480851365704696

> <JCHEM_PKA_STRONGEST_BASIC>
-3.0880352144492083

> <JCHEM_POLAR_SURFACE_AREA>
74.6

> <JCHEM_REFRACTIVITY>
100.975

> <JCHEM_ROTATABLE_BOND_COUNT>
3

> <JCHEM_RULE_OF_FIVE>
1

> <ALOGPS_SOLUBILITY>
4.42e-02 g/l

> <JCHEM_TRADITIONAL_IUPAC>
canrenoic acid

> <JCHEM_VEBER_RULE>
0

> <DRUGBANK_ID>
DB09015

> <DRUG_GROUPS>
approved; withdrawn

> <GENERIC_NAME>
Canrenoic acid

> <SYNONYMS>
Canrenoate

> <INTERNATIONAL_BRANDS>
Soludactone

> <SALTS>
Potassium canrenoate

$$$$

  Mrv0541 06231413442D          

 22 25  0  0  0  0            999 V2000
    1.7099   -2.4055    0.0000 C   0  0  0  0  0  0  0  0  0  0  0  0
    5.0883    1.2320    0.0000 C   0  0  0  0  0  0  0  0  0  0  0  0
    4.9654    2.0478    0.0000 C   0  0  0  0  0  0  0  0  0  0  0  0
    4.4433    0.7176    0.0000 C   0  0  0  0  0  0  0  0  0  0  0  0
    4.1974    2.3492    0.0000 C   0  0  0  0  0  0  0  0  0  0  0  0
    3.9863   -0.5894    0.0000 C   0  0  0  0  0  0  0  0  0  0  0  0
    1.5437    0.5047    0.0000 C   0  0  0  0  0  0  0  0  0  0  0  0
    1.4200   -1.6331    0.0000 C   0  0  0  0  0  0  0  0  0  0  0  0
    3.6753    1.0190    0.0000 C   0  0  0  0  0  0  0  0  0  0  0  0
    3.2139   -0.2996    0.0000 C   0  0  0  0  0  0  0  0  0  0  0  0
    3.5524    1.8348    0.0000 C   0  0  0  0  0  0  0  0  0  0  0  0
    3.9493   -1.4136    0.0000 C   0  0  0  0  0  0  0  0  0  0  0  0
    1.3602   -0.2996    0.0000 C   0  0  0  0  0  0  0  0  0  0  0  0
    3.0303    0.5047    0.0000 C   0  0  0  0  0  0  0  0  0  0  0  0
    2.6995   -0.9446    0.0000 C   0  0  0  0  0  0  0  0  0  0  0  0
    4.5943   -1.9280    0.0000 Br  0  0  0  0  0  0  0  0  0  0  0  0
    2.7844    2.1362    0.0000 Cl  0  0  0  0  0  0  0  0  0  0  0  0
    2.2870    0.8626    0.0000 N   0  0  0  0  0  0  0  0  0  0  0  0
    0.6248   -1.4136    0.0000 N   0  0  0  0  0  0  0  0  0  0  0  0
    0.5878   -0.5894    0.0000 N   0  0  0  0  0  0  0  0  0  0  0  0
    1.8745   -0.9446    0.0000 N   0  0  0  0  0  0  0  0  0  0  0  0
    3.1540   -1.6331    0.0000 S   0  0  0  0  0  0  0  0  0  0  0  0
  3  2  2  0  0  0  0
  4  2  1  0  0  0  0
  5  3  1  0  0  0  0
  8  1  1  0  0  0  0
  9  4  2  0  0  0  0
 10  6  1  0  0  0  0
 11  5  2  0  0  0  0
 11  9  1  0  0  0  0
 12  6  2  0  0  0  0
 13  7  1  0  0  0  0
 14  9  1  0  0  0  0
 14 10  1  0  0  0  0
 15 10  2  0  0  0  0
 16 12  1  0  0  0  0
 17 11  1  0  0  0  0
 18  7  1  0  0  0  0
 18 14  2  0  0  0  0
 19  8  2  0  0  0  0
 20 13  2  0  0  0  0
 20 19  1  0  0  0  0
 21  8  1  0  0  0  0
 21 13  1  0  0  0  0
 21 15  1  0  0  0  0
 22 12  1  0  0  0  0
 22 15  1  0  0  0  0
M  END
> <DATABASE_ID>
DB09017

> <DATABASE_NAME>
drugbank

> <SMILES>
CC1=NN=C2CN=C(C3=C(SC(Br)=C3)N12)C1=CC=CC=C1Cl

> <INCHI_IDENTIFIER>
InChI=1S/C15H10BrClN4S/c1-8-19-20-13-7-18-14(9-4-2-3-5-11(9)17)10-6-12(16)22-15(10)21(8)13/h2-6H,7H2,1H3

> <INCHI_KEY>
UMSGKTJDUHERQW-UHFFFAOYSA-N

> <FORMULA>
C15H10BrClN4S

> <MOLECULAR_WEIGHT>
393.689

> <EXACT_MASS>
391.949807384

> <JCHEM_ACCEPTOR_COUNT>
3

> <JCHEM_AVERAGE_POLARIZABILITY>
34.98556181117153

> <JCHEM_BIOAVAILABILITY>
1

> <JCHEM_DONOR_COUNT>
0

> <JCHEM_FORMAL_CHARGE>
0

> <JCHEM_GHOSE_FILTER>
1

> <JCHEM_IUPAC>
4-bromo-7-(2-chlorophenyl)-13-methyl-3-thia-1,8,11,12-tetraazatricyclo[8.3.0.0²,⁶]trideca-2(6),4,7,10,12-pentaene

> <ALOGPS_LOGP>
3.28

> <JCHEM_LOGP>
2.6843000000000004

> <ALOGPS_LOGS>
-3.83

> <JCHEM_MDDR_LIKE_RULE>
0

> <JCHEM_NUMBER_OF_RINGS>
4

> <JCHEM_PHYSIOLOGICAL_CHARGE>
0

> <JCHEM_PKA_STRONGEST_ACIDIC>
18.492390851771827

> <JCHEM_PKA_STRONGEST_BASIC>
3.8993857084013577

> <JCHEM_POLAR_SURFACE_AREA>
43.07

> <JCHEM_REFRACTIVITY>
101.92739999999999

> <JCHEM_ROTATABLE_BOND_COUNT>
1

> <JCHEM_RULE_OF_FIVE>
1

> <ALOGPS_SOLUBILITY>
5.80e-02 g/l

> <JCHEM_TRADITIONAL_IUPAC>
brotizolam

> <JCHEM_VEBER_RULE>
0

> <DRUGBANK_ID>
DB09017

> <DRUG_GROUPS>
approved; withdrawn

> <GENERIC_NAME>
Brotizolam

> <SYNONYMS>
Brotizolam; Brotizolamum

> <INTERNATIONAL_BRANDS>
Amnezon; Bondormin; Brometon; Brotizolam M; Dormex; Eurimolan; Goodmin; Lendorm; Lendormin; Lindormin; Nestrom; Noctilan; Noxtal; Ronfleman; Sintonal; Sorentmin; Zestromin

$$$$

  Mrv0541 06251410192D          

 25 26  0  0  0  0            999 V2000
    7.8591   -2.8875    0.0000 C   0  0  0  0  0  0  0  0  0  0  0  0
    2.1434   -2.8875    0.0000 C   0  0  0  0  0  0  0  0  0  0  0  0
    2.1434   -3.7125    0.0000 C   0  0  0  0  0  0  0  0  0  0  0  0
    2.8578   -2.4750    0.0000 C   0  0  0  0  0  0  0  0  0  0  0  0
   10.0025   -2.4750    0.0000 C   0  0  0  0  0  0  0  0  0  0  0  0
    9.2881   -2.8875    0.0000 C   0  0  0  0  0  0  0  0  0  0  0  0
    2.8578   -4.1250    0.0000 C   0  0  0  0  0  0  0  0  0  0  0  0
    3.5723   -2.8875    0.0000 C   0  0  0  0  0  0  0  0  0  0  0  0
   10.7170   -2.8875    0.0000 C   0  0  0  0  0  0  0  0  0  0  0  0
    6.4302   -3.7125    0.0000 C   0  0  0  0  0  0  0  0  0  0  0  0
    5.7157   -4.1250    0.0000 C   0  0  0  0  0  0  0  0  0  0  0  0
    8.5736   -4.1250    0.0000 C   0  0  0  0  0  0  0  0  0  0  0  0
   10.0025   -4.1250    0.0000 C   0  0  0  0  0  0  0  0  0  0  0  0
    7.8591   -3.7125    0.0000 C   0  0  0  0  0  0  0  0  0  0  0  0
    9.2881   -3.7125    0.0000 C   0  0  0  0  0  0  0  0  0  0  0  0
    3.5723   -3.7125    0.0000 C   0  0  0  0  0  0  0  0  0  0  0  0
   10.7170   -3.7125    0.0000 C   0  0  0  0  0  0  0  0  0  0  0  0
    4.2868   -4.1250    0.0000 C   0  0  0  0  0  0  0  0  0  0  0  0
   11.4315   -4.1250    0.0000 C   0  0  0  0  0  0  0  0  0  0  0  0
   12.1460   -4.5375    0.0000 F   0  0  0  0  0  0  0  0  0  0  0  0
   11.0190   -4.8394    0.0000 F   0  0  0  0  0  0  0  0  0  0  0  0
   11.8440   -3.4105    0.0000 F   0  0  0  0  0  0  0  0  0  0  0  0
    7.1447   -4.1250    0.0000 N   0  0  0  0  0  0  0  0  0  0  0  0
    4.2868   -4.9500    0.0000 O   0  0  0  0  0  0  0  0  0  0  0  0
    5.0012   -3.7125    0.0000 O   0  0  0  0  0  0  0  0  0  0  0  0
  3  2  2  0  0  0  0
  4  2  1  0  0  0  0
  6  5  2  0  0  0  0
  7  3  1  0  0  0  0
  8  4  2  0  0  0  0
  9  5  1  0  0  0  0
 11 10  1  0  0  0  0
 14  1  1  0  0  0  0
 14 12  1  0  0  0  0
 15  6  1  0  0  0  0
 15 12  1  0  0  0  0
 15 13  2  0  0  0  0
 16  7  2  0  0  0  0
 16  8  1  0  0  0  0
 17  9  2  0  0  0  0
 17 13  1  0  0  0  0
 18 16  1  0  0  0  0
 19 17  1  0  0  0  0
 20 19  1  0  0  0  0
 21 19  1  0  0  0  0
 22 19  1  0  0  0  0
 23 10  1  0  0  0  0
 23 14  1  0  0  0  0
 24 18  2  0  0  0  0
 25 11  1  0  0  0  0
 25 18  1  0  0  0  0
M  END
> <DATABASE_ID>
DB09022

> <DATABASE_NAME>
drugbank

> <SMILES>
CC(CC1=CC(=CC=C1)C(F)(F)F)NCCOC(=O)C1=CC=CC=C1

> <INCHI_IDENTIFIER>
InChI=1S/C19H20F3NO2/c1-14(12-15-6-5-9-17(13-15)19(20,21)22)23-10-11-25-18(24)16-7-3-2-4-8-16/h2-9,13-14,23H,10-12H2,1H3

> <INCHI_KEY>
CJAVTWRYCDNHSM-UHFFFAOYSA-N

> <FORMULA>
C19H20F3NO2

> <MOLECULAR_WEIGHT>
351.3628

> <EXACT_MASS>
351.144613504

> <JCHEM_ACCEPTOR_COUNT>
2

> <JCHEM_AVERAGE_POLARIZABILITY>
34.83144841578906

> <JCHEM_BIOAVAILABILITY>
1

> <JCHEM_DONOR_COUNT>
1

> <JCHEM_FORMAL_CHARGE>
0

> <JCHEM_GHOSE_FILTER>
1

> <JCHEM_IUPAC>
2-({1-[3-(trifluoromethyl)phenyl]propan-2-yl}amino)ethyl benzoate

> <ALOGPS_LOGP>
4.26

> <JCHEM_LOGP>
4.919877193666667

> <ALOGPS_LOGS>
-5.44

> <JCHEM_MDDR_LIKE_RULE>
0

> <JCHEM_NUMBER_OF_RINGS>
2

> <JCHEM_PHYSIOLOGICAL_CHARGE>
1

> <JCHEM_PKA_STRONGEST_BASIC>
9.142427987044945

> <JCHEM_POLAR_SURFACE_AREA>
38.33

> <JCHEM_REFRACTIVITY>
90.5678

> <JCHEM_ROTATABLE_BOND_COUNT>
9

> <JCHEM_RULE_OF_FIVE>
1

> <ALOGPS_SOLUBILITY>
1.28e-03 g/l

> <JCHEM_TRADITIONAL_IUPAC>
benfluorex

> <JCHEM_VEBER_RULE>
1

> <DRUGBANK_ID>
DB09022

> <DRUG_GROUPS>
withdrawn

> <GENERIC_NAME>
Benfluorex

> <SYNONYMS>
Benfluorexum

> <INTERNATIONAL_BRANDS>
Axal; Lipascor; Mediaxal; Mediaxal

> <SALTS>
Benfluorex Hydrochloride

$$$$

  Mrv0541 06251410322D          

 24 25  0  0  0  0            999 V2000
    3.6019   -0.9059    0.0000 C   0  0  0  0  0  0  0  0  0  0  0  0
    5.7453    0.3315    0.0000 C   0  0  0  0  0  0  0  0  0  0  0  0
    4.3164   -1.3184    0.0000 C   0  0  0  0  0  0  0  0  0  0  0  0
    5.0309   -0.0809    0.0000 C   0  0  0  0  0  0  0  0  0  0  0  0
   10.7466   -2.5559    0.0000 C   0  0  0  0  0  0  0  0  0  0  0  0
    9.8407    0.8250    0.0000 C   0  0  0  0  0  0  0  0  0  0  0  0
   10.7466   -1.7309    0.0000 C   0  0  0  0  0  0  0  0  0  0  0  0
   10.0322   -2.9684    0.0000 C   0  0  0  0  0  0  0  0  0  0  0  0
    9.0157    0.8250    0.0000 C   0  0  0  0  0  0  0  0  0  0  0  0
   10.2532    0.1105    0.0000 C   0  0  0  0  0  0  0  0  0  0  0  0
   10.0322   -1.3184    0.0000 C   0  0  0  0  0  0  0  0  0  0  0  0
    9.3177   -2.5559    0.0000 C   0  0  0  0  0  0  0  0  0  0  0  0
    8.6032    0.1105    0.0000 C   0  0  0  0  0  0  0  0  0  0  0  0
    9.8407   -0.6039    0.0000 C   0  0  0  0  0  0  0  0  0  0  0  0
    5.7453   -1.3184    0.0000 C   0  0  0  0  0  0  0  0  0  0  0  0
    6.4598   -0.9059    0.0000 C   0  0  0  0  0  0  0  0  0  0  0  0
    9.3177   -1.7309    0.0000 C   0  0  0  0  0  0  0  0  0  0  0  0
    9.0157   -0.6039    0.0000 C   0  0  0  0  0  0  0  0  0  0  0  0
    7.8887   -0.9059    0.0000 C   0  0  0  0  0  0  0  0  0  0  0  0
    8.6032   -1.3184    0.0000 C   0  0  0  0  0  0  0  0  0  0  0  0
    5.0309   -0.9059    0.0000 N   0  0  0  0  0  0  0  0  0  0  0  0
    7.8887   -0.0809    0.0000 O   0  0  0  0  0  0  0  0  0  0  0  0
    8.1907   -2.0328    0.0000 O   0  0  0  0  0  0  0  0  0  0  0  0
    7.1743   -1.3184    0.0000 O   0  0  0  0  0  0  0  0  0  0  0  0
  3  1  1  0  0  0  0
  4  2  1  0  0  0  0
  7  5  2  0  0  0  0
  8  5  1  0  0  0  0
  9  6  2  0  0  0  0
 10  6  1  0  0  0  0
 11  7  1  0  0  0  0
 12  8  2  0  0  0  0
 13  9  1  0  0  0  0
 14 10  2  0  0  0  0
 16 15  1  0  0  0  0
 17 11  2  0  0  0  0
 17 12  1  0  0  0  0
 18 13  2  0  0  0  0
 18 14  1  0  0  0  0
 20 17  1  0  0  0  0
 20 18  1  0  0  0  0
 20 19  1  0  0  0  0
 21  3  1  0  0  0  0
 21  4  1  0  0  0  0
 21 15  1  0  0  0  0
 22 19  2  0  0  0  0
 23 20  1  0  0  0  0
 24 16  1  0  0  0  0
 24 19  1  0  0  0  0
M  END
> <DATABASE_ID>
DB09023

> <DATABASE_NAME>
drugbank

> <SMILES>
CCN(CC)CCOC(=O)C(O)(C1=CC=CC=C1)C1=CC=CC=C1

> <INCHI_IDENTIFIER>
InChI=1S/C20H25NO3/c1-3-21(4-2)15-16-24-19(22)20(23,17-11-7-5-8-12-17)18-13-9-6-10-14-18/h5-14,23H,3-4,15-16H2,1-2H3

> <INCHI_KEY>
IVQOFBKHQCTVQV-UHFFFAOYSA-N

> <FORMULA>
C20H25NO3

> <MOLECULAR_WEIGHT>
327.4174

> <EXACT_MASS>
327.183443671

> <JCHEM_ACCEPTOR_COUNT>
3

> <JCHEM_AVERAGE_POLARIZABILITY>
36.65348549215912

> <JCHEM_BIOAVAILABILITY>
1

> <JCHEM_DONOR_COUNT>
1

> <JCHEM_FORMAL_CHARGE>
0

> <JCHEM_GHOSE_FILTER>
1

> <JCHEM_IUPAC>
2-(diethylamino)ethyl 2-hydroxy-2,2-diphenylacetate

> <ALOGPS_LOGP>
3.45

> <JCHEM_LOGP>
3.4357015756666662

> <ALOGPS_LOGS>
-3.24

> <JCHEM_MDDR_LIKE_RULE>
0

> <JCHEM_NUMBER_OF_RINGS>
2

> <JCHEM_PHYSIOLOGICAL_CHARGE>
1

> <JCHEM_PKA_STRONGEST_ACIDIC>
11.053893137562184

> <JCHEM_PKA_STRONGEST_BASIC>
8.958430015210082

> <JCHEM_POLAR_SURFACE_AREA>
49.77000000000001

> <JCHEM_REFRACTIVITY>
95.7675

> <JCHEM_ROTATABLE_BOND_COUNT>
9

> <JCHEM_RULE_OF_FIVE>
1

> <ALOGPS_SOLUBILITY>
1.88e-01 g/l

> <JCHEM_TRADITIONAL_IUPAC>
benactyzine

> <JCHEM_VEBER_RULE>
0

> <DRUGBANK_ID>
DB09023

> <DRUG_GROUPS>
withdrawn

> <GENERIC_NAME>
Benactyzine

> <INTERNATIONAL_BRANDS>
Cedad; Cevanol; Deprol; Lucidil; Morcain; Nutinal; Parasan; Phebex; Phobex; Suavitil

$$$$
 
  Mrv1572009151516302D          

 17 17  0  0  0  0            999 V2000
   24.3844  -17.6218    0.0000 C   0  0  0  0  0  0  0  0  0  0  0  0
   24.3844  -18.4583    0.0000 C   0  0  0  0  0  0  0  0  0  0  0  0
   25.1373  -18.8766    0.0000 C   0  0  0  0  0  0  0  0  0  0  0  0
   25.8483  -18.4583    0.0000 C   0  0  0  0  0  0  0  0  0  0  0  0
   25.8483  -17.6218    0.0000 C   0  0  0  0  0  0  0  0  0  0  0  0
   25.1373  -17.2035    0.0000 C   0  0  0  0  0  0  0  0  0  0  0  0
   26.5595  -18.8766    0.0000 C   0  0  0  0  0  0  0  0  0  0  0  0
   27.3123  -18.4583    0.0000 O   0  0  0  0  0  0  0  0  0  0  0  0
   28.0233  -18.8766    0.0000 C   0  0  0  0  0  0  0  0  0  0  0  0
   28.7345  -18.4583    0.0000 C   0  0  0  0  0  0  0  0  0  0  0  0
   29.4873  -18.8766    0.0000 N   0  0  0  0  0  0  0  0  0  0  0  0
   30.1983  -18.4583    0.0000 C   0  0  0  0  0  0  0  0  0  0  0  0
   26.5595  -19.7131    0.0000 O   0  0  0  0  0  0  0  0  0  0  0  0
   27.3123  -19.2948    0.0000 C   0  0  0  0  0  0  0  0  0  0  0  0
   28.7345  -19.2948    0.0000 C   0  0  0  0  0  0  0  0  0  0  0  0
   29.4873  -19.7131    0.0000 C   0  0  0  0  0  0  0  0  0  0  0  0
   27.3123  -20.1314    0.0000 C   0  0  0  0  0  0  0  0  0  0  0  0
  1  2  2  0  0  0  0
  2  3  1  0  0  0  0
  3  4  2  0  0  0  0
  4  5  1  0  0  0  0
  5  6  2  0  0  0  0
  1  6  1  0  0  0  0
  4  7  1  0  0  0  0
  7  8  1  0  0  0  0
  8  9  1  0  0  0  0
  9 10  1  0  0  0  0
 10 11  1  0  0  0  0
 11 12  1  0  0  0  0
  7 13  2  0  0  0  0
  9 14  1  0  0  0  0
  9 15  1  0  0  0  0
 11 16  1  0  0  0  0
 14 17  1  0  0  0  0
M  END
> <DATABASE_ID>
DB09088

> <DATABASE_NAME>
drugbank

> <SMILES>
CCC(C)(CN(C)C)OC(=O)C1=CC=CC=C1

> <INCHI_IDENTIFIER>
InChI=1S/C14H21NO2/c1-5-14(2,11-15(3)4)17-13(16)12-9-7-6-8-10-12/h6-10H,5,11H2,1-4H3

> <INCHI_KEY>
FDMBBCOBEAVDAO-UHFFFAOYSA-N

> <FORMULA>
C14H21NO2

> <MOLECULAR_WEIGHT>
235.327

> <EXACT_MASS>
235.15722892

> <JCHEM_ACCEPTOR_COUNT>
2

> <JCHEM_ATOM_COUNT>
38

> <JCHEM_AVERAGE_POLARIZABILITY>
26.96387978154298

> <JCHEM_BIOAVAILABILITY>
1

> <JCHEM_DONOR_COUNT>
0

> <JCHEM_FORMAL_CHARGE>
0

> <JCHEM_GHOSE_FILTER>
1

> <JCHEM_IUPAC>
1-(dimethylamino)-2-methylbutan-2-yl benzoate

> <ALOGPS_LOGP>
2.73

> <JCHEM_LOGP>
3.215041390333333

> <ALOGPS_LOGS>
-2.34

> <JCHEM_MDDR_LIKE_RULE>
0

> <JCHEM_NUMBER_OF_RINGS>
1

> <JCHEM_PHYSIOLOGICAL_CHARGE>
1

> <JCHEM_PKA_STRONGEST_BASIC>
8.909710297659004

> <JCHEM_POLAR_SURFACE_AREA>
29.54

> <JCHEM_REFRACTIVITY>
69.68340000000002

> <JCHEM_ROTATABLE_BOND_COUNT>
6

> <JCHEM_RULE_OF_FIVE>
1

> <ALOGPS_SOLUBILITY>
1.06e+00 g/l

> <JCHEM_TRADITIONAL_IUPAC>
stovaine

> <JCHEM_VEBER_RULE>
1

> <DRUGBANK_ID>
DB09088

> <DRUG_GROUPS>
withdrawn

> <GENERIC_NAME>
Amylocaine

> <PRODUCTS>
Dentition Sirop De; Rhino Mex

> <SALTS>
Amylocaine hydrochloride

$$$$

  Mrv1572009221517492D          

 13 13  0  0  0  0            999 V2000
    2.1454    0.8216    0.0000 Au  0  0  0  0  0  0  0  0  0  0  0  0
    1.4331    1.2379    0.0000 S   0  0  0  0  0  0  0  0  0  0  0  0
    0.0042    1.2379    0.0000 O   0  0  0  0  0  0  0  0  0  0  0  0
    1.4331   -0.4140    0.0000 O   0  0  0  0  0  0  0  0  0  0  0  0
    0.0042   -1.2379    0.0000 O   0  0  0  0  0  0  0  0  0  0  0  0
   -1.4288   -0.4140    0.0000 O   0  0  0  0  0  0  0  0  0  0  0  0
   -2.1454    0.8259    0.0000 O   0  0  0  0  0  0  0  0  0  0  0  0
    0.7165   -0.0021    0.0000 C   0  0  2  0  0  0  0  0  0  0  0  0
    0.0042   -0.4140    0.0000 C   0  0  2  0  0  0  0  0  0  0  0  0
    0.7165    0.8216    0.0000 C   0  0  1  0  0  0  0  0  0  0  0  0
   -0.7123   -0.0021    0.0000 C   0  0  1  0  0  0  0  0  0  0  0  0
   -0.7123    0.8216    0.0000 C   0  0  1  0  0  0  0  0  0  0  0  0
   -1.4288    1.2379    0.0000 C   0  0  0  0  0  0  0  0  0  0  0  0
  1  2  1  0  0  0  0
 10  2  1  6  0  0  0
  3 10  1  0  0  0  0
  3 12  1  0  0  0  0
  8  4  1  6  0  0  0
  9  5  1  1  0  0  0
 11  6  1  6  0  0  0
  7 13  1  0  0  0  0
  8  9  1  0  0  0  0
  8 10  1  0  0  0  0
  9 11  1  0  0  0  0
 11 12  1  0  0  0  0
 12 13  1  1  0  0  0
M  END
> <DATABASE_ID>
DB09121

> <DATABASE_NAME>
drugbank

> <SMILES>
OC[C@H]1O[C@H](S[Au])[C@H](O)[C@@H](O)[C@@H]1O

> <INCHI_IDENTIFIER>
InChI=1S/C6H12O5S.Au/c7-1-2-3(8)4(9)5(10)6(12)11-2;/h2-10,12H,1H2;/q;+1/p-1/t2-,3-,4+,5-,6-;/m1./s1

> <INCHI_KEY>
XHVAWZZCDCWGBK-WYRLRVFGSA-M

> <FORMULA>
C6H11AuO5S

> <MOLECULAR_WEIGHT>
392.18

> <EXACT_MASS>
391.999289

> <JCHEM_ACCEPTOR_COUNT>
5

> <JCHEM_ATOM_COUNT>
24

> <JCHEM_AVERAGE_POLARIZABILITY>
19.879881240826403

> <JCHEM_BIOAVAILABILITY>
1

> <JCHEM_DONOR_COUNT>
4

> <JCHEM_FORMAL_CHARGE>
0

> <JCHEM_GHOSE_FILTER>
0

> <JCHEM_IUPAC>
{[(2R,3R,4S,5S,6R)-3,4,5-trihydroxy-6-(hydroxymethyl)oxan-2-yl]sulfanyl}gold

> <ALOGPS_LOGP>
-1.81

> <JCHEM_LOGP>
-2.2418000000000005

> <ALOGPS_LOGS>
-0.61

> <JCHEM_MDDR_LIKE_RULE>
0

> <JCHEM_NUMBER_OF_RINGS>
1

> <JCHEM_PHYSIOLOGICAL_CHARGE>
0

> <JCHEM_PKA>
13.395515728038873

> <JCHEM_PKA_STRONGEST_ACIDIC>
12.513949319837462

> <JCHEM_PKA_STRONGEST_BASIC>
-2.9797186489307927

> <JCHEM_POLAR_SURFACE_AREA>
90.15

> <JCHEM_REFRACTIVITY>
41.2457

> <JCHEM_ROTATABLE_BOND_COUNT>
2

> <JCHEM_RULE_OF_FIVE>
1

> <ALOGPS_SOLUBILITY>
9.64e+01 g/l

> <JCHEM_TRADITIONAL_IUPAC>
aurothioglucose

> <JCHEM_VEBER_RULE>
0

> <DRUGBANK_ID>
DB09121

> <DRUG_GROUPS>
withdrawn

> <GENERIC_NAME>
Aurothioglucose

> <SYNONYMS>
Auromyose; Gold thioglucose

> <PRODUCTS>
Solganal Inj 50mg/ml

$$$$

  Mrv1572010161515172D          

 17 18  0  0  0  0            999 V2000
   -2.5162    0.2062    0.0000 C   0  0  0  0  0  0  0  0  0  0  0  0
   -2.5162    1.0312    0.0000 C   0  0  0  0  0  0  0  0  0  0  0  0
   -1.8150    1.4437    0.0000 C   0  0  0  0  0  0  0  0  0  0  0  0
   -1.0725    1.0312    0.0000 C   0  0  0  0  0  0  0  0  0  0  0  0
   -1.0725    0.2062    0.0000 C   0  0  0  0  0  0  0  0  0  0  0  0
   -1.8150   -0.2062    0.0000 C   0  0  0  0  0  0  0  0  0  0  0  0
   -0.3712   -0.2062    0.0000 O   0  0  0  0  0  0  0  0  0  0  0  0
    0.3712    0.2062    0.0000 C   0  0  0  0  0  0  0  0  0  0  0  0
    1.0725   -0.2062    0.0000 C   0  0  0  0  0  0  0  0  0  0  0  0
   -0.3712    1.4437    0.0000 O   0  0  0  0  0  0  0  0  0  0  0  0
    0.3712    1.0312    0.0000 C   0  0  0  0  0  0  0  0  0  0  0  0
    1.0725    1.4437    0.0000 C   0  0  0  0  0  0  0  0  0  0  0  0
    1.7737    0.2062    0.0000 O   0  0  0  0  0  0  0  0  0  0  0  0
    2.5162   -0.2062    0.0000 C   0  0  0  0  0  0  0  0  0  0  0  0
    2.5162   -1.0312    0.0000 C   0  0  0  0  0  0  0  0  0  0  0  0
    1.7737   -1.4437    0.0000 N   0  0  0  0  0  0  0  0  0  0  0  0
    1.0725   -1.0312    0.0000 C   0  0  0  0  0  0  0  0  0  0  0  0
  1  2  2  0  0  0  0
  2  3  1  0  0  0  0
  3  4  2  0  0  0  0
  4  5  1  0  0  0  0
  5  6  2  0  0  0  0
  1  6  1  0  0  0  0
  5  7  1  0  0  0  0
  7  8  1  0  0  0  0
  8  9  1  0  0  0  0
  4 10  1  0  0  0  0
 10 11  1  0  0  0  0
 11 12  1  0  0  0  0
  9 13  1  0  0  0  0
 13 14  1  0  0  0  0
 14 15  1  0  0  0  0
 15 16  1  0  0  0  0
 16 17  1  0  0  0  0
  9 17  1  0  0  0  0
M  END
> <DATABASE_ID>
DB09185

> <DATABASE_NAME>
drugbank

> <SMILES>
CCOC1=CC=CC=C1OCC1CNCCO1

> <INCHI_IDENTIFIER>
InChI=1S/C13H19NO3/c1-2-15-12-5-3-4-6-13(12)17-10-11-9-14-7-8-16-11/h3-6,11,14H,2,7-10H2,1H3

> <INCHI_KEY>
YWPHCCPCQOJSGZ-UHFFFAOYSA-N

> <FORMULA>
C13H19NO3

> <MOLECULAR_WEIGHT>
237.299

> <EXACT_MASS>
237.136493476

> <JCHEM_ACCEPTOR_COUNT>
4

> <JCHEM_ATOM_COUNT>
36

> <JCHEM_AVERAGE_POLARIZABILITY>
26.31962681486784

> <JCHEM_BIOAVAILABILITY>
1

> <JCHEM_DONOR_COUNT>
1

> <JCHEM_FORMAL_CHARGE>
0

> <JCHEM_GHOSE_FILTER>
1

> <JCHEM_IUPAC>
2-[(2-ethoxyphenoxy)methyl]morpholine

> <ALOGPS_LOGP>
1.71

> <JCHEM_LOGP>
1.4915744426666662

> <ALOGPS_LOGS>
-2.28

> <JCHEM_MDDR_LIKE_RULE>
0

> <JCHEM_NUMBER_OF_RINGS>
2

> <JCHEM_PHYSIOLOGICAL_CHARGE>
1

> <JCHEM_PKA_STRONGEST_BASIC>
8.19456910713374

> <JCHEM_POLAR_SURFACE_AREA>
39.72

> <JCHEM_REFRACTIVITY>
65.2021

> <JCHEM_ROTATABLE_BOND_COUNT>
5

> <JCHEM_RULE_OF_FIVE>
1

> <ALOGPS_SOLUBILITY>
1.24e+00 g/l

> <JCHEM_TRADITIONAL_IUPAC>
viloxazine

> <JCHEM_VEBER_RULE>
1

> <DRUGBANK_ID>
DB09185

> <DRUG_GROUPS>
approved; withdrawn

> <GENERIC_NAME>
Viloxazine

> <SYNONYMS>
2-((2-Ethoxyphenoxy)methyl)morpholine; Viloxazina; Viloxazinum

> <SALTS>
Viloxazine hydrochloride

$$$$

  Mrv1572010231518232D          

 18 19  0  0  0  0            999 V2000
    1.0716    1.0312    0.0000 O   0  0  0  0  0  0  0  0  0  0  0  0
    0.3572   -0.2062    0.0000 N   0  0  0  0  0  0  0  0  0  0  0  0
   -0.3572    0.2062    0.0000 N   0  0  0  0  0  0  0  0  0  0  0  0
    1.7861   -0.2062    0.0000 C   0  0  0  0  0  0  0  0  0  0  0  0
    1.0716    0.2062    0.0000 C   0  0  0  0  0  0  0  0  0  0  0  0
   -1.7861    0.2062    0.0000 C   0  0  0  0  0  0  0  0  0  0  0  0
   -1.0717   -0.2062    0.0000 C   0  0  0  0  0  0  0  0  0  0  0  0
    2.5006    0.2062    0.0000 C   0  0  0  0  0  0  0  0  0  0  0  0
    1.7861   -1.0312    0.0000 C   0  0  0  0  0  0  0  0  0  0  0  0
   -2.5006   -0.2062    0.0000 C   0  0  0  0  0  0  0  0  0  0  0  0
   -1.7861    1.0312    0.0000 C   0  0  0  0  0  0  0  0  0  0  0  0
    3.2151   -0.2062    0.0000 C   0  0  0  0  0  0  0  0  0  0  0  0
    2.5006   -1.4437    0.0000 C   0  0  0  0  0  0  0  0  0  0  0  0
   -3.2151    0.2062    0.0000 C   0  0  0  0  0  0  0  0  0  0  0  0
   -2.5006    1.4437    0.0000 C   0  0  0  0  0  0  0  0  0  0  0  0
    3.2151   -1.0312    0.0000 C   0  0  0  0  0  0  0  0  0  0  0  0
   -1.0717   -1.0312    0.0000 C   0  0  0  0  0  0  0  0  0  0  0  0
   -3.2151    1.0312    0.0000 C   0  0  0  0  0  0  0  0  0  0  0  0
  1  5  2  0  0  0  0
  2  3  1  0  0  0  0
  2  5  1  0  0  0  0
  3  7  1  0  0  0  0
  4  5  1  0  0  0  0
  4  8  2  0  0  0  0
  4  9  1  0  0  0  0
  6  7  1  0  0  0  0
  6 10  2  0  0  0  0
  6 11  1  0  0  0  0
  7 17  1  0  0  0  0
  8 12  1  0  0  0  0
  9 13  2  0  0  0  0
 10 14  1  0  0  0  0
 11 15  2  0  0  0  0
 12 16  2  0  0  0  0
 13 16  1  0  0  0  0
 14 18  2  0  0  0  0
 15 18  1  0  0  0  0
M  END
> <DATABASE_ID>
DB09246

> <DATABASE_NAME>
drugbank

> <SMILES>
CC(NNC(=O)C1=CC=CC=C1)C1=CC=CC=C1

> <INCHI_IDENTIFIER>
InChI=1S/C15H16N2O/c1-12(13-8-4-2-5-9-13)16-17-15(18)14-10-6-3-7-11-14/h2-12,16H,1H3,(H,17,18)

> <INCHI_KEY>
BEWNZPMDJIGBED-UHFFFAOYSA-N

> <FORMULA>
C15H16N2O

> <MOLECULAR_WEIGHT>
240.306

> <EXACT_MASS>
240.126263143

> <JCHEM_ACCEPTOR_COUNT>
2

> <JCHEM_ATOM_COUNT>
34

> <JCHEM_AVERAGE_POLARIZABILITY>
26.675371787229757

> <JCHEM_BIOAVAILABILITY>
1

> <JCHEM_DONOR_COUNT>
2

> <JCHEM_FORMAL_CHARGE>
0

> <JCHEM_GHOSE_FILTER>
1

> <JCHEM_IUPAC>
N'-(1-phenylethyl)benzohydrazide

> <ALOGPS_LOGP>
2.26

> <JCHEM_LOGP>
2.8921346249999997

> <ALOGPS_LOGS>
-3.92

> <JCHEM_MDDR_LIKE_RULE>
0

> <JCHEM_NUMBER_OF_RINGS>
2

> <JCHEM_PHYSIOLOGICAL_CHARGE>
0

> <JCHEM_PKA_STRONGEST_ACIDIC>
14.466032842957432

> <JCHEM_PKA_STRONGEST_BASIC>
3.315935537503056

> <JCHEM_POLAR_SURFACE_AREA>
41.13

> <JCHEM_REFRACTIVITY>
82.97940000000004

> <JCHEM_ROTATABLE_BOND_COUNT>
4

> <JCHEM_RULE_OF_FIVE>
1

> <ALOGPS_SOLUBILITY>
2.89e-02 g/l

> <JCHEM_TRADITIONAL_IUPAC>
benmoxine

> <JCHEM_VEBER_RULE>
0

> <DRUGBANK_ID>
DB09246

> <DRUG_GROUPS>
withdrawn

> <GENERIC_NAME>
Benmoxin

> <SYNONYMS>
Mebamoxine

$$$$

  Mrv1572010231518272D          

 16 16  0  0  0  0            999 V2000
   -2.8652    0.0000    0.0000 C   0  0  0  0  0  0  0  0  0  0  0  0
   -2.8652   -0.8250    0.0000 C   0  0  0  0  0  0  0  0  0  0  0  0
   -2.1508   -1.2375    0.0000 C   0  0  0  0  0  0  0  0  0  0  0  0
   -1.4363   -0.8250    0.0000 C   0  0  0  0  0  0  0  0  0  0  0  0
   -1.4363    0.0000    0.0000 C   0  0  0  0  0  0  0  0  0  0  0  0
   -2.1508    0.4125    0.0000 C   0  0  0  0  0  0  0  0  0  0  0  0
   -0.7070    0.4125    0.0000 O   0  0  0  0  0  0  0  0  0  0  0  0
    0.0074    0.0000    0.0000 C   0  0  0  0  0  0  0  0  0  0  0  0
    0.7218    0.4125    0.0000 C   0  0  0  0  0  0  0  0  0  0  0  0
    1.4363    0.0000    0.0000 N   0  0  0  0  0  0  0  0  0  0  0  0
    2.1508    0.4125    0.0000 N   0  0  0  0  0  0  0  0  0  0  0  0
    2.8652    0.0000    0.0000 C   0  0  0  0  0  0  0  0  0  0  0  0
    3.5797    0.4125    0.0000 C   0  0  0  0  0  0  0  0  0  0  0  0
   -3.5797   -1.2375    0.0000 Cl  0  0  0  0  0  0  0  0  0  0  0  0
    0.7218    1.2375    0.0000 O   0  0  0  0  0  0  0  0  0  0  0  0
    2.8652   -0.8250    0.0000 C   0  0  0  0  0  0  0  0  0  0  0  0
  1  2  2  0  0  0  0
  2  3  1  0  0  0  0
  3  4  2  0  0  0  0
  4  5  1  0  0  0  0
  5  6  2  0  0  0  0
  1  6  1  0  0  0  0
  5  7  1  0  0  0  0
  7  8  1  0  0  0  0
  8  9  1  0  0  0  0
  9 10  1  0  0  0  0
 10 11  1  0  0  0  0
 11 12  1  0  0  0  0
 12 13  1  0  0  0  0
  2 14  1  0  0  0  0
  9 15  2  0  0  0  0
 12 16  1  0  0  0  0
M  END
> <DATABASE_ID>
DB09247

> <DATABASE_NAME>
drugbank

> <SMILES>
CC(C)NNC(=O)COC1=CC=C(Cl)C=C1

> <INCHI_IDENTIFIER>
InChI=1S/C11H15ClN2O2/c1-8(2)13-14-11(15)7-16-10-5-3-9(12)4-6-10/h3-6,8,13H,7H2,1-2H3,(H,14,15)

> <INCHI_KEY>
GGECDTUJZOXAAR-UHFFFAOYSA-N

> <FORMULA>
C11H15ClN2O2

> <MOLECULAR_WEIGHT>
242.7

> <EXACT_MASS>
242.0822054

> <JCHEM_ACCEPTOR_COUNT>
3

> <JCHEM_ATOM_COUNT>
31

> <JCHEM_AVERAGE_POLARIZABILITY>
25.20632792261789

> <JCHEM_BIOAVAILABILITY>
1

> <JCHEM_DONOR_COUNT>
2

> <JCHEM_FORMAL_CHARGE>
0

> <JCHEM_GHOSE_FILTER>
1

> <JCHEM_IUPAC>
2-(4-chlorophenoxy)-N'-(propan-2-yl)acetohydrazide

> <ALOGPS_LOGP>
1.91

> <JCHEM_LOGP>
1.7912432733333334

> <ALOGPS_LOGS>
-3.08

> <JCHEM_MDDR_LIKE_RULE>
0

> <JCHEM_NUMBER_OF_RINGS>
1

> <JCHEM_PHYSIOLOGICAL_CHARGE>
0

> <JCHEM_PKA_STRONGEST_ACIDIC>
11.582553708577644

> <JCHEM_PKA_STRONGEST_BASIC>
3.9674399368428115

> <JCHEM_POLAR_SURFACE_AREA>
50.36

> <JCHEM_REFRACTIVITY>
73.21179999999998

> <JCHEM_ROTATABLE_BOND_COUNT>
5

> <JCHEM_RULE_OF_FIVE>
1

> <ALOGPS_SOLUBILITY>
2.00e-01 g/l

> <JCHEM_TRADITIONAL_IUPAC>
iproclozide

> <JCHEM_VEBER_RULE>
0

> <DRUGBANK_ID>
DB09247

> <DRUG_GROUPS>
withdrawn

> <GENERIC_NAME>
Iproclozide

$$$$

  Mrv1572010241500002D          

 10 10  0  0  0  0            999 V2000
    0.7132    1.0313    0.0000 N   0  0  0  0  0  0  0  0  0  0  0  0
   -0.0025    1.4388    0.0000 N   0  0  0  0  0  0  0  0  0  0  0  0
   -0.0025   -0.2063    0.0000 C   0  0  0  0  0  0  0  0  0  0  0  0
    0.7132    0.2063    0.0000 C   0  0  0  0  0  0  0  0  0  0  0  0
   -0.7132    0.2063    0.0000 C   0  0  0  0  0  0  0  0  0  0  0  0
   -0.0025   -1.0313    0.0000 C   0  0  0  0  0  0  0  0  0  0  0  0
   -1.4288   -0.2063    0.0000 C   0  0  0  0  0  0  0  0  0  0  0  0
   -0.7132   -1.4388    0.0000 C   0  0  0  0  0  0  0  0  0  0  0  0
   -1.4288   -1.0313    0.0000 C   0  0  0  0  0  0  0  0  0  0  0  0
    1.4288   -0.2063    0.0000 C   0  0  0  0  0  0  0  0  0  0  0  0
  1  2  1  0  0  0  0
  1  4  1  0  0  0  0
  3  4  1  0  0  0  0
  3  5  2  0  0  0  0
  3  6  1  0  0  0  0
  4 10  1  0  0  0  0
  5  7  1  0  0  0  0
  6  8  2  0  0  0  0
  7  9  2  0  0  0  0
  8  9  1  0  0  0  0
M  END
> <DATABASE_ID>
DB09248

> <DATABASE_NAME>
drugbank

> <SMILES>
CC(NN)C1=CC=CC=C1

> <INCHI_IDENTIFIER>
InChI=1S/C8H12N2/c1-7(10-9)8-5-3-2-4-6-8/h2-7,10H,9H2,1H3

> <INCHI_KEY>
HHRZAEJMHSGZNP-UHFFFAOYSA-N

> <FORMULA>
C8H12N2

> <MOLECULAR_WEIGHT>
136.198

> <EXACT_MASS>
136.100048394

> <JCHEM_ACCEPTOR_COUNT>
2

> <JCHEM_ATOM_COUNT>
22

> <JCHEM_AVERAGE_POLARIZABILITY>
15.649197349838733

> <JCHEM_BIOAVAILABILITY>
1

> <JCHEM_DONOR_COUNT>
2

> <JCHEM_FORMAL_CHARGE>
0

> <JCHEM_GHOSE_FILTER>
0

> <JCHEM_IUPAC>
(1-phenylethyl)hydrazine

> <ALOGPS_LOGP>
1.24

> <JCHEM_LOGP>
1.3309338623333329

> <ALOGPS_LOGS>
-1.11

> <JCHEM_MDDR_LIKE_RULE>
0

> <JCHEM_NUMBER_OF_RINGS>
1

> <JCHEM_PHYSIOLOGICAL_CHARGE>
0

> <JCHEM_PKA_STRONGEST_BASIC>
5.326105548064039

> <JCHEM_POLAR_SURFACE_AREA>
38.05

> <JCHEM_REFRACTIVITY>
53.92710000000002

> <JCHEM_ROTATABLE_BOND_COUNT>
2

> <JCHEM_RULE_OF_FIVE>
1

> <ALOGPS_SOLUBILITY>
1.06e+01 g/l

> <JCHEM_TRADITIONAL_IUPAC>
mebanazine

> <JCHEM_VEBER_RULE>
1

> <DRUGBANK_ID>
DB09248

> <DRUG_GROUPS>
withdrawn

> <GENERIC_NAME>
Mebanazine

$$$$

  Mrv1533004241520222D          

 10  9  0  0  0  0            999 V2000
    2.9980    2.5559    0.0000 C   0  0  0  0  0  0  0  0  0  0  0  0
    3.7125    2.1434    0.0000 C   0  0  0  0  0  0  0  0  0  0  0  0
    4.4270    2.5559    0.0000 C   0  0  0  0  0  0  0  0  0  0  0  0
    5.1414    2.1434    0.0000 C   0  0  0  0  0  0  0  0  0  0  0  0
    5.8559    2.5559    0.0000 C   0  0  0  0  0  0  0  0  0  0  0  0
    6.5704    2.1434    0.0000 C   0  0  0  0  0  0  0  0  0  0  0  0
    7.2849    2.5559    0.0000 C   0  0  0  0  0  0  0  0  0  0  0  0
    7.2849    3.3809    0.0000 C   0  0  0  0  0  0  0  0  0  0  0  0
    7.9993    2.1434    0.0000 N   0  0  0  0  0  0  0  0  0  0  0  0
    8.7138    2.5559    0.0000 N   0  0  0  0  0  0  0  0  0  0  0  0
  1  2  1  0  0  0  0
  2  3  1  0  0  0  0
  3  4  1  0  0  0  0
  4  5  1  0  0  0  0
  5  6  1  0  0  0  0
  6  7  1  0  0  0  0
  7  8  1  0  0  0  0
  7  9  1  0  0  0  0
  9 10  1  0  0  0  0
M  END
> <DATABASE_ID>
DB09249

> <DATABASE_NAME>
drugbank

> <SMILES>
CCCCCCC(C)NN

> <INCHI_IDENTIFIER>
InChI=1S/C8H20N2/c1-3-4-5-6-7-8(2)10-9/h8,10H,3-7,9H2,1-2H3

> <INCHI_KEY>
FODQIVGFADUBKE-UHFFFAOYSA-N

> <FORMULA>
C8H20N2

> <MOLECULAR_WEIGHT>
144.262

> <EXACT_MASS>
144.162648652

> <JCHEM_ACCEPTOR_COUNT>
2

> <JCHEM_ATOM_COUNT>
30

> <JCHEM_AVERAGE_POLARIZABILITY>
19.108116123406397

> <JCHEM_BIOAVAILABILITY>
1

> <JCHEM_DONOR_COUNT>
2

> <JCHEM_FORMAL_CHARGE>
0

> <JCHEM_GHOSE_FILTER>
0

> <JCHEM_IUPAC>
(octan-2-yl)hydrazine

> <ALOGPS_LOGP>
2.54

> <JCHEM_LOGP>
2.2640657546666665

> <ALOGPS_LOGS>
-1.36

> <JCHEM_MDDR_LIKE_RULE>
0

> <JCHEM_NUMBER_OF_RINGS>
0

> <JCHEM_PHYSIOLOGICAL_CHARGE>
0

> <JCHEM_PKA_STRONGEST_BASIC>
5.916939054767277

> <JCHEM_POLAR_SURFACE_AREA>
38.05

> <JCHEM_REFRACTIVITY>
56.9911

> <JCHEM_ROTATABLE_BOND_COUNT>
6

> <JCHEM_RULE_OF_FIVE>
1

> <ALOGPS_SOLUBILITY>
6.27e+00 g/l

> <JCHEM_TRADITIONAL_IUPAC>
octamoxin

> <JCHEM_VEBER_RULE>
1

> <DRUGBANK_ID>
DB09249

> <DRUG_GROUPS>
withdrawn

> <GENERIC_NAME>
Octamoxin

> <SYNONYMS>
 2-octylhydrazine

$$$$

  Mrv1572010241500082D          

 11 11  0  0  0  0            999 V2000
    1.0588   -0.3970    0.0000 N   0  0  0  0  0  0  0  0  0  0  0  0
    1.6401   -0.7610    0.0000 N   0  0  0  0  0  0  0  0  0  0  0  0
    0.3498    0.8224    0.0000 C   0  0  0  0  0  0  0  0  0  0  0  0
   -0.3639    0.4018    0.0000 C   0  0  0  0  0  0  0  0  0  0  0  0
    1.0588    0.4018    0.0000 C   0  0  0  0  0  0  0  0  0  0  0  0
   -0.3639   -0.3970    0.0000 C   0  0  0  0  0  0  0  0  0  0  0  0
   -1.0541    0.7988    0.0000 C   0  0  0  0  0  0  0  0  0  0  0  0
    1.7772    0.8224    0.0000 C   0  0  0  0  0  0  0  0  0  0  0  0
   -1.0541   -0.8224    0.0000 C   0  0  0  0  0  0  0  0  0  0  0  0
   -1.7772    0.4018    0.0000 C   0  0  0  0  0  0  0  0  0  0  0  0
   -1.7772   -0.4254    0.0000 C   0  0  0  0  0  0  0  0  0  0  0  0
  2  1  1  0  0  0  0
  3  5  1  0  0  0  0
  4  3  1  0  0  0  0
  5  1  1  0  0  0  0
  6  4  1  0  0  0  0
  7  4  2  0  0  0  0
  8  5  1  0  0  0  0
  9  6  2  0  0  0  0
 10  7  1  0  0  0  0
 11  9  1  0  0  0  0
 10 11  2  0  0  0  0
M  END
> <DATABASE_ID>
DB09250

> <DATABASE_NAME>
drugbank

> <SMILES>
CC(CC1=CC=CC=C1)NN

> <INCHI_IDENTIFIER>
InChI=1S/C9H14N2/c1-8(11-10)7-9-5-3-2-4-6-9/h2-6,8,11H,7,10H2,1H3

> <INCHI_KEY>
VXTWEDPZMSVFEF-UHFFFAOYSA-N

> <FORMULA>
C9H14N2

> <MOLECULAR_WEIGHT>
150.225

> <EXACT_MASS>
150.115698459

> <JCHEM_ACCEPTOR_COUNT>
2

> <JCHEM_ATOM_COUNT>
25

> <JCHEM_AVERAGE_POLARIZABILITY>
17.472316992716515

> <JCHEM_BIOAVAILABILITY>
1

> <JCHEM_DONOR_COUNT>
2

> <JCHEM_FORMAL_CHARGE>
0

> <JCHEM_GHOSE_FILTER>
0

> <JCHEM_IUPAC>
(1-phenylpropan-2-yl)hydrazine

> <ALOGPS_LOGP>
1.69

> <JCHEM_LOGP>
1.6195950673333332

> <ALOGPS_LOGS>
-1.60

> <JCHEM_MDDR_LIKE_RULE>
0

> <JCHEM_NUMBER_OF_RINGS>
1

> <JCHEM_PHYSIOLOGICAL_CHARGE>
0

> <JCHEM_PKA_STRONGEST_BASIC>
5.649550295774807

> <JCHEM_POLAR_SURFACE_AREA>
38.05

> <JCHEM_REFRACTIVITY>
58.682100000000005

> <JCHEM_ROTATABLE_BOND_COUNT>
3

> <JCHEM_RULE_OF_FIVE>
1

> <ALOGPS_SOLUBILITY>
3.75e+00 g/l

> <JCHEM_TRADITIONAL_IUPAC>
pheniprazine

> <JCHEM_VEBER_RULE>
1

> <DRUGBANK_ID>
DB09250

> <DRUG_GROUPS>
withdrawn

> <GENERIC_NAME>
Pheniprazine

> <SALTS>
Pheniprazine hydrochloride

$$$$

  Mrv1572010241500132D          

 15 15  0  0  0  0            999 V2000
   -0.5787   -0.1278    0.0000 O   0  0  0  0  0  0  0  0  0  0  0  0
    0.8502    1.5221    0.0000 N   0  0  0  0  0  0  0  0  0  0  0  0
    0.8502    2.3471    0.0000 N   0  0  0  0  0  0  0  0  0  0  0  0
    0.1357    1.1096    0.0000 C   0  0  0  0  0  0  0  0  0  0  0  0
    0.1357    0.2846    0.0000 C   0  0  0  0  0  0  0  0  0  0  0  0
   -0.5787    1.5221    0.0000 C   0  0  0  0  0  0  0  0  0  0  0  0
   -0.5787   -0.9529    0.0000 C   0  0  0  0  0  0  0  0  0  0  0  0
    0.1357   -1.3653    0.0000 C   0  0  0  0  0  0  0  0  0  0  0  0
   -1.2932   -1.3653    0.0000 C   0  0  0  0  0  0  0  0  0  0  0  0
    0.1357   -2.1904    0.0000 C   0  0  0  0  0  0  0  0  0  0  0  0
   -1.2932   -2.1904    0.0000 C   0  0  0  0  0  0  0  0  0  0  0  0
   -0.5787   -2.6029    0.0000 C   0  0  0  0  0  0  0  0  0  0  0  0
    1.2932    1.2663    0.0000 H   0  0  0  0  0  0  0  0  0  0  0  0
    1.2932    2.6029    0.0000 H   0  0  0  0  0  0  0  0  0  0  0  0
    0.4071    2.6029    0.0000 H   0  0  0  0  0  0  0  0  0  0  0  0
  1  5  1  0  0  0  0
  1  7  1  0  0  0  0
  2  3  1  0  0  0  0
  2  4  1  0  0  0  0
  2 13  1  0  0  0  0
  3 14  1  0  0  0  0
  3 15  1  0  0  0  0
  4  5  1  0  0  0  0
  4  6  1  0  0  0  0
  7  8  2  0  0  0  0
  7  9  1  0  0  0  0
  8 10  1  0  0  0  0
  9 11  2  0  0  0  0
 10 12  2  0  0  0  0
 11 12  1  0  0  0  0
M  END
> <DATABASE_ID>
DB09251

> <DATABASE_NAME>
drugbank

> <SMILES>
[H]N([H])N([H])C(C)COC1=CC=CC=C1

> <INCHI_IDENTIFIER>
InChI=1S/C9H14N2O/c1-8(11-10)7-12-9-5-3-2-4-6-9/h2-6,8,11H,7,10H2,1H3

> <INCHI_KEY>
QNEXFJFTGQBXBJ-UHFFFAOYSA-N

> <FORMULA>
C9H14N2O

> <MOLECULAR_WEIGHT>
166.224

> <EXACT_MASS>
166.110613079

> <JCHEM_ACCEPTOR_COUNT>
3

> <JCHEM_ATOM_COUNT>
26

> <JCHEM_AVERAGE_POLARIZABILITY>
18.67406761949035

> <JCHEM_BIOAVAILABILITY>
1

> <JCHEM_DONOR_COUNT>
2

> <JCHEM_FORMAL_CHARGE>
0

> <JCHEM_GHOSE_FILTER>
1

> <JCHEM_IUPAC>
(1-phenoxypropan-2-yl)hydrazine

> <ALOGPS_LOGP>
1.37

> <JCHEM_LOGP>
1.250510352

> <ALOGPS_LOGS>
-1.44

> <JCHEM_MDDR_LIKE_RULE>
0

> <JCHEM_NUMBER_OF_RINGS>
1

> <JCHEM_PHYSIOLOGICAL_CHARGE>
0

> <JCHEM_PKA_STRONGEST_BASIC>
5.45411973933432

> <JCHEM_POLAR_SURFACE_AREA>
47.28

> <JCHEM_REFRACTIVITY>
59.86670000000001

> <JCHEM_ROTATABLE_BOND_COUNT>
4

> <JCHEM_RULE_OF_FIVE>
1

> <ALOGPS_SOLUBILITY>
6.03e+00 g/l

> <JCHEM_TRADITIONAL_IUPAC>
phenoxypropazine

> <JCHEM_VEBER_RULE>
0

> <DRUGBANK_ID>
DB09251

> <DRUG_GROUPS>
withdrawn

> <GENERIC_NAME>
Phenoxypropazine

$$$$

  Mrv1572010241500162D          

 17 17  0  0  0  0            999 V2000
    1.3736    0.8250    0.0000 O   0  0  0  0  0  0  0  0  0  0  0  0
   -0.0552    0.8250    0.0000 N   0  0  0  0  0  0  0  0  0  0  0  0
   -0.0552    0.0000    0.0000 N   0  0  0  0  0  0  0  0  0  0  0  0
    0.6592    2.0625    0.0000 C   0  0  0  0  0  0  0  0  0  0  0  0
   -0.1657    2.0625    0.0000 C   0  0  0  0  0  0  0  0  0  0  0  0
    1.4842    2.0625    0.0000 C   0  0  0  0  0  0  0  0  0  0  0  0
    0.6592    2.8875    0.0000 C   0  0  0  0  0  0  0  0  0  0  0  0
    0.6592    1.2375    0.0000 C   0  0  0  0  0  0  0  0  0  0  0  0
   -0.7697   -0.4125    0.0000 C   0  0  0  0  0  0  0  0  0  0  0  0
   -0.7697   -1.2375    0.0000 C   0  0  0  0  0  0  0  0  0  0  0  0
   -0.0552   -1.6500    0.0000 C   0  0  0  0  0  0  0  0  0  0  0  0
   -1.4842   -1.6500    0.0000 C   0  0  0  0  0  0  0  0  0  0  0  0
   -0.0552   -2.4750    0.0000 C   0  0  0  0  0  0  0  0  0  0  0  0
   -1.4842   -2.4750    0.0000 C   0  0  0  0  0  0  0  0  0  0  0  0
   -0.7697   -2.8875    0.0000 C   0  0  0  0  0  0  0  0  0  0  0  0
   -0.4982    1.0807    0.0000 H   0  0  0  0  0  0  0  0  0  0  0  0
    0.3877   -0.2557    0.0000 H   0  0  0  0  0  0  0  0  0  0  0  0
  1  8  2  0  0  0  0
  2  3  1  0  0  0  0
  2  8  1  0  0  0  0
  2 16  1  0  0  0  0
  3  9  1  0  0  0  0
  3 17  1  0  0  0  0
  4  5  1  0  0  0  0
  4  6  1  0  0  0  0
  4  7  1  0  0  0  0
  4  8  1  0  0  0  0
  9 10  1  0  0  0  0
 10 11  2  0  0  0  0
 10 12  1  0  0  0  0
 11 13  1  0  0  0  0
 12 14  2  0  0  0  0
 13 15  2  0  0  0  0
 14 15  1  0  0  0  0
M  END
> <DATABASE_ID>
DB09252

> <DATABASE_NAME>
drugbank

> <SMILES>
[H]N(CC1=CC=CC=C1)N([H])C(=O)C(C)(C)C

> <INCHI_IDENTIFIER>
InChI=1S/C12H18N2O/c1-12(2,3)11(15)14-13-9-10-7-5-4-6-8-10/h4-8,13H,9H2,1-3H3,(H,14,15)

> <INCHI_KEY>
FWWDFDMCZLOXQI-UHFFFAOYSA-N

> <FORMULA>
C12H18N2O

> <MOLECULAR_WEIGHT>
206.289

> <EXACT_MASS>
206.141913208

> <JCHEM_ACCEPTOR_COUNT>
2

> <JCHEM_ATOM_COUNT>
33

> <JCHEM_AVERAGE_POLARIZABILITY>
23.28001508918415

> <JCHEM_BIOAVAILABILITY>
1

> <JCHEM_DONOR_COUNT>
2

> <JCHEM_FORMAL_CHARGE>
0

> <JCHEM_GHOSE_FILTER>
1

> <JCHEM_IUPAC>
N'-benzyl-2,2-dimethylpropanehydrazide

> <ALOGPS_LOGP>
1.77

> <JCHEM_LOGP>
2.420921589333334

> <ALOGPS_LOGS>
-2.80

> <JCHEM_MDDR_LIKE_RULE>
0

> <JCHEM_NUMBER_OF_RINGS>
1

> <JCHEM_PHYSIOLOGICAL_CHARGE>
0

> <JCHEM_PKA_STRONGEST_ACIDIC>
12.913330794794167

> <JCHEM_PKA_STRONGEST_BASIC>
3.405278352309588

> <JCHEM_POLAR_SURFACE_AREA>
41.13

> <JCHEM_REFRACTIVITY>
71.59250000000002

> <JCHEM_ROTATABLE_BOND_COUNT>
4

> <JCHEM_RULE_OF_FIVE>
1

> <ALOGPS_SOLUBILITY>
3.30e-01 g/l

> <JCHEM_TRADITIONAL_IUPAC>
pivalylbenzhydrazine

> <JCHEM_VEBER_RULE>
0

> <DRUGBANK_ID>
DB09252

> <DRUG_GROUPS>
withdrawn

> <GENERIC_NAME>
Pivhydrazine

> <SYNONYMS>
Pivalylbenzhydrazine; Pivazide

> <INTERNATIONAL_BRANDS>
Angorvid; Betamezid; Tersavid

$$$$

  Mrv1572010241500202D          

 15 16  0  0  0  0            999 V2000
   -2.7740    1.4425    0.0000 N   0  0  0  0  0  0  0  0  0  0  0  0
   -2.0583    1.0263    0.0000 N   0  0  0  0  0  0  0  0  0  0  0  0
   -2.0583    0.2052    0.0000 C   0  0  0  0  0  0  0  0  0  0  0  0
   -1.3482   -0.2052    0.0000 C   0  0  0  0  0  0  0  0  0  0  0  0
   -0.6325    0.2052    0.0000 C   0  0  0  0  0  0  0  0  0  0  0  0
    0.0777   -0.2052    0.0000 C   0  0  0  0  0  0  0  0  0  0  0  0
    0.0777   -1.0319    0.0000 C   0  0  0  0  0  0  0  0  0  0  0  0
    0.7933   -1.4425    0.0000 C   0  0  0  0  0  0  0  0  0  0  0  0
    1.5090   -1.0319    0.0000 C   0  0  0  0  0  0  0  0  0  0  0  0
    1.5090   -0.2052    0.0000 C   0  0  0  0  0  0  0  0  0  0  0  0
    0.7933    0.2052    0.0000 C   0  0  0  0  0  0  0  0  0  0  0  0
    2.2913    0.0499    0.0000 O   0  0  0  0  0  0  0  0  0  0  0  0
    2.7740   -0.6213    0.0000 C   0  0  0  0  0  0  0  0  0  0  0  0
    2.2913   -1.2870    0.0000 O   0  0  0  0  0  0  0  0  0  0  0  0
   -2.7740   -0.2052    0.0000 C   0  0  0  0  0  0  0  0  0  0  0  0
  1  2  1  0  0  0  0
  2  3  1  0  0  0  0
  3  4  1  0  0  0  0
  3 15  1  0  0  0  0
  4  5  1  0  0  0  0
  5  6  1  0  0  0  0
  6  7  1  0  0  0  0
  6 11  2  0  0  0  0
  7  8  2  0  0  0  0
  8  9  1  0  0  0  0
  9 10  2  0  0  0  0
  9 14  1  0  0  0  0
 10 11  1  0  0  0  0
 10 12  1  0  0  0  0
 12 13  1  0  0  0  0
 13 14  1  0  0  0  0
M  END
> <DATABASE_ID>
DB09253

> <DATABASE_NAME>
drugbank

> <SMILES>
CC(CCC1=CC2=C(OCO2)C=C1)NN

> <INCHI_IDENTIFIER>
InChI=1S/C11H16N2O2/c1-8(13-12)2-3-9-4-5-10-11(6-9)15-7-14-10/h4-6,8,13H,2-3,7,12H2,1H3

> <INCHI_KEY>
IBWPUTAKVGZXRB-UHFFFAOYSA-N

> <FORMULA>
C11H16N2O2

> <MOLECULAR_WEIGHT>
208.261

> <EXACT_MASS>
208.121177763

> <JCHEM_ACCEPTOR_COUNT>
4

> <JCHEM_ATOM_COUNT>
31

> <JCHEM_AVERAGE_POLARIZABILITY>
23.142393393148517

> <JCHEM_BIOAVAILABILITY>
1

> <JCHEM_DONOR_COUNT>
2

> <JCHEM_FORMAL_CHARGE>
0

> <JCHEM_GHOSE_FILTER>
1

> <JCHEM_IUPAC>
[4-(2H-1,3-benzodioxol-5-yl)butan-2-yl]hydrazine

> <ALOGPS_LOGP>
1.51

> <JCHEM_LOGP>
1.6873972

> <ALOGPS_LOGS>
-1.97

> <JCHEM_MDDR_LIKE_RULE>
0

> <JCHEM_NUMBER_OF_RINGS>
2

> <JCHEM_PHYSIOLOGICAL_CHARGE>
0

> <JCHEM_PKA_STRONGEST_BASIC>
5.79816051590171

> <JCHEM_POLAR_SURFACE_AREA>
56.510000000000005

> <JCHEM_REFRACTIVITY>
69.05000000000001

> <JCHEM_ROTATABLE_BOND_COUNT>
4

> <JCHEM_RULE_OF_FIVE>
1

> <ALOGPS_SOLUBILITY>
2.24e+00 g/l

> <JCHEM_TRADITIONAL_IUPAC>
[4-(2H-1,3-benzodioxol-5-yl)butan-2-yl]hydrazine

> <JCHEM_VEBER_RULE>
0

> <DRUGBANK_ID>
DB09253

> <DRUG_GROUPS>
withdrawn

> <GENERIC_NAME>
Safrazine

> <SYNONYMS>
Safra

$$$$

  Mrv1572010241500232D          

 15 16  0  0  0  0            999 V2000
   -0.3375    0.8240    0.0000 O   0  0  0  0  0  0  0  0  0  0  0  0
    1.0821    0.8191    0.0000 O   0  0  0  0  0  0  0  0  0  0  0  0
    1.7821    0.4120    0.0000 O   0  0  0  0  0  0  0  0  0  0  0  0
    0.3772   -0.4121    0.0000 N   0  0  0  0  0  0  0  0  0  0  0  0
    2.4820   -0.8191    0.0000 N   0  0  0  0  0  0  0  0  0  0  0  0
   -1.0523   -0.4121    0.0000 C   0  0  0  0  0  0  0  0  0  0  0  0
   -1.0523    0.4120    0.0000 C   0  0  0  0  0  0  0  0  0  0  0  0
    0.3772    0.4120    0.0000 C   0  0  0  0  0  0  0  0  0  0  0  0
   -0.3375   -0.8240    0.0000 C   0  0  0  0  0  0  0  0  0  0  0  0
    1.0821   -0.8191    0.0000 C   0  0  0  0  0  0  0  0  0  0  0  0
   -1.7672   -0.8240    0.0000 C   0  0  0  0  0  0  0  0  0  0  0  0
   -1.7672    0.8240    0.0000 C   0  0  0  0  0  0  0  0  0  0  0  0
    1.7821   -0.4170    0.0000 C   0  0  0  0  0  0  0  0  0  0  0  0
   -2.4820   -0.4121    0.0000 C   0  0  0  0  0  0  0  0  0  0  0  0
   -2.4820    0.4120    0.0000 C   0  0  0  0  0  0  0  0  0  0  0  0
  1  7  1  0  0  0  0
  1  8  1  0  0  0  0
  2  8  2  0  0  0  0
  3 13  2  0  0  0  0
  4  8  1  0  0  0  0
  4  9  1  0  0  0  0
  4 10  1  0  0  0  0
  5 13  1  0  0  0  0
  6  7  1  0  0  0  0
  6  9  1  0  0  0  0
  6 11  2  0  0  0  0
  7 12  2  0  0  0  0
 10 13  1  0  0  0  0
 11 14  1  0  0  0  0
 12 15  1  0  0  0  0
 14 15  2  0  0  0  0
M  END
> <DATABASE_ID>
DB09254

> <DATABASE_NAME>
drugbank

> <SMILES>
NC(=O)CN1CC2=CC=CC=C2OC1=O

> <INCHI_IDENTIFIER>
InChI=1S/C10H10N2O3/c11-9(13)6-12-5-7-3-1-2-4-8(7)15-10(12)14/h1-4H,5-6H2,(H2,11,13)

> <INCHI_KEY>
KYCBWEZLKCTALM-UHFFFAOYSA-N

> <FORMULA>
C10H10N2O3

> <MOLECULAR_WEIGHT>
206.201

> <EXACT_MASS>
206.06914219

> <JCHEM_ACCEPTOR_COUNT>
2

> <JCHEM_ATOM_COUNT>
25

> <JCHEM_AVERAGE_POLARIZABILITY>
19.900589984851365

> <JCHEM_BIOAVAILABILITY>
1

> <JCHEM_DONOR_COUNT>
1

> <JCHEM_FORMAL_CHARGE>
0

> <JCHEM_GHOSE_FILTER>
1

> <JCHEM_IUPAC>
2-(2-oxo-3,4-dihydro-2H-1,3-benzoxazin-3-yl)acetamide

> <ALOGPS_LOGP>
-0.25

> <JCHEM_LOGP>
0.11658138399999991

> <ALOGPS_LOGS>
-1.24

> <JCHEM_MDDR_LIKE_RULE>
0

> <JCHEM_NUMBER_OF_RINGS>
2

> <JCHEM_PHYSIOLOGICAL_CHARGE>
0

> <JCHEM_PKA_STRONGEST_ACIDIC>
15.423153738885823

> <JCHEM_PKA_STRONGEST_BASIC>
-4.683859277658999

> <JCHEM_POLAR_SURFACE_AREA>
72.63000000000001

> <JCHEM_REFRACTIVITY>
52.12190000000001

> <JCHEM_ROTATABLE_BOND_COUNT>
2

> <JCHEM_RULE_OF_FIVE>
1

> <ALOGPS_SOLUBILITY>
1.19e+01 g/l

> <JCHEM_TRADITIONAL_IUPAC>
caroxazone

> <JCHEM_VEBER_RULE>
0

> <DRUGBANK_ID>
DB09254

> <DRUG_GROUPS>
withdrawn

> <GENERIC_NAME>
Caroxazone

> <INTERNATIONAL_BRANDS>
Surodil; Timostenil

$$$$

  Mrv1572011261518572D          

 42 46  0  0  0  0            999 V2000
    3.1252    0.7886    0.0000 C   0  0  0  0  0  0  0  0  0  0  0  0
    3.8386    0.3906    0.0000 N   0  0  0  0  0  0  0  0  0  0  0  0
   -0.3833    0.4052    0.0000 C   0  0  1  0  0  0  0  0  0  0  0  0
   -0.1261   -0.3955    0.0000 C   0  0  2  0  0  0  0  0  0  0  0  0
   -0.9948   -0.2645    0.0000 C   0  0  2  0  0  0  0  0  0  0  0  0
    3.1252    1.6427    0.0000 C   0  0  0  0  0  0  0  0  0  0  0  0
    4.5665    1.6427    0.0000 C   0  0  0  0  0  0  0  0  0  0  0  0
    2.3973    0.3906    0.0000 N   0  0  0  0  0  0  0  0  0  0  0  0
    0.9269    0.3906    0.0000 N   0  0  0  0  0  0  0  0  0  0  0  0
    3.8386    2.0552    0.0000 C   0  0  0  0  0  0  0  0  0  0  0  0
    4.5665    0.7886    0.0000 C   0  0  0  0  0  0  0  0  0  0  0  0
    1.6403    0.7886    0.0000 C   0  0  0  0  0  0  0  0  0  0  0  0
   -1.7372   -0.6817    0.0000 N   0  0  0  0  0  0  0  0  0  0  0  0
    0.2717    0.8710    0.0000 C   0  0  0  0  0  0  0  0  0  0  0  0
    0.6891   -0.3955    0.0000 C   0  0  0  0  0  0  0  0  0  0  0  0
    3.8386   -0.4682    0.0000 C   0  0  0  0  0  0  0  0  0  0  0  0
    2.3973    2.0552    0.0000 C   0  0  0  0  0  0  0  0  0  0  0  0
   -2.4409   -0.2645    0.0000 C   0  0  0  0  0  0  0  0  0  0  0  0
    5.2945    2.0552    0.0000 C   0  0  0  0  0  0  0  0  0  0  0  0
    1.6403    1.6427    0.0000 C   0  0  0  0  0  0  0  0  0  0  0  0
   -4.6053   -0.6817    0.0000 C   0  0  0  0  0  0  0  0  0  0  0  0
   -3.8919   -0.2645    0.0000 N   0  0  0  0  0  0  0  0  0  0  0  0
    4.5083   -0.8759    0.0000 C   0  0  0  0  0  0  0  0  0  0  0  0
   -3.1543   -0.6817    0.0000 C   0  0  1  0  0  0  0  0  0  0  0  0
    4.5083   -1.7009    0.0000 C   0  0  0  0  0  0  0  0  0  0  0  0
    3.1252   -0.8759    0.0000 C   0  0  0  0  0  0  0  0  0  0  0  0
    3.8386    2.9141    0.0000 O   0  0  0  0  0  0  0  0  0  0  0  0
   -2.4409    0.5557    0.0000 O   0  0  0  0  0  0  0  0  0  0  0  0
   -4.6053   -1.4874    0.0000 O   0  0  0  0  0  0  0  0  0  0  0  0
    5.2945    2.8850    0.0000 O   0  0  0  0  0  0  0  0  0  0  0  0
   -5.2751   -0.2645    0.0000 C   0  0  1  0  0  0  0  0  0  0  0  0
    3.8386   -2.0940    0.0000 C   0  0  0  0  0  0  0  0  0  0  0  0
    0.9269    2.0552    0.0000 F   0  0  0  0  0  0  0  0  0  0  0  0
    5.2217   -0.4682    0.0000 F   0  0  0  0  0  0  0  0  0  0  0  0
    6.0029    1.6427    0.0000 O   0  0  0  0  0  0  0  0  0  0  0  0
    3.1252   -1.7009    0.0000 C   0  0  0  0  0  0  0  0  0  0  0  0
   -6.0029   -0.6817    0.0000 N   0  0  0  0  0  0  0  0  0  0  0  0
    3.8386   -2.9141    0.0000 F   0  0  0  0  0  0  0  0  0  0  0  0
   -3.1543   -1.4874    0.0000 C   0  0  0  0  0  0  0  0  0  0  0  0
   -5.2751    0.5557    0.0000 C   0  0  0  0  0  0  0  0  0  0  0  0
   -0.6308    1.1768    0.0000 H   0  0  0  0  0  0  0  0  0  0  0  0
    0.0922   -1.1525    0.0000 H   0  0  0  0  0  0  0  0  0  0  0  0
  2  1  1  0  0  0  0
  3 14  1  0  0  0  0
  4 15  1  0  0  0  0
  5  3  1  0  0  0  0
  6  1  2  0  0  0  0
  7 10  1  0  0  0  0
  8  1  1  0  0  0  0
  9 12  1  0  0  0  0
 10  6  1  0  0  0  0
 11  2  1  0  0  0  0
 12  8  2  0  0  0  0
  5 13  1  6  0  0  0
 14  9  1  0  0  0  0
 15  9  1  0  0  0  0
 16  2  1  0  0  0  0
 17  6  1  0  0  0  0
 18 13  1  0  0  0  0
 19  7  1  0  0  0  0
 20 17  2  0  0  0  0
 21 22  1  0  0  0  0
 22 24  1  0  0  0  0
 23 16  1  0  0  0  0
 24 18  1  0  0  0  0
 25 23  2  0  0  0  0
 26 16  2  0  0  0  0
 27 10  2  0  0  0  0
 28 18  2  0  0  0  0
 29 21  2  0  0  0  0
 30 19  2  0  0  0  0
 31 21  1  0  0  0  0
 32 36  2  0  0  0  0
 33 20  1  0  0  0  0
 34 23  1  0  0  0  0
 35 19  1  0  0  0  0
 36 26  1  0  0  0  0
 37 31  1  0  0  0  0
 38 32  1  0  0  0  0
 24 39  1  6  0  0  0
 31 40  1  1  0  0  0
  3 41  1  6  0  0  0
  4 42  1  6  0  0  0
 11  7  2  0  0  0  0
 12 20  1  0  0  0  0
 25 32  1  0  0  0  0
  3  4  1  0  0  0  0
  4  5  1  0  0  0  0
M  END
> <DATABASE_ID>
DB09335

> <DATABASE_NAME>
drugbank

> <SMILES>
[H][C@@]12CN(C[C@]1([H])[C@H]2NC(=O)[C@H](C)NC(=O)[C@H](C)N)C1=NC2=C(C=C1F)C(=O)C(=CN2C1=CC=C(F)C=C1F)C(O)=O

> <INCHI_IDENTIFIER>
InChI=1S/C26H25F3N6O5/c1-10(30)24(37)31-11(2)25(38)32-20-14-7-34(8-15(14)20)23-18(29)6-13-21(36)16(26(39)40)9-35(22(13)33-23)19-4-3-12(27)5-17(19)28/h3-6,9-11,14-15,20H,7-8,30H2,1-2H3,(H,31,37)(H,32,38)(H,39,40)/t10-,11-,14-,15+,20+/m0/s1

> <INCHI_KEY>
UUZPPAMZDFLUHD-VUJLHGSVSA-N

> <FORMULA>
C26H25F3N6O5

> <MOLECULAR_WEIGHT>
558.518

> <EXACT_MASS>
558.183852418

> <JCHEM_ACCEPTOR_COUNT>
9

> <JCHEM_ATOM_COUNT>
65

> <JCHEM_AVERAGE_POLARIZABILITY>
52.83698321385687

> <JCHEM_BIOAVAILABILITY>
1

> <JCHEM_DONOR_COUNT>
4

> <JCHEM_FORMAL_CHARGE>
0

> <JCHEM_GHOSE_FILTER>
0

> <JCHEM_IUPAC>
7-[(1R,5S,6S)-6-[(2S)-2-[(2S)-2-aminopropanamido]propanamido]-3-azabicyclo[3.1.0]hexan-3-yl]-1-(2,4-difluorophenyl)-6-fluoro-4-oxo-1,4-dihydro-1,8-naphthyridine-3-carboxylic acid

> <ALOGPS_LOGP>
0.65

> <JCHEM_LOGP>
-0.833638064992216

> <ALOGPS_LOGS>
-4.16

> <JCHEM_MDDR_LIKE_RULE>
1

> <JCHEM_NUMBER_OF_RINGS>
5

> <JCHEM_PHYSIOLOGICAL_CHARGE>
0

> <JCHEM_PKA>
11.740319517567093

> <JCHEM_PKA_STRONGEST_ACIDIC>
5.412070246191823

> <JCHEM_PKA_STRONGEST_BASIC>
8.088238453315315

> <JCHEM_POLAR_SURFACE_AREA>
157.96

> <JCHEM_REFRACTIVITY>
135.63519999999997

> <JCHEM_ROTATABLE_BOND_COUNT>
7

> <JCHEM_RULE_OF_FIVE>
0

> <ALOGPS_SOLUBILITY>
3.88e-02 g/l

> <JCHEM_TRADITIONAL_IUPAC>
7-[(1R,5S,6S)-6-[(2S)-2-[(2S)-2-aminopropanamido]propanamido]-3-azabicyclo[3.1.0]hexan-3-yl]-1-(2,4-difluorophenyl)-6-fluoro-4-oxo-1,8-naphthyridine-3-carboxylic acid

> <JCHEM_VEBER_RULE>
0

> <DRUGBANK_ID>
DB09335

> <DRUG_GROUPS>
withdrawn

> <GENERIC_NAME>
Alatrofloxacin

> <SALTS>
Alatrofloxacin mesylate

$$$$

  Mrv1572001111621172D          

 26 28  0  0  0  0            999 V2000
    1.1256    0.6202    0.0000 C   0  0  2  0  0  0  0  0  0  0  0  0
    1.1256   -0.2048    0.0000 N   0  0  0  0  0  0  0  0  0  0  0  0
    1.8403   -0.6173    0.0000 C   0  0  0  0  0  0  0  0  0  0  0  0
    2.5549   -0.2048    0.0000 C   0  0  0  0  0  0  0  0  0  0  0  0
    2.5549    0.6202    0.0000 C   0  0  0  0  0  0  0  0  0  0  0  0
    1.8403    1.0328    0.0000 S   0  0  0  0  0  0  0  0  0  0  0  0
    0.3005    0.6202    0.0000 C   0  0  1  0  0  0  0  0  0  0  0  0
    0.3005   -0.2048    0.0000 C   0  0  0  0  0  0  0  0  0  0  0  0
   -0.4138    1.0328    0.0000 N   0  0  0  0  0  0  0  0  0  0  0  0
   -1.1285    0.6202    0.0000 C   0  0  0  0  0  0  0  0  0  0  0  0
   -1.1285   -0.2048    0.0000 O   0  0  0  0  0  0  0  0  0  0  0  0
   -0.4138   -0.6173    0.0000 O   0  0  0  0  0  0  0  0  0  0  0  0
   -1.8430    1.0328    0.0000 C   0  0  1  0  0  0  0  0  0  0  0  0
    3.2804   -0.6238    0.0000 O   0  0  0  0  0  0  0  0  0  0  0  0
    1.8403   -1.4423    0.0000 C   0  0  0  0  0  0  0  0  0  0  0  0
    1.1157   -1.8606    0.0000 O   0  0  0  0  0  0  0  0  0  0  0  0
    2.5448   -1.8491    0.0000 O   0  0  0  0  0  0  0  0  0  0  0  0
   -2.5691    0.6134    0.0000 C   0  0  0  0  0  0  0  0  0  0  0  0
   -3.2829    1.0254    0.0000 C   0  0  0  0  0  0  0  0  0  0  0  0
   -3.9966    0.6134    0.0000 C   0  0  0  0  0  0  0  0  0  0  0  0
   -3.9966   -0.2105    0.0000 C   0  0  0  0  0  0  0  0  0  0  0  0
   -3.2829   -0.6227    0.0000 C   0  0  0  0  0  0  0  0  0  0  0  0
   -2.5691   -0.2105    0.0000 C   0  0  0  0  0  0  0  0  0  0  0  0
   -1.8430    1.8606    0.0000 N   0  0  0  0  0  0  0  0  0  0  0  0
    1.1256    1.4462    0.0000 H   0  0  0  0  0  0  0  0  0  0  0  0
    3.9966   -0.2104    0.0000 C   0  0  0  0  0  0  0  0  0  0  0  0
  1  2  1  0  0  0  0
  2  3  1  0  0  0  0
  3  4  2  0  0  0  0
  4  5  1  0  0  0  0
  5  6  1  0  0  0  0
  1  6  1  0  0  0  0
  1  7  1  0  0  0  0
  7  8  1  0  0  0  0
  2  8  1  0  0  0  0
  7  9  1  1  0  0  0
  9 10  1  0  0  0  0
 10 11  2  0  0  0  0
  8 12  2  0  0  0  0
 10 13  1  0  0  0  0
  4 14  1  0  0  0  0
  3 15  1  0  0  0  0
 15 16  2  0  0  0  0
 15 17  1  0  0  0  0
 13 18  1  0  0  0  0
 18 19  1  0  0  0  0
 19 20  1  0  0  0  0
 20 21  2  0  0  0  0
 21 22  1  0  0  0  0
 22 23  1  0  0  0  0
 18 23  2  0  0  0  0
 13 24  1  1  0  0  0
  1 25  1  6  0  0  0
 14 26  1  0  0  0  0
M  END
> <DATABASE_ID>
DB11367

> <DATABASE_NAME>
drugbank

> <SMILES>
[H][C@]12SCC(OC)=C(N1C(=O)[C@H]2NC(=O)[C@H](N)C1=CCC=CC1)C(O)=O

> <INCHI_IDENTIFIER>
InChI=1S/C16H19N3O5S/c1-24-9-7-25-15-11(14(21)19(15)12(9)16(22)23)18-13(20)10(17)8-5-3-2-4-6-8/h2-3,6,10-11,15H,4-5,7,17H2,1H3,(H,18,20)(H,22,23)/t10-,11-,15-/m1/s1

> <INCHI_KEY>
RDMOROXKXONCAL-UEKVPHQBSA-N

> <FORMULA>
C16H19N3O5S

> <MOLECULAR_WEIGHT>
365.4

> <EXACT_MASS>
365.104541898

> <JCHEM_ACCEPTOR_COUNT>
6

> <JCHEM_ATOM_COUNT>
44

> <JCHEM_AVERAGE_POLARIZABILITY>
36.500549110267606

> <JCHEM_BIOAVAILABILITY>
1

> <JCHEM_DONOR_COUNT>
3

> <JCHEM_FORMAL_CHARGE>
0

> <JCHEM_GHOSE_FILTER>
0

> <JCHEM_IUPAC>
(6R,7R)-7-[(2R)-2-amino-2-(cyclohexa-1,4-dien-1-yl)acetamido]-3-methoxy-8-oxo-5-thia-1-azabicyclo[4.2.0]oct-2-ene-2-carboxylic acid

> <ALOGPS_LOGP>
0.65

> <JCHEM_LOGP>
-3.4026069177214344

> <ALOGPS_LOGS>
-2.57

> <JCHEM_MDDR_LIKE_RULE>
0

> <JCHEM_NUMBER_OF_RINGS>
3

> <JCHEM_PHYSIOLOGICAL_CHARGE>
0

> <JCHEM_PKA>
11.904232215595593

> <JCHEM_PKA_STRONGEST_ACIDIC>
3.2757511229672196

> <JCHEM_PKA_STRONGEST_BASIC>
7.59538309735072

> <JCHEM_POLAR_SURFACE_AREA>
121.96000000000001

> <JCHEM_REFRACTIVITY>
94.51110000000003

> <JCHEM_ROTATABLE_BOND_COUNT>
5

> <JCHEM_RULE_OF_FIVE>
1

> <ALOGPS_SOLUBILITY>
9.87e-01 g/l

> <JCHEM_TRADITIONAL_IUPAC>
cefroxadine

> <JCHEM_VEBER_RULE>
0

> <DRUGBANK_ID>
DB11367

> <DRUG_GROUPS>
withdrawn

> <GENERIC_NAME>
Cefroxadine

> <INTERNATIONAL_BRANDS>
Oraspor

$$$$

  Mrv0541 05061311122D          

 28 31  0  0  0  0            999 V2000
    3.5724   -1.2375    0.0000 C   0  0  0  0  0  0  0  0  0  0  0  0
    2.1434   -1.2375    0.0000 C   0  0  0  0  0  0  0  0  0  0  0  0
    3.5724   -0.4125    0.0000 C   0  0  0  0  0  0  0  0  0  0  0  0
    2.1434   -0.4125    0.0000 C   0  0  0  0  0  0  0  0  0  0  0  0
   -0.7145   -0.4125    0.0000 C   0  0  0  0  0  0  0  0  0  0  0  0
   -1.4289    0.8250    0.0000 C   0  0  0  0  0  0  0  0  0  0  0  0
    0.0000    0.0000    0.0000 C   0  0  0  0  0  0  0  0  0  0  0  0
   -0.7145    1.2375    0.0000 C   0  0  0  0  0  0  0  0  0  0  0  0
    1.4289    2.4750    0.0000 C   0  0  0  0  0  0  0  0  0  0  0  0
    1.4289    0.8250    0.0000 C   0  0  0  0  0  0  0  0  0  0  0  0
    3.5724    1.2375    0.0000 C   0  0  0  0  0  0  0  0  0  0  0  0
    2.8579   -1.6500    0.0000 C   0  0  0  0  0  0  0  0  0  0  0  0
    2.8579    0.0000    0.0000 C   0  0  0  0  0  0  0  0  0  0  0  0
    2.1434    2.0625    0.0000 C   0  0  0  0  0  0  0  0  0  0  0  0
    3.5724    2.0625    0.0000 C   0  0  0  0  0  0  0  0  0  0  0  0
    0.7145    2.0625    0.0000 C   0  0  0  0  0  0  0  0  0  0  0  0
    2.1434    1.2375    0.0000 C   0  0  0  0  0  0  0  0  0  0  0  0
    0.7145    1.2375    0.0000 C   0  0  0  0  0  0  0  0  0  0  0  0
    2.8579    2.4750    0.0000 C   0  0  0  0  0  0  0  0  0  0  0  0
    4.2868    2.4750    0.0000 C   0  0  0  0  0  0  0  0  0  0  0  0
    2.8579   -2.4750    0.0000 F   0  0  0  0  0  0  0  0  0  0  0  0
    0.0000    2.4750    0.0000 F   0  0  0  0  0  0  0  0  0  0  0  0
   -1.4289    0.0000    0.0000 N   0  0  0  0  0  0  0  0  0  0  0  0
    0.0000    0.8250    0.0000 N   0  0  0  0  0  0  0  0  0  0  0  0
    2.8579    0.8250    0.0000 N   0  0  0  0  0  0  0  0  0  0  0  0
    2.8579    3.3000    0.0000 O   0  0  0  0  0  0  0  0  0  0  0  0
    4.2868    3.3000    0.0000 O   0  0  0  0  0  0  0  0  0  0  0  0
    5.0013    2.0625    0.0000 O   0  0  0  0  0  0  0  0  0  0  0  0
  3  1  1  0  0  0  0
  4  2  2  0  0  0  0
  7  5  1  0  0  0  0
  8  6  1  0  0  0  0
 12  1  2  0  0  0  0
 12  2  1  0  0  0  0
 13  3  2  0  0  0  0
 13  4  1  0  0  0  0
 14  9  2  0  0  0  0
 15 11  2  0  0  0  0
 16  9  1  0  0  0  0
 17 10  2  0  0  0  0
 17 14  1  0  0  0  0
 18 10  1  0  0  0  0
 18 16  2  0  0  0  0
 19 14  1  0  0  0  0
 19 15  1  0  0  0  0
 20 15  1  0  0  0  0
 21 12  1  0  0  0  0
 22 16  1  0  0  0  0
 23  5  1  0  0  0  0
 23  6  1  0  0  0  0
 24  7  1  0  0  0  0
 24  8  1  0  0  0  0
 24 18  1  0  0  0  0
 25 11  1  0  0  0  0
 25 13  1  0  0  0  0
 25 17  1  0  0  0  0
 26 19  2  0  0  0  0
 27 20  2  0  0  0  0
 28 20  1  0  0  0  0
M  END
> <DATABASE_ID>
DB11491

> <DATABASE_NAME>
drugbank

> <SMILES>
OC(=O)C1=CN(C2=CC=C(F)C=C2)C2=CC(N3CCNCC3)=C(F)C=C2C1=O

> <INCHI_IDENTIFIER>
InChI=1S/C20H17F2N3O3/c21-12-1-3-13(4-2-12)25-11-15(20(27)28)19(26)14-9-16(22)18(10-17(14)25)24-7-5-23-6-8-24/h1-4,9-11,23H,5-8H2,(H,27,28)

> <INCHI_KEY>
XBHBWNFJWIASRO-UHFFFAOYSA-N

> <FORMULA>
C20H17F2N3O3

> <MOLECULAR_WEIGHT>
385.3641

> <EXACT_MASS>
385.123797835

> <JCHEM_ACCEPTOR_COUNT>
6

> <JCHEM_AVERAGE_POLARIZABILITY>
37.15136988495837

> <JCHEM_BIOAVAILABILITY>
1

> <JCHEM_DONOR_COUNT>
2

> <JCHEM_FORMAL_CHARGE>
0

> <JCHEM_GHOSE_FILTER>
1

> <JCHEM_IUPAC>
6-fluoro-1-(4-fluorophenyl)-4-oxo-7-(piperazin-1-yl)-1,4-dihydroquinoline-3-carboxylic acid

> <ALOGPS_LOGP>
0.29

> <JCHEM_LOGP>
0.5644399522790208

> <ALOGPS_LOGS>
-3.56

> <JCHEM_MDDR_LIKE_RULE>
0

> <JCHEM_NUMBER_OF_RINGS>
4

> <JCHEM_PHYSIOLOGICAL_CHARGE>
0

> <JCHEM_PKA_STRONGEST_ACIDIC>
5.739511618379093

> <JCHEM_PKA_STRONGEST_BASIC>
8.67628873768534

> <JCHEM_POLAR_SURFACE_AREA>
72.88

> <JCHEM_REFRACTIVITY>
99.89889999999997

> <JCHEM_ROTATABLE_BOND_COUNT>
3

> <JCHEM_RULE_OF_FIVE>
1

> <ALOGPS_SOLUBILITY>
1.05e-01 g/l

> <JCHEM_TRADITIONAL_IUPAC>
sarafloxacin

> <JCHEM_VEBER_RULE>
0

> <DRUGBANK_ID>
DB11491

> <DRUG_GROUPS>
vet_approved; withdrawn

> <GENERIC_NAME>
Sarafloxacin

> <SALTS>
Sarafloxacin hydrochloride

$$$$

  Mrv0541 09131211412D          

 22 24  0  0  0  0            999 V2000
   -0.5837    2.2374    0.0000 C   0  0  0  0  0  0  0  0  0  0  0  0
   -0.1712    1.5229    0.0000 C   0  0  0  0  0  0  0  0  0  0  0  0
    3.3523    1.1104    0.0000 C   0  0  0  0  0  0  0  0  0  0  0  0
    3.3523    1.9354    0.0000 C   0  0  0  0  0  0  0  0  0  0  0  0
    2.6378    0.6979    0.0000 C   0  0  0  0  0  0  0  0  0  0  0  0
    2.6378    2.3479    0.0000 C   0  0  0  0  0  0  0  0  0  0  0  0
   -0.1781   -0.8853    0.0000 C   0  0  0  0  0  0  0  0  0  0  0  0
   -0.4752    0.5124    0.0000 C   0  0  0  0  0  0  0  0  0  0  0  0
    0.0768   -0.1006    0.0000 C   0  0  0  0  0  0  0  0  0  0  0  0
    1.9233    1.1104    0.0000 C   0  0  0  0  0  0  0  0  0  0  0  0
   -0.9851   -1.0568    0.0000 C   0  0  0  0  0  0  0  0  0  0  0  0
   -1.2822    0.3409    0.0000 C   0  0  0  0  0  0  0  0  0  0  0  0
    0.6538    1.5229    0.0000 C   0  0  0  0  0  0  0  0  0  0  0  0
    1.9233    1.9354    0.0000 C   0  0  0  0  0  0  0  0  0  0  0  0
    1.1387    0.8555    0.0000 C   0  0  0  0  0  0  0  0  0  0  0  0
    0.8838    0.0709    0.0000 C   0  0  0  0  0  0  0  0  0  0  0  0
   -1.5371   -0.4437    0.0000 C   0  0  0  0  0  0  0  0  0  0  0  0
   -1.2400   -1.8414    0.0000 Br  0  0  0  0  0  0  0  0  0  0  0  0
   -1.8342    0.9540    0.0000 Br  0  0  0  0  0  0  0  0  0  0  0  0
    1.4358   -0.5422    0.0000 O   0  0  0  0  0  0  0  0  0  0  0  0
   -2.3441   -0.6152    0.0000 O   0  0  0  0  0  0  0  0  0  0  0  0
    1.1387    2.1904    0.0000 O   0  0  0  0  0  0  0  0  0  0  0  0
  2  1  1  0  0  0  0
  4  3  2  0  0  0  0
  5  3  1  0  0  0  0
  6  4  1  0  0  0  0
  9  7  2  0  0  0  0
  9  8  1  0  0  0  0
 10  5  2  0  0  0  0
 11  7  1  0  0  0  0
 12  8  2  0  0  0  0
 13  2  1  0  0  0  0
 14  6  2  0  0  0  0
 14 10  1  0  0  0  0
 15 10  1  0  0  0  0
 15 13  2  0  0  0  0
 16  9  1  0  0  0  0
 16 15  1  0  0  0  0
 17 11  2  0  0  0  0
 17 12  1  0  0  0  0
 18 11  1  0  0  0  0
 19 12  1  0  0  0  0
 20 16  2  0  0  0  0
 21 17  1  0  0  0  0
 22 13  1  0  0  0  0
 22 14  1  0  0  0  0
M  END
> <DATABASE_ID>
DB12319

> <DATABASE_NAME>
drugbank

> <SMILES>
CCC1=C(C(=O)C2=CC(Br)=C(O)C(Br)=C2)C2=CC=CC=C2O1

> <INCHI_IDENTIFIER>
InChI=1S/C17H12Br2O3/c1-2-13-15(10-5-3-4-6-14(10)22-13)16(20)9-7-11(18)17(21)12(19)8-9/h3-8,21H,2H2,1H3

> <INCHI_KEY>
WHQCHUCQKNIQEC-UHFFFAOYSA-N

> <FORMULA>
C17H12Br2O3

> <MOLECULAR_WEIGHT>
424.083

> <EXACT_MASS>
421.915319544

> <JCHEM_ACCEPTOR_COUNT>
2

> <JCHEM_AVERAGE_POLARIZABILITY>
35.64614561636836

> <JCHEM_BIOAVAILABILITY>
1

> <JCHEM_DONOR_COUNT>
1

> <JCHEM_FORMAL_CHARGE>
0

> <JCHEM_GHOSE_FILTER>
1

> <JCHEM_IUPAC>
2,6-dibromo-4-(2-ethyl-1-benzofuran-3-carbonyl)phenol

> <ALOGPS_LOGP>
5.52

> <JCHEM_LOGP>
5.547745900999999

> <ALOGPS_LOGS>
-4.51

> <JCHEM_MDDR_LIKE_RULE>
0

> <JCHEM_NUMBER_OF_RINGS>
3

> <JCHEM_PHYSIOLOGICAL_CHARGE>
-1

> <JCHEM_PKA_STRONGEST_ACIDIC>
5.11079144308044

> <JCHEM_PKA_STRONGEST_BASIC>
-3.842504364936835

> <JCHEM_POLAR_SURFACE_AREA>
50.44

> <JCHEM_REFRACTIVITY>
92.37480000000001

> <JCHEM_ROTATABLE_BOND_COUNT>
3

> <JCHEM_RULE_OF_FIVE>
0

> <ALOGPS_SOLUBILITY>
1.31e-02 g/l

> <JCHEM_TRADITIONAL_IUPAC>
benzbromarone

> <JCHEM_VEBER_RULE>
0

> <DRUGBANK_ID>
DB12319

> <DRUG_GROUPS>
investigational; withdrawn

> <GENERIC_NAME>
Benzbromarone

> <SYNONYMS>
2-ethyl-3-(3,5-dibrom-4-hydroxybenzoyl)benzofuran; 3,5-dibromo-4-hydroxyphenyl-2-ethyl-3-benzofuranyl ketone

> <INTERNATIONAL_BRANDS>
Uroleap

$$$$

  Mrv1572004221603002D          

 15 15  0  0  0  0            999 V2000
   -0.7145    3.7125    0.0000 C   0  0  0  0  0  0  0  0  0  0  0  0
   -0.0000    3.3000    0.0000 C   0  0  0  0  0  0  0  0  0  0  0  0
    1.4289   -0.0000    0.0000 C   0  0  0  0  0  0  0  0  0  0  0  0
    1.4289    0.8250    0.0000 C   0  0  0  0  0  0  0  0  0  0  0  0
   -0.0000    2.4750    0.0000 C   0  0  0  0  0  0  0  0  0  0  0  0
    0.0000   -0.0000    0.0000 C   0  0  0  0  0  0  0  0  0  0  0  0
    0.7145   -1.2375    0.0000 C   0  0  0  0  0  0  0  0  0  0  0  0
    0.7145   -0.4125    0.0000 C   0  0  0  0  0  0  0  0  0  0  0  0
    0.0000    0.8250    0.0000 C   0  0  0  0  0  0  0  0  0  0  0  0
    0.7145    1.2375    0.0000 C   0  0  0  0  0  0  0  0  0  0  0  0
   -0.0000   -1.6500    0.0000 C   0  0  0  0  0  0  0  0  0  0  0  0
   -0.7145    1.2375    0.0000 Cl  0  0  0  0  0  0  0  0  0  0  0  0
   -0.0000   -2.4750    0.0000 O   0  0  0  0  0  0  0  0  0  0  0  0
   -0.7145   -1.2375    0.0000 O   0  0  0  0  0  0  0  0  0  0  0  0
    0.7145    2.0625    0.0000 O   0  0  0  0  0  0  0  0  0  0  0  0
  2  1  2  0  0  0  0
  4  3  2  0  0  0  0
  5  2  1  0  0  0  0
  8  3  1  0  0  0  0
  8  6  2  0  0  0  0
  8  7  1  0  0  0  0
  9  6  1  0  0  0  0
 10  4  1  0  0  0  0
 10  9  2  0  0  0  0
 11  7  1  0  0  0  0
 12  9  1  0  0  0  0
 13 11  2  0  0  0  0
 14 11  1  0  0  0  0
 15  5  1  0  0  0  0
 15 10  1  0  0  0  0
M  END
> <DATABASE_ID>
DB13167

> <DATABASE_NAME>
drugbank

> <SMILES>
OC(=O)CC1=CC(Cl)=C(OCC=C)C=C1

> <INCHI_IDENTIFIER>
InChI=1S/C11H11ClO3/c1-2-5-15-10-4-3-8(6-9(10)12)7-11(13)14/h2-4,6H,1,5,7H2,(H,13,14)

> <INCHI_KEY>
ARHWPKZXBHOEEE-UHFFFAOYSA-N

> <FORMULA>
C11H11ClO3

> <MOLECULAR_WEIGHT>
226.66

> <EXACT_MASS>
226.0396719

> <JCHEM_ACCEPTOR_COUNT>
3

> <JCHEM_ATOM_COUNT>
26

> <JCHEM_AVERAGE_POLARIZABILITY>
22.284825813457417

> <JCHEM_BIOAVAILABILITY>
1

> <JCHEM_DONOR_COUNT>
1

> <JCHEM_FORMAL_CHARGE>
0

> <JCHEM_GHOSE_FILTER>
1

> <JCHEM_IUPAC>
2-[3-chloro-4-(prop-2-en-1-yloxy)phenyl]acetic acid

> <ALOGPS_LOGP>
3.01

> <JCHEM_LOGP>
2.788617339333333

> <ALOGPS_LOGS>
-2.90

> <JCHEM_MDDR_LIKE_RULE>
0

> <JCHEM_NUMBER_OF_RINGS>
1

> <JCHEM_PHYSIOLOGICAL_CHARGE>
-1

> <JCHEM_PKA_STRONGEST_ACIDIC>
3.705692735266783

> <JCHEM_PKA_STRONGEST_BASIC>
-4.913613057291896

> <JCHEM_POLAR_SURFACE_AREA>
46.53

> <JCHEM_REFRACTIVITY>
57.79630000000001

> <JCHEM_ROTATABLE_BOND_COUNT>
5

> <JCHEM_RULE_OF_FIVE>
1

> <ALOGPS_SOLUBILITY>
2.88e-01 g/l

> <JCHEM_TRADITIONAL_IUPAC>
mervan

> <JCHEM_VEBER_RULE>
0

> <DRUGBANK_ID>
DB13167

> <DRUG_GROUPS>
approved; withdrawn

> <GENERIC_NAME>
Alclofenac

> <SYNONYMS>
(4-Allyloxy-3-chlorphenyl)essigsäure; [4-(allyloxy)-3-chlorophenyl]acetic acid; 3-Chloro-4-(2-propenyloxy)benzeneacetic acid; Alclofénac; Alclofenaco; Alclofenacum; Alclophenac

$$$$
