MODEL 1
REMARK VINA RESULT:      -5.1      0.000      0.000
REMARK  2 active torsions:
REMARK  status: ('A' for Active; 'I' for Inactive)
REMARK    1  A    between atoms: O_1  and  C_4 
REMARK    2  A    between atoms: O_1  and  C_11 
REMARK       I    between atoms: N_3  and  C_11 
ROOT
HETATM    1  C   UNK N   1      35.246  12.555  15.118  0.00  0.00     0.134 C 
HETATM    2  C   UNK N   1      36.608  11.858  15.010  0.00  0.00     0.052 C 
HETATM    3  C   UNK N   1      34.143  11.541  14.735  0.00  0.00     0.052 C 
HETATM    4  C   UNK N   1      36.655  10.589  15.869  0.00  0.00     0.004 C 
HETATM    5  C   UNK N   1      34.202  10.251  15.549  0.00  0.00     0.004 C 
HETATM    6  C   UNK N   1      35.576   9.610  15.415  0.00  0.00     0.000 C 
HETATM    7  C   UNK N   1      35.107  13.075  16.494  0.00  0.00    -0.078 C 
HETATM    8  C   UNK N   1      35.062  13.540  17.607  0.00  0.00     0.015 C 
ENDROOT
BRANCH   1   9
HETATM    9  O   UNK N   1      35.217  13.640  14.252  0.00  0.00    -0.280 OA
BRANCH   9  10
HETATM   10  C   UNK N   1      36.321  14.335  13.846  0.00  0.00     0.359 C 
HETATM   11  O   UNK N   1      36.860  15.147  14.585  0.00  0.00    -0.239 OA
HETATM   12  N   UNK N   1      36.825  14.125  12.616  0.00  0.00    -0.346 N 
HETATM   13  H   UNK N   1      36.818  14.769  11.873  0.00  0.00     0.161 HD
HETATM   14  H   UNK N   1      37.238  13.248  12.446  0.00  0.00     0.161 HD
ENDBRANCH   9  10
ENDBRANCH   1   9
TORSDOF 2
ENDMDL
MODEL 2
REMARK VINA RESULT:      -5.0      9.067     10.410
REMARK  2 active torsions:
REMARK  status: ('A' for Active; 'I' for Inactive)
REMARK    1  A    between atoms: O_1  and  C_4 
REMARK    2  A    between atoms: O_1  and  C_11 
REMARK       I    between atoms: N_3  and  C_11 
ROOT
HETATM    1  C   UNK N   1      33.530  17.110   6.424  0.00  0.00     0.134 C 
HETATM    2  C   UNK N   1      33.301  17.602   4.989  0.00  0.00     0.052 C 
HETATM    3  C   UNK N   1      32.275  17.440   7.263  0.00  0.00     0.052 C 
HETATM    4  C   UNK N   1      32.023  17.002   4.391  0.00  0.00     0.004 C 
HETATM    5  C   UNK N   1      30.985  16.891   6.659  0.00  0.00     0.004 C 
HETATM    6  C   UNK N   1      30.815  17.399   5.235  0.00  0.00     0.000 C 
HETATM    7  C   UNK N   1      33.831  15.664   6.369  0.00  0.00    -0.078 C 
HETATM    8  C   UNK N   1      34.136  14.501   6.274  0.00  0.00     0.015 C 
ENDROOT
BRANCH   1   9
HETATM    9  O   UNK N   1      34.641  17.752   6.956  0.00  0.00    -0.280 OA
BRANCH   9  10
HETATM   10  C   UNK N   1      34.715  18.242   8.229  0.00  0.00     0.359 C 
HETATM   11  O   UNK N   1      34.863  19.438   8.435  0.00  0.00    -0.239 OA
HETATM   12  N   UNK N   1      34.622  17.399   9.274  0.00  0.00    -0.346 N 
HETATM   13  H   UNK N   1      35.348  17.176   9.900  0.00  0.00     0.161 HD
HETATM   14  H   UNK N   1      33.751  16.967   9.424  0.00  0.00     0.161 HD
ENDBRANCH   9  10
ENDBRANCH   1   9
TORSDOF 2
ENDMDL
MODEL 3
REMARK VINA RESULT:      -5.0     25.440     26.756
REMARK  2 active torsions:
REMARK  status: ('A' for Active; 'I' for Inactive)
REMARK    1  A    between atoms: O_1  and  C_4 
REMARK    2  A    between atoms: O_1  and  C_11 
REMARK       I    between atoms: N_3  and  C_11 
ROOT
HETATM    1  C   UNK N   1      26.076  27.560  -4.807  0.00  0.00     0.134 C 
HETATM    2  C   UNK N   1      24.937  26.948  -5.633  0.00  0.00     0.052 C 
HETATM    3  C   UNK N   1      26.701  26.448  -3.933  0.00  0.00     0.052 C 
HETATM    4  C   UNK N   1      25.428  25.757  -6.464  0.00  0.00     0.004 C 
HETATM    5  C   UNK N   1      27.155  25.234  -4.738  0.00  0.00     0.004 C 
HETATM    6  C   UNK N   1      25.991  24.676  -5.546  0.00  0.00     0.000 C 
HETATM    7  C   UNK N   1      27.038  28.177  -5.743  0.00  0.00    -0.078 C 
HETATM    8  C   UNK N   1      27.764  28.725  -6.536  0.00  0.00     0.015 C 
ENDROOT
BRANCH   1   9
HETATM    9  O   UNK N   1      25.565  28.568  -4.000  0.00  0.00    -0.280 OA
BRANCH   9  10
HETATM   10  C   UNK N   1      26.325  29.503  -3.356  0.00  0.00     0.359 C 
HETATM   11  O   UNK N   1      27.128  29.175  -2.493  0.00  0.00    -0.239 OA
HETATM   12  N   UNK N   1      26.192  30.804  -3.673  0.00  0.00    -0.346 N 
HETATM   13  H   UNK N   1      25.816  31.503  -3.091  0.00  0.00     0.161 HD
HETATM   14  H   UNK N   1      26.498  31.080  -4.566  0.00  0.00     0.161 HD
ENDBRANCH   9  10
ENDBRANCH   1   9
TORSDOF 2
ENDMDL
MODEL 4
REMARK VINA RESULT:      -4.8      1.277      2.353
REMARK  2 active torsions:
REMARK  status: ('A' for Active; 'I' for Inactive)
REMARK    1  A    between atoms: O_1  and  C_4 
REMARK    2  A    between atoms: O_1  and  C_11 
REMARK       I    between atoms: N_3  and  C_11 
ROOT
HETATM    1  C   UNK N   1      35.469  12.045  15.779  0.00  0.00     0.134 C 
HETATM    2  C   UNK N   1      35.156  12.047  17.281  0.00  0.00     0.052 C 
HETATM    3  C   UNK N   1      36.846  11.375  15.566  0.00  0.00     0.052 C 
HETATM    4  C   UNK N   1      35.215  10.630  17.865  0.00  0.00     0.004 C 
HETATM    5  C   UNK N   1      36.938   9.981  16.180  0.00  0.00     0.004 C 
HETATM    6  C   UNK N   1      36.607  10.039  17.664  0.00  0.00     0.000 C 
HETATM    7  C   UNK N   1      34.367  11.349  15.084  0.00  0.00    -0.078 C 
HETATM    8  C   UNK N   1      33.417  10.834  14.549  0.00  0.00     0.015 C 
ENDROOT
BRANCH   1   9
HETATM    9  O   UNK N   1      35.501  13.354  15.317  0.00  0.00    -0.280 OA
BRANCH   9  10
HETATM   10  C   UNK N   1      36.621  13.984  14.854  0.00  0.00     0.359 C 
HETATM   11  O   UNK N   1      37.407  14.518  15.624  0.00  0.00    -0.239 OA
HETATM   12  N   UNK N   1      36.867  14.020  13.532  0.00  0.00    -0.346 N 
HETATM   13  H   UNK N   1      36.843  14.822  12.962  0.00  0.00     0.161 HD
HETATM   14  H   UNK N   1      37.091  13.167  13.096  0.00  0.00     0.161 HD
ENDBRANCH   9  10
ENDBRANCH   1   9
TORSDOF 2
ENDMDL
MODEL 5
REMARK VINA RESULT:      -4.7      6.600      8.626
REMARK  2 active torsions:
REMARK  status: ('A' for Active; 'I' for Inactive)
REMARK    1  A    between atoms: O_1  and  C_4 
REMARK    2  A    between atoms: O_1  and  C_11 
REMARK       I    between atoms: N_3  and  C_11 
ROOT
HETATM    1  C   UNK N   1      34.022  16.779   8.485  0.00  0.00     0.134 C 
HETATM    2  C   UNK N   1      34.130  17.877   7.419  0.00  0.00     0.052 C 
HETATM    3  C   UNK N   1      32.528  16.444   8.695  0.00  0.00     0.052 C 
HETATM    4  C   UNK N   1      33.435  17.460   6.117  0.00  0.00     0.004 C 
HETATM    5  C   UNK N   1      31.807  16.071   7.403  0.00  0.00     0.004 C 
HETATM    6  C   UNK N   1      31.957  17.187   6.379  0.00  0.00     0.000 C 
HETATM    7  C   UNK N   1      34.822  15.622   8.032  0.00  0.00    -0.078 C 
HETATM    8  C   UNK N   1      35.537  14.726   7.657  0.00  0.00     0.015 C 
ENDROOT
BRANCH   1   9
HETATM    9  O   UNK N   1      34.579  17.238   9.672  0.00  0.00    -0.280 OA
BRANCH   9  10
HETATM   10  C   UNK N   1      35.226  16.447  10.579  0.00  0.00     0.359 C 
HETATM   11  O   UNK N   1      36.441  16.502  10.708  0.00  0.00    -0.239 OA
HETATM   12  N   UNK N   1      34.519  15.596  11.344  0.00  0.00    -0.346 N 
HETATM   13  H   UNK N   1      34.545  14.614  11.288  0.00  0.00     0.161 HD
HETATM   14  H   UNK N   1      33.923  15.991  12.020  0.00  0.00     0.161 HD
ENDBRANCH   9  10
ENDBRANCH   1   9
TORSDOF 2
ENDMDL
MODEL 6
REMARK VINA RESULT:      -4.7      1.139      2.427
REMARK  2 active torsions:
REMARK  status: ('A' for Active; 'I' for Inactive)
REMARK    1  A    between atoms: O_1  and  C_4 
REMARK    2  A    between atoms: O_1  and  C_11 
REMARK       I    between atoms: N_3  and  C_11 
ROOT
HETATM    1  C   UNK N   1      35.531  12.271  15.349  0.00  0.00     0.134 C 
HETATM    2  C   UNK N   1      34.480  11.251  14.894  0.00  0.00     0.052 C 
HETATM    3  C   UNK N   1      35.487  12.365  16.892  0.00  0.00     0.052 C 
HETATM    4  C   UNK N   1      34.694   9.891  15.569  0.00  0.00     0.004 C 
HETATM    5  C   UNK N   1      35.653  11.014  17.582  0.00  0.00     0.004 C 
HETATM    6  C   UNK N   1      34.595  10.039  17.084  0.00  0.00     0.000 C 
HETATM    7  C   UNK N   1      36.844  11.840  14.828  0.00  0.00    -0.078 C 
HETATM    8  C   UNK N   1      37.884  11.488  14.329  0.00  0.00     0.015 C 
ENDROOT
BRANCH   1   9
HETATM    9  O   UNK N   1      35.240  13.508  14.789  0.00  0.00    -0.280 OA
BRANCH   9  10
HETATM   10  C   UNK N   1      35.514  13.855  13.496  0.00  0.00     0.359 C 
HETATM   11  O   UNK N   1      34.784  13.499  12.581  0.00  0.00    -0.239 OA
HETATM   12  N   UNK N   1      36.601  14.600  13.222  0.00  0.00    -0.346 N 
HETATM   13  H   UNK N   1      37.400  14.295  12.735  0.00  0.00     0.161 HD
HETATM   14  H   UNK N   1      36.595  15.532  13.536  0.00  0.00     0.161 HD
ENDBRANCH   9  10
ENDBRANCH   1   9
TORSDOF 2
ENDMDL
MODEL 7
REMARK VINA RESULT:      -4.6     25.625     26.907
REMARK  2 active torsions:
REMARK  status: ('A' for Active; 'I' for Inactive)
REMARK    1  A    between atoms: O_1  and  C_4 
REMARK    2  A    between atoms: O_1  and  C_11 
REMARK       I    between atoms: N_3  and  C_11 
ROOT
HETATM    1  C   UNK N   1      25.931  26.143  -6.129  0.00  0.00     0.134 C 
HETATM    2  C   UNK N   1      26.702  25.468  -4.987  0.00  0.00     0.052 C 
HETATM    3  C   UNK N   1      24.807  27.009  -5.517  0.00  0.00     0.052 C 
HETATM    4  C   UNK N   1      27.237  26.501  -3.988  0.00  0.00     0.004 C 
HETATM    5  C   UNK N   1      25.313  28.013  -4.486  0.00  0.00     0.004 C 
HETATM    6  C   UNK N   1      26.080  27.293  -3.385  0.00  0.00     0.000 C 
HETATM    7  C   UNK N   1      26.895  26.922  -6.934  0.00  0.00    -0.078 C 
HETATM    8  C   UNK N   1      27.724  27.490  -7.601  0.00  0.00     0.015 C 
ENDROOT
BRANCH   1   9
HETATM    9  O   UNK N   1      25.386  25.166  -6.952  0.00  0.00    -0.280 OA
BRANCH   9  10
HETATM   10  C   UNK N   1      25.890  23.905  -7.094  0.00  0.00     0.359 C 
HETATM   11  O   UNK N   1      26.878  23.695  -7.784  0.00  0.00    -0.239 OA
HETATM   12  N   UNK N   1      25.295  22.874  -6.465  0.00  0.00    -0.346 N 
HETATM   13  H   UNK N   1      24.806  22.140  -6.900  0.00  0.00     0.161 HD
HETATM   14  H   UNK N   1      25.354  22.855  -5.483  0.00  0.00     0.161 HD
ENDBRANCH   9  10
ENDBRANCH   1   9
TORSDOF 2
ENDMDL
MODEL 8
REMARK VINA RESULT:      -4.5     25.002     26.594
REMARK  2 active torsions:
REMARK  status: ('A' for Active; 'I' for Inactive)
REMARK    1  A    between atoms: O_1  and  C_4 
REMARK    2  A    between atoms: O_1  and  C_11 
REMARK       I    between atoms: N_3  and  C_11 
ROOT
HETATM    1  C   UNK N   1      26.044  25.184  -6.392  0.00  0.00     0.134 C 
HETATM    2  C   UNK N   1      27.525  25.585  -6.364  0.00  0.00     0.052 C 
HETATM    3  C   UNK N   1      25.860  23.922  -5.518  0.00  0.00     0.052 C 
HETATM    4  C   UNK N   1      28.020  25.791  -4.927  0.00  0.00     0.004 C 
HETATM    5  C   UNK N   1      26.389  24.093  -4.096  0.00  0.00     0.004 C 
HETATM    6  C   UNK N   1      27.855  24.501  -4.128  0.00  0.00     0.000 C 
HETATM    7  C   UNK N   1      25.249  26.338  -5.925  0.00  0.00    -0.078 C 
HETATM    8  C   UNK N   1      24.634  27.324  -5.601  0.00  0.00     0.015 C 
ENDROOT
BRANCH   1   9
HETATM    9  O   UNK N   1      25.669  24.915  -7.702  0.00  0.00    -0.280 OA
BRANCH   9  10
HETATM   10  C   UNK N   1      25.562  23.661  -8.233  0.00  0.00     0.359 C 
HETATM   11  O   UNK N   1      24.473  23.117  -8.349  0.00  0.00    -0.239 OA
HETATM   12  N   UNK N   1      26.669  23.012  -8.638  0.00  0.00    -0.346 N 
HETATM   13  H   UNK N   1      27.053  22.209  -8.217  0.00  0.00     0.161 HD
HETATM   14  H   UNK N   1      27.137  23.373  -9.424  0.00  0.00     0.161 HD
ENDBRANCH   9  10
ENDBRANCH   1   9
TORSDOF 2
ENDMDL
MODEL 9
REMARK VINA RESULT:      -4.5      7.415      9.243
REMARK  2 active torsions:
REMARK  status: ('A' for Active; 'I' for Inactive)
REMARK    1  A    between atoms: O_1  and  C_4 
REMARK    2  A    between atoms: O_1  and  C_11 
REMARK       I    between atoms: N_3  and  C_11 
ROOT
HETATM    1  C   UNK N   1      32.880  16.525   8.083  0.00  0.00     0.134 C 
HETATM    2  C   UNK N   1      32.228  15.379   7.298  0.00  0.00     0.052 C 
HETATM    3  C   UNK N   1      34.024  17.117   7.228  0.00  0.00     0.052 C 
HETATM    4  C   UNK N   1      31.746  15.850   5.920  0.00  0.00     0.004 C 
HETATM    5  C   UNK N   1      33.573  17.549   5.835  0.00  0.00     0.004 C 
HETATM    6  C   UNK N   1      32.924  16.380   5.108  0.00  0.00     0.000 C 
HETATM    7  C   UNK N   1      31.829  17.510   8.412  0.00  0.00    -0.078 C 
HETATM    8  C   UNK N   1      30.930  18.254   8.717  0.00  0.00     0.015 C 
ENDROOT
BRANCH   1   9
HETATM    9  O   UNK N   1      33.386  16.031   9.278  0.00  0.00    -0.280 OA
BRANCH   9  10
HETATM   10  C   UNK N   1      34.684  16.164   9.682  0.00  0.00     0.359 C 
HETATM   11  O   UNK N   1      35.546  15.388   9.294  0.00  0.00    -0.239 OA
HETATM   12  N   UNK N   1      35.023  17.162  10.518  0.00  0.00    -0.346 N 
HETATM   13  H   UNK N   1      35.315  17.058  11.452  0.00  0.00     0.161 HD
HETATM   14  H   UNK N   1      34.974  18.079  10.163  0.00  0.00     0.161 HD
ENDBRANCH   9  10
ENDBRANCH   1   9
TORSDOF 2
ENDMDL
