REMARK  1 active torsions:
REMARK  status: ('A' for Active; 'I' for Inactive)
REMARK    1  A    between atoms: N_5  and  C_7 
ROOT
HETATM    1  O   UNK N   1       3.998  -2.039  -0.145  0.00  0.00    -0.267 OA
HETATM    2  O   UNK N   1       3.699   2.405   0.544  0.00  0.00    -0.267 OA
HETATM    3  N   UNK N   1       4.247   0.206   0.274  0.00  0.00    -0.266 N 
HETATM    4  C   UNK N   1       3.531  -0.921  -0.009  0.00  0.00     0.262 A 
HETATM    5  C   UNK N   1       3.378   1.249   0.316  0.00  0.00     0.262 A 
HETATM    6  C   UNK N   1       2.114  -0.578  -0.139  0.00  0.00     0.048 A 
HETATM    7  C   UNK N   1       2.023   0.778   0.059  0.00  0.00     0.048 A 
HETATM    8  C   UNK N   1       0.987  -1.355  -0.400  0.00  0.00     0.018 A 
HETATM    9  C   UNK N   1       0.805   1.451   0.004  0.00  0.00     0.018 A 
HETATM   10  C   UNK N   1      -0.260  -0.704  -0.458  0.00  0.00     0.001 A 
HETATM   11  C   UNK N   1      -0.350   0.693  -0.260  0.00  0.00     0.001 A 
ENDROOT
BRANCH   3  12
HETATM   12  C   UNK N   1       5.686   0.369   0.514  0.00  0.00     0.189 C 
HETATM   13  C   UNK N   1       6.288   1.305  -0.537  0.00  0.00     0.045 C 
HETATM   14  C   UNK N   1       7.761   1.532  -0.262  0.00  0.00     0.106 C 
HETATM   15  C   UNK N   1       8.466   0.211  -0.210  0.00  0.00     0.224 C 
HETATM   16  O   UNK N   1       9.632   0.141  -0.560  0.00  0.00    -0.273 OA
HETATM   17  N   UNK N   1       7.842  -0.892   0.281  0.00  0.00    -0.296 N 
HETATM   18  C   UNK N   1       6.539  -0.886   0.675  0.00  0.00     0.247 C 
HETATM   19  H   UNK N   1       8.353  -1.730   0.354  0.00  0.00     0.171 HD
HETATM   20  O   UNK N   1       6.104  -1.853   1.278  0.00  0.00    -0.271 OA
ENDBRANCH   3  12
TORSDOF 1
