MODEL 1
REMARK VINA RESULT:      -6.9      0.000      0.000
REMARK  1 active torsions:
REMARK  status: ('A' for Active; 'I' for Inactive)
REMARK    1  A    between atoms: N_5  and  C_7 
ROOT
HETATM    1  O   UNK N   1      31.596  16.184   8.731  0.00  0.00    -0.267 OA
HETATM    2  O   UNK N   1      35.343  15.935   6.238  0.00  0.00    -0.267 OA
HETATM    3  N   UNK N   1      33.685  15.937   7.807  0.00  0.00    -0.266 N 
HETATM    4  C   UNK N   1      32.361  16.268   7.785  0.00  0.00     0.262 A 
HETATM    5  C   UNK N   1      34.182  16.139   6.559  0.00  0.00     0.262 A 
HETATM    6  C   UNK N   1      31.995  16.726   6.444  0.00  0.00     0.048 A 
HETATM    7  C   UNK N   1      33.133  16.639   5.680  0.00  0.00     0.048 A 
HETATM    8  C   UNK N   1      30.792  17.186   5.912  0.00  0.00     0.018 A 
HETATM    9  C   UNK N   1      33.147  16.999   4.335  0.00  0.00     0.018 A 
HETATM   10  C   UNK N   1      30.775  17.561   4.555  0.00  0.00     0.001 A 
HETATM   11  C   UNK N   1      31.946  17.465   3.770  0.00  0.00     0.001 A 
ENDROOT
BRANCH   3  12
HETATM   12  C   UNK N   1      34.514  15.452   8.917  0.00  0.00     0.189 C 
HETATM   13  C   UNK N   1      33.920  14.162   9.487  0.00  0.00     0.045 C 
HETATM   14  C   UNK N   1      34.802  13.616  10.592  0.00  0.00     0.106 C 
HETATM   15  C   UNK N   1      34.988  14.667  11.644  0.00  0.00     0.224 C 
HETATM   16  O   UNK N   1      35.144  14.330  12.805  0.00  0.00    -0.273 OA
HETATM   17  N   UNK N   1      35.047  15.983  11.310  0.00  0.00    -0.296 N 
HETATM   18  C   UNK N   1      34.867  16.428  10.036  0.00  0.00     0.247 C 
HETATM   19  H   UNK N   1      35.227  16.642  12.018  0.00  0.00     0.171 HD
HETATM   20  O   UNK N   1      35.121  17.593   9.779  0.00  0.00    -0.271 OA
ENDBRANCH   3  12
TORSDOF 1
ENDMDL
MODEL 2
REMARK VINA RESULT:      -6.9     10.984     13.689
REMARK  1 active torsions:
REMARK  status: ('A' for Active; 'I' for Inactive)
REMARK    1  A    between atoms: N_5  and  C_7 
ROOT
HETATM    1  O   UNK N   1      23.310  14.187   7.313  0.00  0.00    -0.267 OA
HETATM    2  O   UNK N   1      19.658  13.633   9.895  0.00  0.00    -0.267 OA
HETATM    3  N   UNK N   1      21.256  14.116   8.338  0.00  0.00    -0.266 N 
HETATM    4  C   UNK N   1      22.596  13.873   8.249  0.00  0.00     0.262 A 
HETATM    5  C   UNK N   1      20.816  13.590   9.511  0.00  0.00     0.262 A 
HETATM    6  C   UNK N   1      23.042  13.162   9.448  0.00  0.00     0.048 A 
HETATM    7  C   UNK N   1      21.928  12.982  10.231  0.00  0.00     0.048 A 
HETATM    8  C   UNK N   1      24.297  12.706   9.849  0.00  0.00     0.018 A 
HETATM    9  C   UNK N   1      21.988  12.331  11.460  0.00  0.00     0.018 A 
HETATM   10  C   UNK N   1      24.391  12.047  11.089  0.00  0.00     0.001 A 
HETATM   11  C   UNK N   1      23.241  11.858  11.890  0.00  0.00     0.001 A 
ENDROOT
BRANCH   3  12
HETATM   12  C   UNK N   1      20.364  14.813   7.404  0.00  0.00     0.189 C 
HETATM   13  C   UNK N   1      20.311  14.060   6.072  0.00  0.00     0.045 C 
HETATM   14  C   UNK N   1      19.343  14.734   5.121  0.00  0.00     0.106 C 
HETATM   15  C   UNK N   1      19.738  16.169   4.945  0.00  0.00     0.224 C 
HETATM   16  O   UNK N   1      19.511  16.726   3.884  0.00  0.00    -0.273 OA
HETATM   17  N   UNK N   1      20.287  16.870   5.971  0.00  0.00    -0.296 N 
HETATM   18  C   UNK N   1      20.580  16.306   7.175  0.00  0.00     0.247 C 
HETATM   19  H   UNK N   1      20.481  17.826   5.839  0.00  0.00     0.171 HD
HETATM   20  O   UNK N   1      20.891  17.033   8.104  0.00  0.00    -0.271 OA
ENDBRANCH   3  12
TORSDOF 1
ENDMDL
MODEL 3
REMARK VINA RESULT:      -6.8     16.444     17.734
REMARK  1 active torsions:
REMARK  status: ('A' for Active; 'I' for Inactive)
REMARK    1  A    between atoms: N_5  and  C_7 
ROOT
HETATM    1  O   UNK N   1      29.066  24.237  -5.035  0.00  0.00    -0.267 OA
HETATM    2  O   UNK N   1      25.130  23.211  -6.974  0.00  0.00    -0.267 OA
HETATM    3  N   UNK N   1      26.911  24.021  -5.801  0.00  0.00    -0.266 N 
HETATM    4  C   UNK N   1      28.226  23.665  -5.708  0.00  0.00     0.262 A 
HETATM    5  C   UNK N   1      26.310  23.164  -6.666  0.00  0.00     0.262 A 
HETATM    6  C   UNK N   1      28.475  22.497  -6.553  0.00  0.00     0.048 A 
HETATM    7  C   UNK N   1      27.279  22.190  -7.154  0.00  0.00     0.048 A 
HETATM    8  C   UNK N   1      29.625  21.748  -6.792  0.00  0.00     0.018 A 
HETATM    9  C   UNK N   1      27.150  21.122  -8.038  0.00  0.00     0.018 A 
HETATM   10  C   UNK N   1      29.526  20.658  -7.678  0.00  0.00     0.001 A 
HETATM   11  C   UNK N   1      28.295  20.348  -8.300  0.00  0.00     0.001 A 
ENDROOT
BRANCH   3  12
HETATM   12  C   UNK N   1      26.182  25.104  -5.130  0.00  0.00     0.189 C 
HETATM   13  C   UNK N   1      26.381  26.418  -5.890  0.00  0.00     0.045 C 
HETATM   14  C   UNK N   1      25.581  27.530  -5.243  0.00  0.00     0.106 C 
HETATM   15  C   UNK N   1      25.968  27.646  -3.800  0.00  0.00     0.224 C 
HETATM   16  O   UNK N   1      25.918  28.735  -3.253  0.00  0.00    -0.273 OA
HETATM   17  N   UNK N   1      26.312  26.546  -3.081  0.00  0.00    -0.296 N 
HETATM   18  C   UNK N   1      26.401  25.305  -3.633  0.00  0.00     0.247 C 
HETATM   19  H   UNK N   1      26.505  26.650  -2.121  0.00  0.00     0.171 HD
HETATM   20  O   UNK N   1      26.527  24.342  -2.895  0.00  0.00    -0.271 OA
ENDBRANCH   3  12
TORSDOF 1
ENDMDL
MODEL 4
REMARK VINA RESULT:      -6.5     13.930     16.234
REMARK  1 active torsions:
REMARK  status: ('A' for Active; 'I' for Inactive)
REMARK    1  A    between atoms: N_5  and  C_7 
ROOT
HETATM    1  O   UNK N   1      30.208  24.394  -2.744  0.00  0.00    -0.267 OA
HETATM    2  O   UNK N   1      28.078  22.935  -6.438  0.00  0.00    -0.267 OA
HETATM    3  N   UNK N   1      28.878  23.971  -4.569  0.00  0.00    -0.266 N 
HETATM    4  C   UNK N   1      29.896  23.704  -3.700  0.00  0.00     0.262 A 
HETATM    5  C   UNK N   1      28.868  22.991  -5.509  0.00  0.00     0.262 A 
HETATM    6  C   UNK N   1      30.567  22.467  -4.102  0.00  0.00     0.048 A 
HETATM    7  C   UNK N   1      29.927  22.028  -5.234  0.00  0.00     0.048 A 
HETATM    8  C   UNK N   1      31.636  21.764  -3.548  0.00  0.00     0.018 A 
HETATM    9  C   UNK N   1      30.311  20.863  -5.894  0.00  0.00     0.018 A 
HETATM   10  C   UNK N   1      32.045  20.580  -4.190  0.00  0.00     0.001 A 
HETATM   11  C   UNK N   1      31.388  20.133  -5.359  0.00  0.00     0.001 A 
ENDROOT
BRANCH   3  12
HETATM   12  C   UNK N   1      27.912  25.077  -4.573  0.00  0.00     0.189 C 
HETATM   13  C   UNK N   1      28.650  26.414  -4.673  0.00  0.00     0.045 C 
HETATM   14  C   UNK N   1      27.660  27.560  -4.742  0.00  0.00     0.106 C 
HETATM   15  C   UNK N   1      26.750  27.503  -3.553  0.00  0.00     0.224 C 
HETATM   16  O   UNK N   1      26.295  28.539  -3.098  0.00  0.00    -0.273 OA
HETATM   17  N   UNK N   1      26.376  26.310  -3.020  0.00  0.00    -0.296 N 
HETATM   18  C   UNK N   1      26.858  25.120  -3.471  0.00  0.00     0.247 C 
HETATM   19  H   UNK N   1      25.732  26.307  -2.276  0.00  0.00     0.171 HD
HETATM   20  O   UNK N   1      26.338  24.089  -3.075  0.00  0.00    -0.271 OA
ENDBRANCH   3  12
TORSDOF 1
ENDMDL
MODEL 5
REMARK VINA RESULT:      -6.4      1.905      2.451
REMARK  1 active torsions:
REMARK  status: ('A' for Active; 'I' for Inactive)
REMARK    1  A    between atoms: N_5  and  C_7 
ROOT
HETATM    1  O   UNK N   1      30.720  17.839   9.085  0.00  0.00    -0.267 OA
HETATM    2  O   UNK N   1      32.539  16.059   5.365  0.00  0.00    -0.267 OA
HETATM    3  N   UNK N   1      31.973  16.865   7.424  0.00  0.00    -0.266 N 
HETATM    4  C   UNK N   1      30.868  17.490   7.926  0.00  0.00     0.262 A 
HETATM    5  C   UNK N   1      31.745  16.614   6.109  0.00  0.00     0.262 A 
HETATM    6  C   UNK N   1      29.880  17.663   6.861  0.00  0.00     0.048 A 
HETATM    7  C   UNK N   1      30.428  17.110   5.729  0.00  0.00     0.048 A 
HETATM    8  C   UNK N   1      28.615  18.248   6.848  0.00  0.00     0.018 A 
HETATM    9  C   UNK N   1      29.751  17.097   4.512  0.00  0.00     0.018 A 
HETATM   10  C   UNK N   1      27.907  18.254   5.632  0.00  0.00     0.001 A 
HETATM   11  C   UNK N   1      28.471  17.679   4.470  0.00  0.00     0.001 A 
ENDROOT
BRANCH   3  12
HETATM   12  C   UNK N   1      33.228  16.496   8.091  0.00  0.00     0.189 C 
HETATM   13  C   UNK N   1      32.943  15.523   9.238  0.00  0.00     0.045 C 
HETATM   14  C   UNK N   1      34.237  15.084   9.893  0.00  0.00     0.106 C 
HETATM   15  C   UNK N   1      34.996  16.292  10.351  0.00  0.00     0.224 C 
HETATM   16  O   UNK N   1      35.711  16.212  11.336  0.00  0.00    -0.273 OA
HETATM   17  N   UNK N   1      34.948  17.453   9.646  0.00  0.00    -0.296 N 
HETATM   18  C   UNK N   1      34.161  17.614   8.547  0.00  0.00     0.247 C 
HETATM   19  H   UNK N   1      35.504  18.209   9.943  0.00  0.00     0.171 HD
HETATM   20  O   UNK N   1      34.310  18.610   7.859  0.00  0.00    -0.271 OA
ENDBRANCH   3  12
TORSDOF 1
ENDMDL
MODEL 6
REMARK VINA RESULT:      -6.4     13.393     16.221
REMARK  1 active torsions:
REMARK  status: ('A' for Active; 'I' for Inactive)
REMARK    1  A    between atoms: N_5  and  C_7 
ROOT
HETATM    1  O   UNK N   1      29.997  25.871  -5.401  0.00  0.00    -0.267 OA
HETATM    2  O   UNK N   1      26.720  24.287  -2.744  0.00  0.00    -0.267 OA
HETATM    3  N   UNK N   1      28.545  24.719  -4.043  0.00  0.00    -0.266 N 
HETATM    4  C   UNK N   1      28.957  25.799  -4.770  0.00  0.00     0.262 A 
HETATM    5  C   UNK N   1      27.358  25.037  -3.465  0.00  0.00     0.262 A 
HETATM    6  C   UNK N   1      27.961  26.867  -4.662  0.00  0.00     0.048 A 
HETATM    7  C   UNK N   1      26.967  26.390  -3.842  0.00  0.00     0.048 A 
HETATM    8  C   UNK N   1      27.898  28.143  -5.218  0.00  0.00     0.018 A 
HETATM    9  C   UNK N   1      25.849  27.154  -3.518  0.00  0.00     0.018 A 
HETATM   10  C   UNK N   1      26.778  28.938  -4.912  0.00  0.00     0.001 A 
HETATM   11  C   UNK N   1      25.760  28.447  -4.063  0.00  0.00     0.001 A 
ENDROOT
BRANCH   3  12
HETATM   12  C   UNK N   1      29.185  23.411  -3.862  0.00  0.00     0.189 C 
HETATM   13  C   UNK N   1      30.438  23.558  -2.994  0.00  0.00     0.045 C 
HETATM   14  C   UNK N   1      31.072  22.204  -2.746  0.00  0.00     0.106 C 
HETATM   15  C   UNK N   1      31.367  21.546  -4.059  0.00  0.00     0.224 C 
HETATM   16  O   UNK N   1      32.319  20.790  -4.148  0.00  0.00    -0.273 OA
HETATM   17  N   UNK N   1      30.550  21.731  -5.129  0.00  0.00    -0.296 N 
HETATM   18  C   UNK N   1      29.479  22.571  -5.101  0.00  0.00     0.247 C 
HETATM   19  H   UNK N   1      30.741  21.238  -5.960  0.00  0.00     0.171 HD
HETATM   20  O   UNK N   1      28.687  22.543  -6.028  0.00  0.00    -0.271 OA
ENDBRANCH   3  12
TORSDOF 1
ENDMDL
MODEL 7
REMARK VINA RESULT:      -6.4      7.613     10.329
REMARK  1 active torsions:
REMARK  status: ('A' for Active; 'I' for Inactive)
REMARK    1  A    between atoms: N_5  and  C_7 
ROOT
HETATM    1  O   UNK N   1      35.407   9.333  15.934  0.00  0.00    -0.267 OA
HETATM    2  O   UNK N   1      34.938  13.634  14.671  0.00  0.00    -0.267 OA
HETATM    3  N   UNK N   1      35.180  11.377  14.910  0.00  0.00    -0.266 N 
HETATM    4  C   UNK N   1      35.310  10.547  15.986  0.00  0.00     0.262 A 
HETATM    5  C   UNK N   1      35.071  12.648  15.378  0.00  0.00     0.262 A 
HETATM    6  C   UNK N   1      35.301  11.340  17.217  0.00  0.00     0.048 A 
HETATM    7  C   UNK N   1      35.146  12.650  16.834  0.00  0.00     0.048 A 
HETATM    8  C   UNK N   1      35.419  10.980  18.558  0.00  0.00     0.018 A 
HETATM    9  C   UNK N   1      35.093  13.687  17.761  0.00  0.00     0.018 A 
HETATM   10  C   UNK N   1      35.373  12.008  19.519  0.00  0.00     0.001 A 
HETATM   11  C   UNK N   1      35.207  13.355  19.123  0.00  0.00     0.001 A 
ENDROOT
BRANCH   3  12
HETATM   12  C   UNK N   1      35.158  11.061  13.477  0.00  0.00     0.189 C 
HETATM   13  C   UNK N   1      33.864  10.322  13.125  0.00  0.00     0.045 C 
HETATM   14  C   UNK N   1      33.800  10.046  11.637  0.00  0.00     0.106 C 
HETATM   15  C   UNK N   1      35.020   9.282  11.220  0.00  0.00     0.224 C 
HETATM   16  O   UNK N   1      34.945   8.496  10.291  0.00  0.00    -0.273 OA
HETATM   17  N   UNK N   1      36.218   9.501  11.823  0.00  0.00    -0.296 N 
HETATM   18  C   UNK N   1      36.368  10.353  12.874  0.00  0.00     0.247 C 
HETATM   19  H   UNK N   1      37.010   9.024  11.486  0.00  0.00     0.171 HD
HETATM   20  O   UNK N   1      37.495  10.643  13.239  0.00  0.00    -0.271 OA
ENDBRANCH   3  12
TORSDOF 1
ENDMDL
MODEL 8
REMARK VINA RESULT:      -6.3      6.372     10.584
REMARK  1 active torsions:
REMARK  status: ('A' for Active; 'I' for Inactive)
REMARK    1  A    between atoms: N_5  and  C_7 
ROOT
HETATM    1  O   UNK N   1      34.699  13.378  15.498  0.00  0.00    -0.267 OA
HETATM    2  O   UNK N   1      36.632   9.331  15.939  0.00  0.00    -0.267 OA
HETATM    3  N   UNK N   1      35.653  11.296  15.317  0.00  0.00    -0.266 N 
HETATM    4  C   UNK N   1      35.181  12.378  16.002  0.00  0.00     0.262 A 
HETATM    5  C   UNK N   1      36.134  10.408  16.225  0.00  0.00     0.262 A 
HETATM    6  C   UNK N   1      35.357  12.159  17.439  0.00  0.00     0.048 A 
HETATM    7  C   UNK N   1      35.957  10.931  17.574  0.00  0.00     0.048 A 
HETATM    8  C   UNK N   1      35.029  12.938  18.547  0.00  0.00     0.018 A 
HETATM    9  C   UNK N   1      36.276  10.400  18.821  0.00  0.00     0.018 A 
HETATM   10  C   UNK N   1      35.336  12.426  19.822  0.00  0.00     0.001 A 
HETATM   11  C   UNK N   1      35.959  11.164  19.958  0.00  0.00     0.001 A 
ENDROOT
BRANCH   3  12
HETATM   12  C   UNK N   1      35.677  11.037  13.872  0.00  0.00     0.189 C 
HETATM   13  C   UNK N   1      36.669  11.980  13.188  0.00  0.00     0.045 C 
HETATM   14  C   UNK N   1      36.750  11.679  11.705  0.00  0.00     0.106 C 
HETATM   15  C   UNK N   1      35.380  11.767  11.105  0.00  0.00     0.224 C 
HETATM   16  O   UNK N   1      35.257  12.120   9.944  0.00  0.00    -0.273 OA
HETATM   17  N   UNK N   1      34.283  11.399  11.818  0.00  0.00    -0.296 N 
HETATM   18  C   UNK N   1      34.349  11.009  13.120  0.00  0.00     0.247 C 
HETATM   19  H   UNK N   1      33.405  11.415  11.374  0.00  0.00     0.171 HD
HETATM   20  O   UNK N   1      33.360  10.514  13.635  0.00  0.00    -0.271 OA
ENDBRANCH   3  12
TORSDOF 1
ENDMDL
MODEL 9
REMARK VINA RESULT:      -6.2      4.002      8.457
REMARK  1 active torsions:
REMARK  status: ('A' for Active; 'I' for Inactive)
REMARK    1  A    between atoms: N_5  and  C_7 
ROOT
HETATM    1  O   UNK N   1      34.464  11.458  12.169  0.00  0.00    -0.267 OA
HETATM    2  O   UNK N   1      36.521  14.630  14.622  0.00  0.00    -0.267 OA
HETATM    3  N   UNK N   1      35.567  13.264  13.063  0.00  0.00    -0.266 N 
HETATM    4  C   UNK N   1      34.949  12.049  13.119  0.00  0.00     0.262 A 
HETATM    5  C   UNK N   1      35.943  13.597  14.325  0.00  0.00     0.262 A 
HETATM    6  C   UNK N   1      34.945  11.568  14.502  0.00  0.00     0.048 A 
HETATM    7  C   UNK N   1      35.561  12.539  15.252  0.00  0.00     0.048 A 
HETATM    8  C   UNK N   1      34.461  10.396  15.080  0.00  0.00     0.018 A 
HETATM    9  C   UNK N   1      35.731  12.411  16.629  0.00  0.00     0.018 A 
HETATM   10  C   UNK N   1      34.621  10.235  16.469  0.00  0.00     0.001 A 
HETATM   11  C   UNK N   1      35.250  11.239  17.240  0.00  0.00     0.001 A 
ENDROOT
BRANCH   3  12
HETATM   12  C   UNK N   1      35.835  14.129  11.907  0.00  0.00     0.189 C 
HETATM   13  C   UNK N   1      34.517  14.639  11.320  0.00  0.00     0.045 C 
HETATM   14  C   UNK N   1      34.782  15.584  10.165  0.00  0.00     0.106 C 
HETATM   15  C   UNK N   1      35.628  14.891   9.140  0.00  0.00     0.224 C 
HETATM   16  O   UNK N   1      35.505  15.187   7.964  0.00  0.00    -0.273 OA
HETATM   17  N   UNK N   1      36.571  13.986   9.513  0.00  0.00    -0.296 N 
HETATM   18  C   UNK N   1      36.751  13.601  10.806  0.00  0.00     0.247 C 
HETATM   19  H   UNK N   1      37.148  13.593   8.819  0.00  0.00     0.171 HD
HETATM   20  O   UNK N   1      37.734  12.936  11.089  0.00  0.00    -0.271 OA
ENDBRANCH   3  12
TORSDOF 1
ENDMDL
