MODEL 1
REMARK VINA RESULT:      -5.3      0.000      0.000
REMARK  5 active torsions:
REMARK  status: ('A' for Active; 'I' for Inactive)
REMARK    1  A    between atoms: N_2  and  C_6 
REMARK    2  A    between atoms: C_3  and  C_6 
REMARK    3  A    between atoms: C_3  and  C_8 
REMARK    4  A    between atoms: C_6  and  C_9 
REMARK    5  A    between atoms: C_9  and  C_10 
ROOT
HETATM    1  C   UNK N   1      27.782  24.497  -4.658  0.00  0.00     0.018 A 
HETATM    2  C   UNK N   1      26.937  24.416  -3.390  0.00  0.00     0.016 A 
HETATM    3  C   UNK N   1      28.933  23.811  -3.940  0.00  0.00     0.016 A 
HETATM    4  C   UNK N   1      28.076  23.692  -2.689  0.00  0.00     0.002 A 
ENDROOT
BRANCH   1   5
HETATM    5  C   UNK N   1      28.097  25.972  -5.090  0.00  0.00     0.235 C 
BRANCH   5   6
HETATM    6  N   UNK N   1      29.440  26.429  -4.663  0.00  0.00     0.085 N 
HETATM    7  C   UNK N   1      29.352  27.641  -3.857  0.00  0.00     0.309 C 
HETATM    8  C   UNK N   1      30.231  26.812  -5.822  0.00  0.00     0.309 C 
ENDBRANCH   5   6
BRANCH   5   9
HETATM    9  C   UNK N   1      27.002  26.927  -4.578  0.00  0.00     0.041 C 
BRANCH   9  10
HETATM   10  C   UNK N   1      26.205  27.474  -5.757  0.00  0.00    -0.021 C 
HETATM   11  C   UNK N   1      26.799  26.982  -7.057  0.00  0.00     0.009 C 
HETATM   12  C   UNK N   1      24.753  27.036  -5.671  0.00  0.00     0.009 C 
ENDBRANCH   9  10
ENDBRANCH   5   9
ENDBRANCH   1   5
BRANCH   1  13
HETATM   13  C   UNK N   1      27.261  23.610  -5.778  0.00  0.00    -0.047 A 
HETATM   14  C   UNK N   1      28.153  22.903  -6.607  0.00  0.00     0.010 A 
HETATM   15  C   UNK N   1      27.677  22.067  -7.614  0.00  0.00     0.024 A 
HETATM   16  C   UNK N   1      26.302  21.920  -7.808  0.00  0.00     0.034 A 
HETATM   17 Cl   UNK N   1      25.709  20.860  -9.067  0.00  0.00    -0.084 Cl
HETATM   18  C   UNK N   1      25.404  22.619  -6.994  0.00  0.00     0.024 A 
HETATM   19  C   UNK N   1      25.879  23.460  -5.984  0.00  0.00     0.010 A 
ENDBRANCH   1  13
TORSDOF 5
ENDMDL
MODEL 2
REMARK VINA RESULT:      -5.2     13.766     16.252
REMARK  5 active torsions:
REMARK  status: ('A' for Active; 'I' for Inactive)
REMARK    1  A    between atoms: N_2  and  C_6 
REMARK    2  A    between atoms: C_3  and  C_6 
REMARK    3  A    between atoms: C_3  and  C_8 
REMARK    4  A    between atoms: C_6  and  C_9 
REMARK    5  A    between atoms: C_9  and  C_10 
ROOT
HETATM    1  C   UNK N   1      32.067  16.489   5.666  0.00  0.00     0.018 A 
HETATM    2  C   UNK N   1      32.335  17.605   4.660  0.00  0.00     0.016 A 
HETATM    3  C   UNK N   1      32.641  15.470   4.695  0.00  0.00     0.016 A 
HETATM    4  C   UNK N   1      32.947  16.587   3.709  0.00  0.00     0.002 A 
ENDROOT
BRANCH   1   5
HETATM    5  C   UNK N   1      30.539  16.288   5.962  0.00  0.00     0.235 C 
BRANCH   5   6
HETATM    6  N   UNK N   1      29.766  15.871   4.770  0.00  0.00     0.085 N 
HETATM    7  C   UNK N   1      28.760  16.868   4.419  0.00  0.00     0.309 C 
HETATM    8  C   UNK N   1      29.005  14.666   5.061  0.00  0.00     0.309 C 
ENDBRANCH   5   6
BRANCH   5   9
HETATM    9  C   UNK N   1      29.940  17.560   6.589  0.00  0.00     0.041 C 
BRANCH   9  10
HETATM   10  C   UNK N   1      29.653  17.320   8.067  0.00  0.00    -0.021 C 
HETATM   11  C   UNK N   1      30.377  18.346   8.909  0.00  0.00     0.009 C 
HETATM   12  C   UNK N   1      28.163  17.405   8.345  0.00  0.00     0.009 C 
ENDBRANCH   9  10
ENDBRANCH   5   9
ENDBRANCH   1   5
BRANCH   1  13
HETATM   13  C   UNK N   1      32.943  16.583   6.905  0.00  0.00    -0.047 A 
HETATM   14  C   UNK N   1      33.674  17.754   7.180  0.00  0.00     0.010 A 
HETATM   15  C   UNK N   1      34.454  17.852   8.330  0.00  0.00     0.024 A 
HETATM   16  C   UNK N   1      34.514  16.784   9.226  0.00  0.00     0.034 A 
HETATM   17 Cl   UNK N   1      35.485  16.917  10.675  0.00  0.00    -0.084 Cl
HETATM   18  C   UNK N   1      33.794  15.613   8.965  0.00  0.00     0.024 A 
HETATM   19  C   UNK N   1      33.013  15.511   7.811  0.00  0.00     0.010 A 
ENDBRANCH   1  13
TORSDOF 5
ENDMDL
MODEL 3
REMARK VINA RESULT:      -5.2      3.160      4.524
REMARK  5 active torsions:
REMARK  status: ('A' for Active; 'I' for Inactive)
REMARK    1  A    between atoms: N_2  and  C_6 
REMARK    2  A    between atoms: C_3  and  C_6 
REMARK    3  A    between atoms: C_3  and  C_8 
REMARK    4  A    between atoms: C_6  and  C_9 
REMARK    5  A    between atoms: C_9  and  C_10 
ROOT
HETATM    1  C   UNK N   1      26.697  27.349  -4.670  0.00  0.00     0.018 A 
HETATM    2  C   UNK N   1      26.174  27.237  -6.099  0.00  0.00     0.016 A 
HETATM    3  C   UNK N   1      25.272  27.318  -4.142  0.00  0.00     0.016 A 
HETATM    4  C   UNK N   1      24.753  27.164  -5.563  0.00  0.00     0.002 A 
ENDROOT
BRANCH   1   5
HETATM    5  C   UNK N   1      27.442  28.701  -4.395  0.00  0.00     0.235 C 
BRANCH   5   6
HETATM    6  N   UNK N   1      26.870  29.461  -3.260  0.00  0.00     0.085 N 
HETATM    7  C   UNK N   1      26.581  30.839  -3.642  0.00  0.00     0.309 C 
HETATM    8  C   UNK N   1      27.845  29.572  -2.187  0.00  0.00     0.309 C 
ENDBRANCH   5   6
BRANCH   5   9
HETATM    9  C   UNK N   1      27.481  29.563  -5.671  0.00  0.00     0.041 C 
BRANCH   9  10
HETATM   10  C   UNK N   1      28.907  29.631  -6.204  0.00  0.00    -0.021 C 
HETATM   11  C   UNK N   1      28.960  29.086  -7.614  0.00  0.00     0.009 C 
HETATM   12  C   UNK N   1      29.414  31.062  -6.201  0.00  0.00     0.009 C 
ENDBRANCH   9  10
ENDBRANCH   5   9
ENDBRANCH   1   5
BRANCH   1  13
HETATM   13  C   UNK N   1      27.451  26.109  -4.213  0.00  0.00    -0.047 A 
HETATM   14  C   UNK N   1      28.842  26.006  -4.403  0.00  0.00     0.010 A 
HETATM   15  C   UNK N   1      29.539  24.884  -3.959  0.00  0.00     0.024 A 
HETATM   16  C   UNK N   1      28.858  23.849  -3.316  0.00  0.00     0.034 A 
HETATM   17 Cl   UNK N   1      29.740  22.448  -2.750  0.00  0.00    -0.084 Cl
HETATM   18  C   UNK N   1      27.476  23.937  -3.123  0.00  0.00     0.024 A 
HETATM   19  C   UNK N   1      26.774  25.060  -3.569  0.00  0.00     0.010 A 
ENDBRANCH   1  13
TORSDOF 5
ENDMDL
MODEL 4
REMARK VINA RESULT:      -5.2      2.480      3.803
REMARK  5 active torsions:
REMARK  status: ('A' for Active; 'I' for Inactive)
REMARK    1  A    between atoms: N_2  and  C_6 
REMARK    2  A    between atoms: C_3  and  C_6 
REMARK    3  A    between atoms: C_3  and  C_8 
REMARK    4  A    between atoms: C_6  and  C_9 
REMARK    5  A    between atoms: C_9  and  C_10 
ROOT
HETATM    1  C   UNK N   1      27.426  24.557  -5.066  0.00  0.00     0.018 A 
HETATM    2  C   UNK N   1      27.042  24.049  -6.453  0.00  0.00     0.016 A 
HETATM    3  C   UNK N   1      26.142  23.978  -4.494  0.00  0.00     0.016 A 
HETATM    4  C   UNK N   1      25.779  23.435  -5.868  0.00  0.00     0.002 A 
ENDROOT
BRANCH   1   5
HETATM    5  C   UNK N   1      27.502  26.122  -4.987  0.00  0.00     0.235 C 
BRANCH   5   6
HETATM    6  N   UNK N   1      28.883  26.644  -5.118  0.00  0.00     0.085 N 
HETATM    7  C   UNK N   1      29.301  27.335  -3.903  0.00  0.00     0.309 C 
HETATM    8  C   UNK N   1      28.939  27.658  -6.159  0.00  0.00     0.309 C 
ENDBRANCH   5   6
BRANCH   5   9
HETATM    9  C   UNK N   1      26.842  26.628  -3.692  0.00  0.00     0.041 C 
BRANCH   9  10
HETATM   10  C   UNK N   1      25.683  27.557  -4.034  0.00  0.00    -0.021 C 
HETATM   11  C   UNK N   1      26.097  28.998  -3.835  0.00  0.00     0.009 C 
HETATM   12  C   UNK N   1      25.241  27.357  -5.473  0.00  0.00     0.009 C 
ENDBRANCH   9  10
ENDBRANCH   5   9
ENDBRANCH   1   5
BRANCH   1  13
HETATM   13  C   UNK N   1      28.631  23.836  -4.481  0.00  0.00    -0.047 A 
HETATM   14  C   UNK N   1      28.777  23.699  -3.088  0.00  0.00     0.010 A 
HETATM   15  C   UNK N   1      29.865  23.013  -2.551  0.00  0.00     0.024 A 
HETATM   16  C   UNK N   1      30.823  22.451  -3.397  0.00  0.00     0.034 A 
HETATM   17 Cl   UNK N   1      32.180  21.581  -2.719  0.00  0.00    -0.084 Cl
HETATM   18  C   UNK N   1      30.691  22.582  -4.784  0.00  0.00     0.024 A 
HETATM   19  C   UNK N   1      29.603  23.272  -5.325  0.00  0.00     0.010 A 
ENDBRANCH   1  13
TORSDOF 5
ENDMDL
MODEL 5
REMARK VINA RESULT:      -5.1     25.094     27.447
REMARK  5 active torsions:
REMARK  status: ('A' for Active; 'I' for Inactive)
REMARK    1  A    between atoms: N_2  and  C_6 
REMARK    2  A    between atoms: C_3  and  C_6 
REMARK    3  A    between atoms: C_3  and  C_8 
REMARK    4  A    between atoms: C_6  and  C_9 
REMARK    5  A    between atoms: C_9  and  C_10 
ROOT
HETATM    1  C   UNK N   1      35.435  10.882  15.072  0.00  0.00     0.018 A 
HETATM    2  C   UNK N   1      33.954  10.526  14.989  0.00  0.00     0.016 A 
HETATM    3  C   UNK N   1      35.481  11.058  13.563  0.00  0.00     0.016 A 
HETATM    4  C   UNK N   1      33.996  10.745  13.484  0.00  0.00     0.002 A 
ENDROOT
BRANCH   1   5
HETATM    5  C   UNK N   1      36.319   9.697  15.596  0.00  0.00     0.235 C 
BRANCH   5   6
HETATM    6  N   UNK N   1      37.203   9.125  14.554  0.00  0.00     0.085 N 
HETATM    7  C   UNK N   1      37.036   7.680  14.456  0.00  0.00     0.309 C 
HETATM    8  C   UNK N   1      38.598   9.312  14.921  0.00  0.00     0.309 C 
ENDBRANCH   5   6
BRANCH   5   9
HETATM    9  C   UNK N   1      35.436   8.605  16.228  0.00  0.00     0.041 C 
BRANCH   9  10
HETATM   10  C   UNK N   1      35.587   8.635  17.745  0.00  0.00    -0.021 C 
HETATM   11  C   UNK N   1      36.767   9.497  18.131  0.00  0.00     0.009 C 
HETATM   12  C   UNK N   1      34.331   9.185  18.397  0.00  0.00     0.009 C 
ENDBRANCH   9  10
ENDBRANCH   5   9
ENDBRANCH   1   5
BRANCH   1  13
HETATM   13  C   UNK N   1      35.690  12.212  15.762  0.00  0.00    -0.047 A 
HETATM   14  C   UNK N   1      35.018  12.542  16.954  0.00  0.00     0.010 A 
HETATM   15  C   UNK N   1      35.272  13.748  17.604  0.00  0.00     0.024 A 
HETATM   16  C   UNK N   1      36.204  14.643  17.075  0.00  0.00     0.034 A 
HETATM   17 Cl   UNK N   1      36.528  16.151  17.901  0.00  0.00    -0.084 Cl
HETATM   18  C   UNK N   1      36.878  14.330  15.890  0.00  0.00     0.024 A 
HETATM   19  C   UNK N   1      36.623  13.122  15.235  0.00  0.00     0.010 A 
ENDBRANCH   1  13
TORSDOF 5
ENDMDL
MODEL 6
REMARK VINA RESULT:      -5.1      3.250      5.707
REMARK  5 active torsions:
REMARK  status: ('A' for Active; 'I' for Inactive)
REMARK    1  A    between atoms: N_2  and  C_6 
REMARK    2  A    between atoms: C_3  and  C_6 
REMARK    3  A    between atoms: C_3  and  C_8 
REMARK    4  A    between atoms: C_6  and  C_9 
REMARK    5  A    between atoms: C_9  and  C_10 
ROOT
HETATM    1  C   UNK N   1      27.050  26.291  -7.020  0.00  0.00     0.018 A 
HETATM    2  C   UNK N   1      25.734  25.569  -7.293  0.00  0.00     0.016 A 
HETATM    3  C   UNK N   1      27.103  26.750  -8.469  0.00  0.00     0.016 A 
HETATM    4  C   UNK N   1      25.770  26.066  -8.730  0.00  0.00     0.002 A 
ENDROOT
BRANCH   1   5
HETATM    5  C   UNK N   1      28.213  25.315  -6.625  0.00  0.00     0.235 C 
BRANCH   5   6
HETATM    6  N   UNK N   1      29.092  24.966  -7.766  0.00  0.00     0.085 N 
HETATM    7  C   UNK N   1      29.063  23.532  -8.032  0.00  0.00     0.309 C 
HETATM    8  C   UNK N   1      30.479  25.253  -7.437  0.00  0.00     0.309 C 
ENDBRANCH   5   6
BRANCH   5   9
HETATM    9  C   UNK N   1      27.648  24.048  -5.957  0.00  0.00     0.041 C 
BRANCH   9  10
HETATM   10  C   UNK N   1      27.969  24.065  -4.467  0.00  0.00    -0.021 C 
HETATM   11  C   UNK N   1      28.921  25.197  -4.155  0.00  0.00     0.009 C 
HETATM   12  C   UNK N   1      26.702  24.235  -3.648  0.00  0.00     0.009 C 
ENDBRANCH   9  10
ENDBRANCH   5   9
ENDBRANCH   1   5
BRANCH   1  13
HETATM   13  C   UNK N   1      26.891  27.489  -6.097  0.00  0.00    -0.047 A 
HETATM   14  C   UNK N   1      25.930  27.479  -5.069  0.00  0.00     0.010 A 
HETATM   15  C   UNK N   1      25.802  28.564  -4.203  0.00  0.00     0.024 A 
HETATM   16  C   UNK N   1      26.636  29.674  -4.349  0.00  0.00     0.034 A 
HETATM   17 Cl   UNK N   1      26.480  31.028  -3.252  0.00  0.00    -0.084 Cl
HETATM   18  C   UNK N   1      27.594  29.699  -5.368  0.00  0.00     0.024 A 
HETATM   19  C   UNK N   1      27.722  28.614  -6.239  0.00  0.00     0.010 A 
ENDBRANCH   1  13
TORSDOF 5
ENDMDL
MODEL 7
REMARK VINA RESULT:      -5.1     15.031     17.782
REMARK  5 active torsions:
REMARK  status: ('A' for Active; 'I' for Inactive)
REMARK    1  A    between atoms: N_2  and  C_6 
REMARK    2  A    between atoms: C_3  and  C_6 
REMARK    3  A    between atoms: C_3  and  C_8 
REMARK    4  A    between atoms: C_6  and  C_9 
REMARK    5  A    between atoms: C_9  and  C_10 
ROOT
HETATM    1  C   UNK N   1      32.659  16.700   8.131  0.00  0.00     0.018 A 
HETATM    2  C   UNK N   1      31.181  16.585   8.493  0.00  0.00     0.016 A 
HETATM    3  C   UNK N   1      32.559  18.216   8.192  0.00  0.00     0.016 A 
HETATM    4  C   UNK N   1      31.097  18.100   8.594  0.00  0.00     0.002 A 
ENDROOT
BRANCH   1   5
HETATM    5  C   UNK N   1      32.984  16.146   6.700  0.00  0.00     0.235 C 
BRANCH   5   6
HETATM    6  N   UNK N   1      33.882  14.969   6.722  0.00  0.00     0.085 N 
HETATM    7  C   UNK N   1      35.167  15.276   6.103  0.00  0.00     0.309 C 
HETATM    8  C   UNK N   1      33.327  13.899   5.909  0.00  0.00     0.309 C 
ENDBRANCH   5   6
BRANCH   5   9
HETATM    9  C   UNK N   1      33.560  17.262   5.809  0.00  0.00     0.041 C 
BRANCH   9  10
HETATM   10  C   UNK N   1      32.644  17.490   4.612  0.00  0.00    -0.021 C 
HETATM   11  C   UNK N   1      33.149  16.711   3.418  0.00  0.00     0.009 C 
HETATM   12  C   UNK N   1      31.225  17.054   4.931  0.00  0.00     0.009 C 
ENDBRANCH   9  10
ENDBRANCH   5   9
ENDBRANCH   1   5
BRANCH   1  13
HETATM   13  C   UNK N   1      33.582  16.193   9.228  0.00  0.00    -0.047 A 
HETATM   14  C   UNK N   1      34.723  16.927   9.603  0.00  0.00     0.010 A 
HETATM   15  C   UNK N   1      35.553  16.478  10.628  0.00  0.00     0.024 A 
HETATM   16  C   UNK N   1      35.256  15.290  11.297  0.00  0.00     0.034 A 
HETATM   17 Cl   UNK N   1      36.295  14.737  12.591  0.00  0.00    -0.084 Cl
HETATM   18  C   UNK N   1      34.127  14.548  10.934  0.00  0.00     0.024 A 
HETATM   19  C   UNK N   1      33.294  14.995   9.904  0.00  0.00     0.010 A 
ENDBRANCH   1  13
TORSDOF 5
ENDMDL
MODEL 8
REMARK VINA RESULT:      -5.1     12.076     14.336
REMARK  5 active torsions:
REMARK  status: ('A' for Active; 'I' for Inactive)
REMARK    1  A    between atoms: N_2  and  C_6 
REMARK    2  A    between atoms: C_3  and  C_6 
REMARK    3  A    between atoms: C_3  and  C_8 
REMARK    4  A    between atoms: C_6  and  C_9 
REMARK    5  A    between atoms: C_9  and  C_10 
ROOT
HETATM    1  C   UNK N   1      29.447  16.749   4.951  0.00  0.00     0.018 A 
HETATM    2  C   UNK N   1      28.967  15.505   5.693  0.00  0.00     0.016 A 
HETATM    3  C   UNK N   1      28.799  16.241   3.673  0.00  0.00     0.016 A 
HETATM    4  C   UNK N   1      28.285  15.022   4.422  0.00  0.00     0.002 A 
ENDROOT
BRANCH   1   5
HETATM    5  C   UNK N   1      31.010  16.848   4.870  0.00  0.00     0.235 C 
BRANCH   5   6
HETATM    6  N   UNK N   1      31.579  16.129   3.706  0.00  0.00     0.085 N 
HETATM    7  C   UNK N   1      32.318  14.944   4.129  0.00  0.00     0.309 C 
HETATM    8  C   UNK N   1      32.566  16.961   3.036  0.00  0.00     0.309 C 
ENDBRANCH   5   6
BRANCH   5   9
HETATM    9  C   UNK N   1      31.649  16.360   6.184  0.00  0.00     0.041 C 
BRANCH   9  10
HETATM   10  C   UNK N   1      32.331  17.527   6.888  0.00  0.00    -0.021 C 
HETATM   11  C   UNK N   1      31.983  17.519   8.359  0.00  0.00     0.009 C 
HETATM   12  C   UNK N   1      33.839  17.441   6.731  0.00  0.00     0.009 C 
ENDBRANCH   9  10
ENDBRANCH   5   9
ENDBRANCH   1   5
BRANCH   1  13
HETATM   13  C   UNK N   1      28.758  18.022   5.416  0.00  0.00    -0.047 A 
HETATM   14  C   UNK N   1      28.280  18.961   4.483  0.00  0.00     0.010 A 
HETATM   15  C   UNK N   1      27.622  20.115   4.906  0.00  0.00     0.024 A 
HETATM   16  C   UNK N   1      27.428  20.346   6.269  0.00  0.00     0.034 A 
HETATM   17 Cl   UNK N   1      26.591  21.789   6.796  0.00  0.00    -0.084 Cl
HETATM   18  C   UNK N   1      27.900  19.423   7.208  0.00  0.00     0.024 A 
HETATM   19  C   UNK N   1      28.562  18.267   6.786  0.00  0.00     0.010 A 
ENDBRANCH   1  13
TORSDOF 5
ENDMDL
MODEL 9
REMARK VINA RESULT:      -5.0     11.835     14.606
REMARK  5 active torsions:
REMARK  status: ('A' for Active; 'I' for Inactive)
REMARK    1  A    between atoms: N_2  and  C_6 
REMARK    2  A    between atoms: C_3  and  C_6 
REMARK    3  A    between atoms: C_3  and  C_8 
REMARK    4  A    between atoms: C_6  and  C_9 
REMARK    5  A    between atoms: C_9  and  C_10 
ROOT
HETATM    1  C   UNK N   1      29.893  16.269   4.960  0.00  0.00     0.018 A 
HETATM    2  C   UNK N   1      30.138  16.361   3.456  0.00  0.00     0.016 A 
HETATM    3  C   UNK N   1      29.949  14.752   4.879  0.00  0.00     0.016 A 
HETATM    4  C   UNK N   1      30.236  14.845   3.389  0.00  0.00     0.002 A 
ENDROOT
BRANCH   1   5
HETATM    5  C   UNK N   1      28.490  16.826   5.385  0.00  0.00     0.235 C 
BRANCH   5   6
HETATM    6  N   UNK N   1      27.493  15.760   5.638  0.00  0.00     0.085 N 
HETATM    7  C   UNK N   1      26.406  15.814   4.666  0.00  0.00     0.309 C 
HETATM    8  C   UNK N   1      26.848  15.971   6.925  0.00  0.00     0.309 C 
ENDBRANCH   5   6
BRANCH   5   9
HETATM    9  C   UNK N   1      27.969  17.829   4.338  0.00  0.00     0.041 C 
BRANCH   9  10
HETATM   10  C   UNK N   1      28.191  19.253   4.835  0.00  0.00    -0.021 C 
HETATM   11  C   UNK N   1      27.280  20.207   4.097  0.00  0.00     0.009 C 
HETATM   12  C   UNK N   1      27.917  19.350   6.325  0.00  0.00     0.009 C 
ENDBRANCH   9  10
ENDBRANCH   5   9
ENDBRANCH   1   5
BRANCH   1  13
HETATM   13  C   UNK N   1      31.057  16.792   5.786  0.00  0.00    -0.047 A 
HETATM   14  C   UNK N   1      32.305  17.044   5.187  0.00  0.00     0.010 A 
HETATM   15  C   UNK N   1      33.365  17.552   5.936  0.00  0.00     0.024 A 
HETATM   16  C   UNK N   1      33.193  17.820   7.296  0.00  0.00     0.034 A 
HETATM   17 Cl   UNK N   1      34.522  18.469   8.230  0.00  0.00    -0.084 Cl
HETATM   18  C   UNK N   1      31.958  17.572   7.905  0.00  0.00     0.024 A 
HETATM   19  C   UNK N   1      30.895  17.060   7.156  0.00  0.00     0.010 A 
ENDBRANCH   1  13
TORSDOF 5
ENDMDL
