MODEL 1
REMARK VINA RESULT:      -5.0      0.000      0.000
REMARK  2 active torsions:
REMARK  status: ('A' for Active; 'I' for Inactive)
REMARK    1  A    between atoms: C_4  and  C_7 
REMARK    2  A    between atoms: C_4  and  C_8 
ROOT
HETATM    1  O   UNK N   1      28.449  26.773  -3.921  0.00  0.00    -0.296 OA
HETATM    2  O   UNK N   1      24.166  27.351  -5.824  0.00  0.00    -0.272 OA
HETATM    3  N   UNK N   1      25.100  25.344  -5.596  0.00  0.00    -0.359 N 
HETATM    4  C   UNK N   1      26.343  27.421  -4.844  0.00  0.00     0.101 C 
HETATM    5  C   UNK N   1      26.871  25.005  -4.008  0.00  0.00     0.070 C 
HETATM    6  C   UNK N   1      27.324  26.418  -4.252  0.00  0.00     0.150 C 
HETATM    7  C   UNK N   1      25.126  26.700  -5.445  0.00  0.00     0.233 C 
HETATM    8  C   UNK N   1      26.226  24.498  -5.272  0.00  0.00     0.134 C 
HETATM    9  C   UNK N   1      27.973  24.077  -3.528  0.00  0.00     0.020 C 
HETATM   10  H   UNK N   1      24.278  24.924  -5.941  0.00  0.00     0.162 HD
ENDROOT
BRANCH   4  11
HETATM   11  C   UNK N   1      25.874  28.359  -3.715  0.00  0.00     0.022 C 
HETATM   12  C   UNK N   1      26.425  29.777  -3.828  0.00  0.00     0.007 C 
ENDBRANCH   4  11
BRANCH   4  13
HETATM   13  C   UNK N   1      27.035  28.217  -5.970  0.00  0.00     0.022 C 
HETATM   14  C   UNK N   1      27.371  27.375  -7.198  0.00  0.00     0.007 C 
ENDBRANCH   4  13
TORSDOF 2
ENDMDL
MODEL 2
REMARK VINA RESULT:      -4.8     14.466     16.210
REMARK  2 active torsions:
REMARK  status: ('A' for Active; 'I' for Inactive)
REMARK    1  A    between atoms: C_4  and  C_7 
REMARK    2  A    between atoms: C_4  and  C_8 
ROOT
HETATM    1  O   UNK N   1      34.582  16.847   5.949  0.00  0.00    -0.296 OA
HETATM    2  O   UNK N   1      29.866  17.035   5.833  0.00  0.00    -0.272 OA
HETATM    3  N   UNK N   1      31.024  17.471   7.682  0.00  0.00    -0.359 N 
HETATM    4  C   UNK N   1      32.228  16.828   5.547  0.00  0.00     0.101 C 
HETATM    5  C   UNK N   1      33.342  18.088   7.544  0.00  0.00     0.070 C 
HETATM    6  C   UNK N   1      33.476  17.206   6.333  0.00  0.00     0.150 C 
HETATM    7  C   UNK N   1      30.960  17.128   6.364  0.00  0.00     0.233 C 
HETATM    8  C   UNK N   1      32.263  17.509   8.424  0.00  0.00     0.134 C 
HETATM    9  C   UNK N   1      34.639  18.293   8.306  0.00  0.00     0.020 C 
HETATM   10  H   UNK N   1      30.188  17.701   8.150  0.00  0.00     0.162 HD
ENDROOT
BRANCH   4  11
HETATM   11  C   UNK N   1      32.207  17.658   4.249  0.00  0.00     0.022 C 
HETATM   12  C   UNK N   1      32.522  16.845   2.997  0.00  0.00     0.007 C 
ENDBRANCH   4  11
BRANCH   4  13
HETATM   13  C   UNK N   1      32.251  15.317   5.235  0.00  0.00     0.022 C 
HETATM   14  C   UNK N   1      32.150  14.433   6.475  0.00  0.00     0.007 C 
ENDBRANCH   4  13
TORSDOF 2
ENDMDL
MODEL 3
REMARK VINA RESULT:      -4.7     14.808     16.536
REMARK  2 active torsions:
REMARK  status: ('A' for Active; 'I' for Inactive)
REMARK    1  A    between atoms: C_4  and  C_7 
REMARK    2  A    between atoms: C_4  and  C_8 
ROOT
HETATM    1  O   UNK N   1      30.474  17.456   6.085  0.00  0.00    -0.296 OA
HETATM    2  O   UNK N   1      35.029  16.238   5.840  0.00  0.00    -0.272 OA
HETATM    3  N   UNK N   1      34.220  17.470   7.507  0.00  0.00    -0.359 N 
HETATM    4  C   UNK N   1      32.692  16.687   5.643  0.00  0.00     0.101 C 
HETATM    5  C   UNK N   1      31.869  17.445   8.002  0.00  0.00     0.070 C 
HETATM    6  C   UNK N   1      31.591  17.240   6.538  0.00  0.00     0.150 C 
HETATM    7  C   UNK N   1      34.057  16.776   6.344  0.00  0.00     0.233 C 
HETATM    8  C   UNK N   1      33.154  18.223   8.126  0.00  0.00     0.134 C 
HETATM    9  C   UNK N   1      30.734  18.111   8.759  0.00  0.00     0.020 C 
HETATM   10  H   UNK N   1      35.104  17.457   7.943  0.00  0.00     0.162 HD
ENDROOT
BRANCH   4  11
HETATM   11  C   UNK N   1      32.369  15.211   5.340  0.00  0.00     0.022 C 
HETATM   12  C   UNK N   1      32.216  14.348   6.589  0.00  0.00     0.007 C 
ENDBRANCH   4  11
BRANCH   4  13
HETATM   13  C   UNK N   1      32.764  17.514   4.343  0.00  0.00     0.022 C 
HETATM   14  C   UNK N   1      32.752  16.664   3.075  0.00  0.00     0.007 C 
ENDBRANCH   4  13
TORSDOF 2
ENDMDL
MODEL 4
REMARK VINA RESULT:      -4.7     15.945     18.182
REMARK  2 active torsions:
REMARK  status: ('A' for Active; 'I' for Inactive)
REMARK    1  A    between atoms: C_4  and  C_7 
REMARK    2  A    between atoms: C_4  and  C_8 
ROOT
HETATM    1  O   UNK N   1      32.614  14.785   7.526  0.00  0.00    -0.296 OA
HETATM    2  O   UNK N   1      34.776  18.957   7.984  0.00  0.00    -0.272 OA
HETATM    3  N   UNK N   1      34.902  17.379   9.548  0.00  0.00    -0.359 N 
HETATM    4  C   UNK N   1      33.550  16.981   7.442  0.00  0.00     0.101 C 
HETATM    5  C   UNK N   1      34.451  15.085   8.994  0.00  0.00     0.070 C 
HETATM    6  C   UNK N   1      33.454  15.556   7.971  0.00  0.00     0.150 C 
HETATM    7  C   UNK N   1      34.459  17.834   8.341  0.00  0.00     0.233 C 
HETATM    8  C   UNK N   1      34.500  16.107  10.102  0.00  0.00     0.134 C 
HETATM    9  C   UNK N   1      34.176  13.690   9.528  0.00  0.00     0.020 C 
HETATM   10  H   UNK N   1      35.522  17.944  10.065  0.00  0.00     0.162 HD
ENDROOT
BRANCH   4  11
HETATM   11  C   UNK N   1      34.142  16.926   6.021  0.00  0.00     0.022 C 
HETATM   12  C   UNK N   1      33.194  17.439   4.941  0.00  0.00     0.007 C 
ENDBRANCH   4  11
BRANCH   4  13
HETATM   13  C   UNK N   1      32.147  17.623   7.430  0.00  0.00     0.022 C 
HETATM   14  C   UNK N   1      31.511  17.733   8.813  0.00  0.00     0.007 C 
ENDBRANCH   4  13
TORSDOF 2
ENDMDL
MODEL 5
REMARK VINA RESULT:      -4.7      1.998      3.818
REMARK  2 active torsions:
REMARK  status: ('A' for Active; 'I' for Inactive)
REMARK    1  A    between atoms: C_4  and  C_7 
REMARK    2  A    between atoms: C_4  and  C_8 
ROOT
HETATM    1  O   UNK N   1      28.060  26.518  -6.513  0.00  0.00    -0.296 OA
HETATM    2  O   UNK N   1      25.494  27.757  -2.748  0.00  0.00    -0.272 OA
HETATM    3  N   UNK N   1      26.859  29.184  -3.773  0.00  0.00    -0.359 N 
HETATM    4  C   UNK N   1      26.654  26.798  -4.602  0.00  0.00     0.101 C 
HETATM    5  C   UNK N   1      27.551  28.785  -6.039  0.00  0.00     0.070 C 
HETATM    6  C   UNK N   1      27.492  27.306  -5.768  0.00  0.00     0.150 C 
HETATM    7  C   UNK N   1      26.290  27.950  -3.652  0.00  0.00     0.233 C 
HETATM    8  C   UNK N   1      27.886  29.482  -4.745  0.00  0.00     0.134 C 
HETATM    9  C   UNK N   1      28.511  29.171  -7.150  0.00  0.00     0.020 C 
HETATM   10  H   UNK N   1      26.558  29.902  -3.170  0.00  0.00     0.162 HD
ENDROOT
BRANCH   4  11
HETATM   11  C   UNK N   1      25.363  26.179  -5.172  0.00  0.00     0.022 C 
HETATM   12  C   UNK N   1      24.443  27.192  -5.846  0.00  0.00     0.007 C 
ENDBRANCH   4  11
BRANCH   4  13
HETATM   13  C   UNK N   1      27.461  25.752  -3.804  0.00  0.00     0.022 C 
HETATM   14  C   UNK N   1      26.780  24.390  -3.717  0.00  0.00     0.007 C 
ENDBRANCH   4  13
TORSDOF 2
ENDMDL
MODEL 6
REMARK VINA RESULT:      -4.6     23.954     26.149
REMARK  2 active torsions:
REMARK  status: ('A' for Active; 'I' for Inactive)
REMARK    1  A    between atoms: C_4  and  C_7 
REMARK    2  A    between atoms: C_4  and  C_8 
ROOT
HETATM    1  O   UNK N   1      34.871  13.742  13.258  0.00  0.00    -0.296 OA
HETATM    2  O   UNK N   1      36.783  10.590  16.209  0.00  0.00    -0.272 OA
HETATM    3  N   UNK N   1      37.347  10.694  14.059  0.00  0.00    -0.359 N 
HETATM    4  C   UNK N   1      35.611  12.283  14.999  0.00  0.00     0.101 C 
HETATM    5  C   UNK N   1      36.951  12.701  12.798  0.00  0.00     0.070 C 
HETATM    6  C   UNK N   1      35.730  12.956  13.638  0.00  0.00     0.150 C 
HETATM    7  C   UNK N   1      36.628  11.138  15.130  0.00  0.00     0.233 C 
HETATM    8  C   UNK N   1      37.161  11.210  12.722  0.00  0.00     0.134 C 
HETATM    9  C   UNK N   1      36.894  13.332  11.417  0.00  0.00     0.020 C 
HETATM   10  H   UNK N   1      38.021   9.990  14.203  0.00  0.00     0.162 HD
ENDROOT
BRANCH   4  11
HETATM   11  C   UNK N   1      35.893  13.341  16.084  0.00  0.00     0.022 C 
HETATM   12  C   UNK N   1      34.897  13.314  17.240  0.00  0.00     0.007 C 
ENDBRANCH   4  11
BRANCH   4  13
HETATM   13  C   UNK N   1      34.196  11.691  15.162  0.00  0.00     0.022 C 
HETATM   14  C   UNK N   1      33.864  10.609  14.138  0.00  0.00     0.007 C 
ENDBRANCH   4  13
TORSDOF 2
ENDMDL
MODEL 7
REMARK VINA RESULT:      -4.4     14.933     17.074
REMARK  2 active torsions:
REMARK  status: ('A' for Active; 'I' for Inactive)
REMARK    1  A    between atoms: C_4  and  C_7 
REMARK    2  A    between atoms: C_4  and  C_8 
ROOT
HETATM    1  O   UNK N   1      30.517  16.500   6.272  0.00  0.00    -0.296 OA
HETATM    2  O   UNK N   1      34.004  17.694   9.223  0.00  0.00    -0.272 OA
HETATM    3  N   UNK N   1      34.364  17.289   7.065  0.00  0.00    -0.359 N 
HETATM    4  C   UNK N   1      32.027  17.097   8.024  0.00  0.00     0.101 C 
HETATM    5  C   UNK N   1      32.557  17.420   5.488  0.00  0.00     0.070 C 
HETATM    6  C   UNK N   1      31.619  16.946   6.565  0.00  0.00     0.150 C 
HETATM    7  C   UNK N   1      33.531  17.389   8.141  0.00  0.00     0.233 C 
HETATM    8  C   UNK N   1      33.918  16.837   5.767  0.00  0.00     0.134 C 
HETATM    9  C   UNK N   1      32.088  17.106   4.078  0.00  0.00     0.020 C 
HETATM   10  H   UNK N   1      35.312  17.533   7.180  0.00  0.00     0.162 HD
ENDROOT
BRANCH   4  11
HETATM   11  C   UNK N   1      31.230  18.271   8.626  0.00  0.00     0.022 C 
HETATM   12  C   UNK N   1      29.950  17.842   9.338  0.00  0.00     0.007 C 
ENDBRANCH   4  11
BRANCH   4  13
HETATM   13  C   UNK N   1      31.732  15.785   8.781  0.00  0.00     0.022 C 
HETATM   14  C   UNK N   1      32.504  14.582   8.247  0.00  0.00     0.007 C 
ENDBRANCH   4  13
TORSDOF 2
ENDMDL
MODEL 8
REMARK VINA RESULT:      -4.3     16.135     18.294
REMARK  2 active torsions:
REMARK  status: ('A' for Active; 'I' for Inactive)
REMARK    1  A    between atoms: C_4  and  C_7 
REMARK    2  A    between atoms: C_4  and  C_8 
ROOT
HETATM    1  O   UNK N   1      42.657  19.579   2.336  0.00  0.00    -0.296 OA
HETATM    2  O   UNK N   1      41.285  24.047   1.666  0.00  0.00    -0.272 OA
HETATM    3  N   UNK N   1      42.962  23.514   3.029  0.00  0.00    -0.359 N 
HETATM    4  C   UNK N   1      41.701  21.698   1.788  0.00  0.00     0.101 C 
HETATM    5  C   UNK N   1      44.095  21.408   2.790  0.00  0.00     0.070 C 
HETATM    6  C   UNK N   1      42.801  20.795   2.331  0.00  0.00     0.150 C 
HETATM    7  C   UNK N   1      41.977  23.166   2.151  0.00  0.00     0.233 C 
HETATM    8  C   UNK N   1      43.765  22.539   3.731  0.00  0.00     0.134 C 
HETATM    9  C   UNK N   1      45.060  20.418   3.419  0.00  0.00     0.020 C 
HETATM   10  H   UNK N   1      43.131  24.470   3.192  0.00  0.00     0.162 HD
ENDROOT
BRANCH   4  11
HETATM   11  C   UNK N   1      41.670  21.549   0.255  0.00  0.00     0.022 C 
HETATM   12  C   UNK N   1      42.996  21.884  -0.421  0.00  0.00     0.007 C 
ENDBRANCH   4  11
BRANCH   4  13
HETATM   13  C   UNK N   1      40.348  21.295   2.410  0.00  0.00     0.022 C 
HETATM   14  C   UNK N   1      39.365  20.701   1.405  0.00  0.00     0.007 C 
ENDBRANCH   4  13
TORSDOF 2
ENDMDL
MODEL 9
REMARK VINA RESULT:      -4.2      1.807      2.078
REMARK  2 active torsions:
REMARK  status: ('A' for Active; 'I' for Inactive)
REMARK    1  A    between atoms: C_4  and  C_7 
REMARK    2  A    between atoms: C_4  and  C_8 
ROOT
HETATM    1  O   UNK N   1      28.865  26.747  -6.107  0.00  0.00    -0.296 OA
HETATM    2  O   UNK N   1      25.545  27.753  -2.904  0.00  0.00    -0.272 OA
HETATM    3  N   UNK N   1      26.440  25.724  -3.086  0.00  0.00    -0.359 N 
HETATM    4  C   UNK N   1      27.178  27.585  -4.639  0.00  0.00     0.101 C 
HETATM    5  C   UNK N   1      28.570  25.430  -4.157  0.00  0.00     0.070 C 
HETATM    6  C   UNK N   1      28.242  26.583  -5.066  0.00  0.00     0.150 C 
HETATM    7  C   UNK N   1      26.340  27.027  -3.478  0.00  0.00     0.233 C 
HETATM    8  C   UNK N   1      27.277  24.763  -3.766  0.00  0.00     0.134 C 
HETATM    9  C   UNK N   1      29.558  24.440  -4.749  0.00  0.00     0.020 C 
HETATM   10  H   UNK N   1      25.918  25.425  -2.305  0.00  0.00     0.162 HD
ENDROOT
BRANCH   4  11
HETATM   11  C   UNK N   1      27.888  28.874  -4.182  0.00  0.00     0.022 C 
HETATM   12  C   UNK N   1      27.630  30.072  -5.091  0.00  0.00     0.007 C 
ENDBRANCH   4  11
BRANCH   4  13
HETATM   13  C   UNK N   1      26.230  27.869  -5.823  0.00  0.00     0.022 C 
HETATM   14  C   UNK N   1      25.366  26.673  -6.216  0.00  0.00     0.007 C 
ENDBRANCH   4  13
TORSDOF 2
ENDMDL
