MODEL 1
REMARK VINA RESULT:      -8.0      0.000      0.000
REMARK  2 active torsions:
REMARK  status: ('A' for Active; 'I' for Inactive)
REMARK    1  A    between atoms: C_18  and  O_2 
REMARK    2  A    between atoms: O_3  and  C_21 
ROOT
HETATM    1  O   UNK N   1      34.271  17.779   6.845  0.00  0.00    -0.361 OA
HETATM    2  N   UNK N   1      34.132  13.777   3.040  0.00  0.00    -0.192 NA
HETATM    3  C   UNK N   1      32.248  16.736   5.630  0.00  0.00    -0.001 C 
HETATM    4  C   UNK N   1      32.975  17.247   6.935  0.00  0.00     0.102 A 
HETATM    5  C   UNK N   1      30.831  17.166   5.646  0.00  0.00     0.001 C 
HETATM    6  C   UNK N   1      30.104  16.833   6.996  0.00  0.00    -0.005 C 
HETATM    7  C   UNK N   1      28.998  17.879   7.061  0.00  0.00     0.001 C 
HETATM    8  C   UNK N   1      28.015  17.750   5.884  0.00  0.00    -0.014 C 
HETATM    9  C   UNK N   1      34.206  16.421   7.228  0.00  0.00     0.215 A 
HETATM   10  C   UNK N   1      32.176  17.698   8.157  0.00  0.00     0.042 C 
HETATM   11  C   UNK N   1      30.963  16.805   8.269  0.00  0.00     0.008 C 
HETATM   12  C   UNK N   1      29.942  16.670   4.505  0.00  0.00     0.007 C 
HETATM   13  C   UNK N   1      28.673  17.528   4.497  0.00  0.00     0.012 C 
HETATM   14  C   UNK N   1      32.316  15.205   5.620  0.00  0.00     0.065 C 
HETATM   15  C   UNK N   1      28.759  19.141   7.851  0.00  0.00     0.008 C 
HETATM   16  C   UNK N   1      27.332  19.111   5.846  0.00  0.00     0.126 C 
HETATM   17  C   UNK N   1      32.882  17.368   4.359  0.00  0.00     0.019 C 
HETATM   18  C   UNK N   1      27.601  19.845   7.151  0.00  0.00     0.033 C 
HETATM   19  C   UNK N   1      34.670  15.584   6.057  0.00  0.00     0.091 C 
HETATM   20  C   UNK N   1      27.065  16.586   6.167  0.00  0.00     0.018 C 
HETATM   21  C   UNK N   1      33.734  14.960   5.305  0.00  0.00     0.055 C 
HETATM   22  C   UNK N   1      33.997  14.311   4.056  0.00  0.00     0.097 C 
ENDROOT
BRANCH  19  23
HETATM   23  O   UNK N   1      35.959  15.615   5.679  0.00  0.00    -0.361 OA
HETATM   24  H   UNK N   1      36.382  16.206   5.089  0.00  0.00     0.217 HD
ENDBRANCH  19  23
BRANCH  16  25
HETATM   25  O   UNK N   1      25.960  19.012   5.625  0.00  0.00    -0.395 OA
HETATM   26  H   UNK N   1      25.294  19.219   6.299  0.00  0.00     0.210 HD
ENDBRANCH  16  25
TORSDOF 2
ENDMDL
MODEL 2
REMARK VINA RESULT:      -7.4      1.991      3.414
REMARK  2 active torsions:
REMARK  status: ('A' for Active; 'I' for Inactive)
REMARK    1  A    between atoms: C_18  and  O_2 
REMARK    2  A    between atoms: O_3  and  C_21 
ROOT
HETATM    1  O   UNK N   1      33.330  14.378   5.265  0.00  0.00    -0.361 OA
HETATM    2  N   UNK N   1      34.741  17.327   9.717  0.00  0.00    -0.192 NA
HETATM    3  C   UNK N   1      32.052  16.282   6.448  0.00  0.00    -0.001 C 
HETATM    4  C   UNK N   1      32.599  15.570   5.148  0.00  0.00     0.102 A 
HETATM    5  C   UNK N   1      30.671  16.761   6.212  0.00  0.00     0.001 C 
HETATM    6  C   UNK N   1      30.525  17.582   4.883  0.00  0.00    -0.005 C 
HETATM    7  C   UNK N   1      29.059  17.387   4.515  0.00  0.00     0.001 C 
HETATM    8  C   UNK N   1      28.116  17.952   5.593  0.00  0.00    -0.014 C 
HETATM    9  C   UNK N   1      34.110  15.548   5.137  0.00  0.00     0.215 A 
HETATM   10  C   UNK N   1      31.932  15.788   3.791  0.00  0.00     0.042 C 
HETATM   11  C   UNK N   1      31.474  17.226   3.728  0.00  0.00     0.008 C 
HETATM   12  C   UNK N   1      30.016  17.570   7.332  0.00  0.00     0.007 C 
HETATM   13  C   UNK N   1      28.510  17.615   7.055  0.00  0.00     0.012 C 
HETATM   14  C   UNK N   1      32.962  17.477   6.750  0.00  0.00     0.065 C 
HETATM   15  C   UNK N   1      28.309  16.583   3.484  0.00  0.00     0.008 C 
HETATM   16  C   UNK N   1      26.797  17.247   5.308  0.00  0.00     0.126 C 
HETATM   17  C   UNK N   1      31.971  15.281   7.634  0.00  0.00     0.019 C 
HETATM   18  C   UNK N   1      26.848  16.622   3.922  0.00  0.00     0.033 C 
HETATM   19  C   UNK N   1      34.733  15.843   6.484  0.00  0.00     0.091 C 
HETATM   20  C   UNK N   1      28.055  19.472   5.439  0.00  0.00     0.018 C 
HETATM   21  C   UNK N   1      34.185  16.820   7.243  0.00  0.00     0.055 C 
HETATM   22  C   UNK N   1      34.525  17.071   8.612  0.00  0.00     0.097 C 
ENDROOT
BRANCH  19  23
HETATM   23  O   UNK N   1      35.684  15.031   6.975  0.00  0.00    -0.361 OA
HETATM   24  H   UNK N   1      36.252  15.171   7.706  0.00  0.00     0.217 HD
ENDBRANCH  19  23
BRANCH  16  25
HETATM   25  O   UNK N   1      25.703  18.104   5.407  0.00  0.00    -0.395 OA
HETATM   26  H   UNK N   1      25.295  18.355   6.251  0.00  0.00     0.210 HD
ENDBRANCH  16  25
TORSDOF 2
ENDMDL
MODEL 3
REMARK VINA RESULT:      -7.1     12.897     14.787
REMARK  2 active torsions:
REMARK  status: ('A' for Active; 'I' for Inactive)
REMARK    1  A    between atoms: C_18  and  O_2 
REMARK    2  A    between atoms: O_3  and  C_21 
ROOT
HETATM    1  O   UNK N   1      34.605  13.237  16.331  0.00  0.00    -0.361 OA
HETATM    2  N   UNK N   1      37.317   9.339  13.510  0.00  0.00    -0.192 NA
HETATM    3  C   UNK N   1      35.157  10.807  17.001  0.00  0.00    -0.001 C 
HETATM    4  C   UNK N   1      35.081  12.354  17.313  0.00  0.00     0.102 A 
HETATM    5  C   UNK N   1      34.686  10.037  18.175  0.00  0.00     0.001 C 
HETATM    6  C   UNK N   1      35.364  10.488  19.516  0.00  0.00    -0.005 C 
HETATM    7  C   UNK N   1      34.332  10.105  20.571  0.00  0.00     0.001 C 
HETATM    8  C   UNK N   1      34.068   8.589  20.593  0.00  0.00    -0.014 C 
HETATM    9  C   UNK N   1      36.012  13.134  16.413  0.00  0.00     0.215 A 
HETATM   10  C   UNK N   1      34.969  12.863  18.749  0.00  0.00     0.042 C 
HETATM   11  C   UNK N   1      35.801  11.956  19.626  0.00  0.00     0.008 C 
HETATM   12  C   UNK N   1      34.788   8.514  18.092  0.00  0.00     0.007 C 
HETATM   13  C   UNK N   1      33.907   7.927  19.200  0.00  0.00     0.012 C 
HETATM   14  C   UNK N   1      36.620  10.454  16.714  0.00  0.00     0.065 C 
HETATM   15  C   UNK N   1      33.345  10.855  21.429  0.00  0.00     0.008 C 
HETATM   16  C   UNK N   1      32.726   8.477  21.304  0.00  0.00     0.126 C 
HETATM   17  C   UNK N   1      34.212  10.433  15.825  0.00  0.00     0.019 C 
HETATM   18  C   UNK N   1      32.416   9.791  22.004  0.00  0.00     0.033 C 
HETATM   19  C   UNK N   1      36.493  12.352  15.211  0.00  0.00     0.091 C 
HETATM   20  C   UNK N   1      35.220   7.904  21.330  0.00  0.00     0.018 C 
HETATM   21  C   UNK N   1      36.828  11.053  15.383  0.00  0.00     0.055 C 
HETATM   22  C   UNK N   1      37.096  10.135  14.317  0.00  0.00     0.097 C 
ENDROOT
BRANCH  19  23
HETATM   23  O   UNK N   1      36.412  12.893  13.984  0.00  0.00    -0.361 OA
HETATM   24  H   UNK N   1      35.894  12.615  13.254  0.00  0.00     0.217 HD
ENDBRANCH  19  23
BRANCH  16  25
HETATM   25  O   UNK N   1      32.693   7.426  22.218  0.00  0.00    -0.395 OA
HETATM   26  H   UNK N   1      33.453   7.168  22.763  0.00  0.00     0.210 HD
ENDBRANCH  16  25
TORSDOF 2
ENDMDL
MODEL 4
REMARK VINA RESULT:      -7.0     10.050     11.980
REMARK  2 active torsions:
REMARK  status: ('A' for Active; 'I' for Inactive)
REMARK    1  A    between atoms: C_18  and  O_2 
REMARK    2  A    between atoms: O_3  and  C_21 
ROOT
HETATM    1  O   UNK N   1      20.980  14.988   1.296  0.00  0.00    -0.361 OA
HETATM    2  N   UNK N   1      20.685  20.424   2.231  0.00  0.00    -0.192 NA
HETATM    3  C   UNK N   1      20.900  16.269   3.534  0.00  0.00    -0.001 C 
HETATM    4  C   UNK N   1      20.432  15.099   2.584  0.00  0.00     0.102 A 
HETATM    5  C   UNK N   1      21.089  15.751   4.909  0.00  0.00     0.001 C 
HETATM    6  C   UNK N   1      19.864  14.915   5.423  0.00  0.00    -0.005 C 
HETATM    7  C   UNK N   1      20.490  13.984   6.455  0.00  0.00     0.001 C 
HETATM    8  C   UNK N   1      21.127  14.763   7.620  0.00  0.00    -0.014 C 
HETATM    9  C   UNK N   1      19.730  15.642   1.361  0.00  0.00     0.215 A 
HETATM   10  C   UNK N   1      19.857  13.803   3.154  0.00  0.00     0.042 C 
HETATM   11  C   UNK N   1      19.038  14.159   4.372  0.00  0.00     0.008 C 
HETATM   12  C   UNK N   1      21.443  16.771   5.992  0.00  0.00     0.007 C 
HETATM   13  C   UNK N   1      21.970  15.997   7.206  0.00  0.00     0.012 C 
HETATM   14  C   UNK N   1      19.805  17.341   3.540  0.00  0.00     0.065 C 
HETATM   15  C   UNK N   1      20.842  12.519   6.506  0.00  0.00     0.008 C 
HETATM   16  C   UNK N   1      22.083  13.751   8.237  0.00  0.00     0.126 C 
HETATM   17  C   UNK N   1      22.279  16.829   3.085  0.00  0.00     0.019 C 
HETATM   18  C   UNK N   1      21.740  12.359   7.728  0.00  0.00     0.033 C 
HETATM   19  C   UNK N   1      19.964  17.119   1.131  0.00  0.00     0.091 C 
HETATM   20  C   UNK N   1      20.016  15.223   8.565  0.00  0.00     0.018 C 
HETATM   21  C   UNK N   1      19.955  17.943   2.203  0.00  0.00     0.055 C 
HETATM   22  C   UNK N   1      20.364  19.316   2.176  0.00  0.00     0.097 C 
ENDROOT
BRANCH  19  23
HETATM   23  O   UNK N   1      20.347  17.557  -0.080  0.00  0.00    -0.361 OA
HETATM   24  H   UNK N   1      20.651  17.059  -0.813  0.00  0.00     0.217 HD
ENDBRANCH  19  23
BRANCH  16  25
HETATM   25  O   UNK N   1      22.056  13.773   9.630  0.00  0.00    -0.395 OA
HETATM   26  H   UNK N   1      21.319  13.424  10.156  0.00  0.00     0.210 HD
ENDBRANCH  16  25
TORSDOF 2
ENDMDL
MODEL 5
REMARK VINA RESULT:      -7.0      4.157      5.846
REMARK  2 active torsions:
REMARK  status: ('A' for Active; 'I' for Inactive)
REMARK    1  A    between atoms: C_18  and  O_2 
REMARK    2  A    between atoms: O_3  and  C_21 
ROOT
HETATM    1  O   UNK N   1      36.512  16.437  10.562  0.00  0.00    -0.361 OA
HETATM    2  N   UNK N   1      35.689  11.094  11.694  0.00  0.00    -0.192 NA
HETATM    3  C   UNK N   1      35.127  14.680   9.279  0.00  0.00    -0.001 C 
HETATM    4  C   UNK N   1      35.312  16.116   9.909  0.00  0.00     0.102 A 
HETATM    5  C   UNK N   1      34.477  14.797   7.953  0.00  0.00     0.001 C 
HETATM    6  C   UNK N   1      33.189  15.693   7.978  0.00  0.00    -0.005 C 
HETATM    7  C   UNK N   1      33.097  16.205   6.545  0.00  0.00     0.001 C 
HETATM    8  C   UNK N   1      32.924  15.057   5.534  0.00  0.00    -0.014 C 
HETATM    9  C   UNK N   1      35.458  16.034  11.411  0.00  0.00     0.215 A 
HETATM   10  C   UNK N   1      34.521  17.314   9.386  0.00  0.00     0.042 C 
HETATM   11  C   UNK N   1      33.141  16.827   9.012  0.00  0.00     0.008 C 
HETATM   12  C   UNK N   1      34.121  13.493   7.237  0.00  0.00     0.007 C 
HETATM   13  C   UNK N   1      33.842  13.829   5.769  0.00  0.00     0.012 C 
HETATM   14  C   UNK N   1      34.230  13.865  10.216  0.00  0.00     0.065 C 
HETATM   15  C   UNK N   1      33.362  17.519   5.856  0.00  0.00     0.008 C 
HETATM   16  C   UNK N   1      33.344  15.688   4.213  0.00  0.00     0.126 C 
HETATM   17  C   UNK N   1      36.503  14.001   9.033  0.00  0.00     0.019 C 
HETATM   18  C   UNK N   1      33.374  17.201   4.364  0.00  0.00     0.033 C 
HETATM   19  C   UNK N   1      35.772  14.643  11.917  0.00  0.00     0.091 C 
HETATM   20  C   UNK N   1      31.467  14.594   5.567  0.00  0.00     0.018 C 
HETATM   21  C   UNK N   1      35.131  13.595  11.351  0.00  0.00     0.055 C 
HETATM   22  C   UNK N   1      35.469  12.221  11.571  0.00  0.00     0.097 C 
ENDROOT
BRANCH  19  23
HETATM   23  O   UNK N   1      36.790  14.455  12.773  0.00  0.00    -0.361 OA
HETATM   24  H   UNK N   1      37.680  14.736  12.696  0.00  0.00     0.217 HD
ENDBRANCH  19  23
BRANCH  16  25
HETATM   25  O   UNK N   1      32.505  15.327   3.161  0.00  0.00    -0.395 OA
HETATM   26  H   UNK N   1      32.014  15.969   2.624  0.00  0.00     0.210 HD
ENDBRANCH  16  25
TORSDOF 2
ENDMDL
MODEL 6
REMARK VINA RESULT:      -6.9     12.947     15.328
REMARK  2 active torsions:
REMARK  status: ('A' for Active; 'I' for Inactive)
REMARK    1  A    between atoms: C_18  and  O_2 
REMARK    2  A    between atoms: O_3  and  C_21 
ROOT
HETATM    1  O   UNK N   1      25.262  24.446  -6.870  0.00  0.00    -0.361 OA
HETATM    2  N   UNK N   1      27.058  21.868 -11.413  0.00  0.00    -0.192 NA
HETATM    3  C   UNK N   1      27.455  23.146  -7.264  0.00  0.00    -0.001 C 
HETATM    4  C   UNK N   1      26.657  24.397  -6.723  0.00  0.00     0.102 A 
HETATM    5  C   UNK N   1      28.492  22.752  -6.281  0.00  0.00     0.001 C 
HETATM    6  C   UNK N   1      29.373  23.959  -5.802  0.00  0.00    -0.005 C 
HETATM    7  C   UNK N   1      29.845  23.517  -4.422  0.00  0.00     0.001 C 
HETATM    8  C   UNK N   1      30.693  22.234  -4.489  0.00  0.00    -0.014 C 
HETATM    9  C   UNK N   1      25.993  25.146  -7.855  0.00  0.00     0.215 A 
HETATM   10  C   UNK N   1      27.218  25.263  -5.598  0.00  0.00     0.042 C 
HETATM   11  C   UNK N   1      28.715  25.347  -5.783  0.00  0.00     0.008 C 
HETATM   12  C   UNK N   1      29.435  21.619  -6.684  0.00  0.00     0.007 C 
HETATM   13  C   UNK N   1      30.135  21.122  -5.415  0.00  0.00     0.012 C 
HETATM   14  C   UNK N   1      28.129  23.548  -8.580  0.00  0.00     0.065 C 
HETATM   15  C   UNK N   1      29.500  23.883  -3.001  0.00  0.00     0.008 C 
HETATM   16  C   UNK N   1      30.637  21.702  -3.063  0.00  0.00     0.126 C 
HETATM   17  C   UNK N   1      26.517  21.918  -7.426  0.00  0.00     0.019 C 
HETATM   18  C   UNK N   1      30.133  22.798  -2.136  0.00  0.00     0.033 C 
HETATM   19  C   UNK N   1      25.913  24.356  -9.144  0.00  0.00     0.091 C 
HETATM   20  C   UNK N   1      32.100  22.604  -4.959  0.00  0.00     0.018 C 
HETATM   21  C   UNK N   1      26.984  23.613  -9.506  0.00  0.00     0.055 C 
HETATM   22  C   UNK N   1      26.986  22.658 -10.574  0.00  0.00     0.097 C 
ENDROOT
BRANCH  19  23
HETATM   23  O   UNK N   1      24.746  24.262  -9.802  0.00  0.00    -0.361 OA
HETATM   24  H   UNK N   1      24.346  24.885 -10.376  0.00  0.00     0.217 HD
ENDBRANCH  19  23
BRANCH  16  25
HETATM   25  O   UNK N   1      31.872  21.231  -2.621  0.00  0.00    -0.395 OA
HETATM   26  H   UNK N   1      32.652  21.161  -3.192  0.00  0.00     0.210 HD
ENDBRANCH  16  25
TORSDOF 2
ENDMDL
MODEL 7
REMARK VINA RESULT:      -6.9     12.108     13.603
REMARK  2 active torsions:
REMARK  status: ('A' for Active; 'I' for Inactive)
REMARK    1  A    between atoms: C_18  and  O_2 
REMARK    2  A    between atoms: O_3  and  C_21 
ROOT
HETATM    1  O   UNK N   1      30.437  24.117  -2.562  0.00  0.00    -0.361 OA
HETATM    2  N   UNK N   1      32.557  19.976  -5.541  0.00  0.00    -0.192 NA
HETATM    3  C   UNK N   1      29.744  23.243  -4.889  0.00  0.00    -0.001 C 
HETATM    4  C   UNK N   1      29.401  23.734  -3.428  0.00  0.00     0.102 A 
HETATM    5  C   UNK N   1      28.780  23.826  -5.851  0.00  0.00     0.001 C 
HETATM    6  C   UNK N   1      27.286  23.638  -5.411  0.00  0.00    -0.005 C 
HETATM    7  C   UNK N   1      26.576  24.801  -6.095  0.00  0.00     0.001 C 
HETATM    8  C   UNK N   1      26.691  24.723  -7.628  0.00  0.00    -0.014 C 
HETATM    9  C   UNK N   1      29.973  22.794  -2.392  0.00  0.00     0.215 A 
HETATM   10  C   UNK N   1      28.032  24.327  -3.098  0.00  0.00     0.042 C 
HETATM   11  C   UNK N   1      26.998  23.578  -3.904  0.00  0.00     0.008 C 
HETATM   12  C   UNK N   1      28.896  23.375  -7.308  0.00  0.00     0.007 C 
HETATM   13  C   UNK N   1      28.101  24.365  -8.166  0.00  0.00     0.012 C 
HETATM   14  C   UNK N   1      29.628  21.716  -4.913  0.00  0.00     0.065 C 
HETATM   15  C   UNK N   1      25.995  26.118  -5.646  0.00  0.00     0.008 C 
HETATM   16  C   UNK N   1      26.387  26.147  -8.075  0.00  0.00     0.126 C 
HETATM   17  C   UNK N   1      31.151  23.741  -5.324  0.00  0.00     0.019 C 
HETATM   18  C   UNK N   1      25.745  26.909  -6.926  0.00  0.00     0.033 C 
HETATM   19  C   UNK N   1      31.026  21.856  -2.937  0.00  0.00     0.091 C 
HETATM   20  C   UNK N   1      25.693  23.684  -8.140  0.00  0.00     0.018 C 
HETATM   21  C   UNK N   1      30.823  21.302  -4.155  0.00  0.00     0.055 C 
HETATM   22  C   UNK N   1      31.810  20.569  -4.889  0.00  0.00     0.097 C 
ENDROOT
BRANCH  19  23
HETATM   23  O   UNK N   1      32.204  21.728  -2.304  0.00  0.00    -0.361 OA
HETATM   24  H   UNK N   1      32.546  22.238  -1.596  0.00  0.00     0.217 HD
ENDBRANCH  19  23
BRANCH  16  25
HETATM   25  O   UNK N   1      25.563  26.188  -9.198  0.00  0.00    -0.395 OA
HETATM   26  H   UNK N   1      25.264  25.395  -9.671  0.00  0.00     0.210 HD
ENDBRANCH  16  25
TORSDOF 2
ENDMDL
MODEL 8
REMARK VINA RESULT:      -6.8     15.931     17.918
REMARK  2 active torsions:
REMARK  status: ('A' for Active; 'I' for Inactive)
REMARK    1  A    between atoms: C_18  and  O_2 
REMARK    2  A    between atoms: O_3  and  C_21 
ROOT
HETATM    1  O   UNK N   1      27.619  27.545 -11.153  0.00  0.00    -0.361 OA
HETATM    2  N   UNK N   1      25.777  22.337 -11.182  0.00  0.00    -0.192 NA
HETATM    3  C   UNK N   1      26.792  26.082  -9.194  0.00  0.00    -0.001 C 
HETATM    4  C   UNK N   1      27.825  27.087  -9.842  0.00  0.00     0.102 A 
HETATM    5  C   UNK N   1      26.529  26.472  -7.789  0.00  0.00     0.001 C 
HETATM    6  C   UNK N   1      27.842  26.714  -6.964  0.00  0.00    -0.005 C 
HETATM    7  C   UNK N   1      27.395  27.688  -5.881  0.00  0.00     0.001 C 
HETATM    8  C   UNK N   1      26.305  27.083  -4.978  0.00  0.00    -0.014 C 
HETATM    9  C   UNK N   1      28.517  26.461 -11.030  0.00  0.00     0.215 A 
HETATM   10  C   UNK N   1      28.695  27.992  -8.971  0.00  0.00     0.042 C 
HETATM   11  C   UNK N   1      29.074  27.214  -7.733  0.00  0.00     0.008 C 
HETATM   12  C   UNK N   1      25.629  25.548  -6.970  0.00  0.00     0.007 C 
HETATM   13  C   UNK N   1      25.180  26.319  -5.725  0.00  0.00     0.012 C 
HETATM   14  C   UNK N   1      27.412  24.682  -9.227  0.00  0.00     0.065 C 
HETATM   15  C   UNK N   1      27.582  29.161  -5.618  0.00  0.00     0.008 C 
HETATM   16  C   UNK N   1      25.666  28.305  -4.331  0.00  0.00     0.126 C 
HETATM   17  C   UNK N   1      25.424  26.145  -9.929  0.00  0.00     0.019 C 
HETATM   18  C   UNK N   1      26.574  29.510  -4.527  0.00  0.00     0.033 C 
HETATM   19  C   UNK N   1      27.826  25.221 -11.554  0.00  0.00     0.091 C 
HETATM   20  C   UNK N   1      26.969  26.130  -3.984  0.00  0.00     0.018 C 
HETATM   21  C   UNK N   1      27.328  24.339 -10.658  0.00  0.00     0.055 C 
HETATM   22  C   UNK N   1      26.474  23.238 -10.990  0.00  0.00     0.097 C 
ENDROOT
BRANCH  19  23
HETATM   23  O   UNK N   1      27.562  25.104 -12.866  0.00  0.00    -0.361 OA
HETATM   24  H   UNK N   1      27.496  24.326 -13.382  0.00  0.00     0.217 HD
ENDBRANCH  19  23
BRANCH  16  25
HETATM   25  O   UNK N   1      25.406  28.116  -2.976  0.00  0.00    -0.395 OA
HETATM   26  H   UNK N   1      24.705  27.535  -2.642  0.00  0.00     0.210 HD
ENDBRANCH  16  25
TORSDOF 2
ENDMDL
MODEL 9
REMARK VINA RESULT:      -6.6     12.386     14.954
REMARK  2 active torsions:
REMARK  status: ('A' for Active; 'I' for Inactive)
REMARK    1  A    between atoms: C_18  and  O_2 
REMARK    2  A    between atoms: O_3  and  C_21 
ROOT
HETATM    1  O   UNK N   1      25.928  24.304  -3.827  0.00  0.00    -0.361 OA
HETATM    2  N   UNK N   1      25.548  26.190  -9.005  0.00  0.00    -0.192 NA
HETATM    3  C   UNK N   1      27.520  23.951  -5.826  0.00  0.00    -0.001 C 
HETATM    4  C   UNK N   1      27.246  24.290  -4.308  0.00  0.00     0.102 A 
HETATM    5  C   UNK N   1      28.692  23.051  -5.933  0.00  0.00     0.001 C 
HETATM    6  C   UNK N   1      29.934  23.563  -5.123  0.00  0.00    -0.005 C 
HETATM    7  C   UNK N   1      30.701  22.282  -4.819  0.00  0.00     0.001 C 
HETATM    8  C   UNK N   1      31.162  21.570  -6.104  0.00  0.00    -0.014 C 
HETATM    9  C   UNK N   1      26.452  25.569  -4.174  0.00  0.00     0.215 A 
HETATM   10  C   UNK N   1      28.319  24.065  -3.245  0.00  0.00     0.042 C 
HETATM   11  C   UNK N   1      29.657  24.396  -3.862  0.00  0.00     0.008 C 
HETATM   12  C   UNK N   1      29.169  22.699  -7.342  0.00  0.00     0.007 C 
HETATM   13  C   UNK N   1      30.099  21.486  -7.229  0.00  0.00     0.012 C 
HETATM   14  C   UNK N   1      27.817  25.263  -6.558  0.00  0.00     0.065 C 
HETATM   15  C   UNK N   1      30.918  21.424  -3.599  0.00  0.00     0.008 C 
HETATM   16  C   UNK N   1      31.438  20.147  -5.637  0.00  0.00     0.126 C 
HETATM   17  C   UNK N   1      26.320  23.181  -6.447  0.00  0.00     0.019 C 
HETATM   18  C   UNK N   1      31.521  20.122  -4.118  0.00  0.00     0.033 C 
HETATM   19  C   UNK N   1      25.789  26.011  -5.460  0.00  0.00     0.091 C 
HETATM   20  C   UNK N   1      32.394  22.295  -6.647  0.00  0.00     0.018 C 
HETATM   21  C   UNK N   1      26.486  25.895  -6.613  0.00  0.00     0.055 C 
HETATM   22  C   UNK N   1      25.929  26.072  -7.921  0.00  0.00     0.097 C 
ENDROOT
BRANCH  19  23
HETATM   23  O   UNK N   1      24.485  26.336  -5.465  0.00  0.00    -0.361 OA
HETATM   24  H   UNK N   1      24.078  27.130  -5.180  0.00  0.00     0.217 HD
ENDBRANCH  19  23
BRANCH  16  25
HETATM   25  O   UNK N   1      32.603  19.621  -6.190  0.00  0.00    -0.395 OA
HETATM   26  H   UNK N   1      32.948  18.741  -5.973  0.00  0.00     0.210 HD
ENDBRANCH  16  25
TORSDOF 2
ENDMDL
