MODEL 1
REMARK VINA RESULT:      -6.0      0.000      0.000
REMARK  1 active torsions:
REMARK  status: ('A' for Active; 'I' for Inactive)
REMARK    1  A    between atoms: C_7  and  C_10 
ROOT
HETATM    1  S   UNK N   1      30.641  23.327  -2.922  0.00  0.00     0.170 S 
HETATM    2  O   UNK N   1      30.192  23.028  -1.483  0.00  0.00    -0.225 OA
HETATM    3  O   UNK N   1      31.155  24.772  -2.833  0.00  0.00    -0.225 OA
HETATM    4  O   UNK N   1      30.685  20.420  -5.992  0.00  0.00    -0.273 OA
HETATM    5  N   UNK N   1      29.528  22.174  -5.175  0.00  0.00    -0.334 N 
HETATM    6  C   UNK N   1      29.253  23.135  -4.088  0.00  0.00     0.243 C 
HETATM    7  C   UNK N   1      32.001  22.248  -3.344  0.00  0.00     0.152 C 
HETATM    8  C   UNK N   1      31.311  20.983  -3.807  0.00  0.00     0.118 C 
HETATM    9  C   UNK N   1      30.487  21.188  -5.062  0.00  0.00     0.221 C 
HETATM   10  C   UNK N   1      28.771  22.229  -6.408  0.00  0.00     0.154 C 
ENDROOT
BRANCH   6  11
HETATM   11  C   UNK N   1      28.320  24.332  -4.296  0.00  0.00    -0.021 A 
HETATM   12  C   UNK N   1      26.995  24.273  -3.830  0.00  0.00     0.012 A 
HETATM   13  C   UNK N   1      26.107  25.331  -4.049  0.00  0.00     0.024 A 
HETATM   14  C   UNK N   1      26.531  26.464  -4.745  0.00  0.00     0.034 A 
HETATM   15 Cl   UNK N   1      25.421  27.787  -5.028  0.00  0.00    -0.084 Cl
HETATM   16  C   UNK N   1      27.839  26.535  -5.226  0.00  0.00     0.024 A 
HETATM   17  C   UNK N   1      28.722  25.473  -5.010  0.00  0.00     0.012 A 
ENDBRANCH   6  11
TORSDOF 1
ENDMDL
MODEL 2
REMARK VINA RESULT:      -5.6     19.643     21.672
REMARK  1 active torsions:
REMARK  status: ('A' for Active; 'I' for Inactive)
REMARK    1  A    between atoms: C_7  and  C_10 
ROOT
HETATM    1  S   UNK N   1      35.618  14.735  11.214  0.00  0.00     0.170 S 
HETATM    2  O   UNK N   1      36.074  16.200  11.304  0.00  0.00    -0.225 OA
HETATM    3  O   UNK N   1      34.135  14.808  11.609  0.00  0.00    -0.225 OA
HETATM    4  O   UNK N   1      38.077  11.621   9.754  0.00  0.00    -0.273 OA
HETATM    5  N   UNK N   1      37.267  12.557  11.639  0.00  0.00    -0.334 N 
HETATM    6  C   UNK N   1      36.601  13.679  12.329  0.00  0.00     0.243 C 
HETATM    7  C   UNK N   1      35.745  14.188   9.519  0.00  0.00     0.152 C 
HETATM    8  C   UNK N   1      37.191  13.759   9.398  0.00  0.00     0.118 C 
HETATM    9  C   UNK N   1      37.530  12.577  10.284  0.00  0.00     0.221 C 
HETATM   10  C   UNK N   1      37.692  11.389  12.382  0.00  0.00     0.154 C 
ENDROOT
BRANCH   6  11
HETATM   11  C   UNK N   1      36.153  13.566  13.790  0.00  0.00    -0.021 A 
HETATM   12  C   UNK N   1      36.833  14.290  14.786  0.00  0.00     0.012 A 
HETATM   13  C   UNK N   1      36.477  14.168  16.132  0.00  0.00     0.024 A 
HETATM   14  C   UNK N   1      35.439  13.314  16.505  0.00  0.00     0.034 A 
HETATM   15 Cl   UNK N   1      34.997  13.153  18.191  0.00  0.00    -0.084 Cl
HETATM   16  C   UNK N   1      34.761  12.578  15.532  0.00  0.00     0.024 A 
HETATM   17  C   UNK N   1      35.124  12.698  14.188  0.00  0.00     0.012 A 
ENDBRANCH   6  11
TORSDOF 1
ENDMDL
MODEL 3
REMARK VINA RESULT:      -5.6     13.016     15.008
REMARK  1 active torsions:
REMARK  status: ('A' for Active; 'I' for Inactive)
REMARK    1  A    between atoms: C_7  and  C_10 
ROOT
HETATM    1  S   UNK N   1      30.537  16.913   5.756  0.00  0.00     0.170 S 
HETATM    2  O   UNK N   1      30.252  15.458   5.353  0.00  0.00    -0.225 OA
HETATM    3  O   UNK N   1      31.863  17.219   5.043  0.00  0.00    -0.225 OA
HETATM    4  O   UNK N   1      27.823  19.287   7.964  0.00  0.00    -0.273 OA
HETATM    5  N   UNK N   1      29.711  18.066   8.130  0.00  0.00    -0.334 N 
HETATM    6  C   UNK N   1      30.650  17.075   7.569  0.00  0.00     0.243 C 
HETATM    7  C   UNK N   1      29.258  17.965   5.088  0.00  0.00     0.152 C 
HETATM    8  C   UNK N   1      28.158  17.880   6.124  0.00  0.00     0.118 C 
HETATM    9  C   UNK N   1      28.567  18.457   7.464  0.00  0.00     0.221 C 
HETATM   10  C   UNK N   1      29.958  18.654   9.430  0.00  0.00     0.154 C 
ENDROOT
BRANCH   6  11
HETATM   11  C   UNK N   1      32.002  16.790   8.232  0.00  0.00    -0.021 A 
HETATM   12  C   UNK N   1      32.193  15.588   8.936  0.00  0.00     0.012 A 
HETATM   13  C   UNK N   1      33.400  15.324   9.592  0.00  0.00     0.024 A 
HETATM   14  C   UNK N   1      34.432  16.261   9.558  0.00  0.00     0.034 A 
HETATM   15 Cl   UNK N   1      35.941  15.937  10.385  0.00  0.00    -0.084 Cl
HETATM   16  C   UNK N   1      34.256  17.465   8.874  0.00  0.00     0.024 A 
HETATM   17  C   UNK N   1      33.046  17.728   8.225  0.00  0.00     0.012 A 
ENDBRANCH   6  11
TORSDOF 1
ENDMDL
MODEL 4
REMARK VINA RESULT:      -5.6     13.538     15.494
REMARK  1 active torsions:
REMARK  status: ('A' for Active; 'I' for Inactive)
REMARK    1  A    between atoms: C_7  and  C_10 
ROOT
HETATM    1  S   UNK N   1      29.511  17.674   9.420  0.00  0.00     0.170 S 
HETATM    2  O   UNK N   1      29.691  18.977  10.215  0.00  0.00    -0.225 OA
HETATM    3  O   UNK N   1      29.557  16.592  10.510  0.00  0.00    -0.225 OA
HETATM    4  O   UNK N   1      28.675  17.578   5.277  0.00  0.00    -0.273 OA
HETATM    5  N   UNK N   1      30.317  17.320   6.799  0.00  0.00    -0.334 N 
HETATM    6  C   UNK N   1      30.829  17.486   8.174  0.00  0.00     0.243 C 
HETATM    7  C   UNK N   1      27.894  17.672   8.663  0.00  0.00     0.152 C 
HETATM    8  C   UNK N   1      28.109  18.442   7.378  0.00  0.00     0.118 C 
HETATM    9  C   UNK N   1      29.058  17.743   6.426  0.00  0.00     0.221 C 
HETATM   10  C   UNK N   1      31.147  16.715   5.778  0.00  0.00     0.154 C 
ENDROOT
BRANCH   6  11
HETATM   11  C   UNK N   1      32.151  16.850   8.618  0.00  0.00    -0.021 A 
HETATM   12  C   UNK N   1      33.328  17.618   8.621  0.00  0.00     0.012 A 
HETATM   13  C   UNK N   1      34.556  17.050   8.974  0.00  0.00     0.024 A 
HETATM   14  C   UNK N   1      34.626  15.702   9.324  0.00  0.00     0.034 A 
HETATM   15 Cl   UNK N   1      36.163  14.985   9.759  0.00  0.00    -0.084 Cl
HETATM   16  C   UNK N   1      33.469  14.920   9.314  0.00  0.00     0.024 A 
HETATM   17  C   UNK N   1      32.245  15.490   8.955  0.00  0.00     0.012 A 
ENDBRANCH   6  11
TORSDOF 1
ENDMDL
MODEL 5
REMARK VINA RESULT:      -5.6     10.769     11.897
REMARK  1 active torsions:
REMARK  status: ('A' for Active; 'I' for Inactive)
REMARK    1  A    between atoms: C_7  and  C_10 
ROOT
HETATM    1  S   UNK N   1      28.752  17.909   7.974  0.00  0.00     0.170 S 
HETATM    2  O   UNK N   1      27.729  16.933   8.576  0.00  0.00    -0.225 OA
HETATM    3  O   UNK N   1      28.140  19.285   8.274  0.00  0.00    -0.225 OA
HETATM    4  O   UNK N   1      32.460  16.679   6.356  0.00  0.00    -0.273 OA
HETATM    5  N   UNK N   1      30.372  17.331   5.809  0.00  0.00    -0.334 N 
HETATM    6  C   UNK N   1      28.972  17.600   6.190  0.00  0.00     0.243 C 
HETATM    7  C   UNK N   1      30.297  17.752   8.857  0.00  0.00     0.152 C 
HETATM    8  C   UNK N   1      30.977  16.590   8.166  0.00  0.00     0.118 C 
HETATM    9  C   UNK N   1      31.309  16.880   6.716  0.00  0.00     0.221 C 
HETATM   10  C   UNK N   1      30.806  17.518   4.440  0.00  0.00     0.154 C 
ENDROOT
BRANCH   6  11
HETATM   11  C   UNK N   1      27.994  18.272   5.220  0.00  0.00    -0.021 A 
HETATM   12  C   UNK N   1      28.068  19.659   5.004  0.00  0.00     0.012 A 
HETATM   13  C   UNK N   1      27.158  20.305   4.162  0.00  0.00     0.024 A 
HETATM   14  C   UNK N   1      26.154  19.574   3.527  0.00  0.00     0.034 A 
HETATM   15 Cl   UNK N   1      25.008  20.381   2.479  0.00  0.00    -0.084 Cl
HETATM   16  C   UNK N   1      26.057  18.197   3.739  0.00  0.00     0.024 A 
HETATM   17  C   UNK N   1      26.965  17.556   4.586  0.00  0.00     0.012 A 
ENDBRANCH   6  11
TORSDOF 1
ENDMDL
MODEL 6
REMARK VINA RESULT:      -5.5     15.932     17.064
REMARK  1 active torsions:
REMARK  status: ('A' for Active; 'I' for Inactive)
REMARK    1  A    between atoms: C_7  and  C_10 
ROOT
HETATM    1  S   UNK N   1      19.259  15.105   5.046  0.00  0.00     0.170 S 
HETATM    2  O   UNK N   1      17.970  15.788   5.530  0.00  0.00    -0.225 OA
HETATM    3  O   UNK N   1      18.876  13.617   5.020  0.00  0.00    -0.225 OA
HETATM    4  O   UNK N   1      22.681  17.237   3.774  0.00  0.00    -0.273 OA
HETATM    5  N   UNK N   1      21.807  16.079   5.499  0.00  0.00    -0.334 N 
HETATM    6  C   UNK N   1      20.646  15.463   6.173  0.00  0.00     0.243 C 
HETATM    7  C   UNK N   1      19.616  15.646   3.382  0.00  0.00     0.152 C 
HETATM    8  C   UNK N   1      20.366  16.944   3.590  0.00  0.00     0.118 C 
HETATM    9  C   UNK N   1      21.691  16.750   4.299  0.00  0.00     0.221 C 
HETATM   10  C   UNK N   1      23.123  16.012   6.100  0.00  0.00     0.154 C 
ENDROOT
BRANCH   6  11
HETATM   11  C   UNK N   1      20.820  14.568   7.405  0.00  0.00    -0.021 A 
HETATM   12  C   UNK N   1      20.414  15.034   8.668  0.00  0.00     0.012 A 
HETATM   13  C   UNK N   1      20.605  14.259   9.816  0.00  0.00     0.024 A 
HETATM   14  C   UNK N   1      21.211  13.006   9.718  0.00  0.00     0.034 A 
HETATM   15 Cl   UNK N   1      21.460  12.036  11.154  0.00  0.00    -0.084 Cl
HETATM   16  C   UNK N   1      21.632  12.533   8.475  0.00  0.00     0.024 A 
HETATM   17  C   UNK N   1      21.445  13.313   7.331  0.00  0.00     0.012 A 
ENDBRANCH   6  11
TORSDOF 1
ENDMDL
MODEL 7
REMARK VINA RESULT:      -5.4     10.556     11.757
REMARK  1 active torsions:
REMARK  status: ('A' for Active; 'I' for Inactive)
REMARK    1  A    between atoms: C_7  and  C_10 
ROOT
HETATM    1  S   UNK N   1      29.768  16.550   4.866  0.00  0.00     0.170 S 
HETATM    2  O   UNK N   1      30.787  16.998   3.807  0.00  0.00    -0.225 OA
HETATM    3  O   UNK N   1      28.797  15.670   4.065  0.00  0.00    -0.225 OA
HETATM    4  O   UNK N   1      30.173  17.408   8.987  0.00  0.00    -0.273 OA
HETATM    5  N   UNK N   1      29.094  18.025   7.106  0.00  0.00    -0.334 N 
HETATM    6  C   UNK N   1      28.956  17.989   5.636  0.00  0.00     0.243 C 
HETATM    7  C   UNK N   1      30.600  15.542   6.085  0.00  0.00     0.152 C 
HETATM    8  C   UNK N   1      31.173  16.560   7.047  0.00  0.00     0.118 C 
HETATM    9  C   UNK N   1      30.104  17.356   7.768  0.00  0.00     0.221 C 
HETATM   10  C   UNK N   1      28.167  18.794   7.909  0.00  0.00     0.154 C 
ENDROOT
BRANCH   6  11
HETATM   11  C   UNK N   1      27.730  18.582   4.934  0.00  0.00    -0.021 A 
HETATM   12  C   UNK N   1      27.814  19.854   4.341  0.00  0.00     0.012 A 
HETATM   13  C   UNK N   1      26.698  20.440   3.736  0.00  0.00     0.024 A 
HETATM   14  C   UNK N   1      25.478  19.765   3.720  0.00  0.00     0.034 A 
HETATM   15 Cl   UNK N   1      24.076  20.499   2.971  0.00  0.00    -0.084 Cl
HETATM   16  C   UNK N   1      25.373  18.506   4.315  0.00  0.00     0.024 A 
HETATM   17  C   UNK N   1      26.489  17.926   4.924  0.00  0.00     0.012 A 
ENDBRANCH   6  11
TORSDOF 1
ENDMDL
MODEL 8
REMARK VINA RESULT:      -5.4     12.232     13.796
REMARK  1 active torsions:
REMARK  status: ('A' for Active; 'I' for Inactive)
REMARK    1  A    between atoms: C_7  and  C_10 
ROOT
HETATM    1  S   UNK N   1      43.535  22.878   1.661  0.00  0.00     0.170 S 
HETATM    2  O   UNK N   1      44.056  24.142   2.363  0.00  0.00    -0.225 OA
HETATM    3  O   UNK N   1      44.040  23.047   0.220  0.00  0.00    -0.225 OA
HETATM    4  O   UNK N   1      41.591  19.723   3.697  0.00  0.00    -0.273 OA
HETATM    5  N   UNK N   1      41.236  21.523   2.387  0.00  0.00    -0.334 N 
HETATM    6  C   UNK N   1      41.718  22.776   1.771  0.00  0.00     0.243 C 
HETATM    7  C   UNK N   1      44.313  21.444   2.388  0.00  0.00     0.152 C 
HETATM    8  C   UNK N   1      43.445  21.149   3.593  0.00  0.00     0.118 C 
HETATM    9  C   UNK N   1      42.030  20.757   3.216  0.00  0.00     0.221 C 
HETATM   10  C   UNK N   1      39.883  21.065   2.150  0.00  0.00     0.154 C 
ENDROOT
BRANCH   6  11
HETATM   11  C   UNK N   1      40.892  23.516   0.713  0.00  0.00    -0.021 A 
HETATM   12  C   UNK N   1      40.672  24.898   0.842  0.00  0.00     0.012 A 
HETATM   13  C   UNK N   1      39.882  25.589  -0.082  0.00  0.00     0.024 A 
HETATM   14  C   UNK N   1      39.295  24.906  -1.147  0.00  0.00     0.034 A 
HETATM   15 Cl   UNK N   1      38.298  25.767  -2.301  0.00  0.00    -0.084 Cl
HETATM   16  C   UNK N   1      39.492  23.531  -1.284  0.00  0.00     0.024 A 
HETATM   17  C   UNK N   1      40.277  22.843  -0.355  0.00  0.00     0.012 A 
ENDBRANCH   6  11
TORSDOF 1
ENDMDL
MODEL 9
REMARK VINA RESULT:      -5.3     12.792     14.646
REMARK  1 active torsions:
REMARK  status: ('A' for Active; 'I' for Inactive)
REMARK    1  A    between atoms: C_7  and  C_10 
ROOT
HETATM    1  S   UNK N   1      33.555  14.333   7.829  0.00  0.00     0.170 S 
HETATM    2  O   UNK N   1      34.279  13.547   6.725  0.00  0.00    -0.225 OA
HETATM    3  O   UNK N   1      32.224  13.581   7.976  0.00  0.00    -0.225 OA
HETATM    4  O   UNK N   1      35.352  17.490   9.993  0.00  0.00    -0.273 OA
HETATM    5  N   UNK N   1      33.915  17.031   8.318  0.00  0.00    -0.334 N 
HETATM    6  C   UNK N   1      33.338  16.079   7.348  0.00  0.00     0.243 C 
HETATM    7  C   UNK N   1      34.479  14.187   9.351  0.00  0.00     0.152 C 
HETATM    8  C   UNK N   1      35.519  15.282   9.234  0.00  0.00     0.118 C 
HETATM    9  C   UNK N   1      34.910  16.669   9.203  0.00  0.00     0.221 C 
HETATM   10  C   UNK N   1      33.459  18.405   8.354  0.00  0.00     0.154 C 
ENDROOT
BRANCH   6  11
HETATM   11  C   UNK N   1      32.114  16.443   6.502  0.00  0.00    -0.021 A 
HETATM   12  C   UNK N   1      32.287  16.877   5.176  0.00  0.00     0.012 A 
HETATM   13  C   UNK N   1      31.191  17.262   4.397  0.00  0.00     0.024 A 
HETATM   14  C   UNK N   1      29.905  17.225   4.935  0.00  0.00     0.034 A 
HETATM   15 Cl   UNK N   1      28.532  17.714   3.965  0.00  0.00    -0.084 Cl
HETATM   16  C   UNK N   1      29.715  16.809   6.254  0.00  0.00     0.024 A 
HETATM   17  C   UNK N   1      30.813  16.430   7.031  0.00  0.00     0.012 A 
ENDBRANCH   6  11
TORSDOF 1
ENDMDL
