REMARK  4 active torsions:
REMARK  status: ('A' for Active; 'I' for Inactive)
REMARK    1  A    between atoms: S_1  and  C_14 
REMARK    2  A    between atoms: N_2  and  C_13 
REMARK    3  A    between atoms: C_7  and  C_14 
REMARK    4  A    between atoms: C_13  and  C_18 
ROOT
HETATM    1  N   UNK N   1       5.226   1.867   0.320  0.00  0.00     0.094 N 
HETATM    2  N   UNK N   1       6.143  -4.077  -0.194  0.00  0.00    -0.365 N 
HETATM    3  C   UNK N   1       3.696  -0.164   0.375  0.00  0.00     0.053 C 
HETATM    4  C   UNK N   1       5.072   0.442  -0.088  0.00  0.00     0.235 C 
HETATM    5  C   UNK N   1       2.589   0.662  -0.274  0.00  0.00     0.018 C 
HETATM    6  C   UNK N   1       2.746   2.158   0.034  0.00  0.00     0.024 C 
HETATM    7  C   UNK N   1       3.996   2.459   0.883  0.00  0.00     0.278 C 
HETATM    8  C   UNK N   1       6.292  -0.397   0.393  0.00  0.00     0.077 C 
HETATM    9  C   UNK N   1       3.600  -1.634   0.045  0.00  0.00    -0.039 A 
HETATM   10  C   UNK N   1       6.029  -1.856   0.131  0.00  0.00    -0.028 A 
HETATM   11  C   UNK N   1       4.778  -2.342  -0.017  0.00  0.00     0.005 A 
HETATM   12  C   UNK N   1       4.854  -3.675  -0.211  0.00  0.00     0.043 A 
HETATM   13  C   UNK N   1       2.401  -2.366  -0.074  0.00  0.00     0.008 A 
HETATM   14  C   UNK N   1       6.884  -2.950   0.024  0.00  0.00     0.096 A 
HETATM   15  C   UNK N   1       3.700  -4.443  -0.366  0.00  0.00     0.030 A 
HETATM   16  C   UNK N   1       2.454  -3.770  -0.298  0.00  0.00     0.003 A 
HETATM   17  H   UNK N   1       6.479  -4.995  -0.313  0.00  0.00     0.165 HD
ENDROOT
BRANCH   1  18
HETATM   18  C   UNK N   1       5.677   2.686  -0.813  0.00  0.00     0.272 C 
BRANCH  18  19
HETATM   19  C   UNK N   1       6.075   4.091  -0.378  0.00  0.00     0.026 C 
HETATM   20  C   UNK N   1       7.551   4.136  -0.043  0.00  0.00     0.007 C 
ENDBRANCH  18  19
ENDBRANCH   1  18
BRANCH   6  21
HETATM   21  C   UNK N   1       1.501   2.637   0.759  0.00  0.00     0.079 C 
BRANCH  21  22
HETATM   22  S   UNK N   1       1.446   4.452   0.828  0.00  0.00    -0.173 SA
HETATM   23  C   UNK N   1       0.361   4.536  -0.623  0.00  0.00     0.089 C 
ENDBRANCH  21  22
ENDBRANCH   6  21
TORSDOF 4
