MODEL 1
REMARK VINA RESULT:      -6.7      0.000      0.000
REMARK  4 active torsions:
REMARK  status: ('A' for Active; 'I' for Inactive)
REMARK    1  A    between atoms: S_1  and  C_14 
REMARK    2  A    between atoms: N_2  and  C_13 
REMARK    3  A    between atoms: C_7  and  C_14 
REMARK    4  A    between atoms: C_13  and  C_18 
ROOT
HETATM    1  N   UNK N   1      19.486  16.267   8.108  0.00  0.00     0.094 N 
HETATM    2  N   UNK N   1      22.187  11.759  11.078  0.00  0.00    -0.365 N 
HETATM    3  C   UNK N   1      21.498  14.790   7.619  0.00  0.00     0.053 C 
HETATM    4  C   UNK N   1      20.537  15.398   8.707  0.00  0.00     0.235 C 
HETATM    5  C   UNK N   1      22.168  15.955   6.896  0.00  0.00     0.018 C 
HETATM    6  C   UNK N   1      21.133  16.940   6.333  0.00  0.00     0.024 C 
HETATM    7  C   UNK N   1      19.685  16.534   6.669  0.00  0.00     0.278 C 
HETATM    8  C   UNK N   1      19.893  14.311   9.616  0.00  0.00     0.077 C 
HETATM    9  C   UNK N   1      22.491  13.832   8.232  0.00  0.00    -0.039 A 
HETATM   10  C   UNK N   1      20.953  13.339  10.061  0.00  0.00    -0.028 A 
HETATM   11  C   UNK N   1      22.108  13.179   9.380  0.00  0.00     0.005 A 
HETATM   12  C   UNK N   1      22.843  12.230   9.996  0.00  0.00     0.043 A 
HETATM   13  C   UNK N   1      23.721  13.454   7.655  0.00  0.00     0.008 A 
HETATM   14  C   UNK N   1      21.004  12.442  11.125  0.00  0.00     0.096 A 
HETATM   15  C   UNK N   1      24.081  11.839   9.485  0.00  0.00     0.030 A 
HETATM   16  C   UNK N   1      24.524  12.469   8.294  0.00  0.00     0.003 A 
HETATM   17  H   UNK N   1      22.498  11.066  11.704  0.00  0.00     0.165 HD
ENDROOT
BRANCH   1  18
HETATM   18  C   UNK N   1      19.398  17.546   8.825  0.00  0.00     0.272 C 
BRANCH  18  19
HETATM   19  C   UNK N   1      18.124  17.647   9.655  0.00  0.00     0.026 C 
HETATM   20  C   UNK N   1      16.939  17.144   8.858  0.00  0.00     0.007 C 
ENDBRANCH  18  19
ENDBRANCH   1  18
BRANCH   6  21
HETATM   21  C   UNK N   1      21.310  17.022   4.827  0.00  0.00     0.079 C 
BRANCH  21  22
HETATM   22  S   UNK N   1      21.237  18.745   4.256  0.00  0.00    -0.173 SA
HETATM   23  C   UNK N   1      20.395  18.266   2.723  0.00  0.00     0.089 C 
ENDBRANCH  21  22
ENDBRANCH   6  21
TORSDOF 4
ENDMDL
MODEL 2
REMARK VINA RESULT:      -6.5     16.381     17.742
REMARK  4 active torsions:
REMARK  status: ('A' for Active; 'I' for Inactive)
REMARK    1  A    between atoms: S_1  and  C_14 
REMARK    2  A    between atoms: N_2  and  C_13 
REMARK    3  A    between atoms: C_7  and  C_14 
REMARK    4  A    between atoms: C_13  and  C_18 
ROOT
HETATM    1  N   UNK N   1      26.647  23.905  -7.616  0.00  0.00     0.094 N 
HETATM    2  N   UNK N   1      31.152  20.747  -5.133  0.00  0.00    -0.365 N 
HETATM    3  C   UNK N   1      27.898  24.057  -5.407  0.00  0.00     0.053 C 
HETATM    4  C   UNK N   1      27.473  23.158  -6.626  0.00  0.00     0.235 C 
HETATM    5  C   UNK N   1      26.621  24.542  -4.726  0.00  0.00     0.018 C 
HETATM    6  C   UNK N   1      25.682  25.241  -5.719  0.00  0.00     0.024 C 
HETATM    7  C   UNK N   1      26.238  25.247  -7.155  0.00  0.00     0.278 C 
HETATM    8  C   UNK N   1      28.686  22.482  -7.328  0.00  0.00     0.077 C 
HETATM    9  C   UNK N   1      28.818  23.316  -4.467  0.00  0.00    -0.039 A 
HETATM   10  C   UNK N   1      29.600  21.891  -6.288  0.00  0.00    -0.028 A 
HETATM   11  C   UNK N   1      29.600  22.322  -5.008  0.00  0.00     0.005 A 
HETATM   12  C   UNK N   1      30.534  21.632  -4.321  0.00  0.00     0.043 A 
HETATM   13  C   UNK N   1      29.038  23.645  -3.114  0.00  0.00     0.008 A 
HETATM   14  C   UNK N   1      30.579  20.904  -6.364  0.00  0.00     0.096 A 
HETATM   15  C   UNK N   1      30.771  21.895  -2.972  0.00  0.00     0.030 A 
HETATM   16  C   UNK N   1      30.004  22.919  -2.362  0.00  0.00     0.003 A 
HETATM   17  H   UNK N   1      31.869  20.118  -4.888  0.00  0.00     0.165 HD
ENDROOT
BRANCH   1  18
HETATM   18  C   UNK N   1      25.448  23.137  -7.977  0.00  0.00     0.272 C 
BRANCH  18  19
HETATM   19  C   UNK N   1      25.320  21.860  -7.156  0.00  0.00     0.026 C 
HETATM   20  C   UNK N   1      25.377  20.648  -8.062  0.00  0.00     0.007 C 
ENDBRANCH  18  19
ENDBRANCH   1  18
BRANCH   6  21
HETATM   21  C   UNK N   1      25.453  26.666  -5.247  0.00  0.00     0.079 C 
BRANCH  21  22
HETATM   22  S   UNK N   1      26.273  26.964  -3.653  0.00  0.00    -0.173 SA
HETATM   23  C   UNK N   1      26.001  28.753  -3.777  0.00  0.00     0.089 C 
ENDBRANCH  21  22
ENDBRANCH   6  21
TORSDOF 4
ENDMDL
MODEL 3
REMARK VINA RESULT:      -6.5     14.420     16.820
REMARK  4 active torsions:
REMARK  status: ('A' for Active; 'I' for Inactive)
REMARK    1  A    between atoms: S_1  and  C_14 
REMARK    2  A    between atoms: N_2  and  C_13 
REMARK    3  A    between atoms: C_7  and  C_14 
REMARK    4  A    between atoms: C_13  and  C_18 
ROOT
HETATM    1  N   UNK N   1      36.719  11.192  12.881  0.00  0.00     0.094 N 
HETATM    2  N   UNK N   1      36.242   9.573  18.676  0.00  0.00    -0.365 N 
HETATM    3  C   UNK N   1      36.227  12.459  15.030  0.00  0.00     0.053 C 
HETATM    4  C   UNK N   1      36.222  11.076  14.280  0.00  0.00     0.235 C 
HETATM    5  C   UNK N   1      35.314  13.405  14.254  0.00  0.00     0.018 C 
HETATM    6  C   UNK N   1      35.720  13.496  12.776  0.00  0.00     0.024 C 
HETATM    7  C   UNK N   1      36.916  12.586  12.434  0.00  0.00     0.278 C 
HETATM    8  C   UNK N   1      37.008   9.973  15.048  0.00  0.00     0.077 C 
HETATM    9  C   UNK N   1      35.819  12.307  16.476  0.00  0.00    -0.039 A 
HETATM   10  C   UNK N   1      36.615  10.000  16.501  0.00  0.00    -0.028 A 
HETATM   11  C   UNK N   1      36.080  11.097  17.077  0.00  0.00     0.005 A 
HETATM   12  C   UNK N   1      35.859  10.834  18.382  0.00  0.00     0.043 A 
HETATM   13  C   UNK N   1      35.316  13.338  17.294  0.00  0.00     0.008 A 
HETATM   14  C   UNK N   1      36.720   9.045  17.510  0.00  0.00     0.096 A 
HETATM   15  C   UNK N   1      35.334  11.809  19.230  0.00  0.00     0.030 A 
HETATM   16  C   UNK N   1      35.057  13.082  18.669  0.00  0.00     0.003 A 
HETATM   17  H   UNK N   1      36.189   9.127  19.552  0.00  0.00     0.165 HD
ENDROOT
BRANCH   1  18
HETATM   18  C   UNK N   1      35.809  10.514  11.948  0.00  0.00     0.272 C 
BRANCH  18  19
HETATM   19  C   UNK N   1      34.497  10.123  12.615  0.00  0.00     0.026 C 
HETATM   20  C   UNK N   1      33.451   9.807  11.567  0.00  0.00     0.007 C 
ENDBRANCH  18  19
ENDBRANCH   1  18
BRANCH   6  21
HETATM   21  C   UNK N   1      36.061  14.940  12.455  0.00  0.00     0.079 C 
BRANCH  21  22
HETATM   22  S   UNK N   1      36.316  15.167  10.671  0.00  0.00    -0.173 SA
HETATM   23  C   UNK N   1      35.312  16.678  10.657  0.00  0.00     0.089 C 
ENDBRANCH  21  22
ENDBRANCH   6  21
TORSDOF 4
ENDMDL
MODEL 4
REMARK VINA RESULT:      -6.4     15.874     17.619
REMARK  4 active torsions:
REMARK  status: ('A' for Active; 'I' for Inactive)
REMARK    1  A    between atoms: S_1  and  C_14 
REMARK    2  A    between atoms: N_2  and  C_13 
REMARK    3  A    between atoms: C_7  and  C_14 
REMARK    4  A    between atoms: C_13  and  C_18 
ROOT
HETATM    1  N   UNK N   1      35.476  13.470  14.752  0.00  0.00     0.094 N 
HETATM    2  N   UNK N   1      35.462  11.516  20.463  0.00  0.00    -0.365 N 
HETATM    3  C   UNK N   1      35.919  11.217  15.845  0.00  0.00     0.053 C 
HETATM    4  C   UNK N   1      35.873  12.780  16.012  0.00  0.00     0.235 C 
HETATM    5  C   UNK N   1      36.945  10.901  14.761  0.00  0.00     0.018 C 
HETATM    6  C   UNK N   1      36.643  11.658  13.460  0.00  0.00     0.024 C 
HETATM    7  C   UNK N   1      35.410  12.573  13.581  0.00  0.00     0.278 C 
HETATM    8  C   UNK N   1      34.962  13.234  17.191  0.00  0.00     0.077 C 
HETATM    9  C   UNK N   1      36.221  10.530  17.155  0.00  0.00    -0.039 A 
HETATM   10  C   UNK N   1      35.261  12.394  18.404  0.00  0.00    -0.028 A 
HETATM   11  C   UNK N   1      35.836  11.176  18.307  0.00  0.00     0.005 A 
HETATM   12  C   UNK N   1      35.953  10.655  19.546  0.00  0.00     0.043 A 
HETATM   13  C   UNK N   1      36.743   9.227  17.291  0.00  0.00     0.008 A 
HETATM   14  C   UNK N   1      35.023  12.602  19.760  0.00  0.00     0.096 A 
HETATM   15  C   UNK N   1      36.491   9.383  19.740  0.00  0.00     0.030 A 
HETATM   16  C   UNK N   1      36.895   8.662  18.588  0.00  0.00     0.003 A 
HETATM   17  H   UNK N   1      35.427  11.386  21.439  0.00  0.00     0.165 HD
ENDROOT
BRANCH   1  18
HETATM   18  C   UNK N   1      36.393  14.579  14.456  0.00  0.00     0.272 C 
BRANCH  18  19
HETATM   19  C   UNK N   1      37.425  14.776  15.559  0.00  0.00     0.026 C 
HETATM   20  C   UNK N   1      37.330  16.179  16.119  0.00  0.00     0.007 C 
ENDBRANCH  18  19
ENDBRANCH   1  18
BRANCH   6  21
HETATM   21  C   UNK N   1      36.428  10.645  12.349  0.00  0.00     0.079 C 
BRANCH  21  22
HETATM   22  S   UNK N   1      34.687  10.129  12.267  0.00  0.00    -0.173 SA
HETATM   23  C   UNK N   1      35.126   8.390  12.532  0.00  0.00     0.089 C 
ENDBRANCH  21  22
ENDBRANCH   6  21
TORSDOF 4
ENDMDL
MODEL 5
REMARK VINA RESULT:      -6.2      9.343     12.090
REMARK  4 active torsions:
REMARK  status: ('A' for Active; 'I' for Inactive)
REMARK    1  A    between atoms: S_1  and  C_14 
REMARK    2  A    between atoms: N_2  and  C_13 
REMARK    3  A    between atoms: C_7  and  C_14 
REMARK    4  A    between atoms: C_13  and  C_18 
ROOT
HETATM    1  N   UNK N   1      33.108  15.386   6.085  0.00  0.00     0.094 N 
HETATM    2  N   UNK N   1      27.337  17.072   6.618  0.00  0.00    -0.365 N 
HETATM    3  C   UNK N   1      31.783  16.590   7.892  0.00  0.00     0.053 C 
HETATM    4  C   UNK N   1      31.893  16.199   6.372  0.00  0.00     0.235 C 
HETATM    5  C   UNK N   1      33.023  17.406   8.246  0.00  0.00     0.018 C 
HETATM    6  C   UNK N   1      34.314  16.656   7.888  0.00  0.00     0.024 C 
HETATM    7  C   UNK N   1      34.041  15.292   7.226  0.00  0.00     0.278 C 
HETATM    8  C   UNK N   1      30.618  15.479   5.841  0.00  0.00     0.077 C 
HETATM    9  C   UNK N   1      30.496  17.324   8.182  0.00  0.00    -0.039 A 
HETATM   10  C   UNK N   1      29.395  16.227   6.301  0.00  0.00    -0.028 A 
HETATM   11  C   UNK N   1      29.419  17.047   7.372  0.00  0.00     0.005 A 
HETATM   12  C   UNK N   1      28.181  17.550   7.557  0.00  0.00     0.043 A 
HETATM   13  C   UNK N   1      30.270  18.165   9.290  0.00  0.00     0.008 A 
HETATM   14  C   UNK N   1      28.084  16.241   5.832  0.00  0.00     0.096 A 
HETATM   15  C   UNK N   1      27.909  18.413   8.619  0.00  0.00     0.030 A 
HETATM   16  C   UNK N   1      28.978  18.724   9.497  0.00  0.00     0.003 A 
HETATM   17  H   UNK N   1      26.379  17.279   6.521  0.00  0.00     0.165 HD
ENDROOT
BRANCH   1  18
HETATM   18  C   UNK N   1      33.827  15.918   4.920  0.00  0.00     0.272 C 
BRANCH  18  19
HETATM   19  C   UNK N   1      33.176  17.185   4.379  0.00  0.00     0.026 C 
HETATM   20  C   UNK N   1      32.590  16.926   3.007  0.00  0.00     0.007 C 
ENDBRANCH  18  19
ENDBRANCH   1  18
BRANCH   6  21
HETATM   21  C   UNK N   1      35.130  16.463   9.153  0.00  0.00     0.079 C 
BRANCH  21  22
HETATM   22  S   UNK N   1      35.302  14.699   9.554  0.00  0.00    -0.173 SA
HETATM   23  C   UNK N   1      34.270  14.871  11.035  0.00  0.00     0.089 C 
ENDBRANCH  21  22
ENDBRANCH   6  21
TORSDOF 4
ENDMDL
MODEL 6
REMARK VINA RESULT:      -6.2     16.577     17.711
REMARK  4 active torsions:
REMARK  status: ('A' for Active; 'I' for Inactive)
REMARK    1  A    between atoms: S_1  and  C_14 
REMARK    2  A    between atoms: N_2  and  C_13 
REMARK    3  A    between atoms: C_7  and  C_14 
REMARK    4  A    between atoms: C_13  and  C_18 
ROOT
HETATM    1  N   UNK N   1      26.831  25.390  -5.237  0.00  0.00     0.094 N 
HETATM    2  N   UNK N   1      31.191  21.961  -2.857  0.00  0.00    -0.365 N 
HETATM    3  C   UNK N   1      27.940  23.211  -5.938  0.00  0.00     0.053 C 
HETATM    4  C   UNK N   1      28.048  24.540  -5.103  0.00  0.00     0.235 C 
HETATM    5  C   UNK N   1      27.765  23.602  -7.403  0.00  0.00     0.018 C 
HETATM    6  C   UNK N   1      26.577  24.556  -7.594  0.00  0.00     0.024 C 
HETATM    7  C   UNK N   1      25.884  24.913  -6.265  0.00  0.00     0.278 C 
HETATM    8  C   UNK N   1      28.370  24.284  -3.602  0.00  0.00     0.077 C 
HETATM    9  C   UNK N   1      29.134  22.316  -5.709  0.00  0.00    -0.039 A 
HETATM   10  C   UNK N   1      29.488  23.281  -3.495  0.00  0.00    -0.028 A 
HETATM   11  C   UNK N   1      29.775  22.421  -4.496  0.00  0.00     0.005 A 
HETATM   12  C   UNK N   1      30.797  21.632  -4.106  0.00  0.00     0.043 A 
HETATM   13  C   UNK N   1      29.566  21.295  -6.580  0.00  0.00     0.008 A 
HETATM   14  C   UNK N   1      30.377  22.985  -2.465  0.00  0.00     0.096 A 
HETATM   15  C   UNK N   1      31.283  20.625  -4.940  0.00  0.00     0.030 A 
HETATM   16  C   UNK N   1      30.654  20.461  -6.200  0.00  0.00     0.003 A 
HETATM   17  H   UNK N   1      31.916  21.545  -2.336  0.00  0.00     0.165 HD
ENDROOT
BRANCH   1  18
HETATM   18  C   UNK N   1      27.199  26.781  -5.533  0.00  0.00     0.272 C 
BRANCH  18  19
HETATM   19  C   UNK N   1      25.986  27.705  -5.528  0.00  0.00     0.026 C 
HETATM   20  C   UNK N   1      25.610  28.065  -4.106  0.00  0.00     0.007 C 
ENDBRANCH  18  19
ENDBRANCH   1  18
BRANCH   6  21
HETATM   21  C   UNK N   1      25.581  23.906  -8.538  0.00  0.00     0.079 C 
BRANCH  21  22
HETATM   22  S   UNK N   1      26.023  22.173  -8.859  0.00  0.00    -0.173 SA
HETATM   23  C   UNK N   1      24.773  21.573  -7.691  0.00  0.00     0.089 C 
ENDBRANCH  21  22
ENDBRANCH   6  21
TORSDOF 4
ENDMDL
MODEL 7
REMARK VINA RESULT:      -6.2      8.904     11.417
REMARK  4 active torsions:
REMARK  status: ('A' for Active; 'I' for Inactive)
REMARK    1  A    between atoms: S_1  and  C_14 
REMARK    2  A    between atoms: N_2  and  C_13 
REMARK    3  A    between atoms: C_7  and  C_14 
REMARK    4  A    between atoms: C_13  and  C_18 
ROOT
HETATM    1  N   UNK N   1      33.614  17.105   7.804  0.00  0.00     0.094 N 
HETATM    2  N   UNK N   1      27.773  18.095   8.961  0.00  0.00    -0.365 N 
HETATM    3  C   UNK N   1      31.458  16.596   6.554  0.00  0.00     0.053 C 
HETATM    4  C   UNK N   1      32.144  16.901   7.937  0.00  0.00     0.235 C 
HETATM    5  C   UNK N   1      32.090  15.322   5.999  0.00  0.00     0.018 C 
HETATM    6  C   UNK N   1      33.619  15.436   5.925  0.00  0.00     0.024 C 
HETATM    7  C   UNK N   1      34.139  16.784   6.461  0.00  0.00     0.278 C 
HETATM    8  C   UNK N   1      31.492  18.103   8.680  0.00  0.00     0.077 C 
HETATM    9  C   UNK N   1      29.958  16.494   6.691  0.00  0.00    -0.039 A 
HETATM   10  C   UNK N   1      29.994  17.961   8.641  0.00  0.00    -0.028 A 
HETATM   11  C   UNK N   1      29.370  17.211   7.707  0.00  0.00     0.005 A 
HETATM   12  C   UNK N   1      28.038  17.296   7.905  0.00  0.00     0.043 A 
HETATM   13  C   UNK N   1      29.100  15.834   5.788  0.00  0.00     0.008 A 
HETATM   14  C   UNK N   1      28.986  18.519   9.424  0.00  0.00     0.096 A 
HETATM   15  C   UNK N   1      27.145  16.638   7.060  0.00  0.00     0.030 A 
HETATM   16  C   UNK N   1      27.693  15.892   5.985  0.00  0.00     0.003 A 
HETATM   17  H   UNK N   1      26.886  18.324   9.322  0.00  0.00     0.165 HD
ENDROOT
BRANCH   1  18
HETATM   18  C   UNK N   1      34.341  16.314   8.805  0.00  0.00     0.272 C 
BRANCH  18  19
HETATM   19  C   UNK N   1      33.431  15.321   9.518  0.00  0.00     0.026 C 
HETATM   20  C   UNK N   1      33.951  13.911   9.335  0.00  0.00     0.007 C 
ENDBRANCH  18  19
ENDBRANCH   1  18
BRANCH   6  21
HETATM   21  C   UNK N   1      34.049  15.255   4.480  0.00  0.00     0.079 C 
BRANCH  21  22
HETATM   22  S   UNK N   1      32.607  15.051   3.393  0.00  0.00    -0.173 SA
HETATM   23  C   UNK N   1      32.685  16.783   2.861  0.00  0.00     0.089 C 
ENDBRANCH  21  22
ENDBRANCH   6  21
TORSDOF 4
ENDMDL
MODEL 8
REMARK VINA RESULT:      -6.2      7.671      9.283
REMARK  4 active torsions:
REMARK  status: ('A' for Active; 'I' for Inactive)
REMARK    1  A    between atoms: S_1  and  C_14 
REMARK    2  A    between atoms: N_2  and  C_13 
REMARK    3  A    between atoms: C_7  and  C_14 
REMARK    4  A    between atoms: C_13  and  C_18 
ROOT
HETATM    1  N   UNK N   1      26.884  16.832   5.025  0.00  0.00     0.094 N 
HETATM    2  N   UNK N   1      30.343  18.361   9.730  0.00  0.00    -0.365 N 
HETATM    3  C   UNK N   1      29.369  16.623   5.528  0.00  0.00     0.053 C 
HETATM    4  C   UNK N   1      28.016  17.366   5.834  0.00  0.00     0.235 C 
HETATM    5  C   UNK N   1      29.678  16.824   4.047  0.00  0.00     0.018 C 
HETATM    6  C   UNK N   1      28.507  16.377   3.160  0.00  0.00     0.024 C 
HETATM    7  C   UNK N   1      27.302  15.877   3.979  0.00  0.00     0.278 C 
HETATM    8  C   UNK N   1      27.654  17.358   7.348  0.00  0.00     0.077 C 
HETATM    9  C   UNK N   1      30.480  17.104   6.429  0.00  0.00    -0.039 A 
HETATM   10  C   UNK N   1      28.870  17.726   8.155  0.00  0.00    -0.028 A 
HETATM   11  C   UNK N   1      30.122  17.584   7.668  0.00  0.00     0.005 A 
HETATM   12  C   UNK N   1      31.000  17.966   8.618  0.00  0.00     0.043 A 
HETATM   13  C   UNK N   1      31.859  16.981   6.160  0.00  0.00     0.008 A 
HETATM   14  C   UNK N   1      29.014  18.210   9.453  0.00  0.00     0.096 A 
HETATM   15  C   UNK N   1      32.374  17.894   8.393  0.00  0.00     0.030 A 
HETATM   16  C   UNK N   1      32.805  17.394   7.138  0.00  0.00     0.003 A 
HETATM   17  H   UNK N   1      30.742  18.688  10.569  0.00  0.00     0.165 HD
ENDROOT
BRANCH   1  18
HETATM   18  C   UNK N   1      26.131  17.927   4.400  0.00  0.00     0.272 C 
BRANCH  18  19
HETATM   19  C   UNK N   1      26.822  19.273   4.584  0.00  0.00     0.026 C 
HETATM   20  C   UNK N   1      26.488  20.194   3.430  0.00  0.00     0.007 C 
ENDBRANCH  18  19
ENDBRANCH   1  18
BRANCH   6  21
HETATM   21  C   UNK N   1      28.993  15.278   2.233  0.00  0.00     0.079 C 
BRANCH  21  22
HETATM   22  S   UNK N   1      28.707  13.638   2.960  0.00  0.00    -0.173 SA
HETATM   23  C   UNK N   1      30.486  13.293   3.038  0.00  0.00     0.089 C 
ENDBRANCH  21  22
ENDBRANCH   6  21
TORSDOF 4
ENDMDL
MODEL 9
REMARK VINA RESULT:      -6.2     14.264     16.873
REMARK  4 active torsions:
REMARK  status: ('A' for Active; 'I' for Inactive)
REMARK    1  A    between atoms: S_1  and  C_14 
REMARK    2  A    between atoms: N_2  and  C_13 
REMARK    3  A    between atoms: C_7  and  C_14 
REMARK    4  A    between atoms: C_13  and  C_18 
ROOT
HETATM    1  N   UNK N   1      35.557  10.869  13.535  0.00  0.00     0.094 N 
HETATM    2  N   UNK N   1      35.319  13.817  18.797  0.00  0.00    -0.365 N 
HETATM    3  C   UNK N   1      36.677  12.970  14.431  0.00  0.00     0.053 C 
HETATM    4  C   UNK N   1      35.469  11.968  14.539  0.00  0.00     0.235 C 
HETATM    5  C   UNK N   1      36.650  13.573  13.030  0.00  0.00     0.018 C 
HETATM    6  C   UNK N   1      36.645  12.485  11.947  0.00  0.00     0.024 C 
HETATM    7  C   UNK N   1      36.629  11.062  12.538  0.00  0.00     0.278 C 
HETATM    8  C   UNK N   1      35.296  11.383  15.971  0.00  0.00     0.077 C 
HETATM    9  C   UNK N   1      36.626  14.015  15.520  0.00  0.00    -0.039 A 
HETATM   10  C   UNK N   1      35.393  12.497  16.980  0.00  0.00    -0.028 A 
HETATM   11  C   UNK N   1      36.012  13.664  16.699  0.00  0.00     0.005 A 
HETATM   12  C   UNK N   1      35.964  14.451  17.795  0.00  0.00     0.043 A 
HETATM   13  C   UNK N   1      37.270  15.269  15.476  0.00  0.00     0.008 A 
HETATM   14  C   UNK N   1      34.962  12.595  18.300  0.00  0.00     0.096 A 
HETATM   15  C   UNK N   1      36.557  15.713  17.796  0.00  0.00     0.030 A 
HETATM   16  C   UNK N   1      37.218  16.125  16.611  0.00  0.00     0.003 A 
HETATM   17  H   UNK N   1      35.142  14.165  19.702  0.00  0.00     0.165 HD
ENDROOT
BRANCH   1  18
HETATM   18  C   UNK N   1      34.276  10.700  12.836  0.00  0.00     0.272 C 
BRANCH  18  19
HETATM   19  C   UNK N   1      34.288   9.491  11.909  0.00  0.00     0.026 C 
HETATM   20  C   UNK N   1      33.208   9.628  10.857  0.00  0.00     0.007 C 
ENDBRANCH  18  19
ENDBRANCH   1  18
BRANCH   6  21
HETATM   21  C   UNK N   1      37.872  12.667  11.071  0.00  0.00     0.079 C 
BRANCH  21  22
HETATM   22  S   UNK N   1      37.501  12.264   9.339  0.00  0.00    -0.173 SA
HETATM   23  C   UNK N   1      38.798  13.381   8.737  0.00  0.00     0.089 C 
ENDBRANCH  21  22
ENDBRANCH   6  21
TORSDOF 4
ENDMDL
