MODEL 1
REMARK VINA RESULT:      -6.8      0.000      0.000
REMARK  9 active torsions:
REMARK  status: ('A' for Active; 'I' for Inactive)
REMARK    1  A    between atoms: O_8  and  C_20 
REMARK    2  A    between atoms: O_8  and  C_25 
REMARK    3  A    between atoms: O_9  and  C_22 
REMARK    4  A    between atoms: O_9  and  C_26 
REMARK    5  A    between atoms: N_11  and  C_17 
REMARK       I    between atoms: N_11  and  C_18 
REMARK    6  A    between atoms: C_12  and  C_17 
REMARK    7  A    between atoms: C_18  and  C_19 
REMARK    8  A    between atoms: C_25  and  C_27 
REMARK    9  A    between atoms: C_26  and  C_28 
ROOT
HETATM    1  C   UNK N   1      29.480  17.632   7.866  0.00  0.00     0.068 A 
HETATM    2  C   UNK N   1      29.594  16.904   6.624  0.00  0.00     0.085 A 
HETATM    3  C   UNK N   1      30.672  17.924   8.562  0.00  0.00     0.056 A 
HETATM    4  C   UNK N   1      31.927  17.556   8.084  0.00  0.00     0.070 A 
HETATM    5  C   UNK N   1      30.867  16.524   6.181  0.00  0.00     0.040 A 
HETATM    6  C   UNK N   1      32.019  16.848   6.887  0.00  0.00     0.039 A 
ENDROOT
BRANCH   1   7
HETATM    7  C   UNK N   1      28.187  18.078   8.507  0.00  0.00     0.254 C 
HETATM    8  O   UNK N   1      27.758  17.485   9.481  0.00  0.00    -0.268 OA
HETATM    9  N   UNK N   1      27.482  19.162   8.076  0.00  0.00    -0.355 N 
HETATM   10  H   UNK N   1      26.692  19.431   8.599  0.00  0.00     0.162 HD
BRANCH   9  11
HETATM   11  C   UNK N   1      27.806  19.944   6.908  0.00  0.00     0.147 C 
BRANCH  11  12
HETATM   12  C   UNK N   1      26.678  19.853   5.903  0.00  0.00     0.094 C 
HETATM   13  N   UNK N   1      26.312  18.452   5.700  0.00  0.00    -0.415 N 
HETATM   14  C   UNK N   1      25.146  18.396   4.820  0.00  0.00     0.114 C 
HETATM   15  H   UNK N   1      26.790  17.647   6.104  0.00  0.00     0.153 HD
HETATM   16  C   UNK N   1      25.497  18.955   3.443  0.00  0.00     0.019 C 
HETATM   17  C   UNK N   1      25.975  20.397   3.583  0.00  0.00     0.004 C 
HETATM   18  C   UNK N   1      27.123  20.474   4.583  0.00  0.00     0.026 C 
ENDBRANCH  11  12
ENDBRANCH   9  11
ENDBRANCH   1   7
BRANCH   2  19
HETATM   19  O   UNK N   1      28.577  16.570   5.784  0.00  0.00    -0.341 OA
BRANCH  19  20
HETATM   20  C   UNK N   1      28.554  15.656   4.761  0.00  0.00     0.293 C 
BRANCH  20  21
HETATM   21  C   UNK N   1      28.410  16.386   3.435  0.00  0.00     0.408 C 
HETATM   22  F   UNK N   1      29.340  15.904   2.532  0.00  0.00    -0.169 F 
HETATM   23  F   UNK N   1      28.623  17.738   3.628  0.00  0.00    -0.169 F 
HETATM   24  F   UNK N   1      27.139  16.193   2.925  0.00  0.00    -0.169 F 
ENDBRANCH  20  21
ENDBRANCH  19  20
ENDBRANCH   2  19
BRANCH   4  25
HETATM   25  O   UNK N   1      33.034  17.918   8.776  0.00  0.00    -0.342 OA
BRANCH  25  26
HETATM   26  C   UNK N   1      34.285  17.413   8.482  0.00  0.00     0.293 C 
BRANCH  26  27
HETATM   27  C   UNK N   1      34.763  16.402   9.510  0.00  0.00     0.408 C 
HETATM   28  F   UNK N   1      35.400  17.086  10.528  0.00  0.00    -0.169 F 
HETATM   29  F   UNK N   1      35.656  15.522   8.929  0.00  0.00    -0.169 F 
HETATM   30  F   UNK N   1      33.692  15.704  10.033  0.00  0.00    -0.169 F 
ENDBRANCH  26  27
ENDBRANCH  25  26
ENDBRANCH   4  25
TORSDOF 9
ENDMDL
MODEL 2
REMARK VINA RESULT:      -6.7     11.493     13.924
REMARK  9 active torsions:
REMARK  status: ('A' for Active; 'I' for Inactive)
REMARK    1  A    between atoms: O_8  and  C_20 
REMARK    2  A    between atoms: O_8  and  C_25 
REMARK    3  A    between atoms: O_9  and  C_22 
REMARK    4  A    between atoms: O_9  and  C_26 
REMARK    5  A    between atoms: N_11  and  C_17 
REMARK       I    between atoms: N_11  and  C_18 
REMARK    6  A    between atoms: C_12  and  C_17 
REMARK    7  A    between atoms: C_18  and  C_19 
REMARK    8  A    between atoms: C_25  and  C_27 
REMARK    9  A    between atoms: C_26  and  C_28 
ROOT
HETATM    1  C   UNK N   1      28.191  24.675  -4.269  0.00  0.00     0.068 A 
HETATM    2  C   UNK N   1      28.722  26.016  -4.188  0.00  0.00     0.085 A 
HETATM    3  C   UNK N   1      29.092  23.635  -4.581  0.00  0.00     0.056 A 
HETATM    4  C   UNK N   1      30.450  23.859  -4.789  0.00  0.00     0.070 A 
HETATM    5  C   UNK N   1      30.087  26.214  -4.427  0.00  0.00     0.040 A 
HETATM    6  C   UNK N   1      30.945  25.160  -4.714  0.00  0.00     0.039 A 
ENDROOT
BRANCH   1   7
HETATM    7  C   UNK N   1      26.741  24.292  -4.082  0.00  0.00     0.254 C 
HETATM    8  O   UNK N   1      26.357  23.890  -2.998  0.00  0.00    -0.268 OA
HETATM    9  N   UNK N   1      25.809  24.418  -5.068  0.00  0.00    -0.355 N 
HETATM   10  H   UNK N   1      24.872  24.220  -4.838  0.00  0.00     0.162 HD
BRANCH   9  11
HETATM   11  C   UNK N   1      26.094  24.817  -6.425  0.00  0.00     0.147 C 
BRANCH  11  12
HETATM   12  C   UNK N   1      25.858  23.653  -7.361  0.00  0.00     0.094 C 
HETATM   13  N   UNK N   1      25.046  22.638  -6.689  0.00  0.00    -0.415 N 
HETATM   14  C   UNK N   1      24.731  21.580  -7.648  0.00  0.00     0.114 C 
HETATM   15  H   UNK N   1      24.749  22.664  -5.714  0.00  0.00     0.153 HD
HETATM   16  C   UNK N   1      26.012  20.880  -8.099  0.00  0.00     0.019 C 
HETATM   17  C   UNK N   1      26.954  21.897  -8.736  0.00  0.00     0.004 C 
HETATM   18  C   UNK N   1      27.199  23.057  -7.778  0.00  0.00     0.026 C 
ENDBRANCH  11  12
ENDBRANCH   9  11
ENDBRANCH   1   7
BRANCH   2  19
HETATM   19  O   UNK N   1      28.034  27.141  -3.853  0.00  0.00    -0.341 OA
BRANCH  19  20
HETATM   20  C   UNK N   1      27.247  27.948  -4.635  0.00  0.00     0.293 C 
BRANCH  20  21
HETATM   21  C   UNK N   1      25.888  28.120  -3.975  0.00  0.00     0.408 C 
HETATM   22  F   UNK N   1      24.887  27.825  -4.882  0.00  0.00    -0.169 F 
HETATM   23  F   UNK N   1      25.746  29.428  -3.551  0.00  0.00    -0.169 F 
HETATM   24  F   UNK N   1      25.780  27.274  -2.887  0.00  0.00    -0.169 F 
ENDBRANCH  20  21
ENDBRANCH  19  20
ENDBRANCH   2  19
BRANCH   4  25
HETATM   25  O   UNK N   1      31.267  22.806  -5.031  0.00  0.00    -0.342 OA
BRANCH  25  26
HETATM   26  C   UNK N   1      32.320  22.483  -4.198  0.00  0.00     0.293 C 
BRANCH  26  27
HETATM   27  C   UNK N   1      31.869  21.760  -2.941  0.00  0.00     0.408 C 
HETATM   28  F   UNK N   1      31.002  20.749  -3.309  0.00  0.00    -0.169 F 
HETATM   29  F   UNK N   1      31.211  22.637  -2.100  0.00  0.00    -0.169 F 
HETATM   30  F   UNK N   1      32.955  21.210  -2.287  0.00  0.00    -0.169 F 
ENDBRANCH  26  27
ENDBRANCH  25  26
ENDBRANCH   4  25
TORSDOF 9
ENDMDL
MODEL 3
REMARK VINA RESULT:      -6.6      6.573      9.388
REMARK  9 active torsions:
REMARK  status: ('A' for Active; 'I' for Inactive)
REMARK    1  A    between atoms: O_8  and  C_20 
REMARK    2  A    between atoms: O_8  and  C_25 
REMARK    3  A    between atoms: O_9  and  C_22 
REMARK    4  A    between atoms: O_9  and  C_26 
REMARK    5  A    between atoms: N_11  and  C_17 
REMARK       I    between atoms: N_11  and  C_18 
REMARK    6  A    between atoms: C_12  and  C_17 
REMARK    7  A    between atoms: C_18  and  C_19 
REMARK    8  A    between atoms: C_25  and  C_27 
REMARK    9  A    between atoms: C_26  and  C_28 
ROOT
HETATM    1  C   UNK N   1      21.016  16.759   5.695  0.00  0.00     0.068 A 
HETATM    2  C   UNK N   1      20.395  16.458   4.427  0.00  0.00     0.085 A 
HETATM    3  C   UNK N   1      20.921  15.788   6.714  0.00  0.00     0.056 A 
HETATM    4  C   UNK N   1      20.275  14.568   6.528  0.00  0.00     0.070 A 
HETATM    5  C   UNK N   1      19.732  15.234   4.276  0.00  0.00     0.040 A 
HETATM    6  C   UNK N   1      19.675  14.297   5.299  0.00  0.00     0.039 A 
ENDROOT
BRANCH   1   7
HETATM    7  C   UNK N   1      21.733  18.044   6.040  0.00  0.00     0.254 C 
HETATM    8  O   UNK N   1      21.163  18.896   6.698  0.00  0.00    -0.268 OA
HETATM    9  N   UNK N   1      23.026  18.288   5.688  0.00  0.00    -0.355 N 
HETATM   10  H   UNK N   1      23.441  19.116   6.021  0.00  0.00     0.162 HD
BRANCH   9  11
HETATM   11  C   UNK N   1      23.833  17.423   4.862  0.00  0.00     0.147 C 
BRANCH  11  12
HETATM   12  C   UNK N   1      25.097  18.144   4.448  0.00  0.00     0.094 C 
HETATM   13  N   UNK N   1      26.031  18.184   5.572  0.00  0.00    -0.415 N 
HETATM   14  C   UNK N   1      27.287  18.777   5.117  0.00  0.00     0.114 C 
HETATM   15  H   UNK N   1      25.839  17.853   6.518  0.00  0.00     0.153 HD
HETATM   16  C   UNK N   1      27.061  20.226   4.690  0.00  0.00     0.019 C 
HETATM   17  C   UNK N   1      26.025  20.276   3.571  0.00  0.00     0.004 C 
HETATM   18  C   UNK N   1      24.750  19.563   4.006  0.00  0.00     0.026 C 
ENDBRANCH  11  12
ENDBRANCH   9  11
ENDBRANCH   1   7
BRANCH   2  19
HETATM   19  O   UNK N   1      20.418  17.234   3.309  0.00  0.00    -0.341 OA
BRANCH  19  20
HETATM   20  C   UNK N   1      19.634  18.311   2.979  0.00  0.00     0.293 C 
BRANCH  20  21
HETATM   21  C   UNK N   1      20.507  19.548   2.844  0.00  0.00     0.408 C 
HETATM   22  F   UNK N   1      21.835  19.176   2.753  0.00  0.00    -0.169 F 
HETATM   23  F   UNK N   1      20.336  20.355   3.953  0.00  0.00    -0.169 F 
HETATM   24  F   UNK N   1      20.154  20.254   1.708  0.00  0.00    -0.169 F 
ENDBRANCH  20  21
ENDBRANCH  19  20
ENDBRANCH   2  19
BRANCH   4  25
HETATM   25  O   UNK N   1      20.269  13.659   7.532  0.00  0.00    -0.342 OA
BRANCH  25  26
HETATM   26  C   UNK N   1      21.426  13.260   8.172  0.00  0.00     0.293 C 
BRANCH  26  27
HETATM   27  C   UNK N   1      21.407  13.567   9.659  0.00  0.00     0.408 C 
HETATM   28  F   UNK N   1      20.690  12.573  10.298  0.00  0.00    -0.169 F 
HETATM   29  F   UNK N   1      20.792  14.784   9.884  0.00  0.00    -0.169 F 
HETATM   30  F   UNK N   1      22.694  13.592  10.161  0.00  0.00    -0.169 F 
ENDBRANCH  26  27
ENDBRANCH  25  26
ENDBRANCH   4  25
TORSDOF 9
ENDMDL
MODEL 4
REMARK VINA RESULT:      -6.6     13.085     15.633
REMARK  9 active torsions:
REMARK  status: ('A' for Active; 'I' for Inactive)
REMARK    1  A    between atoms: O_8  and  C_20 
REMARK    2  A    between atoms: O_8  and  C_25 
REMARK    3  A    between atoms: O_9  and  C_22 
REMARK    4  A    between atoms: O_9  and  C_26 
REMARK    5  A    between atoms: N_11  and  C_17 
REMARK       I    between atoms: N_11  and  C_18 
REMARK    6  A    between atoms: C_12  and  C_17 
REMARK    7  A    between atoms: C_18  and  C_19 
REMARK    8  A    between atoms: C_25  and  C_27 
REMARK    9  A    between atoms: C_26  and  C_28 
ROOT
HETATM    1  C   UNK N   1      26.926  24.668  -4.931  0.00  0.00     0.068 A 
HETATM    2  C   UNK N   1      27.071  26.013  -5.435  0.00  0.00     0.085 A 
HETATM    3  C   UNK N   1      26.256  23.734  -5.749  0.00  0.00     0.056 A 
HETATM    4  C   UNK N   1      25.761  24.062  -7.008  0.00  0.00     0.070 A 
HETATM    5  C   UNK N   1      26.541  26.321  -6.694  0.00  0.00     0.040 A 
HETATM    6  C   UNK N   1      25.904  25.367  -7.477  0.00  0.00     0.039 A 
ENDROOT
BRANCH   1   7
HETATM    7  C   UNK N   1      27.399  24.180  -3.581  0.00  0.00     0.254 C 
HETATM    8  O   UNK N   1      26.637  24.196  -2.631  0.00  0.00    -0.268 OA
HETATM    9  N   UNK N   1      28.644  23.666  -3.374  0.00  0.00    -0.355 N 
HETATM   10  H   UNK N   1      28.844  23.298  -2.483  0.00  0.00     0.162 HD
BRANCH   9  11
HETATM   11  C   UNK N   1      29.693  23.624  -4.364  0.00  0.00     0.147 C 
BRANCH  11  12
HETATM   12  C   UNK N   1      29.989  22.187  -4.734  0.00  0.00     0.094 C 
HETATM   13  N   UNK N   1      31.411  21.910  -4.534  0.00  0.00    -0.415 N 
HETATM   14  C   UNK N   1      31.651  20.490  -4.781  0.00  0.00     0.114 C 
HETATM   15  H   UNK N   1      32.118  22.595  -4.266  0.00  0.00     0.153 HD
HETATM   16  C   UNK N   1      31.344  20.150  -6.239  0.00  0.00     0.019 C 
HETATM   17  C   UNK N   1      29.891  20.495  -6.551  0.00  0.00     0.004 C 
HETATM   18  C   UNK N   1      29.610  21.950  -6.192  0.00  0.00     0.026 C 
ENDBRANCH  11  12
ENDBRANCH   9  11
ENDBRANCH   1   7
BRANCH   2  19
HETATM   19  O   UNK N   1      27.723  27.041  -4.827  0.00  0.00    -0.341 OA
BRANCH  19  20
HETATM   20  C   UNK N   1      27.357  27.779  -3.729  0.00  0.00     0.293 C 
BRANCH  20  21
HETATM   21  C   UNK N   1      26.380  28.864  -4.154  0.00  0.00     0.408 C 
HETATM   22  F   UNK N   1      26.330  29.852  -3.188  0.00  0.00    -0.169 F 
HETATM   23  F   UNK N   1      25.122  28.315  -4.307  0.00  0.00    -0.169 F 
HETATM   24  F   UNK N   1      26.784  29.421  -5.353  0.00  0.00    -0.169 F 
ENDBRANCH  20  21
ENDBRANCH  19  20
ENDBRANCH   2  19
BRANCH   4  25
HETATM   25  O   UNK N   1      25.177  23.100  -7.764  0.00  0.00    -0.342 OA
BRANCH  25  26
HETATM   26  C   UNK N   1      24.991  21.813  -7.302  0.00  0.00     0.293 C 
BRANCH  26  27
HETATM   27  C   UNK N   1      25.692  20.777  -8.164  0.00  0.00     0.408 C 
HETATM   28  F   UNK N   1      25.354  19.521  -7.696  0.00  0.00    -0.169 F 
HETATM   29  F   UNK N   1      27.062  20.937  -8.078  0.00  0.00    -0.169 F 
HETATM   30  F   UNK N   1      25.289  20.894  -9.480  0.00  0.00    -0.169 F 
ENDBRANCH  26  27
ENDBRANCH  25  26
ENDBRANCH   4  25
TORSDOF 9
ENDMDL
MODEL 5
REMARK VINA RESULT:      -6.6      3.160      6.838
REMARK  9 active torsions:
REMARK  status: ('A' for Active; 'I' for Inactive)
REMARK    1  A    between atoms: O_8  and  C_20 
REMARK    2  A    between atoms: O_8  and  C_25 
REMARK    3  A    between atoms: O_9  and  C_22 
REMARK    4  A    between atoms: O_9  and  C_26 
REMARK    5  A    between atoms: N_11  and  C_17 
REMARK       I    between atoms: N_11  and  C_18 
REMARK    6  A    between atoms: C_12  and  C_17 
REMARK    7  A    between atoms: C_18  and  C_19 
REMARK    8  A    between atoms: C_25  and  C_27 
REMARK    9  A    between atoms: C_26  and  C_28 
ROOT
HETATM    1  C   UNK N   1      34.101  17.064   6.688  0.00  0.00     0.068 A 
HETATM    2  C   UNK N   1      34.697  15.751   6.619  0.00  0.00     0.085 A 
HETATM    3  C   UNK N   1      33.423  17.533   5.542  0.00  0.00     0.056 A 
HETATM    4  C   UNK N   1      33.301  16.774   4.382  0.00  0.00     0.070 A 
HETATM    5  C   UNK N   1      34.580  15.020   5.430  0.00  0.00     0.040 A 
HETATM    6  C   UNK N   1      33.889  15.511   4.330  0.00  0.00     0.039 A 
ENDROOT
BRANCH   1   7
HETATM    7  C   UNK N   1      34.169  18.000   7.873  0.00  0.00     0.254 C 
HETATM    8  O   UNK N   1      35.030  18.860   7.915  0.00  0.00    -0.268 OA
HETATM    9  N   UNK N   1      33.271  17.964   8.898  0.00  0.00    -0.355 N 
HETATM   10  H   UNK N   1      33.341  18.660   9.590  0.00  0.00     0.162 HD
BRANCH   9  11
HETATM   11  C   UNK N   1      32.227  16.979   9.043  0.00  0.00     0.147 C 
BRANCH  11  12
HETATM   12  C   UNK N   1      30.894  17.590   8.671  0.00  0.00     0.094 C 
HETATM   13  N   UNK N   1      29.988  17.532   9.818  0.00  0.00    -0.415 N 
HETATM   14  C   UNK N   1      28.752  18.233   9.475  0.00  0.00     0.114 C 
HETATM   15  H   UNK N   1      30.185  17.077  10.709  0.00  0.00     0.153 HD
HETATM   16  C   UNK N   1      28.042  17.518   8.326  0.00  0.00     0.019 C 
HETATM   17  C   UNK N   1      28.964  17.461   7.111  0.00  0.00     0.004 C 
HETATM   18  C   UNK N   1      30.296  16.826   7.493  0.00  0.00     0.026 C 
ENDBRANCH  11  12
ENDBRANCH   9  11
ENDBRANCH   1   7
BRANCH   2  19
HETATM   19  O   UNK N   1      35.345  15.101   7.624  0.00  0.00    -0.341 OA
BRANCH  19  20
HETATM   20  C   UNK N   1      34.843  14.264   8.588  0.00  0.00     0.293 C 
BRANCH  20  21
HETATM   21  C   UNK N   1      35.243  14.778   9.962  0.00  0.00     0.408 C 
HETATM   22  F   UNK N   1      35.852  16.013   9.840  0.00  0.00    -0.169 F 
HETATM   23  F   UNK N   1      36.129  13.891  10.544  0.00  0.00    -0.169 F 
HETATM   24  F   UNK N   1      34.125  14.899  10.766  0.00  0.00    -0.169 F 
ENDBRANCH  20  21
ENDBRANCH  19  20
ENDBRANCH   2  19
BRANCH   4  25
HETATM   25  O   UNK N   1      32.590  17.264   3.338  0.00  0.00    -0.342 OA
BRANCH  25  26
HETATM   26  C   UNK N   1      31.563  16.556   2.749  0.00  0.00     0.293 C 
BRANCH  26  27
HETATM   27  C   UNK N   1      30.269  16.634   3.541  0.00  0.00     0.408 C 
HETATM   28  F   UNK N   1      30.270  17.816   4.258  0.00  0.00    -0.169 F 
HETATM   29  F   UNK N   1      30.186  15.571   4.420  0.00  0.00    -0.169 F 
HETATM   30  F   UNK N   1      29.181  16.622   2.689  0.00  0.00    -0.169 F 
ENDBRANCH  26  27
ENDBRANCH  25  26
ENDBRANCH   4  25
TORSDOF 9
ENDMDL
MODEL 6
REMARK VINA RESULT:      -6.5      3.975      5.601
REMARK  9 active torsions:
REMARK  status: ('A' for Active; 'I' for Inactive)
REMARK    1  A    between atoms: O_8  and  C_20 
REMARK    2  A    between atoms: O_8  and  C_25 
REMARK    3  A    between atoms: O_9  and  C_22 
REMARK    4  A    between atoms: O_9  and  C_26 
REMARK    5  A    between atoms: N_11  and  C_17 
REMARK       I    between atoms: N_11  and  C_18 
REMARK    6  A    between atoms: C_12  and  C_17 
REMARK    7  A    between atoms: C_18  and  C_19 
REMARK    8  A    between atoms: C_25  and  C_27 
REMARK    9  A    between atoms: C_26  and  C_28 
ROOT
HETATM    1  C   UNK N   1      34.640  16.620   8.670  0.00  0.00     0.068 A 
HETATM    2  C   UNK N   1      35.149  15.608   7.775  0.00  0.00     0.085 A 
HETATM    3  C   UNK N   1      34.486  16.271  10.028  0.00  0.00     0.056 A 
HETATM    4  C   UNK N   1      34.823  15.012  10.520  0.00  0.00     0.070 A 
HETATM    5  C   UNK N   1      35.456  14.343   8.293  0.00  0.00     0.040 A 
HETATM    6  C   UNK N   1      35.307  14.045   9.641  0.00  0.00     0.039 A 
ENDROOT
BRANCH   1   7
HETATM    7  C   UNK N   1      34.221  18.016   8.271  0.00  0.00     0.254 C 
HETATM    8  O   UNK N   1      35.006  18.940   8.390  0.00  0.00    -0.268 OA
HETATM    9  N   UNK N   1      33.003  18.297   7.728  0.00  0.00    -0.355 N 
HETATM   10  H   UNK N   1      32.841  19.219   7.423  0.00  0.00     0.162 HD
BRANCH   9  11
HETATM   11  C   UNK N   1      31.932  17.344   7.569  0.00  0.00     0.147 C 
BRANCH  11  12
HETATM   12  C   UNK N   1      30.691  17.847   8.272  0.00  0.00     0.094 C 
HETATM   13  N   UNK N   1      30.404  17.002   9.430  0.00  0.00    -0.415 N 
HETATM   14  C   UNK N   1      29.275  17.575  10.160  0.00  0.00     0.114 C 
HETATM   15  H   UNK N   1      30.907  16.152   9.686  0.00  0.00     0.153 HD
HETATM   16  C   UNK N   1      28.020  17.557   9.290  0.00  0.00     0.019 C 
HETATM   17  C   UNK N   1      28.272  18.352   8.012  0.00  0.00     0.004 C 
HETATM   18  C   UNK N   1      29.513  17.824   7.302  0.00  0.00     0.026 C 
ENDBRANCH  11  12
ENDBRANCH   9  11
ENDBRANCH   1   7
BRANCH   2  19
HETATM   19  O   UNK N   1      35.415  15.758   6.448  0.00  0.00    -0.341 OA
BRANCH  19  20
HETATM   20  C   UNK N   1      35.026  14.981   5.387  0.00  0.00     0.293 C 
BRANCH  20  21
HETATM   21  C   UNK N   1      33.833  15.627   4.699  0.00  0.00     0.408 C 
HETATM   22  F   UNK N   1      33.895  15.392   3.338  0.00  0.00    -0.169 F 
HETATM   23  F   UNK N   1      33.855  16.990   4.926  0.00  0.00    -0.169 F 
HETATM   24  F   UNK N   1      32.657  15.100   5.199  0.00  0.00    -0.169 F 
ENDBRANCH  20  21
ENDBRANCH  19  20
ENDBRANCH   2  19
BRANCH   4  25
HETATM   25  O   UNK N   1      34.702  14.764  11.846  0.00  0.00    -0.342 OA
BRANCH  25  26
HETATM   26  C   UNK N   1      35.036  13.544  12.401  0.00  0.00     0.293 C 
BRANCH  26  27
HETATM   27  C   UNK N   1      36.115  13.662  13.463  0.00  0.00     0.408 C 
HETATM   28  F   UNK N   1      37.192  12.887  13.076  0.00  0.00    -0.169 F 
HETATM   29  F   UNK N   1      35.639  13.201  14.676  0.00  0.00    -0.169 F 
HETATM   30  F   UNK N   1      36.525  14.976  13.590  0.00  0.00    -0.169 F 
ENDBRANCH  26  27
ENDBRANCH  25  26
ENDBRANCH   4  25
TORSDOF 9
ENDMDL
MODEL 7
REMARK VINA RESULT:      -6.3      4.377      6.791
REMARK  9 active torsions:
REMARK  status: ('A' for Active; 'I' for Inactive)
REMARK    1  A    between atoms: O_8  and  C_20 
REMARK    2  A    between atoms: O_8  and  C_25 
REMARK    3  A    between atoms: O_9  and  C_22 
REMARK    4  A    between atoms: O_9  and  C_26 
REMARK    5  A    between atoms: N_11  and  C_17 
REMARK       I    between atoms: N_11  and  C_18 
REMARK    6  A    between atoms: C_12  and  C_17 
REMARK    7  A    between atoms: C_18  and  C_19 
REMARK    8  A    between atoms: C_25  and  C_27 
REMARK    9  A    between atoms: C_26  and  C_28 
ROOT
HETATM    1  C   UNK N   1      34.952  15.322  10.174  0.00  0.00     0.068 A 
HETATM    2  C   UNK N   1      35.287  14.260   9.255  0.00  0.00     0.085 A 
HETATM    3  C   UNK N   1      34.791  14.981  11.533  0.00  0.00     0.056 A 
HETATM    4  C   UNK N   1      34.962  13.682  12.004  0.00  0.00     0.070 A 
HETATM    5  C   UNK N   1      35.429  12.959   9.752  0.00  0.00     0.040 A 
HETATM    6  C   UNK N   1      35.279  12.668  11.102  0.00  0.00     0.039 A 
ENDROOT
BRANCH   1   7
HETATM    7  C   UNK N   1      34.721  16.769   9.799  0.00  0.00     0.254 C 
HETATM    8  O   UNK N   1      35.562  17.606  10.077  0.00  0.00    -0.268 OA
HETATM    9  N   UNK N   1      33.623  17.190   9.111  0.00  0.00    -0.355 N 
HETATM   10  H   UNK N   1      33.590  18.135   8.839  0.00  0.00     0.162 HD
BRANCH   9  11
HETATM   11  C   UNK N   1      32.504  16.352   8.754  0.00  0.00     0.147 C 
BRANCH  11  12
HETATM   12  C   UNK N   1      31.257  17.198   8.617  0.00  0.00     0.094 C 
HETATM   13  N   UNK N   1      30.375  16.964   9.760  0.00  0.00    -0.415 N 
HETATM   14  C   UNK N   1      29.236  17.876   9.668  0.00  0.00     0.114 C 
HETATM   15  H   UNK N   1      30.528  16.277  10.499  0.00  0.00     0.153 HD
HETATM   16  C   UNK N   1      28.415  17.568   8.417  0.00  0.00     0.019 C 
HETATM   17  C   UNK N   1      29.295  17.707   7.179  0.00  0.00     0.004 C 
HETATM   18  C   UNK N   1      30.539  16.837   7.320  0.00  0.00     0.026 C 
ENDBRANCH  11  12
ENDBRANCH   9  11
ENDBRANCH   1   7
BRANCH   2  19
HETATM   19  O   UNK N   1      35.533  14.389   7.922  0.00  0.00    -0.341 OA
BRANCH  19  20
HETATM   20  C   UNK N   1      34.686  14.209   6.857  0.00  0.00     0.293 C 
BRANCH  20  21
HETATM   21  C   UNK N   1      35.171  15.040   5.680  0.00  0.00     0.408 C 
HETATM   22  F   UNK N   1      34.627  16.309   5.748  0.00  0.00    -0.169 F 
HETATM   23  F   UNK N   1      34.777  14.439   4.500  0.00  0.00    -0.169 F 
HETATM   24  F   UNK N   1      36.551  15.135   5.705  0.00  0.00    -0.169 F 
ENDBRANCH  20  21
ENDBRANCH  19  20
ENDBRANCH   2  19
BRANCH   4  25
HETATM   25  O   UNK N   1      34.846  13.436  13.331  0.00  0.00    -0.342 OA
BRANCH  25  26
HETATM   26  C   UNK N   1      35.846  13.749  14.229  0.00  0.00     0.293 C 
BRANCH  26  27
HETATM   27  C   UNK N   1      35.577  13.199  15.619  0.00  0.00     0.408 C 
HETATM   28  F   UNK N   1      34.212  13.040  15.766  0.00  0.00    -0.169 F 
HETATM   29  F   UNK N   1      36.035  14.085  16.576  0.00  0.00    -0.169 F 
HETATM   30  F   UNK N   1      36.197  11.975  15.780  0.00  0.00    -0.169 F 
ENDBRANCH  26  27
ENDBRANCH  25  26
ENDBRANCH   4  25
TORSDOF 9
ENDMDL
MODEL 8
REMARK VINA RESULT:      -6.2      4.433      8.380
REMARK  9 active torsions:
REMARK  status: ('A' for Active; 'I' for Inactive)
REMARK    1  A    between atoms: O_8  and  C_20 
REMARK    2  A    between atoms: O_8  and  C_25 
REMARK    3  A    between atoms: O_9  and  C_22 
REMARK    4  A    between atoms: O_9  and  C_26 
REMARK    5  A    between atoms: N_11  and  C_17 
REMARK       I    between atoms: N_11  and  C_18 
REMARK    6  A    between atoms: C_12  and  C_17 
REMARK    7  A    between atoms: C_18  and  C_19 
REMARK    8  A    between atoms: C_25  and  C_27 
REMARK    9  A    between atoms: C_26  and  C_28 
ROOT
HETATM    1  C   UNK N   1      33.609  17.359   7.460  0.00  0.00     0.068 A 
HETATM    2  C   UNK N   1      33.957  16.533   6.329  0.00  0.00     0.085 A 
HETATM    3  C   UNK N   1      32.246  17.679   7.639  0.00  0.00     0.056 A 
HETATM    4  C   UNK N   1      31.250  17.215   6.784  0.00  0.00     0.070 A 
HETATM    5  C   UNK N   1      32.937  16.101   5.472  0.00  0.00     0.040 A 
HETATM    6  C   UNK N   1      31.605  16.424   5.692  0.00  0.00     0.039 A 
ENDROOT
BRANCH   1   7
HETATM    7  C   UNK N   1      34.585  17.944   8.455  0.00  0.00     0.254 C 
HETATM    8  O   UNK N   1      35.020  19.069   8.285  0.00  0.00    -0.268 OA
HETATM    9  N   UNK N   1      34.977  17.286   9.582  0.00  0.00    -0.355 N 
HETATM   10  H   UNK N   1      35.553  17.770  10.216  0.00  0.00     0.162 HD
BRANCH   9  11
HETATM   11  C   UNK N   1      34.611  15.930   9.914  0.00  0.00     0.147 C 
BRANCH  11  12
HETATM   12  C   UNK N   1      35.732  15.274  10.690  0.00  0.00     0.094 C 
HETATM   13  N   UNK N   1      36.372  14.252   9.862  0.00  0.00    -0.415 N 
HETATM   14  C   UNK N   1      37.524  13.717  10.586  0.00  0.00     0.114 C 
HETATM   15  H   UNK N   1      36.066  13.961   8.933  0.00  0.00     0.153 HD
HETATM   16  C   UNK N   1      37.064  13.014  11.862  0.00  0.00     0.019 C 
HETATM   17  C   UNK N   1      36.306  14.000  12.745  0.00  0.00     0.004 C 
HETATM   18  C   UNK N   1      35.168  14.641  11.959  0.00  0.00     0.026 C 
ENDBRANCH  11  12
ENDBRANCH   9  11
ENDBRANCH   1   7
BRANCH   2  19
HETATM   19  O   UNK N   1      35.198  16.074   6.012  0.00  0.00    -0.341 OA
BRANCH  19  20
HETATM   20  C   UNK N   1      35.846  14.942   6.440  0.00  0.00     0.293 C 
BRANCH  20  21
HETATM   21  C   UNK N   1      35.596  13.814   5.452  0.00  0.00     0.408 C 
HETATM   22  F   UNK N   1      36.673  12.946   5.452  0.00  0.00    -0.169 F 
HETATM   23  F   UNK N   1      35.436  14.340   4.184  0.00  0.00    -0.169 F 
HETATM   24  F   UNK N   1      34.453  13.120   5.806  0.00  0.00    -0.169 F 
ENDBRANCH  20  21
ENDBRANCH  19  20
ENDBRANCH   2  19
BRANCH   4  25
HETATM   25  O   UNK N   1      29.956  17.516   7.047  0.00  0.00    -0.342 OA
BRANCH  25  26
HETATM   26  C   UNK N   1      29.366  17.235   8.263  0.00  0.00     0.293 C 
BRANCH  26  27
HETATM   27  C   UNK N   1      28.792  18.471   8.933  0.00  0.00     0.408 C 
HETATM   28  F   UNK N   1      28.617  19.446   7.969  0.00  0.00    -0.169 F 
HETATM   29  F   UNK N   1      29.668  18.939   9.895  0.00  0.00    -0.169 F 
HETATM   30  F   UNK N   1      27.572  18.182   9.513  0.00  0.00    -0.169 F 
ENDBRANCH  26  27
ENDBRANCH  25  26
ENDBRANCH   4  25
TORSDOF 9
ENDMDL
MODEL 9
REMARK VINA RESULT:      -6.1      6.701     11.436
REMARK  9 active torsions:
REMARK  status: ('A' for Active; 'I' for Inactive)
REMARK    1  A    between atoms: O_8  and  C_20 
REMARK    2  A    between atoms: O_8  and  C_25 
REMARK    3  A    between atoms: O_9  and  C_22 
REMARK    4  A    between atoms: O_9  and  C_26 
REMARK    5  A    between atoms: N_11  and  C_17 
REMARK       I    between atoms: N_11  and  C_18 
REMARK    6  A    between atoms: C_12  and  C_17 
REMARK    7  A    between atoms: C_18  and  C_19 
REMARK    8  A    between atoms: C_25  and  C_27 
REMARK    9  A    between atoms: C_26  and  C_28 
ROOT
HETATM    1  C   UNK N   1      36.571  13.642  11.046  0.00  0.00     0.068 A 
HETATM    2  C   UNK N   1      36.251  14.188  12.344  0.00  0.00     0.085 A 
HETATM    3  C   UNK N   1      36.243  14.418   9.915  0.00  0.00     0.056 A 
HETATM    4  C   UNK N   1      35.651  15.675  10.015  0.00  0.00     0.070 A 
HETATM    5  C   UNK N   1      35.633  15.442  12.414  0.00  0.00     0.040 A 
HETATM    6  C   UNK N   1      35.342  16.183  11.275  0.00  0.00     0.039 A 
ENDROOT
BRANCH   1   7
HETATM    7  C   UNK N   1      37.197  12.291  10.791  0.00  0.00     0.254 C 
HETATM    8  O   UNK N   1      38.404  12.199  10.657  0.00  0.00    -0.268 OA
HETATM    9  N   UNK N   1      36.474  11.136  10.749  0.00  0.00    -0.355 N 
HETATM   10  H   UNK N   1      36.970  10.291  10.657  0.00  0.00     0.162 HD
BRANCH   9  11
HETATM   11  C   UNK N   1      35.035  11.061  10.827  0.00  0.00     0.147 C 
BRANCH  11  12
HETATM   12  C   UNK N   1      34.629  10.371  12.111  0.00  0.00     0.094 C 
HETATM   13  N   UNK N   1      34.194  11.367  13.089  0.00  0.00    -0.415 N 
HETATM   14  C   UNK N   1      33.695  10.673  14.274  0.00  0.00     0.114 C 
HETATM   15  H   UNK N   1      34.232  12.379  12.965  0.00  0.00     0.153 HD
HETATM   16  C   UNK N   1      34.823   9.882  14.936  0.00  0.00     0.019 C 
HETATM   17  C   UNK N   1      35.392   8.874  13.942  0.00  0.00     0.004 C 
HETATM   18  C   UNK N   1      35.815   9.583  12.661  0.00  0.00     0.026 C 
ENDBRANCH  11  12
ENDBRANCH   9  11
ENDBRANCH   1   7
BRANCH   2  19
HETATM   19  O   UNK N   1      36.528  13.624  13.552  0.00  0.00    -0.341 OA
BRANCH  19  20
HETATM   20  C   UNK N   1      36.796  14.226  14.755  0.00  0.00     0.293 C 
BRANCH  20  21
HETATM   21  C   UNK N   1      36.019  13.522  15.856  0.00  0.00     0.408 C 
HETATM   22  F   UNK N   1      36.113  14.245  17.031  0.00  0.00    -0.169 F 
HETATM   23  F   UNK N   1      36.547  12.260  16.056  0.00  0.00    -0.169 F 
HETATM   24  F   UNK N   1      34.689  13.408  15.497  0.00  0.00    -0.169 F 
ENDBRANCH  20  21
ENDBRANCH  19  20
ENDBRANCH   2  19
BRANCH   4  25
HETATM   25  O   UNK N   1      35.414  16.389   8.888  0.00  0.00    -0.342 OA
BRANCH  25  26
HETATM   26  C   UNK N   1      34.136  16.694   8.465  0.00  0.00     0.293 C 
BRANCH  26  27
HETATM   27  C   UNK N   1      34.037  18.086   7.865  0.00  0.00     0.408 C 
HETATM   28  F   UNK N   1      34.075  17.969   6.488  0.00  0.00    -0.169 F 
HETATM   29  F   UNK N   1      35.103  18.860   8.283  0.00  0.00    -0.169 F 
HETATM   30  F   UNK N   1      32.849  18.687   8.236  0.00  0.00    -0.169 F 
ENDBRANCH  26  27
ENDBRANCH  25  26
ENDBRANCH   4  25
TORSDOF 9
ENDMDL
