MODEL 1
REMARK VINA RESULT:      -6.1      0.000      0.000
REMARK  2 active torsions:
REMARK  status: ('A' for Active; 'I' for Inactive)
REMARK    1  A    between atoms: N_5  and  C_11 
REMARK    2  A    between atoms: C_6  and  C_7 
ROOT
HETATM    1  O   UNK N   1      35.101  13.181  14.412  0.00  0.00    -0.302 OA
HETATM    2  O   UNK N   1      37.672  14.999  15.746  0.00  0.00    -0.270 OA
HETATM    3  N   UNK N   1      36.596  14.691  13.785  0.00  0.00    -0.290 N 
ATOM      4  HN  UNK N   1      37.120  15.337  13.195  1.00  0.00     0.172 HD
HETATM    5  C   UNK N   1      35.825  13.458  15.552  0.00  0.00     0.257 A 
HETATM    6  C   UNK N   1      36.802  14.458  15.084  0.00  0.00     0.259 A 
HETATM    7  C   UNK N   1      35.615  13.951  13.418  0.00  0.00     0.220 A 
ENDROOT
BRANCH   5   8
HETATM    8  C   UNK N   1      35.604  12.802  16.867  0.00  0.00    -0.020 A 
HETATM    9  C   UNK N   1      35.281  13.576  17.986  0.00  0.00     0.010 A 
HETATM   10  C   UNK N   1      35.078  12.964  19.224  0.00  0.00     0.001 A 
HETATM   11  C   UNK N   1      35.199  11.577  19.345  0.00  0.00     0.000 A 
HETATM   12  C   UNK N   1      35.521  10.802  18.227  0.00  0.00     0.001 A 
HETATM   13  C   UNK N   1      35.724  11.414  16.988  0.00  0.00     0.010 A 
ENDBRANCH   5   8
BRANCH   7  14
HETATM   14  N   UNK N   1      35.120  13.937  12.097  0.00  0.00    -0.365 N 
HETATM   15  H   UNK N   1      34.330  14.476  11.862  0.00  0.00     0.159 HD
HETATM   16  H   UNK N   1      35.564  13.389  11.411  0.00  0.00     0.159 HD
ENDBRANCH   7  14
TORSDOF 2
ENDMDL
MODEL 2
REMARK VINA RESULT:      -5.7      7.672     10.767
REMARK  2 active torsions:
REMARK  status: ('A' for Active; 'I' for Inactive)
REMARK    1  A    between atoms: N_5  and  C_11 
REMARK    2  A    between atoms: C_6  and  C_7 
ROOT
HETATM    1  O   UNK N   1      33.497  16.062   8.873  0.00  0.00    -0.302 OA
HETATM    2  O   UNK N   1      35.026  19.057   8.251  0.00  0.00    -0.270 OA
HETATM    3  N   UNK N   1      34.961  17.431   9.817  0.00  0.00    -0.290 N 
ATOM      4  HN  UNK N   1      35.622  17.812  10.492  1.00  0.00     0.172 HD
HETATM    5  C   UNK N   1      33.626  17.110   7.987  0.00  0.00     0.257 A 
HETATM    6  C   UNK N   1      34.601  17.989   8.658  0.00  0.00     0.259 A 
HETATM    7  C   UNK N   1      34.318  16.326   9.923  0.00  0.00     0.220 A 
ENDROOT
BRANCH   5   8
HETATM    8  C   UNK N   1      32.870  17.228   6.712  0.00  0.00    -0.020 A 
HETATM    9  C   UNK N   1      31.478  17.096   6.712  0.00  0.00     0.010 A 
HETATM   10  C   UNK N   1      30.766  17.201   5.517  0.00  0.00     0.001 A 
HETATM   11  C   UNK N   1      31.444  17.439   4.318  0.00  0.00     0.000 A 
HETATM   12  C   UNK N   1      32.836  17.573   4.317  0.00  0.00     0.001 A 
HETATM   13  C   UNK N   1      33.550  17.467   5.513  0.00  0.00     0.010 A 
ENDBRANCH   5   8
BRANCH   7  14
HETATM   14  N   UNK N   1      34.453  15.466  11.033  0.00  0.00    -0.365 N 
HETATM   15  H   UNK N   1      35.072  15.699  11.763  0.00  0.00     0.159 HD
HETATM   16  H   UNK N   1      33.929  14.634  11.077  0.00  0.00     0.159 HD
ENDBRANCH   7  14
TORSDOF 2
ENDMDL
MODEL 3
REMARK VINA RESULT:      -5.5      1.109      2.401
REMARK  2 active torsions:
REMARK  status: ('A' for Active; 'I' for Inactive)
REMARK    1  A    between atoms: N_5  and  C_11 
REMARK    2  A    between atoms: C_6  and  C_7 
ROOT
HETATM    1  O   UNK N   1      36.162  13.811  14.855  0.00  0.00    -0.302 OA
HETATM    2  O   UNK N   1      33.945  11.288  14.210  0.00  0.00    -0.270 OA
HETATM    3  N   UNK N   1      35.056  12.940  13.144  0.00  0.00    -0.290 N 
ATOM      4  HN  UNK N   1      34.716  12.795  12.194  1.00  0.00     0.172 HD
HETATM    5  C   UNK N   1      35.440  12.767  15.393  0.00  0.00     0.257 A 
HETATM    6  C   UNK N   1      34.724  12.227  14.223  0.00  0.00     0.259 A 
HETATM    7  C   UNK N   1      35.883  13.843  13.526  0.00  0.00     0.220 A 
ENDROOT
BRANCH   5   8
HETATM    8  C   UNK N   1      35.437  12.405  16.835  0.00  0.00    -0.020 A 
HETATM    9  C   UNK N   1      35.734  11.096  17.225  0.00  0.00     0.010 A 
HETATM   10  C   UNK N   1      35.725  10.750  18.577  0.00  0.00     0.001 A 
HETATM   11  C   UNK N   1      35.420  11.714  19.542  0.00  0.00     0.000 A 
HETATM   12  C   UNK N   1      35.124  13.024  19.154  0.00  0.00     0.001 A 
HETATM   13  C   UNK N   1      35.132  13.370  17.801  0.00  0.00     0.010 A 
ENDBRANCH   5   8
BRANCH   7  14
HETATM   14  N   UNK N   1      36.447  14.786  12.641  0.00  0.00    -0.365 N 
HETATM   15  H   UNK N   1      37.336  15.166  12.829  0.00  0.00     0.159 HD
HETATM   16  H   UNK N   1      35.952  15.063  11.837  0.00  0.00     0.159 HD
ENDBRANCH   7  14
TORSDOF 2
ENDMDL
MODEL 4
REMARK VINA RESULT:      -5.4     17.242     18.477
REMARK  2 active torsions:
REMARK  status: ('A' for Active; 'I' for Inactive)
REMARK    1  A    between atoms: N_5  and  C_11 
REMARK    2  A    between atoms: C_6  and  C_7 
ROOT
HETATM    1  O   UNK N   1      20.052  18.393   9.405  0.00  0.00    -0.302 OA
HETATM    2  O   UNK N   1      17.619  16.409   8.049  0.00  0.00    -0.270 OA
HETATM    3  N   UNK N   1      17.867  18.063   9.566  0.00  0.00    -0.290 N 
ATOM      4  HN  UNK N   1      16.901  18.163   9.875  1.00  0.00     0.172 HD
HETATM    5  C   UNK N   1      19.777  17.390   8.500  0.00  0.00     0.257 A 
HETATM    6  C   UNK N   1      18.321  17.206   8.648  0.00  0.00     0.259 A 
HETATM    7  C   UNK N   1      18.874  18.736   9.988  0.00  0.00     0.220 A 
ENDROOT
BRANCH   5   8
HETATM    8  C   UNK N   1      20.801  16.707   7.667  0.00  0.00    -0.020 A 
HETATM    9  C   UNK N   1      21.349  17.362   6.560  0.00  0.00     0.010 A 
HETATM   10  C   UNK N   1      22.307  16.722   5.772  0.00  0.00     0.001 A 
HETATM   11  C   UNK N   1      22.718  15.425   6.090  0.00  0.00     0.000 A 
HETATM   12  C   UNK N   1      22.172  14.768   7.197  0.00  0.00     0.001 A 
HETATM   13  C   UNK N   1      21.214  15.409   7.986  0.00  0.00     0.010 A 
ENDBRANCH   5   8
BRANCH   7  14
HETATM   14  N   UNK N   1      18.764  19.740  10.973  0.00  0.00    -0.365 N 
HETATM   15  H   UNK N   1      19.559  20.256  11.240  0.00  0.00     0.159 HD
HETATM   16  H   UNK N   1      17.893  19.924  11.392  0.00  0.00     0.159 HD
ENDBRANCH   7  14
TORSDOF 2
ENDMDL
MODEL 5
REMARK VINA RESULT:      -5.2     10.020     11.934
REMARK  2 active torsions:
REMARK  status: ('A' for Active; 'I' for Inactive)
REMARK    1  A    between atoms: N_5  and  C_11 
REMARK    2  A    between atoms: C_6  and  C_7 
ROOT
HETATM    1  O   UNK N   1      31.448  17.266   7.387  0.00  0.00    -0.302 OA
HETATM    2  O   UNK N   1      34.681  18.369   7.541  0.00  0.00    -0.270 OA
HETATM    3  N   UNK N   1      32.792  18.347   8.778  0.00  0.00    -0.290 N 
ATOM      4  HN  UNK N   1      33.120  18.842   9.606  1.00  0.00     0.172 HD
HETATM    5  C   UNK N   1      32.658  17.334   6.730  0.00  0.00     0.257 A 
HETATM    6  C   UNK N   1      33.510  18.061   7.689  0.00  0.00     0.259 A 
HETATM    7  C   UNK N   1      31.612  17.882   8.586  0.00  0.00     0.220 A 
ENDROOT
BRANCH   5   8
HETATM    8  C   UNK N   1      32.902  16.804   5.363  0.00  0.00    -0.020 A 
HETATM    9  C   UNK N   1      33.643  15.630   5.193  0.00  0.00     0.010 A 
HETATM   10  C   UNK N   1      33.879  15.132   3.911  0.00  0.00     0.001 A 
HETATM   11  C   UNK N   1      33.374  15.807   2.796  0.00  0.00     0.000 A 
HETATM   12  C   UNK N   1      32.632  16.980   2.964  0.00  0.00     0.001 A 
HETATM   13  C   UNK N   1      32.396  17.479   4.247  0.00  0.00     0.010 A 
ENDBRANCH   5   8
BRANCH   7  14
HETATM   14  N   UNK N   1      30.579  18.005   9.539  0.00  0.00    -0.365 N 
HETATM   15  H   UNK N   1      29.833  18.628   9.379  0.00  0.00     0.159 HD
HETATM   16  H   UNK N   1      30.604  17.467  10.363  0.00  0.00     0.159 HD
ENDBRANCH   7  14
TORSDOF 2
ENDMDL
MODEL 6
REMARK VINA RESULT:      -5.2      3.493      5.081
REMARK  2 active torsions:
REMARK  status: ('A' for Active; 'I' for Inactive)
REMARK    1  A    between atoms: N_5  and  C_11 
REMARK    2  A    between atoms: C_6  and  C_7 
ROOT
HETATM    1  O   UNK N   1      35.306  11.450  18.484  0.00  0.00    -0.302 OA
HETATM    2  O   UNK N   1      35.170  14.864  18.609  0.00  0.00    -0.270 OA
HETATM    3  N   UNK N   1      35.193  13.075  19.986  0.00  0.00    -0.290 N 
ATOM      4  HN  UNK N   1      35.142  13.547  20.887  1.00  0.00     0.172 HD
HETATM    5  C   UNK N   1      35.294  12.614  17.746  0.00  0.00     0.257 A 
HETATM    6  C   UNK N   1      35.215  13.658  18.785  0.00  0.00     0.259 A 
HETATM    7  C   UNK N   1      35.247  11.808  19.793  0.00  0.00     0.220 A 
ENDROOT
BRANCH   5   8
HETATM    8  C   UNK N   1      35.314  12.667  16.261  0.00  0.00    -0.020 A 
HETATM    9  C   UNK N   1      34.434  11.869  15.523  0.00  0.00     0.010 A 
HETATM   10  C   UNK N   1      34.453  11.912  14.129  0.00  0.00     0.001 A 
HETATM   11  C   UNK N   1      35.353  12.753  13.469  0.00  0.00     0.000 A 
HETATM   12  C   UNK N   1      36.234  13.552  14.205  0.00  0.00     0.001 A 
HETATM   13  C   UNK N   1      36.215  13.510  15.601  0.00  0.00     0.010 A 
ENDBRANCH   5   8
BRANCH   7  14
HETATM   14  N   UNK N   1      35.244  10.873  20.850  0.00  0.00    -0.365 N 
HETATM   15  H   UNK N   1      35.952  10.192  20.906  0.00  0.00     0.159 HD
HETATM   16  H   UNK N   1      34.533  10.903  21.530  0.00  0.00     0.159 HD
ENDBRANCH   7  14
TORSDOF 2
ENDMDL
MODEL 7
REMARK VINA RESULT:      -5.1     15.887     17.135
REMARK  2 active torsions:
REMARK  status: ('A' for Active; 'I' for Inactive)
REMARK    1  A    between atoms: N_5  and  C_11 
REMARK    2  A    between atoms: C_6  and  C_7 
ROOT
HETATM    1  O   UNK N   1      18.823  15.645   9.397  0.00  0.00    -0.302 OA
HETATM    2  O   UNK N   1      21.478  16.709   7.523  0.00  0.00    -0.270 OA
HETATM    3  N   UNK N   1      19.368  17.317   8.050  0.00  0.00    -0.290 N 
ATOM      4  HN  UNK N   1      19.295  18.178   7.510  1.00  0.00     0.172 HD
HETATM    5  C   UNK N   1      20.120  15.381   9.011  0.00  0.00     0.257 A 
HETATM    6  C   UNK N   1      20.432  16.513   8.119  0.00  0.00     0.259 A 
HETATM    7  C   UNK N   1      18.456  16.803   8.791  0.00  0.00     0.220 A 
ENDROOT
BRANCH   5   8
HETATM    8  C   UNK N   1      20.892  14.182   9.428  0.00  0.00    -0.020 A 
HETATM    9  C   UNK N   1      20.420  13.375  10.468  0.00  0.00     0.010 A 
HETATM   10  C   UNK N   1      21.145  12.251  10.867  0.00  0.00     0.001 A 
HETATM   11  C   UNK N   1      22.345  11.932  10.226  0.00  0.00     0.000 A 
HETATM   12  C   UNK N   1      22.819  12.737   9.185  0.00  0.00     0.001 A 
HETATM   13  C   UNK N   1      22.093  13.861   8.786  0.00  0.00     0.010 A 
ENDBRANCH   5   8
BRANCH   7  14
HETATM   14  N   UNK N   1      17.184  17.392   8.956  0.00  0.00    -0.365 N 
HETATM   15  H   UNK N   1      16.614  17.560   8.171  0.00  0.00     0.159 HD
HETATM   16  H   UNK N   1      16.868  17.634   9.856  0.00  0.00     0.159 HD
ENDBRANCH   7  14
TORSDOF 2
ENDMDL
MODEL 8
REMARK VINA RESULT:      -5.1     10.439     13.221
REMARK  2 active torsions:
REMARK  status: ('A' for Active; 'I' for Inactive)
REMARK    1  A    between atoms: N_5  and  C_11 
REMARK    2  A    between atoms: C_6  and  C_7 
ROOT
HETATM    1  O   UNK N   1      30.485  17.812   7.674  0.00  0.00    -0.302 OA
HETATM    2  O   UNK N   1      27.637  17.639   9.558  0.00  0.00    -0.270 OA
HETATM    3  N   UNK N   1      29.811  17.036   9.636  0.00  0.00    -0.290 N 
ATOM      4  HN  UNK N   1      29.835  16.584  10.550  1.00  0.00     0.172 HD
HETATM    5  C   UNK N   1      29.147  18.136   7.743  0.00  0.00     0.257 A 
HETATM    6  C   UNK N   1      28.748  17.598   9.056  0.00  0.00     0.259 A 
HETATM    7  C   UNK N   1      30.799  17.169   8.829  0.00  0.00     0.220 A 
ENDROOT
BRANCH   5   8
HETATM    8  C   UNK N   1      28.393  18.824   6.663  0.00  0.00    -0.020 A 
HETATM    9  C   UNK N   1      28.406  18.304   5.364  0.00  0.00     0.010 A 
HETATM   10  C   UNK N   1      27.703  18.950   4.345  0.00  0.00     0.001 A 
HETATM   11  C   UNK N   1      26.987  20.118   4.624  0.00  0.00     0.000 A 
HETATM   12  C   UNK N   1      26.973  20.638   5.922  0.00  0.00     0.001 A 
HETATM   13  C   UNK N   1      27.675  19.992   6.941  0.00  0.00     0.010 A 
ENDBRANCH   5   8
BRANCH   7  14
HETATM   14  N   UNK N   1      32.093  16.688   9.117  0.00  0.00    -0.365 N 
HETATM   15  H   UNK N   1      32.705  16.452   8.383  0.00  0.00     0.159 HD
HETATM   16  H   UNK N   1      32.383  16.588  10.052  0.00  0.00     0.159 HD
ENDBRANCH   7  14
TORSDOF 2
ENDMDL
MODEL 9
REMARK VINA RESULT:      -5.1     25.992     27.392
REMARK  2 active torsions:
REMARK  status: ('A' for Active; 'I' for Inactive)
REMARK    1  A    between atoms: N_5  and  C_11 
REMARK    2  A    between atoms: C_6  and  C_7 
ROOT
HETATM    1  O   UNK N   1      25.779  25.673  -7.018  0.00  0.00    -0.302 OA
HETATM    2  O   UNK N   1      26.038  24.613  -3.777  0.00  0.00    -0.270 OA
HETATM    3  N   UNK N   1      25.537  23.818  -5.830  0.00  0.00    -0.290 N 
ATOM      4  HN  UNK N   1      25.347  22.844  -5.599  1.00  0.00     0.172 HD
HETATM    5  C   UNK N   1      26.073  26.041  -5.722  0.00  0.00     0.257 A 
HETATM    6  C   UNK N   1      25.895  24.781  -4.976  0.00  0.00     0.259 A 
HETATM    7  C   UNK N   1      25.477  24.349  -6.996  0.00  0.00     0.220 A 
ENDROOT
BRANCH   5   8
HETATM    8  C   UNK N   1      26.426  27.421  -5.301  0.00  0.00    -0.020 A 
HETATM    9  C   UNK N   1      25.825  27.980  -4.168  0.00  0.00     0.010 A 
HETATM   10  C   UNK N   1      26.150  29.278  -3.773  0.00  0.00     0.001 A 
HETATM   11  C   UNK N   1      27.076  30.021  -4.510  0.00  0.00     0.000 A 
HETATM   12  C   UNK N   1      27.678  29.464  -5.642  0.00  0.00     0.001 A 
HETATM   13  C   UNK N   1      27.354  28.165  -6.038  0.00  0.00     0.010 A 
ENDBRANCH   5   8
BRANCH   7  14
HETATM   14  N   UNK N   1      25.125  23.618  -8.151  0.00  0.00    -0.365 N 
HETATM   15  H   UNK N   1      24.601  24.049  -8.864  0.00  0.00     0.159 HD
HETATM   16  H   UNK N   1      25.405  22.679  -8.243  0.00  0.00     0.159 HD
ENDBRANCH   7  14
TORSDOF 2
ENDMDL
