MODEL 1
REMARK VINA RESULT:      -6.1      0.000      0.000
REMARK  6 active torsions:
REMARK  status: ('A' for Active; 'I' for Inactive)
REMARK    1  A    between atoms: N_2  and  C_5 
REMARK    2  A    between atoms: C_5  and  C_9 
REMARK    3  A    between atoms: C_9  and  C_10 
REMARK    4  A    between atoms: C_10  and  C_11 
REMARK    5  A    between atoms: C_11  and  C_12 
REMARK    6  A    between atoms: C_11  and  C_13 
ROOT
HETATM    1  O   UNK N   1      37.602  12.393  14.685  0.00  0.00    -0.380 OA
HETATM    2  C   UNK N   1      36.208  12.361  14.798  0.00  0.00     0.112 C 
HETATM    3  H   UNK N   1      38.570  12.436  14.744  0.00  0.00     0.211 HD
ENDROOT
BRANCH   2   4
HETATM    4  C   UNK N   1      35.614  13.704  14.369  0.00  0.00     0.050 C 
BRANCH   4   5
HETATM    5  C   UNK N   1      36.328  14.420  13.234  0.00  0.00     0.034 C 
BRANCH   5   6
HETATM    6  C   UNK N   1      35.391  14.476  12.030  0.00  0.00     0.272 C 
BRANCH   6   7
HETATM    7  N   UNK N   1      35.967  13.810  10.862  0.00  0.00     0.088 N 
HETATM    8  C   UNK N   1      37.296  13.345  11.256  0.00  0.00     0.272 C 
HETATM    9  C   UNK N   1      37.984  12.647  10.082  0.00  0.00     0.030 C 
HETATM   10  C   UNK N   1      37.138  11.469   9.608  0.00  0.00     0.003 C 
HETATM   11  C   UNK N   1      35.720  11.933   9.300  0.00  0.00     0.030 C 
HETATM   12  C   UNK N   1      35.153  12.636  10.529  0.00  0.00     0.272 C 
ENDBRANCH   6   7
ENDBRANCH   5   6
ENDBRANCH   4   5
ENDBRANCH   2   4
BRANCH   2  13
HETATM   13  C   UNK N   1      35.674  11.258  13.893  0.00  0.00    -0.019 A 
HETATM   14  C   UNK N   1      36.525  10.345  13.251  0.00  0.00     0.010 A 
HETATM   15  C   UNK N   1      36.000   9.332  12.441  0.00  0.00     0.001 A 
HETATM   16  C   UNK N   1      34.619   9.225  12.262  0.00  0.00     0.000 A 
HETATM   17  C   UNK N   1      33.762  10.132  12.887  0.00  0.00     0.001 A 
HETATM   18  C   UNK N   1      34.285  11.143  13.699  0.00  0.00     0.010 A 
ENDBRANCH   2  13
BRANCH   2  19
HETATM   19  C   UNK N   1      35.824  12.222  16.268  0.00  0.00    -0.019 A 
HETATM   20  C   UNK N   1      35.997  10.992  16.933  0.00  0.00     0.010 A 
HETATM   21  C   UNK N   1      35.738  10.885  18.302  0.00  0.00     0.001 A 
HETATM   22  C   UNK N   1      35.306  11.999  19.021  0.00  0.00     0.000 A 
HETATM   23  C   UNK N   1      35.126  13.224  18.373  0.00  0.00     0.001 A 
HETATM   24  C   UNK N   1      35.390  13.336  17.005  0.00  0.00     0.010 A 
ENDBRANCH   2  19
TORSDOF 6
ENDMDL
MODEL 2
REMARK VINA RESULT:      -6.1     20.656     23.637
REMARK  6 active torsions:
REMARK  status: ('A' for Active; 'I' for Inactive)
REMARK    1  A    between atoms: N_2  and  C_5 
REMARK    2  A    between atoms: C_5  and  C_9 
REMARK    3  A    between atoms: C_9  and  C_10 
REMARK    4  A    between atoms: C_10  and  C_11 
REMARK    5  A    between atoms: C_11  and  C_12 
REMARK    6  A    between atoms: C_11  and  C_13 
ROOT
HETATM    1  O   UNK N   1      26.331  23.991  -3.128  0.00  0.00    -0.380 OA
HETATM    2  C   UNK N   1      27.215  24.478  -4.098  0.00  0.00     0.112 C 
HETATM    3  H   UNK N   1      25.696  23.787  -2.424  0.00  0.00     0.211 HD
ENDROOT
BRANCH   2   4
HETATM    4  C   UNK N   1      28.657  24.362  -3.600  0.00  0.00     0.050 C 
BRANCH   4   5
HETATM    5  C   UNK N   1      28.883  23.443  -2.411  0.00  0.00     0.034 C 
BRANCH   5   6
HETATM    6  C   UNK N   1      30.321  22.929  -2.462  0.00  0.00     0.272 C 
BRANCH   6   7
HETATM    7  N   UNK N   1      30.697  22.498  -3.808  0.00  0.00     0.088 N 
HETATM    8  C   UNK N   1      32.119  22.803  -3.965  0.00  0.00     0.272 C 
HETATM    9  C   UNK N   1      32.598  22.400  -5.360  0.00  0.00     0.030 C 
HETATM   10  C   UNK N   1      32.355  20.910  -5.583  0.00  0.00     0.003 C 
HETATM   11  C   UNK N   1      30.895  20.571  -5.313  0.00  0.00     0.030 C 
HETATM   12  C   UNK N   1      30.528  21.045  -3.912  0.00  0.00     0.272 C 
ENDBRANCH   6   7
ENDBRANCH   5   6
ENDBRANCH   4   5
ENDBRANCH   2   4
BRANCH   2  13
HETATM   13  C   UNK N   1      27.047  23.649  -5.365  0.00  0.00    -0.019 A 
HETATM   14  C   UNK N   1      25.785  23.382  -5.919  0.00  0.00     0.010 A 
HETATM   15  C   UNK N   1      25.668  22.632  -7.094  0.00  0.00     0.001 A 
HETATM   16  C   UNK N   1      26.813  22.138  -7.725  0.00  0.00     0.000 A 
HETATM   17  C   UNK N   1      28.074  22.388  -7.180  0.00  0.00     0.001 A 
HETATM   18  C   UNK N   1      28.192  23.140  -6.007  0.00  0.00     0.010 A 
ENDBRANCH   2  13
BRANCH   2  19
HETATM   19  C   UNK N   1      26.989  25.976  -4.281  0.00  0.00    -0.019 A 
HETATM   20  C   UNK N   1      27.408  26.617  -5.463  0.00  0.00     0.010 A 
HETATM   21  C   UNK N   1      27.118  27.967  -5.676  0.00  0.00     0.001 A 
HETATM   22  C   UNK N   1      26.409  28.691  -4.717  0.00  0.00     0.000 A 
HETATM   23  C   UNK N   1      25.992  28.067  -3.538  0.00  0.00     0.001 A 
HETATM   24  C   UNK N   1      26.275  26.716  -3.324  0.00  0.00     0.010 A 
ENDBRANCH   2  19
TORSDOF 6
ENDMDL
MODEL 3
REMARK VINA RESULT:      -6.0      1.438      4.194
REMARK  6 active torsions:
REMARK  status: ('A' for Active; 'I' for Inactive)
REMARK    1  A    between atoms: N_2  and  C_5 
REMARK    2  A    between atoms: C_5  and  C_9 
REMARK    3  A    between atoms: C_9  and  C_10 
REMARK    4  A    between atoms: C_10  and  C_11 
REMARK    5  A    between atoms: C_11  and  C_12 
REMARK    6  A    between atoms: C_11  and  C_13 
ROOT
HETATM    1  O   UNK N   1      34.178  12.303  14.704  0.00  0.00    -0.380 OA
HETATM    2  C   UNK N   1      35.454  12.115  15.247  0.00  0.00     0.112 C 
HETATM    3  H   UNK N   1      33.324  12.328  14.244  0.00  0.00     0.211 HD
ENDROOT
BRANCH   2   4
HETATM    4  C   UNK N   1      36.426  13.150  14.677  0.00  0.00     0.050 C 
BRANCH   4   5
HETATM    5  C   UNK N   1      35.840  14.146  13.689  0.00  0.00     0.034 C 
BRANCH   5   6
HETATM    6  C   UNK N   1      36.512  13.936  12.333  0.00  0.00     0.272 C 
BRANCH   6   7
HETATM    7  N   UNK N   1      36.612  12.518  11.990  0.00  0.00     0.088 N 
HETATM    8  C   UNK N   1      35.447  12.203  11.164  0.00  0.00     0.272 C 
HETATM    9  C   UNK N   1      35.459  10.725  10.771  0.00  0.00     0.030 C 
HETATM   10  C   UNK N   1      36.741  10.400  10.010  0.00  0.00     0.003 C 
HETATM   11  C   UNK N   1      37.956  10.828  10.824  0.00  0.00     0.030 C 
HETATM   12  C   UNK N   1      37.816  12.304  11.179  0.00  0.00     0.272 C 
ENDBRANCH   6   7
ENDBRANCH   5   6
ENDBRANCH   4   5
ENDBRANCH   2   4
BRANCH   2  13
HETATM   13  C   UNK N   1      35.365  12.281  16.759  0.00  0.00    -0.019 A 
HETATM   14  C   UNK N   1      35.374  11.181  17.631  0.00  0.00     0.010 A 
HETATM   15  C   UNK N   1      35.310  11.371  19.016  0.00  0.00     0.001 A 
HETATM   16  C   UNK N   1      35.231  12.662  19.542  0.00  0.00     0.000 A 
HETATM   17  C   UNK N   1      35.212  13.765  18.686  0.00  0.00     0.001 A 
HETATM   18  C   UNK N   1      35.279  13.577  17.302  0.00  0.00     0.010 A 
ENDBRANCH   2  13
BRANCH   2  19
HETATM   19  C   UNK N   1      36.006  10.770  14.784  0.00  0.00    -0.019 A 
HETATM   20  C   UNK N   1      35.133   9.769  14.316  0.00  0.00     0.010 A 
HETATM   21  C   UNK N   1      35.639   8.573  13.801  0.00  0.00     0.001 A 
HETATM   22  C   UNK N   1      37.018   8.363  13.747  0.00  0.00     0.000 A 
HETATM   23  C   UNK N   1      37.895   9.347  14.212  0.00  0.00     0.001 A 
HETATM   24  C   UNK N   1      37.391  10.546  14.722  0.00  0.00     0.010 A 
ENDBRANCH   2  19
TORSDOF 6
ENDMDL
MODEL 4
REMARK VINA RESULT:      -6.0      1.645      4.407
REMARK  6 active torsions:
REMARK  status: ('A' for Active; 'I' for Inactive)
REMARK    1  A    between atoms: N_2  and  C_5 
REMARK    2  A    between atoms: C_5  and  C_9 
REMARK    3  A    between atoms: C_9  and  C_10 
REMARK    4  A    between atoms: C_10  and  C_11 
REMARK    5  A    between atoms: C_11  and  C_12 
REMARK    6  A    between atoms: C_11  and  C_13 
ROOT
HETATM    1  O   UNK N   1      34.216  12.379  14.744  0.00  0.00    -0.380 OA
HETATM    2  C   UNK N   1      35.492  12.162  15.275  0.00  0.00     0.112 C 
HETATM    3  H   UNK N   1      33.362  12.427  14.287  0.00  0.00     0.211 HD
ENDROOT
BRANCH   2   4
HETATM    4  C   UNK N   1      36.468  13.217  14.748  0.00  0.00     0.050 C 
BRANCH   4   5
HETATM    5  C   UNK N   1      35.967  14.079  13.600  0.00  0.00     0.034 C 
BRANCH   5   6
HETATM    6  C   UNK N   1      36.631  13.601  12.310  0.00  0.00     0.272 C 
BRANCH   6   7
HETATM    7  N   UNK N   1      36.314  14.473  11.180  0.00  0.00     0.088 N 
HETATM    8  C   UNK N   1      35.311  13.774  10.378  0.00  0.00     0.272 C 
HETATM    9  C   UNK N   1      34.931  14.610   9.155  0.00  0.00     0.030 C 
HETATM   10  C   UNK N   1      34.390  15.966   9.600  0.00  0.00     0.003 C 
HETATM   11  C   UNK N   1      35.389  16.650  10.526  0.00  0.00     0.030 C 
HETATM   12  C   UNK N   1      35.711  15.712  11.684  0.00  0.00     0.272 C 
ENDBRANCH   6   7
ENDBRANCH   5   6
ENDBRANCH   4   5
ENDBRANCH   2   4
BRANCH   2  13
HETATM   13  C   UNK N   1      35.408  12.262  16.793  0.00  0.00    -0.019 A 
HETATM   14  C   UNK N   1      35.541  11.137  17.622  0.00  0.00     0.010 A 
HETATM   15  C   UNK N   1      35.476  11.268  19.014  0.00  0.00     0.001 A 
HETATM   16  C   UNK N   1      35.273  12.524  19.589  0.00  0.00     0.000 A 
HETATM   17  C   UNK N   1      35.130  13.650  18.776  0.00  0.00     0.001 A 
HETATM   18  C   UNK N   1      35.198  13.521  17.386  0.00  0.00     0.010 A 
ENDBRANCH   2  13
BRANCH   2  19
HETATM   19  C   UNK N   1      36.038  10.837  14.752  0.00  0.00    -0.019 A 
HETATM   20  C   UNK N   1      37.427  10.604  14.725  0.00  0.00     0.010 A 
HETATM   21  C   UNK N   1      37.928   9.358  14.338  0.00  0.00     0.001 A 
HETATM   22  C   UNK N   1      37.052   8.334  13.975  0.00  0.00     0.000 A 
HETATM   23  C   UNK N   1      35.672   8.554  13.994  0.00  0.00     0.001 A 
HETATM   24  C   UNK N   1      35.169   9.797  14.386  0.00  0.00     0.010 A 
ENDBRANCH   2  19
TORSDOF 6
ENDMDL
MODEL 5
REMARK VINA RESULT:      -5.9      9.000     11.686
REMARK  6 active torsions:
REMARK  status: ('A' for Active; 'I' for Inactive)
REMARK    1  A    between atoms: N_2  and  C_5 
REMARK    2  A    between atoms: C_5  and  C_9 
REMARK    3  A    between atoms: C_9  and  C_10 
REMARK    4  A    between atoms: C_10  and  C_11 
REMARK    5  A    between atoms: C_11  and  C_12 
REMARK    6  A    between atoms: C_11  and  C_13 
ROOT
HETATM    1  O   UNK N   1      28.623  15.766   5.557  0.00  0.00    -0.380 OA
HETATM    2  C   UNK N   1      28.993  17.109   5.690  0.00  0.00     0.112 C 
HETATM    3  H   UNK N   1      28.399  14.823   5.599  0.00  0.00     0.211 HD
ENDROOT
BRANCH   2   4
HETATM    4  C   UNK N   1      30.399  17.325   5.125  0.00  0.00     0.050 C 
BRANCH   4   5
HETATM    5  C   UNK N   1      31.097  16.092   4.575  0.00  0.00     0.034 C 
BRANCH   5   6
HETATM    6  C   UNK N   1      32.562  16.132   5.004  0.00  0.00     0.272 C 
BRANCH   6   7
HETATM    7  N   UNK N   1      32.715  16.638   6.368  0.00  0.00     0.088 N 
HETATM    8  C   UNK N   1      33.006  15.481   7.215  0.00  0.00     0.272 C 
HETATM    9  C   UNK N   1      33.165  15.917   8.672  0.00  0.00     0.030 C 
HETATM   10  C   UNK N   1      34.286  16.945   8.789  0.00  0.00     0.003 C 
HETATM   11  C   UNK N   1      34.040  18.100   7.827  0.00  0.00     0.030 C 
HETATM   12  C   UNK N   1      33.869  17.541   6.418  0.00  0.00     0.272 C 
ENDBRANCH   6   7
ENDBRANCH   5   6
ENDBRANCH   4   5
ENDBRANCH   2   4
BRANCH   2  13
HETATM   13  C   UNK N   1      27.998  17.964   4.915  0.00  0.00    -0.019 A 
HETATM   14  C   UNK N   1      26.882  17.409   4.271  0.00  0.00     0.010 A 
HETATM   15  C   UNK N   1      25.977  18.226   3.584  0.00  0.00     0.001 A 
HETATM   16  C   UNK N   1      26.184  19.606   3.530  0.00  0.00     0.000 A 
HETATM   17  C   UNK N   1      27.295  20.171   4.159  0.00  0.00     0.001 A 
HETATM   18  C   UNK N   1      28.198  19.356   4.849  0.00  0.00     0.010 A 
ENDBRANCH   2  13
BRANCH   2  19
HETATM   19  C   UNK N   1      29.115  17.455   7.171  0.00  0.00    -0.019 A 
HETATM   20  C   UNK N   1      30.293  18.048   7.666  0.00  0.00     0.010 A 
HETATM   21  C   UNK N   1      30.374  18.454   9.000  0.00  0.00     0.001 A 
HETATM   22  C   UNK N   1      29.284  18.274   9.853  0.00  0.00     0.000 A 
HETATM   23  C   UNK N   1      28.111  17.683   9.376  0.00  0.00     0.001 A 
HETATM   24  C   UNK N   1      28.026  17.281   8.040  0.00  0.00     0.010 A 
ENDBRANCH   2  19
TORSDOF 6
ENDMDL
MODEL 6
REMARK VINA RESULT:      -5.9      2.317      4.369
REMARK  6 active torsions:
REMARK  status: ('A' for Active; 'I' for Inactive)
REMARK    1  A    between atoms: N_2  and  C_5 
REMARK    2  A    between atoms: C_5  and  C_9 
REMARK    3  A    between atoms: C_9  and  C_10 
REMARK    4  A    between atoms: C_10  and  C_11 
REMARK    5  A    between atoms: C_11  and  C_12 
REMARK    6  A    between atoms: C_11  and  C_13 
ROOT
HETATM    1  O   UNK N   1      34.332  12.594  14.325  0.00  0.00    -0.380 OA
HETATM    2  C   UNK N   1      35.693  12.546  14.645  0.00  0.00     0.112 C 
HETATM    3  H   UNK N   1      33.395  12.489  14.095  0.00  0.00     0.211 HD
ENDROOT
BRANCH   2   4
HETATM    4  C   UNK N   1      36.535  12.901  13.417  0.00  0.00     0.050 C 
BRANCH   4   5
HETATM    5  C   UNK N   1      35.763  13.253  12.155  0.00  0.00     0.034 C 
BRANCH   5   6
HETATM    6  C   UNK N   1      35.806  14.768  11.968  0.00  0.00     0.272 C 
BRANCH   6   7
HETATM    7  N   UNK N   1      34.949  15.205  10.867  0.00  0.00     0.088 N 
HETATM    8  C   UNK N   1      35.370  16.561  10.518  0.00  0.00     0.272 C 
HETATM    9  C   UNK N   1      34.509  17.109   9.379  0.00  0.00     0.030 C 
HETATM   10  C   UNK N   1      34.620  16.198   8.160  0.00  0.00     0.003 C 
HETATM   11  C   UNK N   1      34.286  14.763   8.546  0.00  0.00     0.030 C 
HETATM   12  C   UNK N   1      35.184  14.342   9.704  0.00  0.00     0.272 C 
ENDBRANCH   6   7
ENDBRANCH   5   6
ENDBRANCH   4   5
ENDBRANCH   2   4
BRANCH   2  13
HETATM   13  C   UNK N   1      35.965  13.554  15.755  0.00  0.00    -0.019 A 
HETATM   14  C   UNK N   1      35.283  13.515  16.981  0.00  0.00     0.010 A 
HETATM   15  C   UNK N   1      35.570  14.445  17.985  0.00  0.00     0.001 A 
HETATM   16  C   UNK N   1      36.541  15.427  17.772  0.00  0.00     0.000 A 
HETATM   17  C   UNK N   1      37.221  15.483  16.554  0.00  0.00     0.001 A 
HETATM   18  C   UNK N   1      36.937  14.552  15.550  0.00  0.00     0.010 A 
ENDBRANCH   2  13
BRANCH   2  19
HETATM   19  C   UNK N   1      36.083  11.109  14.978  0.00  0.00    -0.019 A 
HETATM   20  C   UNK N   1      37.438  10.726  14.983  0.00  0.00     0.010 A 
HETATM   21  C   UNK N   1      37.808   9.438  15.380  0.00  0.00     0.001 A 
HETATM   22  C   UNK N   1      36.833   8.522  15.777  0.00  0.00     0.000 A 
HETATM   23  C   UNK N   1      35.485   8.888  15.772  0.00  0.00     0.001 A 
HETATM   24  C   UNK N   1      35.113  10.178  15.380  0.00  0.00     0.010 A 
ENDBRANCH   2  19
TORSDOF 6
ENDMDL
MODEL 7
REMARK VINA RESULT:      -5.8      9.346     12.245
REMARK  6 active torsions:
REMARK  status: ('A' for Active; 'I' for Inactive)
REMARK    1  A    between atoms: N_2  and  C_5 
REMARK    2  A    between atoms: C_5  and  C_9 
REMARK    3  A    between atoms: C_9  and  C_10 
REMARK    4  A    between atoms: C_10  and  C_11 
REMARK    5  A    between atoms: C_11  and  C_12 
REMARK    6  A    between atoms: C_11  and  C_13 
ROOT
HETATM    1  O   UNK N   1      27.179  16.806   7.061  0.00  0.00    -0.380 OA
HETATM    2  C   UNK N   1      28.042  17.704   6.423  0.00  0.00     0.112 C 
HETATM    3  H   UNK N   1      26.478  16.267   7.461  0.00  0.00     0.211 HD
ENDROOT
BRANCH   2   4
HETATM    4  C   UNK N   1      28.690  18.632   7.453  0.00  0.00     0.050 C 
BRANCH   4   5
HETATM    5  C   UNK N   1      29.022  18.011   8.799  0.00  0.00     0.034 C 
BRANCH   5   6
HETATM    6  C   UNK N   1      30.504  18.242   9.087  0.00  0.00     0.272 C 
BRANCH   6   7
HETATM    7  N   UNK N   1      31.360  17.465   8.191  0.00  0.00     0.088 N 
HETATM    8  C   UNK N   1      32.647  18.157   8.134  0.00  0.00     0.272 C 
HETATM    9  C   UNK N   1      33.606  17.420   7.198  0.00  0.00     0.030 C 
HETATM   10  C   UNK N   1      33.806  15.987   7.683  0.00  0.00     0.003 C 
HETATM   11  C   UNK N   1      32.457  15.297   7.848  0.00  0.00     0.030 C 
HETATM   12  C   UNK N   1      31.583  16.137   8.773  0.00  0.00     0.272 C 
ENDBRANCH   6   7
ENDBRANCH   5   6
ENDBRANCH   4   5
ENDBRANCH   2   4
BRANCH   2  13
HETATM   13  C   UNK N   1      29.124  16.908   5.705  0.00  0.00    -0.019 A 
HETATM   14  C   UNK N   1      30.180  17.532   5.023  0.00  0.00     0.010 A 
HETATM   15  C   UNK N   1      31.168  16.771   4.390  0.00  0.00     0.001 A 
HETATM   16  C   UNK N   1      31.107  15.376   4.429  0.00  0.00     0.000 A 
HETATM   17  C   UNK N   1      30.057  14.741   5.096  0.00  0.00     0.001 A 
HETATM   18  C   UNK N   1      29.071  15.501   5.732  0.00  0.00     0.010 A 
ENDBRANCH   2  13
BRANCH   2  19
HETATM   19  C   UNK N   1      27.230  18.632   5.524  0.00  0.00    -0.019 A 
HETATM   20  C   UNK N   1      26.568  18.120   4.391  0.00  0.00     0.010 A 
HETATM   21  C   UNK N   1      25.746  18.945   3.619  0.00  0.00     0.001 A 
HETATM   22  C   UNK N   1      25.574  20.285   3.968  0.00  0.00     0.000 A 
HETATM   23  C   UNK N   1      26.228  20.806   5.087  0.00  0.00     0.001 A 
HETATM   24  C   UNK N   1      27.047  19.981   5.864  0.00  0.00     0.010 A 
ENDBRANCH   2  19
TORSDOF 6
ENDMDL
MODEL 8
REMARK VINA RESULT:      -5.7      6.258      9.394
REMARK  6 active torsions:
REMARK  status: ('A' for Active; 'I' for Inactive)
REMARK    1  A    between atoms: N_2  and  C_5 
REMARK    2  A    between atoms: C_5  and  C_9 
REMARK    3  A    between atoms: C_9  and  C_10 
REMARK    4  A    between atoms: C_10  and  C_11 
REMARK    5  A    between atoms: C_11  and  C_12 
REMARK    6  A    between atoms: C_11  and  C_13 
ROOT
HETATM    1  O   UNK N   1      31.968  15.201   7.893  0.00  0.00    -0.380 OA
HETATM    2  C   UNK N   1      31.979  16.498   7.368  0.00  0.00     0.112 C 
HETATM    3  H   UNK N   1      31.858  14.347   8.339  0.00  0.00     0.211 HD
ENDROOT
BRANCH   2   4
HETATM    4  C   UNK N   1      33.134  17.300   7.973  0.00  0.00     0.050 C 
BRANCH   4   5
HETATM    5  C   UNK N   1      34.410  16.525   8.260  0.00  0.00     0.034 C 
BRANCH   5   6
HETATM    6  C   UNK N   1      34.841  16.817   9.696  0.00  0.00     0.272 C 
BRANCH   6   7
HETATM    7  N   UNK N   1      34.738  15.631  10.546  0.00  0.00     0.088 N 
HETATM    8  C   UNK N   1      35.002  14.475   9.689  0.00  0.00     0.272 C 
HETATM    9  C   UNK N   1      34.896  13.181  10.496  0.00  0.00     0.030 C 
HETATM   10  C   UNK N   1      35.888  13.208  11.655  0.00  0.00     0.003 C 
HETATM   11  C   UNK N   1      35.686  14.468  12.487  0.00  0.00     0.030 C 
HETATM   12  C   UNK N   1      35.783  15.684  11.573  0.00  0.00     0.272 C 
ENDBRANCH   6   7
ENDBRANCH   5   6
ENDBRANCH   4   5
ENDBRANCH   2   4
BRANCH   2  13
HETATM   13  C   UNK N   1      32.161  16.407   5.858  0.00  0.00    -0.019 A 
HETATM   14  C   UNK N   1      31.972  15.207   5.156  0.00  0.00     0.010 A 
HETATM   15  C   UNK N   1      32.129  15.163   3.766  0.00  0.00     0.001 A 
HETATM   16  C   UNK N   1      32.482  16.319   3.066  0.00  0.00     0.000 A 
HETATM   17  C   UNK N   1      32.683  17.518   3.753  0.00  0.00     0.001 A 
HETATM   18  C   UNK N   1      32.523  17.563   5.141  0.00  0.00     0.010 A 
ENDBRANCH   2  13
BRANCH   2  19
HETATM   19  C   UNK N   1      30.721  17.235   7.816  0.00  0.00    -0.019 A 
HETATM   20  C   UNK N   1      29.492  16.994   7.173  0.00  0.00     0.010 A 
HETATM   21  C   UNK N   1      28.319  17.593   7.640  0.00  0.00     0.001 A 
HETATM   22  C   UNK N   1      28.359  18.436   8.751  0.00  0.00     0.000 A 
HETATM   23  C   UNK N   1      29.573  18.687   9.396  0.00  0.00     0.001 A 
HETATM   24  C   UNK N   1      30.747  18.085   8.934  0.00  0.00     0.010 A 
ENDBRANCH   2  19
TORSDOF 6
ENDMDL
MODEL 9
REMARK VINA RESULT:      -5.6      1.869      4.322
REMARK  6 active torsions:
REMARK  status: ('A' for Active; 'I' for Inactive)
REMARK    1  A    between atoms: N_2  and  C_5 
REMARK    2  A    between atoms: C_5  and  C_9 
REMARK    3  A    between atoms: C_9  and  C_10 
REMARK    4  A    between atoms: C_10  and  C_11 
REMARK    5  A    between atoms: C_11  and  C_12 
REMARK    6  A    between atoms: C_11  and  C_13 
ROOT
HETATM    1  O   UNK N   1      34.472  12.560  14.512  0.00  0.00    -0.380 OA
HETATM    2  C   UNK N   1      35.848  12.778  14.645  0.00  0.00     0.112 C 
HETATM    3  H   UNK N   1      33.552  12.276  14.399  0.00  0.00     0.211 HD
ENDROOT
BRANCH   2   4
HETATM    4  C   UNK N   1      36.417  13.360  13.349  0.00  0.00     0.050 C 
BRANCH   4   5
HETATM    5  C   UNK N   1      35.401  13.894  12.352  0.00  0.00     0.034 C 
BRANCH   5   6
HETATM    6  C   UNK N   1      35.321  12.924  11.175  0.00  0.00     0.272 C 
BRANCH   6   7
HETATM    7  N   UNK N   1      36.162  11.746  11.383  0.00  0.00     0.088 N 
HETATM    8  C   UNK N   1      35.270  10.586  11.374  0.00  0.00     0.272 C 
HETATM    9  C   UNK N   1      36.067   9.302  11.605  0.00  0.00     0.030 C 
HETATM   10  C   UNK N   1      37.131   9.149  10.523  0.00  0.00     0.003 C 
HETATM   11  C   UNK N   1      37.995  10.403  10.457  0.00  0.00     0.030 C 
HETATM   12  C   UNK N   1      37.091  11.614  10.256  0.00  0.00     0.272 C 
ENDBRANCH   6   7
ENDBRANCH   5   6
ENDBRANCH   4   5
ENDBRANCH   2   4
BRANCH   2  13
HETATM   13  C   UNK N   1      36.074  13.764  15.785  0.00  0.00    -0.019 A 
HETATM   14  C   UNK N   1      35.346  13.696  16.984  0.00  0.00     0.010 A 
HETATM   15  C   UNK N   1      35.592  14.606  18.018  0.00  0.00     0.001 A 
HETATM   16  C   UNK N   1      36.564  15.596  17.861  0.00  0.00     0.000 A 
HETATM   17  C   UNK N   1      37.289  15.681  16.671  0.00  0.00     0.001 A 
HETATM   18  C   UNK N   1      37.047  14.770  15.638  0.00  0.00     0.010 A 
ENDBRANCH   2  13
BRANCH   2  19
HETATM   19  C   UNK N   1      36.558  11.438  14.811  0.00  0.00    -0.019 A 
HETATM   20  C   UNK N   1      35.860  10.324  15.318  0.00  0.00     0.010 A 
HETATM   21  C   UNK N   1      36.476   9.072  15.382  0.00  0.00     0.001 A 
HETATM   22  C   UNK N   1      37.791   8.916  14.941  0.00  0.00     0.000 A 
HETATM   23  C   UNK N   1      38.496  10.014  14.440  0.00  0.00     0.001 A 
HETATM   24  C   UNK N   1      37.880  11.266  14.370  0.00  0.00     0.010 A 
ENDBRANCH   2  19
TORSDOF 6
ENDMDL
