MODEL 1
REMARK VINA RESULT:      -6.1      0.000      0.000
REMARK  10 active torsions:
REMARK  status: ('A' for Active; 'I' for Inactive)
REMARK    1  A    between atoms: O_1  and  C_10 
REMARK    2  A    between atoms: O_1  and  C_13 
REMARK    3  A    between atoms: N_2  and  C_4 
REMARK    4  A    between atoms: N_3  and  C_9 
REMARK    5  A    between atoms: N_3  and  C_11 
REMARK    6  A    between atoms: N_3  and  C_12 
REMARK    7  A    between atoms: C_4  and  C_9 
REMARK    8  A    between atoms: C_4  and  C_10 
REMARK    9  A    between atoms: C_11  and  C_15 
REMARK   10  A    between atoms: C_13  and  C_14 
ROOT
HETATM    1  N   UNK N   1      27.423  23.701  -6.076  0.00  0.00    -0.374 N 
ENDROOT
BRANCH   1   2
HETATM    2  C   UNK N   1      28.622  24.344  -6.594  0.00  0.00     0.161 C 
BRANCH   2   3
HETATM    3  C   UNK N   1      29.774  24.329  -5.584  0.00  0.00     0.264 C 
BRANCH   3   4
HETATM    4  N   UNK N   1      29.660  23.172  -4.677  0.00  0.00     0.096 N 
HETATM    5  C   UNK N   1      30.399  22.026  -5.179  0.00  0.00     0.273 C 
HETATM    6  C   UNK N   1      30.704  21.163  -3.976  0.00  0.00     0.032 C 
HETATM    7  C   UNK N   1      30.715  22.118  -2.801  0.00  0.00     0.032 C 
HETATM    8  C   UNK N   1      30.174  23.431  -3.336  0.00  0.00     0.273 C 
ENDBRANCH   3   4
BRANCH   3   9
HETATM    9  C   UNK N   1      30.014  25.689  -4.895  0.00  0.00     0.205 C 
BRANCH   9  10
HETATM   10  O   UNK N   1      30.080  26.748  -5.808  0.00  0.00    -0.389 OA
BRANCH  10  11
HETATM   11  C   UNK N   1      29.335  27.780  -5.236  0.00  0.00     0.171 C 
BRANCH  11  12
HETATM   12  C   UNK N   1      28.857  28.752  -6.299  0.00  0.00     0.001 C 
HETATM   13  C   UNK N   1      27.962  28.011  -7.271  0.00  0.00     0.011 C 
HETATM   14  C   UNK N   1      28.067  29.881  -5.666  0.00  0.00     0.011 C 
ENDBRANCH  11  12
ENDBRANCH  10  11
ENDBRANCH   9  10
ENDBRANCH   3   9
ENDBRANCH   2   3
ENDBRANCH   1   2
BRANCH   1  15
HETATM   15  C   UNK N   1      26.778  24.110  -4.826  0.00  0.00     0.161 C 
BRANCH  15  16
HETATM   16  C   UNK N   1      26.230  25.509  -4.642  0.00  0.00    -0.040 A 
HETATM   17  C   UNK N   1      25.371  25.991  -5.638  0.00  0.00     0.009 A 
HETATM   18  C   UNK N   1      24.821  27.272  -5.548  0.00  0.00     0.001 A 
HETATM   19  C   UNK N   1      25.121  28.085  -4.453  0.00  0.00     0.000 A 
HETATM   20  C   UNK N   1      25.982  27.619  -3.456  0.00  0.00     0.001 A 
HETATM   21  C   UNK N   1      26.539  26.341  -3.556  0.00  0.00     0.009 A 
ENDBRANCH  15  16
ENDBRANCH   1  15
BRANCH   1  22
HETATM   22  C   UNK N   1      26.807  22.654  -6.838  0.00  0.00     0.030 A 
HETATM   23  C   UNK N   1      25.427  22.413  -6.750  0.00  0.00     0.029 A 
HETATM   24  C   UNK N   1      24.832  21.391  -7.495  0.00  0.00     0.002 A 
HETATM   25  C   UNK N   1      25.612  20.589  -8.331  0.00  0.00     0.000 A 
HETATM   26  C   UNK N   1      26.987  20.809  -8.422  0.00  0.00     0.002 A 
HETATM   27  C   UNK N   1      27.581  21.836  -7.683  0.00  0.00     0.029 A 
ENDBRANCH   1  22
TORSDOF 10
ENDMDL
MODEL 2
REMARK VINA RESULT:      -6.1      1.977      4.322
REMARK  10 active torsions:
REMARK  status: ('A' for Active; 'I' for Inactive)
REMARK    1  A    between atoms: O_1  and  C_10 
REMARK    2  A    between atoms: O_1  and  C_13 
REMARK    3  A    between atoms: N_2  and  C_4 
REMARK    4  A    between atoms: N_3  and  C_9 
REMARK    5  A    between atoms: N_3  and  C_11 
REMARK    6  A    between atoms: N_3  and  C_12 
REMARK    7  A    between atoms: C_4  and  C_9 
REMARK    8  A    between atoms: C_4  and  C_10 
REMARK    9  A    between atoms: C_11  and  C_15 
REMARK   10  A    between atoms: C_13  and  C_14 
ROOT
HETATM    1  N   UNK N   1      27.408  23.366  -5.775  0.00  0.00    -0.374 N 
ENDROOT
BRANCH   1   2
HETATM    2  C   UNK N   1      28.832  23.666  -5.795  0.00  0.00     0.161 C 
BRANCH   2   3
HETATM    3  C   UNK N   1      29.593  22.959  -4.669  0.00  0.00     0.264 C 
BRANCH   3   4
HETATM    4  N   UNK N   1      30.637  23.837  -4.110  0.00  0.00     0.096 N 
HETATM    5  C   UNK N   1      31.613  24.214  -5.118  0.00  0.00     0.273 C 
HETATM    6  C   UNK N   1      32.239  25.503  -4.636  0.00  0.00     0.032 C 
HETATM    7  C   UNK N   1      31.189  26.141  -3.751  0.00  0.00     0.032 C 
HETATM    8  C   UNK N   1      30.116  25.086  -3.563  0.00  0.00     0.273 C 
ENDBRANCH   3   4
BRANCH   3   9
HETATM    9  C   UNK N   1      30.054  21.531  -5.033  0.00  0.00     0.205 C 
BRANCH   9  10
HETATM   10  O   UNK N   1      30.771  20.920  -3.998  0.00  0.00    -0.389 OA
BRANCH  10  11
HETATM   11  C   UNK N   1      31.776  20.183  -4.625  0.00  0.00     0.171 C 
BRANCH  11  12
HETATM   12  C   UNK N   1      33.146  20.613  -4.131  0.00  0.00     0.001 C 
HETATM   13  C   UNK N   1      32.998  21.225  -2.754  0.00  0.00     0.011 C 
HETATM   14  C   UNK N   1      34.075  19.418  -4.042  0.00  0.00     0.011 C 
ENDBRANCH  11  12
ENDBRANCH  10  11
ENDBRANCH   9  10
ENDBRANCH   3   9
ENDBRANCH   2   3
ENDBRANCH   1   2
BRANCH   1  15
HETATM   15  C   UNK N   1      26.510  23.840  -4.718  0.00  0.00     0.161 C 
BRANCH  15  16
HETATM   16  C   UNK N   1      26.128  25.300  -4.606  0.00  0.00    -0.040 A 
HETATM   17  C   UNK N   1      25.356  25.837  -5.644  0.00  0.00     0.009 A 
HETATM   18  C   UNK N   1      24.959  27.177  -5.620  0.00  0.00     0.001 A 
HETATM   19  C   UNK N   1      25.327  27.994  -4.550  0.00  0.00     0.000 A 
HETATM   20  C   UNK N   1      26.102  27.473  -3.510  0.00  0.00     0.001 A 
HETATM   21  C   UNK N   1      26.506  26.135  -3.544  0.00  0.00     0.009 A 
ENDBRANCH  15  16
ENDBRANCH   1  15
BRANCH   1  22
HETATM   22  C   UNK N   1      26.836  22.618  -6.856  0.00  0.00     0.030 A 
HETATM   23  C   UNK N   1      25.454  22.374  -6.914  0.00  0.00     0.029 A 
HETATM   24  C   UNK N   1      24.902  21.643  -7.970  0.00  0.00     0.002 A 
HETATM   25  C   UNK N   1      25.726  21.138  -8.978  0.00  0.00     0.000 A 
HETATM   26  C   UNK N   1      27.103  21.364  -8.930  0.00  0.00     0.002 A 
HETATM   27  C   UNK N   1      27.654  22.100  -7.878  0.00  0.00     0.029 A 
ENDBRANCH   1  22
TORSDOF 10
ENDMDL
MODEL 3
REMARK VINA RESULT:      -6.0     11.459     14.355
REMARK  10 active torsions:
REMARK  status: ('A' for Active; 'I' for Inactive)
REMARK    1  A    between atoms: O_1  and  C_10 
REMARK    2  A    between atoms: O_1  and  C_13 
REMARK    3  A    between atoms: N_2  and  C_4 
REMARK    4  A    between atoms: N_3  and  C_9 
REMARK    5  A    between atoms: N_3  and  C_11 
REMARK    6  A    between atoms: N_3  and  C_12 
REMARK    7  A    between atoms: C_4  and  C_9 
REMARK    8  A    between atoms: C_4  and  C_10 
REMARK    9  A    between atoms: C_11  and  C_15 
REMARK   10  A    between atoms: C_13  and  C_14 
ROOT
HETATM    1  N   UNK N   1      29.238  16.831   5.839  0.00  0.00    -0.374 N 
ENDROOT
BRANCH   1   2
HETATM    2  C   UNK N   1      29.204  15.387   5.667  0.00  0.00     0.161 C 
BRANCH   2   3
HETATM    3  C   UNK N   1      29.822  14.944   4.337  0.00  0.00     0.264 C 
BRANCH   3   4
HETATM    4  N   UNK N   1      28.823  14.257   3.497  0.00  0.00     0.096 N 
HETATM    5  C   UNK N   1      27.551  14.122   4.184  0.00  0.00     0.273 C 
HETATM    6  C   UNK N   1      26.504  13.973   3.105  0.00  0.00     0.032 C 
HETATM    7  C   UNK N   1      27.092  14.660   1.891  0.00  0.00     0.032 C 
HETATM    8  C   UNK N   1      28.537  14.952   2.246  0.00  0.00     0.273 C 
ENDBRANCH   3   4
BRANCH   3   9
HETATM    9  C   UNK N   1      31.172  14.211   4.493  0.00  0.00     0.205 C 
BRANCH   9  10
HETATM   10  O   UNK N   1      32.260  15.004   4.108  0.00  0.00    -0.389 OA
BRANCH  10  11
HETATM   11  C   UNK N   1      32.899  15.361   5.295  0.00  0.00     0.171 C 
BRANCH  11  12
HETATM   12  C   UNK N   1      33.626  16.685   5.138  0.00  0.00     0.001 C 
HETATM   13  C   UNK N   1      32.772  17.614   4.302  0.00  0.00     0.011 C 
HETATM   14  C   UNK N   1      33.864  17.321   6.494  0.00  0.00     0.011 C 
ENDBRANCH  11  12
ENDBRANCH  10  11
ENDBRANCH   9  10
ENDBRANCH   3   9
ENDBRANCH   2   3
ENDBRANCH   1   2
BRANCH   1  15
HETATM   15  C   UNK N   1      29.156  17.769   4.716  0.00  0.00     0.161 C 
BRANCH  15  16
HETATM   16  C   UNK N   1      27.847  18.422   4.328  0.00  0.00    -0.040 A 
HETATM   17  C   UNK N   1      27.778  19.817   4.429  0.00  0.00     0.009 A 
HETATM   18  C   UNK N   1      26.607  20.500   4.091  0.00  0.00     0.001 A 
HETATM   19  C   UNK N   1      25.491  19.792   3.642  0.00  0.00     0.000 A 
HETATM   20  C   UNK N   1      25.544  18.399   3.542  0.00  0.00     0.001 A 
HETATM   21  C   UNK N   1      26.714  17.719   3.892  0.00  0.00     0.009 A 
ENDBRANCH  15  16
ENDBRANCH   1  15
BRANCH   1  22
HETATM   22  C   UNK N   1      29.303  17.376   7.165  0.00  0.00     0.030 A 
HETATM   23  C   UNK N   1      30.530  17.759   7.728  0.00  0.00     0.029 A 
HETATM   24  C   UNK N   1      30.588  18.289   9.021  0.00  0.00     0.002 A 
HETATM   25  C   UNK N   1      29.419  18.432   9.771  0.00  0.00     0.000 A 
HETATM   26  C   UNK N   1      28.192  18.047   9.228  0.00  0.00     0.002 A 
HETATM   27  C   UNK N   1      28.133  17.525   7.934  0.00  0.00     0.029 A 
ENDBRANCH   1  22
TORSDOF 10
ENDMDL
MODEL 4
REMARK VINA RESULT:      -6.0      1.957      5.150
REMARK  10 active torsions:
REMARK  status: ('A' for Active; 'I' for Inactive)
REMARK    1  A    between atoms: O_1  and  C_10 
REMARK    2  A    between atoms: O_1  and  C_13 
REMARK    3  A    between atoms: N_2  and  C_4 
REMARK    4  A    between atoms: N_3  and  C_9 
REMARK    5  A    between atoms: N_3  and  C_11 
REMARK    6  A    between atoms: N_3  and  C_12 
REMARK    7  A    between atoms: C_4  and  C_9 
REMARK    8  A    between atoms: C_4  and  C_10 
REMARK    9  A    between atoms: C_11  and  C_15 
REMARK   10  A    between atoms: C_13  and  C_14 
ROOT
HETATM    1  N   UNK N   1      29.627  23.799  -3.630  0.00  0.00    -0.374 N 
ENDROOT
BRANCH   1   2
HETATM    2  C   UNK N   1      30.495  24.967  -3.657  0.00  0.00     0.161 C 
BRANCH   2   3
HETATM    3  C   UNK N   1      30.590  25.590  -5.053  0.00  0.00     0.264 C 
BRANCH   3   4
HETATM    4  N   UNK N   1      31.819  25.152  -5.741  0.00  0.00     0.096 N 
HETATM    5  C   UNK N   1      32.871  24.823  -4.795  0.00  0.00     0.273 C 
HETATM    6  C   UNK N   1      33.802  23.875  -5.515  0.00  0.00     0.032 C 
HETATM    7  C   UNK N   1      32.943  23.202  -6.563  0.00  0.00     0.032 C 
HETATM    8  C   UNK N   1      31.631  23.965  -6.568  0.00  0.00     0.273 C 
ENDBRANCH   3   4
BRANCH   3   9
HETATM    9  C   UNK N   1      30.328  27.112  -5.073  0.00  0.00     0.205 C 
BRANCH   9  10
HETATM   10  O   UNK N   1      28.969  27.420  -5.203  0.00  0.00    -0.389 OA
BRANCH  10  11
HETATM   11  C   UNK N   1      28.585  26.894  -6.437  0.00  0.00     0.171 C 
BRANCH  11  12
HETATM   12  C   UNK N   1      27.316  27.563  -6.935  0.00  0.00     0.001 C 
HETATM   13  C   UNK N   1      26.622  26.630  -7.906  0.00  0.00     0.011 C 
HETATM   14  C   UNK N   1      26.381  27.851  -5.777  0.00  0.00     0.011 C 
ENDBRANCH  11  12
ENDBRANCH  10  11
ENDBRANCH   9  10
ENDBRANCH   3   9
ENDBRANCH   2   3
ENDBRANCH   1   2
BRANCH   1  15
HETATM   15  C   UNK N   1      29.978  22.562  -2.928  0.00  0.00     0.161 C 
BRANCH  15  16
HETATM   16  C   UNK N   1      31.114  21.681  -3.402  0.00  0.00    -0.040 A 
HETATM   17  C   UNK N   1      30.852  20.836  -4.488  0.00  0.00     0.009 A 
HETATM   18  C   UNK N   1      31.844  19.989  -4.989  0.00  0.00     0.001 A 
HETATM   19  C   UNK N   1      33.115  19.984  -4.410  0.00  0.00     0.000 A 
HETATM   20  C   UNK N   1      33.387  20.818  -3.323  0.00  0.00     0.001 A 
HETATM   21  C   UNK N   1      32.389  21.656  -2.817  0.00  0.00     0.009 A 
ENDBRANCH  15  16
ENDBRANCH   1  15
BRANCH   1  22
HETATM   22  C   UNK N   1      28.346  23.867  -4.272  0.00  0.00     0.030 A 
HETATM   23  C   UNK N   1      27.259  24.501  -3.650  0.00  0.00     0.029 A 
HETATM   24  C   UNK N   1      26.012  24.563  -4.279  0.00  0.00     0.002 A 
HETATM   25  C   UNK N   1      25.834  23.982  -5.536  0.00  0.00     0.000 A 
HETATM   26  C   UNK N   1      26.902  23.339  -6.164  0.00  0.00     0.002 A 
HETATM   27  C   UNK N   1      28.150  23.284  -5.538  0.00  0.00     0.029 A 
ENDBRANCH   1  22
TORSDOF 10
ENDMDL
MODEL 5
REMARK VINA RESULT:      -5.9      1.349      4.678
REMARK  10 active torsions:
REMARK  status: ('A' for Active; 'I' for Inactive)
REMARK    1  A    between atoms: O_1  and  C_10 
REMARK    2  A    between atoms: O_1  and  C_13 
REMARK    3  A    between atoms: N_2  and  C_4 
REMARK    4  A    between atoms: N_3  and  C_9 
REMARK    5  A    between atoms: N_3  and  C_11 
REMARK    6  A    between atoms: N_3  and  C_12 
REMARK    7  A    between atoms: C_4  and  C_9 
REMARK    8  A    between atoms: C_4  and  C_10 
REMARK    9  A    between atoms: C_11  and  C_15 
REMARK   10  A    between atoms: C_13  and  C_14 
ROOT
HETATM    1  N   UNK N   1      27.558  24.470  -5.189  0.00  0.00    -0.374 N 
ENDROOT
BRANCH   1   2
HETATM    2  C   UNK N   1      28.115  23.659  -4.117  0.00  0.00     0.161 C 
BRANCH   2   3
HETATM    3  C   UNK N   1      29.617  23.415  -4.292  0.00  0.00     0.264 C 
BRANCH   3   4
HETATM    4  N   UNK N   1      29.874  22.043  -4.767  0.00  0.00     0.096 N 
HETATM    5  C   UNK N   1      30.744  22.035  -5.930  0.00  0.00     0.273 C 
HETATM    6  C   UNK N   1      31.391  20.669  -5.961  0.00  0.00     0.032 C 
HETATM    7  C   UNK N   1      31.384  20.199  -4.523  0.00  0.00     0.032 C 
HETATM    8  C   UNK N   1      30.518  21.193  -3.771  0.00  0.00     0.273 C 
ENDBRANCH   3   4
BRANCH   3   9
HETATM    9  C   UNK N   1      30.465  23.866  -3.082  0.00  0.00     0.205 C 
BRANCH   9  10
HETATM   10  O   UNK N   1      30.582  25.258  -2.999  0.00  0.00    -0.389 OA
BRANCH  10  11
HETATM   11  C   UNK N   1      31.258  25.646  -4.156  0.00  0.00     0.171 C 
BRANCH  11  12
HETATM   12  C   UNK N   1      31.190  27.151  -4.341  0.00  0.00     0.001 C 
HETATM   13  C   UNK N   1      30.061  27.475  -5.298  0.00  0.00     0.011 C 
HETATM   14  C   UNK N   1      30.921  27.834  -3.014  0.00  0.00     0.011 C 
ENDBRANCH  11  12
ENDBRANCH  10  11
ENDBRANCH   9  10
ENDBRANCH   3   9
ENDBRANCH   2   3
ENDBRANCH   1   2
BRANCH   1  15
HETATM   15  C   UNK N   1      27.666  24.101  -6.603  0.00  0.00     0.161 C 
BRANCH  15  16
HETATM   16  C   UNK N   1      26.978  22.869  -7.152  0.00  0.00    -0.040 A 
HETATM   17  C   UNK N   1      25.613  22.727  -6.874  0.00  0.00     0.009 A 
HETATM   18  C   UNK N   1      24.901  21.619  -7.341  0.00  0.00     0.001 A 
HETATM   19  C   UNK N   1      25.549  20.643  -8.101  0.00  0.00     0.000 A 
HETATM   20  C   UNK N   1      26.912  20.771  -8.381  0.00  0.00     0.001 A 
HETATM   21  C   UNK N   1      27.623  21.874  -7.902  0.00  0.00     0.009 A 
ENDBRANCH  15  16
ENDBRANCH   1  15
BRANCH   1  22
HETATM   22  C   UNK N   1      26.823  25.656  -4.860  0.00  0.00     0.030 A 
HETATM   23  C   UNK N   1      26.989  26.286  -3.616  0.00  0.00     0.029 A 
HETATM   24  C   UNK N   1      26.269  27.443  -3.299  0.00  0.00     0.002 A 
HETATM   25  C   UNK N   1      25.366  27.978  -4.220  0.00  0.00     0.000 A 
HETATM   26  C   UNK N   1      25.183  27.358  -5.457  0.00  0.00     0.002 A 
HETATM   27  C   UNK N   1      25.907  26.207  -5.776  0.00  0.00     0.029 A 
ENDBRANCH   1  22
TORSDOF 10
ENDMDL
MODEL 6
REMARK VINA RESULT:      -5.8     11.228     13.954
REMARK  10 active torsions:
REMARK  status: ('A' for Active; 'I' for Inactive)
REMARK    1  A    between atoms: O_1  and  C_10 
REMARK    2  A    between atoms: O_1  and  C_13 
REMARK    3  A    between atoms: N_2  and  C_4 
REMARK    4  A    between atoms: N_3  and  C_9 
REMARK    5  A    between atoms: N_3  and  C_11 
REMARK    6  A    between atoms: N_3  and  C_12 
REMARK    7  A    between atoms: C_4  and  C_9 
REMARK    8  A    between atoms: C_4  and  C_10 
REMARK    9  A    between atoms: C_11  and  C_15 
REMARK   10  A    between atoms: C_13  and  C_14 
ROOT
HETATM    1  N   UNK N   1      28.316  17.048   4.639  0.00  0.00    -0.374 N 
ENDROOT
BRANCH   1   2
HETATM    2  C   UNK N   1      29.258  16.835   3.551  0.00  0.00     0.161 C 
BRANCH   2   3
HETATM    3  C   UNK N   1      30.126  15.592   3.767  0.00  0.00     0.264 C 
BRANCH   3   4
HETATM    4  N   UNK N   1      31.554  15.955   3.841  0.00  0.00     0.096 N 
HETATM    5  C   UNK N   1      31.732  17.386   4.013  0.00  0.00     0.273 C 
HETATM    6  C   UNK N   1      33.093  17.567   4.645  0.00  0.00     0.032 C 
HETATM    7  C   UNK N   1      33.355  16.275   5.388  0.00  0.00     0.032 C 
HETATM    8  C   UNK N   1      32.259  15.322   4.950  0.00  0.00     0.273 C 
ENDBRANCH   3   4
BRANCH   3   9
HETATM    9  C   UNK N   1      29.789  14.425   2.814  0.00  0.00     0.205 C 
BRANCH   9  10
HETATM   10  O   UNK N   1      28.731  14.729   1.949  0.00  0.00    -0.389 OA
BRANCH  10  11
HETATM   11  C   UNK N   1      27.858  13.644   2.031  0.00  0.00     0.171 C 
BRANCH  11  12
HETATM   12  C   UNK N   1      26.447  14.111   2.340  0.00  0.00     0.001 C 
HETATM   13  C   UNK N   1      26.248  14.102   3.841  0.00  0.00     0.011 C 
HETATM   14  C   UNK N   1      26.232  15.520   1.823  0.00  0.00     0.011 C 
ENDBRANCH  11  12
ENDBRANCH  10  11
ENDBRANCH   9  10
ENDBRANCH   3   9
ENDBRANCH   2   3
ENDBRANCH   1   2
BRANCH   1  15
HETATM   15  C   UNK N   1      28.428  16.369   5.933  0.00  0.00     0.161 C 
BRANCH  15  16
HETATM   16  C   UNK N   1      28.883  17.106   7.174  0.00  0.00    -0.040 A 
HETATM   17  C   UNK N   1      30.263  17.279   7.340  0.00  0.00     0.009 A 
HETATM   18  C   UNK N   1      30.769  17.948   8.458  0.00  0.00     0.001 A 
HETATM   19  C   UNK N   1      29.896  18.458   9.421  0.00  0.00     0.000 A 
HETATM   20  C   UNK N   1      28.517  18.287   9.269  0.00  0.00     0.001 A 
HETATM   21  C   UNK N   1      28.016  17.608   8.156  0.00  0.00     0.009 A 
ENDBRANCH  15  16
ENDBRANCH   1  15
BRANCH   1  22
HETATM   22  C   UNK N   1      27.257  18.000   4.470  0.00  0.00     0.030 A 
HETATM   23  C   UNK N   1      25.930  17.670   4.792  0.00  0.00     0.029 A 
HETATM   24  C   UNK N   1      24.902  18.602   4.625  0.00  0.00     0.002 A 
HETATM   25  C   UNK N   1      25.185  19.874   4.124  0.00  0.00     0.000 A 
HETATM   26  C   UNK N   1      26.497  20.215   3.790  0.00  0.00     0.002 A 
HETATM   27  C   UNK N   1      27.526  19.286   3.964  0.00  0.00     0.029 A 
ENDBRANCH   1  22
TORSDOF 10
ENDMDL
MODEL 7
REMARK VINA RESULT:      -5.8     11.853     13.909
REMARK  10 active torsions:
REMARK  status: ('A' for Active; 'I' for Inactive)
REMARK    1  A    between atoms: O_1  and  C_10 
REMARK    2  A    between atoms: O_1  and  C_13 
REMARK    3  A    between atoms: N_2  and  C_4 
REMARK    4  A    between atoms: N_3  and  C_9 
REMARK    5  A    between atoms: N_3  and  C_11 
REMARK    6  A    between atoms: N_3  and  C_12 
REMARK    7  A    between atoms: C_4  and  C_9 
REMARK    8  A    between atoms: C_4  and  C_10 
REMARK    9  A    between atoms: C_11  and  C_15 
REMARK   10  A    between atoms: C_13  and  C_14 
ROOT
HETATM    1  N   UNK N   1      29.361  16.618   4.613  0.00  0.00    -0.374 N 
ENDROOT
BRANCH   1   2
HETATM    2  C   UNK N   1      28.354  17.220   3.753  0.00  0.00     0.161 C 
BRANCH   2   3
HETATM    3  C   UNK N   1      26.984  16.550   3.904  0.00  0.00     0.264 C 
BRANCH   3   4
HETATM    4  N   UNK N   1      26.699  15.672   2.754  0.00  0.00     0.096 N 
HETATM    5  C   UNK N   1      27.136  14.309   3.002  0.00  0.00     0.273 C 
HETATM    6  C   UNK N   1      26.311  13.431   2.091  0.00  0.00     0.032 C 
HETATM    7  C   UNK N   1      25.034  14.207   1.849  0.00  0.00     0.032 C 
HETATM    8  C   UNK N   1      25.281  15.590   2.421  0.00  0.00     0.273 C 
ENDBRANCH   3   4
BRANCH   3   9
HETATM    9  C   UNK N   1      25.852  17.530   4.284  0.00  0.00     0.205 C 
BRANCH   9  10
HETATM   10  O   UNK N   1      26.224  18.404   5.313  0.00  0.00    -0.389 OA
BRANCH  10  11
HETATM   11  C   UNK N   1      25.682  19.642   4.964  0.00  0.00     0.171 C 
BRANCH  11  12
HETATM   12  C   UNK N   1      26.615  20.770   5.366  0.00  0.00     0.001 C 
HETATM   13  C   UNK N   1      26.411  21.072   6.836  0.00  0.00     0.011 C 
HETATM   14  C   UNK N   1      28.059  20.366   5.142  0.00  0.00     0.011 C 
ENDBRANCH  11  12
ENDBRANCH  10  11
ENDBRANCH   9  10
ENDBRANCH   3   9
ENDBRANCH   2   3
ENDBRANCH   1   2
BRANCH   1  15
HETATM   15  C   UNK N   1      29.073  16.163   5.976  0.00  0.00     0.161 C 
BRANCH  15  16
HETATM   16  C   UNK N   1      29.354  17.040   7.177  0.00  0.00    -0.040 A 
HETATM   17  C   UNK N   1      28.248  17.623   7.810  0.00  0.00     0.009 A 
HETATM   18  C   UNK N   1      28.417  18.448   8.925  0.00  0.00     0.001 A 
HETATM   19  C   UNK N   1      29.698  18.694   9.424  0.00  0.00     0.000 A 
HETATM   20  C   UNK N   1      30.809  18.124   8.797  0.00  0.00     0.001 A 
HETATM   21  C   UNK N   1      30.637  17.309   7.676  0.00  0.00     0.009 A 
ENDBRANCH  15  16
ENDBRANCH   1  15
BRANCH   1  22
HETATM   22  C   UNK N   1      30.684  16.410   4.101  0.00  0.00     0.030 A 
HETATM   23  C   UNK N   1      31.072  15.161   3.590  0.00  0.00     0.029 A 
HETATM   24  C   UNK N   1      32.363  14.962   3.092  0.00  0.00     0.002 A 
HETATM   25  C   UNK N   1      33.287  16.009   3.108  0.00  0.00     0.000 A 
HETATM   26  C   UNK N   1      32.920  17.255   3.621  0.00  0.00     0.002 A 
HETATM   27  C   UNK N   1      31.627  17.455   4.112  0.00  0.00     0.029 A 
ENDBRANCH   1  22
TORSDOF 10
ENDMDL
MODEL 8
REMARK VINA RESULT:      -5.8     11.717     14.299
REMARK  10 active torsions:
REMARK  status: ('A' for Active; 'I' for Inactive)
REMARK    1  A    between atoms: O_1  and  C_10 
REMARK    2  A    between atoms: O_1  and  C_13 
REMARK    3  A    between atoms: N_2  and  C_4 
REMARK    4  A    between atoms: N_3  and  C_9 
REMARK    5  A    between atoms: N_3  and  C_11 
REMARK    6  A    between atoms: N_3  and  C_12 
REMARK    7  A    between atoms: C_4  and  C_9 
REMARK    8  A    between atoms: C_4  and  C_10 
REMARK    9  A    between atoms: C_11  and  C_15 
REMARK   10  A    between atoms: C_13  and  C_14 
ROOT
HETATM    1  N   UNK N   1      29.006  17.440   5.341  0.00  0.00    -0.374 N 
ENDROOT
BRANCH   1   2
HETATM    2  C   UNK N   1      29.058  16.875   4.001  0.00  0.00     0.161 C 
BRANCH   2   3
HETATM    3  C   UNK N   1      28.442  15.473   3.936  0.00  0.00     0.264 C 
BRANCH   3   4
HETATM    4  N   UNK N   1      29.474  14.459   3.651  0.00  0.00     0.096 N 
HETATM    5  C   UNK N   1      30.684  15.064   3.122  0.00  0.00     0.273 C 
HETATM    6  C   UNK N   1      31.804  14.094   3.420  0.00  0.00     0.032 C 
HETATM    7  C   UNK N   1      31.337  13.318   4.633  0.00  0.00     0.032 C 
HETATM    8  C   UNK N   1      29.881  13.697   4.827  0.00  0.00     0.273 C 
ENDBRANCH   3   4
BRANCH   3   9
HETATM    9  C   UNK N   1      27.174  15.393   3.058  0.00  0.00     0.205 C 
BRANCH   9  10
HETATM   10  O   UNK N   1      26.490  16.612   2.990  0.00  0.00    -0.389 OA
BRANCH  10  11
HETATM   11  C   UNK N   1      25.201  16.342   3.448  0.00  0.00     0.171 C 
BRANCH  11  12
HETATM   12  C   UNK N   1      24.824  17.281   4.580  0.00  0.00     0.001 C 
HETATM   13  C   UNK N   1      24.304  18.575   3.987  0.00  0.00     0.011 C 
HETATM   14  C   UNK N   1      23.739  16.663   5.441  0.00  0.00     0.011 C 
ENDBRANCH  11  12
ENDBRANCH  10  11
ENDBRANCH   9  10
ENDBRANCH   3   9
ENDBRANCH   2   3
ENDBRANCH   1   2
BRANCH   1  15
HETATM   15  C   UNK N   1      29.700  16.842   6.484  0.00  0.00     0.161 C 
BRANCH  15  16
HETATM   16  C   UNK N   1      31.129  17.213   6.821  0.00  0.00    -0.040 A 
HETATM   17  C   UNK N   1      32.072  17.109   5.791  0.00  0.00     0.009 A 
HETATM   18  C   UNK N   1      33.413  17.431   6.016  0.00  0.00     0.001 A 
HETATM   19  C   UNK N   1      33.824  17.867   7.277  0.00  0.00     0.000 A 
HETATM   20  C   UNK N   1      32.894  17.970   8.314  0.00  0.00     0.001 A 
HETATM   21  C   UNK N   1      31.556  17.636   8.088  0.00  0.00     0.009 A 
ENDBRANCH  15  16
ENDBRANCH   1  15
BRANCH   1  22
HETATM   22  C   UNK N   1      28.290  18.664   5.555  0.00  0.00     0.030 A 
HETATM   23  C   UNK N   1      27.918  19.482   4.476  0.00  0.00     0.029 A 
HETATM   24  C   UNK N   1      27.220  20.675   4.691  0.00  0.00     0.002 A 
HETATM   25  C   UNK N   1      26.895  21.070   5.991  0.00  0.00     0.000 A 
HETATM   26  C   UNK N   1      27.267  20.273   7.075  0.00  0.00     0.002 A 
HETATM   27  C   UNK N   1      27.957  19.078   6.859  0.00  0.00     0.029 A 
ENDBRANCH   1  22
TORSDOF 10
ENDMDL
MODEL 9
REMARK VINA RESULT:      -5.8     15.111     16.652
REMARK  10 active torsions:
REMARK  status: ('A' for Active; 'I' for Inactive)
REMARK    1  A    between atoms: O_1  and  C_10 
REMARK    2  A    between atoms: O_1  and  C_13 
REMARK    3  A    between atoms: N_2  and  C_4 
REMARK    4  A    between atoms: N_3  and  C_9 
REMARK    5  A    between atoms: N_3  and  C_11 
REMARK    6  A    between atoms: N_3  and  C_12 
REMARK    7  A    between atoms: C_4  and  C_9 
REMARK    8  A    between atoms: C_4  and  C_10 
REMARK    9  A    between atoms: C_11  and  C_15 
REMARK   10  A    between atoms: C_13  and  C_14 
ROOT
HETATM    1  N   UNK N   1      20.734  15.902   7.542  0.00  0.00    -0.374 N 
ENDROOT
BRANCH   1   2
HETATM    2  C   UNK N   1      21.680  16.427   6.570  0.00  0.00     0.161 C 
BRANCH   2   3
HETATM    3  C   UNK N   1      20.999  17.287   5.500  0.00  0.00     0.264 C 
BRANCH   3   4
HETATM    4  N   UNK N   1      20.567  16.459   4.359  0.00  0.00     0.096 N 
HETATM    5  C   UNK N   1      20.222  17.275   3.208  0.00  0.00     0.273 C 
HETATM    6  C   UNK N   1      20.373  16.382   1.998  0.00  0.00     0.032 C 
HETATM    7  C   UNK N   1      21.387  15.335   2.408  0.00  0.00     0.032 C 
HETATM    8  C   UNK N   1      21.586  15.521   3.901  0.00  0.00     0.273 C 
ENDBRANCH   3   4
BRANCH   3   9
HETATM    9  C   UNK N   1      21.790  18.561   5.131  0.00  0.00     0.205 C 
BRANCH   9  10
HETATM   10  O   UNK N   1      23.174  18.377   5.223  0.00  0.00    -0.389 OA
BRANCH  10  11
HETATM   11  C   UNK N   1      23.677  18.694   3.960  0.00  0.00     0.171 C 
BRANCH  11  12
HETATM   12  C   UNK N   1      24.603  19.895   4.036  0.00  0.00     0.001 C 
HETATM   13  C   UNK N   1      25.903  19.468   4.686  0.00  0.00     0.011 C 
HETATM   14  C   UNK N   1      24.898  20.423   2.645  0.00  0.00     0.011 C 
ENDBRANCH  11  12
ENDBRANCH  10  11
ENDBRANCH   9  10
ENDBRANCH   3   9
ENDBRANCH   2   3
ENDBRANCH   1   2
BRANCH   1  15
HETATM   15  C   UNK N   1      19.363  16.405   7.670  0.00  0.00     0.161 C 
BRANCH  15  16
HETATM   16  C   UNK N   1      18.979  17.376   8.766  0.00  0.00    -0.040 A 
HETATM   17  C   UNK N   1      17.735  17.181   9.380  0.00  0.00     0.009 A 
HETATM   18  C   UNK N   1      17.301  18.032  10.400  0.00  0.00     0.001 A 
HETATM   19  C   UNK N   1      18.114  19.086  10.822  0.00  0.00     0.000 A 
HETATM   20  C   UNK N   1      19.355  19.294  10.214  0.00  0.00     0.001 A 
HETATM   21  C   UNK N   1      19.780  18.448   9.186  0.00  0.00     0.009 A 
ENDBRANCH  15  16
ENDBRANCH   1  15
BRANCH   1  22
HETATM   22  C   UNK N   1      21.129  14.809   8.383  0.00  0.00     0.030 A 
HETATM   23  C   UNK N   1      22.334  14.124   8.159  0.00  0.00     0.029 A 
HETATM   24  C   UNK N   1      22.715  13.060   8.981  0.00  0.00     0.002 A 
HETATM   25  C   UNK N   1      21.889  12.660  10.034  0.00  0.00     0.000 A 
HETATM   26  C   UNK N   1      20.683  13.325  10.265  0.00  0.00     0.002 A 
HETATM   27  C   UNK N   1      20.307  14.393   9.447  0.00  0.00     0.029 A 
ENDBRANCH   1  22
TORSDOF 10
ENDMDL
