MODEL 1
REMARK VINA RESULT:      -6.6      0.000      0.000
REMARK  12 active torsions:
REMARK  status: ('A' for Active; 'I' for Inactive)
REMARK    1  A    between atoms: C_9  and  O_2 
REMARK    2  A    between atoms: O_2  and  C_23 
REMARK    3  A    between atoms: O_4  and  C_28 
REMARK    4  A    between atoms: N_5  and  C_17 
REMARK    5  A    between atoms: N_5  and  C_25 
REMARK    6  A    between atoms: C_9  and  C_13 
REMARK    7  A    between atoms: C_10  and  C_12 
REMARK    8  A    between atoms: C_13  and  C_17 
REMARK    9  A    between atoms: C_23  and  C_28 
REMARK   10  A    between atoms: C_25  and  C_27 
REMARK   11  A    between atoms: C_27  and  C_29 
REMARK   12  A    between atoms: C_29  and  C_30 
ROOT
HETATM    1  F   UNK N   1      22.550  11.369  11.428  0.00  0.00    -0.206 F 
HETATM    2  C   UNK N   1      21.241  14.927   6.247  0.00  0.00     0.081 C 
HETATM    3  C   UNK N   1      22.446  13.956   6.398  0.00  0.00     0.058 C 
HETATM    4  C   UNK N   1      21.295  15.922   7.410  0.00  0.00     0.044 C 
HETATM    5  C   UNK N   1      22.490  13.303   7.754  0.00  0.00    -0.044 A 
HETATM    6  C   UNK N   1      21.099  15.199   8.756  0.00  0.00     0.042 C 
HETATM    7  C   UNK N   1      21.830  13.881   8.862  0.00  0.00    -0.048 A 
HETATM    8  C   UNK N   1      23.179  12.095   7.907  0.00  0.00     0.011 A 
HETATM    9  C   UNK N   1      21.851  13.219  10.094  0.00  0.00     0.049 A 
HETATM   10  C   UNK N   1      23.205  11.451   9.143  0.00  0.00     0.043 A 
HETATM   11  C   UNK N   1      22.535  12.006  10.233  0.00  0.00     0.117 A 
ENDROOT
BRANCH   2  12
HETATM   12  O   UNK N   1      20.046  14.212   6.334  0.00  0.00    -0.308 OA
BRANCH  12  13
HETATM   13  C   UNK N   1      19.426  13.617   5.273  0.00  0.00     0.283 C 
HETATM   14  O   UNK N   1      18.409  14.116   4.824  0.00  0.00    -0.263 OA
BRANCH  13  15
HETATM   15  C   UNK N   1      19.980  12.392   4.614  0.00  0.00     0.277 C 
BRANCH  15  16
HETATM   16  O   UNK N   1      20.142  11.365   5.550  0.00  0.00    -0.386 OA
HETATM   17  C   UNK N   1      19.405  10.299   5.027  0.00  0.00     0.202 C 
ENDBRANCH  15  16
ENDBRANCH  13  15
ENDBRANCH  12  13
ENDBRANCH   2  12
BRANCH   2  18
HETATM   18  C   UNK N   1      21.348  15.651   4.905  0.00  0.00     0.069 C 
BRANCH  18  19
HETATM   19  C   UNK N   1      20.719  17.036   5.006  0.00  0.00     0.275 C 
BRANCH  19  20
HETATM   20  N   UNK N   1      21.710  18.052   4.733  0.00  0.00     0.084 N 
HETATM   21  C   UNK N   1      22.781  17.416   3.986  0.00  0.00     0.309 C 
BRANCH  20  22
HETATM   22  C   UNK N   1      21.078  19.033   3.860  0.00  0.00     0.272 C 
BRANCH  22  23
HETATM   23  C   UNK N   1      19.968  18.384   3.011  0.00  0.00     0.038 C 
BRANCH  23  24
HETATM   24  C   UNK N   1      20.257  18.437   1.507  0.00  0.00     0.078 C 
BRANCH  24  25
HETATM   25  C   UNK N   1      20.067  17.070   0.980  0.00  0.00     0.082 A 
HETATM   26  N   UNK N   1      18.919  16.671   0.386  0.00  0.00    -0.344 N 
HETATM   27  C   UNK N   1      19.017  15.336   0.370  0.00  0.00     0.060 A 
HETATM   28  H   UNK N   1      18.185  17.232   0.046  0.00  0.00     0.167 HD
HETATM   29  C   UNK N   1      20.185  14.959   0.955  0.00  0.00     0.060 A 
HETATM   30  C   UNK N   1      18.081  14.421  -0.086  0.00  0.00     0.032 A 
HETATM   31  N   UNK N   1      20.866  16.034   1.350  0.00  0.00    -0.344 N 
HETATM   32  C   UNK N   1      20.517  13.621   1.144  0.00  0.00     0.032 A 
ATOM     33  HN  UNK N   1      21.771  16.072   1.819  1.00  0.00     0.167 HD
HETATM   34  C   UNK N   1      19.594  12.657   0.696  0.00  0.00     0.002 A 
HETATM   35  C   UNK N   1      18.383  13.055   0.081  0.00  0.00     0.002 A 
ENDBRANCH  24  25
ENDBRANCH  23  24
ENDBRANCH  22  23
ENDBRANCH  20  22
ENDBRANCH  19  20
ENDBRANCH  18  19
ENDBRANCH   2  18
BRANCH   3  36
HETATM   36  C   UNK N   1      23.812  14.548   5.959  0.00  0.00    -0.011 C 
HETATM   37  C   UNK N   1      24.778  14.799   7.103  0.00  0.00     0.010 C 
HETATM   38  C   UNK N   1      24.478  13.743   4.861  0.00  0.00     0.010 C 
ENDBRANCH   3  36
TORSDOF 12
ENDMDL
MODEL 2
REMARK VINA RESULT:      -6.6      3.431      6.534
REMARK  12 active torsions:
REMARK  status: ('A' for Active; 'I' for Inactive)
REMARK    1  A    between atoms: C_9  and  O_2 
REMARK    2  A    between atoms: O_2  and  C_23 
REMARK    3  A    between atoms: O_4  and  C_28 
REMARK    4  A    between atoms: N_5  and  C_17 
REMARK    5  A    between atoms: N_5  and  C_25 
REMARK    6  A    between atoms: C_9  and  C_13 
REMARK    7  A    between atoms: C_10  and  C_12 
REMARK    8  A    between atoms: C_13  and  C_17 
REMARK    9  A    between atoms: C_23  and  C_28 
REMARK   10  A    between atoms: C_25  and  C_27 
REMARK   11  A    between atoms: C_27  and  C_29 
REMARK   12  A    between atoms: C_29  and  C_30 
ROOT
HETATM    1  F   UNK N   1      24.007  12.037  12.383  0.00  0.00    -0.206 F 
HETATM    2  C   UNK N   1      23.387  13.946   6.285  0.00  0.00     0.081 C 
HETATM    3  C   UNK N   1      22.488  12.900   7.002  0.00  0.00     0.058 C 
HETATM    4  C   UNK N   1      24.840  13.476   6.409  0.00  0.00     0.044 C 
HETATM    5  C   UNK N   1      22.924  12.645   8.421  0.00  0.00    -0.044 A 
HETATM    6  C   UNK N   1      25.285  13.465   7.884  0.00  0.00     0.042 C 
HETATM    7  C   UNK N   1      24.241  12.938   8.841  0.00  0.00    -0.048 A 
HETATM    8  C   UNK N   1      22.000  12.131   9.337  0.00  0.00     0.011 A 
HETATM    9  C   UNK N   1      24.595  12.735  10.179  0.00  0.00     0.049 A 
HETATM   10  C   UNK N   1      22.367  11.919  10.664  0.00  0.00     0.043 A 
HETATM   11  C   UNK N   1      23.659  12.229  11.088  0.00  0.00     0.117 A 
ENDROOT
BRANCH   2  12
HETATM   12  O   UNK N   1      23.269  15.183   6.919  0.00  0.00    -0.308 OA
BRANCH  12  13
HETATM   13  C   UNK N   1      22.400  16.164   6.535  0.00  0.00     0.283 C 
HETATM   14  O   UNK N   1      22.760  16.985   5.708  0.00  0.00    -0.263 OA
BRANCH  13  15
HETATM   15  C   UNK N   1      21.002  16.241   7.065  0.00  0.00     0.277 C 
BRANCH  15  16
HETATM   16  O   UNK N   1      21.014  16.363   8.458  0.00  0.00    -0.386 OA
HETATM   17  C   UNK N   1      20.162  15.349   8.903  0.00  0.00     0.202 C 
ENDBRANCH  15  16
ENDBRANCH  13  15
ENDBRANCH  12  13
ENDBRANCH   2  12
BRANCH   2  18
HETATM   18  C   UNK N   1      22.969  14.041   4.817  0.00  0.00     0.069 C 
BRANCH  18  19
HETATM   19  C   UNK N   1      24.139  13.665   3.915  0.00  0.00     0.275 C 
BRANCH  19  20
HETATM   20  N   UNK N   1      24.302  14.656   2.876  0.00  0.00     0.084 N 
HETATM   21  C   UNK N   1      22.994  15.237   2.628  0.00  0.00     0.309 C 
BRANCH  20  22
HETATM   22  C   UNK N   1      25.159  15.700   3.421  0.00  0.00     0.272 C 
BRANCH  22  23
HETATM   23  C   UNK N   1      26.410  15.902   2.546  0.00  0.00     0.038 C 
BRANCH  23  24
HETATM   24  C   UNK N   1      27.718  15.761   3.331  0.00  0.00     0.078 C 
BRANCH  24  25
HETATM   25  C   UNK N   1      27.931  17.034   4.054  0.00  0.00     0.082 A 
HETATM   26  N   UNK N   1      28.112  17.089   5.393  0.00  0.00    -0.344 N 
HETATM   27  C   UNK N   1      27.924  18.383   5.685  0.00  0.00     0.060 A 
HETATM   28  H   UNK N   1      28.331  16.352   6.008  0.00  0.00     0.167 HD
HETATM   29  C   UNK N   1      27.623  19.066   4.548  0.00  0.00     0.060 A 
HETATM   30  C   UNK N   1      27.943  18.983   6.934  0.00  0.00     0.032 A 
HETATM   31  N   UNK N   1      27.620  18.237   3.505  0.00  0.00    -0.344 N 
HETATM   32  C   UNK N   1      27.304  20.420   4.565  0.00  0.00     0.032 A 
ATOM     33  HN  UNK N   1      27.428  18.454   2.526  1.00  0.00     0.167 HD
HETATM   34  C   UNK N   1      27.311  21.070   5.813  0.00  0.00     0.002 A 
HETATM   35  C   UNK N   1      27.632  20.355   6.993  0.00  0.00     0.002 A 
ENDBRANCH  24  25
ENDBRANCH  23  24
ENDBRANCH  22  23
ENDBRANCH  20  22
ENDBRANCH  19  20
ENDBRANCH  18  19
ENDBRANCH   2  18
BRANCH   3  36
HETATM   36  C   UNK N   1      22.241  11.598   6.195  0.00  0.00    -0.011 C 
HETATM   37  C   UNK N   1      22.994  10.388   6.719  0.00  0.00     0.010 C 
HETATM   38  C   UNK N   1      20.769  11.280   6.023  0.00  0.00     0.010 C 
ENDBRANCH   3  36
TORSDOF 12
ENDMDL
MODEL 3
REMARK VINA RESULT:      -6.6      2.929      5.773
REMARK  12 active torsions:
REMARK  status: ('A' for Active; 'I' for Inactive)
REMARK    1  A    between atoms: C_9  and  O_2 
REMARK    2  A    between atoms: O_2  and  C_23 
REMARK    3  A    between atoms: O_4  and  C_28 
REMARK    4  A    between atoms: N_5  and  C_17 
REMARK    5  A    between atoms: N_5  and  C_25 
REMARK    6  A    between atoms: C_9  and  C_13 
REMARK    7  A    between atoms: C_10  and  C_12 
REMARK    8  A    between atoms: C_13  and  C_17 
REMARK    9  A    between atoms: C_23  and  C_28 
REMARK   10  A    between atoms: C_25  and  C_27 
REMARK   11  A    between atoms: C_27  and  C_29 
REMARK   12  A    between atoms: C_29  and  C_30 
ROOT
HETATM    1  F   UNK N   1      22.440  11.583  11.249  0.00  0.00    -0.206 F 
HETATM    2  C   UNK N   1      21.108  15.098   6.045  0.00  0.00     0.081 C 
HETATM    3  C   UNK N   1      22.312  14.127   6.198  0.00  0.00     0.058 C 
HETATM    4  C   UNK N   1      21.170  16.104   7.199  0.00  0.00     0.044 C 
HETATM    5  C   UNK N   1      22.363  13.486   7.559  0.00  0.00    -0.044 A 
HETATM    6  C   UNK N   1      20.980  15.393   8.553  0.00  0.00     0.042 C 
HETATM    7  C   UNK N   1      21.709  14.074   8.665  0.00  0.00    -0.048 A 
HETATM    8  C   UNK N   1      23.051  12.278   7.719  0.00  0.00     0.011 A 
HETATM    9  C   UNK N   1      21.737  13.422   9.903  0.00  0.00     0.049 A 
HETATM   10  C   UNK N   1      23.083  11.645   8.960  0.00  0.00     0.043 A 
HETATM   11  C   UNK N   1      22.419  12.210  10.049  0.00  0.00     0.117 A 
ENDROOT
BRANCH   2  12
HETATM   12  O   UNK N   1      19.912  14.386   6.145  0.00  0.00    -0.308 OA
BRANCH  12  13
HETATM   13  C   UNK N   1      18.938  14.380   5.188  0.00  0.00     0.283 C 
HETATM   14  O   UNK N   1      18.104  15.269   5.184  0.00  0.00    -0.263 OA
BRANCH  13  15
HETATM   15  C   UNK N   1      18.885  13.338   4.114  0.00  0.00     0.277 C 
BRANCH  15  16
HETATM   16  O   UNK N   1      17.745  12.541   4.263  0.00  0.00    -0.386 OA
HETATM   17  C   UNK N   1      18.065  11.350   3.608  0.00  0.00     0.202 C 
ENDBRANCH  15  16
ENDBRANCH  13  15
ENDBRANCH  12  13
ENDBRANCH   2  12
BRANCH   2  18
HETATM   18  C   UNK N   1      21.209  15.811   4.696  0.00  0.00     0.069 C 
BRANCH  18  19
HETATM   19  C   UNK N   1      21.192  17.322   4.900  0.00  0.00     0.275 C 
BRANCH  19  20
HETATM   20  N   UNK N   1      22.160  17.950   4.030  0.00  0.00     0.084 N 
HETATM   21  C   UNK N   1      21.585  19.207   3.585  0.00  0.00     0.309 C 
BRANCH  20  22
HETATM   22  C   UNK N   1      23.325  18.257   4.849  0.00  0.00     0.272 C 
BRANCH  22  23
HETATM   23  C   UNK N   1      24.630  18.038   4.060  0.00  0.00     0.038 C 
BRANCH  23  24
HETATM   24  C   UNK N   1      25.476  19.309   3.939  0.00  0.00     0.078 C 
BRANCH  24  25
HETATM   25  C   UNK N   1      26.760  19.044   4.622  0.00  0.00     0.082 A 
HETATM   26  N   UNK N   1      27.863  18.625   3.960  0.00  0.00    -0.344 N 
HETATM   27  C   UNK N   1      28.668  18.182   4.935  0.00  0.00     0.060 A 
HETATM   28  H   UNK N   1      28.034  18.643   2.992  0.00  0.00     0.167 HD
HETATM   29  C   UNK N   1      28.046  18.321   6.136  0.00  0.00     0.060 A 
HETATM   30  C   UNK N   1      29.916  17.595   4.804  0.00  0.00     0.032 A 
HETATM   31  N   UNK N   1      26.840  18.861   5.966  0.00  0.00    -0.344 N 
HETATM   32  C   UNK N   1      28.621  17.872   7.321  0.00  0.00     0.032 A 
ATOM     33  HN  UNK N   1      26.141  19.084   6.676  1.00  0.00     0.167 HD
HETATM   34  C   UNK N   1      29.890  17.268   7.234  0.00  0.00     0.002 A 
HETATM   35  C   UNK N   1      30.536  17.133   5.982  0.00  0.00     0.002 A 
ENDBRANCH  24  25
ENDBRANCH  23  24
ENDBRANCH  22  23
ENDBRANCH  20  22
ENDBRANCH  19  20
ENDBRANCH  18  19
ENDBRANCH   2  18
BRANCH   3  36
HETATM   36  C   UNK N   1      23.676  14.713   5.746  0.00  0.00    -0.011 C 
HETATM   37  C   UNK N   1      24.621  15.042   6.889  0.00  0.00     0.010 C 
HETATM   38  C   UNK N   1      24.371  13.857   4.706  0.00  0.00     0.010 C 
ENDBRANCH   3  36
TORSDOF 12
ENDMDL
MODEL 4
REMARK VINA RESULT:      -6.5     11.206     14.246
REMARK  12 active torsions:
REMARK  status: ('A' for Active; 'I' for Inactive)
REMARK    1  A    between atoms: C_9  and  O_2 
REMARK    2  A    between atoms: O_2  and  C_23 
REMARK    3  A    between atoms: O_4  and  C_28 
REMARK    4  A    between atoms: N_5  and  C_17 
REMARK    5  A    between atoms: N_5  and  C_25 
REMARK    6  A    between atoms: C_9  and  C_13 
REMARK    7  A    between atoms: C_10  and  C_12 
REMARK    8  A    between atoms: C_13  and  C_17 
REMARK    9  A    between atoms: C_23  and  C_28 
REMARK   10  A    between atoms: C_25  and  C_27 
REMARK   11  A    between atoms: C_27  and  C_29 
REMARK   12  A    between atoms: C_29  and  C_30 
ROOT
HETATM    1  F   UNK N   1      34.764  12.708  17.235  0.00  0.00    -0.206 F 
HETATM    2  C   UNK N   1      35.243  13.323  10.863  0.00  0.00     0.081 C 
HETATM    3  C   UNK N   1      34.913  12.008  11.623  0.00  0.00     0.058 C 
HETATM    4  C   UNK N   1      36.566  13.862  11.415  0.00  0.00     0.044 C 
HETATM    5  C   UNK N   1      34.917  12.193  13.117  0.00  0.00    -0.044 A 
HETATM    6  C   UNK N   1      36.421  14.249  12.899  0.00  0.00     0.042 C 
HETATM    7  C   UNK N   1      35.609  13.270  13.715  0.00  0.00    -0.048 A 
HETATM    8  C   UNK N   1      34.202  11.295  13.918  0.00  0.00     0.011 A 
HETATM    9  C   UNK N   1      35.547  13.438  15.103  0.00  0.00     0.049 A 
HETATM   10  C   UNK N   1      34.159  11.464  15.300  0.00  0.00     0.043 A 
HETATM   11  C   UNK N   1      34.822  12.539  15.892  0.00  0.00     0.117 A 
ENDROOT
BRANCH   2  12
HETATM   12  O   UNK N   1      34.247  14.270  11.103  0.00  0.00    -0.308 OA
BRANCH  12  13
HETATM   13  C   UNK N   1      33.750  15.122  10.159  0.00  0.00     0.283 C 
HETATM   14  O   UNK N   1      32.695  14.851   9.612  0.00  0.00    -0.263 OA
BRANCH  13  15
HETATM   15  C   UNK N   1      34.440  16.402   9.801  0.00  0.00     0.277 C 
BRANCH  15  16
HETATM   16  O   UNK N   1      33.599  17.210   9.029  0.00  0.00    -0.386 OA
HETATM   17  C   UNK N   1      34.470  18.032   8.310  0.00  0.00     0.202 C 
ENDBRANCH  15  16
ENDBRANCH  13  15
ENDBRANCH  12  13
ENDBRANCH   2  12
BRANCH   2  18
HETATM   18  C   UNK N   1      35.359  13.020   9.368  0.00  0.00     0.069 C 
BRANCH  18  19
HETATM   19  C   UNK N   1      36.658  13.600   8.817  0.00  0.00     0.275 C 
BRANCH  19  20
HETATM   20  N   UNK N   1      36.416  14.230   7.539  0.00  0.00     0.084 N 
HETATM   21  C   UNK N   1      37.416  13.726   6.615  0.00  0.00     0.309 C 
BRANCH  20  22
HETATM   22  C   UNK N   1      35.112  13.767   7.082  0.00  0.00     0.272 C 
BRANCH  22  23
HETATM   23  C   UNK N   1      34.383  14.866   6.284  0.00  0.00     0.038 C 
BRANCH  23  24
HETATM   24  C   UNK N   1      32.983  14.443   5.827  0.00  0.00     0.078 C 
BRANCH  24  25
HETATM   25  C   UNK N   1      32.091  15.604   6.029  0.00  0.00     0.082 A 
HETATM   26  N   UNK N   1      31.611  15.950   7.245  0.00  0.00    -0.344 N 
HETATM   27  C   UNK N   1      30.611  16.796   6.963  0.00  0.00     0.060 A 
HETATM   28  H   UNK N   1      31.924  15.651   8.129  0.00  0.00     0.167 HD
HETATM   29  C   UNK N   1      30.496  16.929   5.614  0.00  0.00     0.060 A 
HETATM   30  C   UNK N   1      29.745  17.413   7.850  0.00  0.00     0.032 A 
HETATM   31  N   UNK N   1      31.418  16.186   5.002  0.00  0.00    -0.344 N 
HETATM   32  C   UNK N   1      29.489  17.692   5.032  0.00  0.00     0.032 A 
ATOM     33  HN  UNK N   1      31.579  16.078   4.000  1.00  0.00     0.167 HD
HETATM   34  C   UNK N   1      28.585  18.336   5.897  0.00  0.00     0.002 A 
HETATM   35  C   UNK N   1      28.714  18.200   7.301  0.00  0.00     0.002 A 
ENDBRANCH  24  25
ENDBRANCH  23  24
ENDBRANCH  22  23
ENDBRANCH  20  22
ENDBRANCH  19  20
ENDBRANCH  18  19
ENDBRANCH   2  18
BRANCH   3  36
HETATM   36  C   UNK N   1      35.727  10.771  11.158  0.00  0.00    -0.011 C 
HETATM   37  C   UNK N   1      36.868  10.392  12.085  0.00  0.00     0.010 C 
HETATM   38  C   UNK N   1      34.854   9.567  10.863  0.00  0.00     0.010 C 
ENDBRANCH   3  36
TORSDOF 12
ENDMDL
MODEL 5
REMARK VINA RESULT:      -6.4      6.074      9.640
REMARK  12 active torsions:
REMARK  status: ('A' for Active; 'I' for Inactive)
REMARK    1  A    between atoms: C_9  and  O_2 
REMARK    2  A    between atoms: O_2  and  C_23 
REMARK    3  A    between atoms: O_4  and  C_28 
REMARK    4  A    between atoms: N_5  and  C_17 
REMARK    5  A    between atoms: N_5  and  C_25 
REMARK    6  A    between atoms: C_9  and  C_13 
REMARK    7  A    between atoms: C_10  and  C_12 
REMARK    8  A    between atoms: C_13  and  C_17 
REMARK    9  A    between atoms: C_23  and  C_28 
REMARK   10  A    between atoms: C_25  and  C_27 
REMARK   11  A    between atoms: C_27  and  C_29 
REMARK   12  A    between atoms: C_29  and  C_30 
ROOT
HETATM    1  F   UNK N   1      27.031  22.144   6.152  0.00  0.00    -0.206 F 
HETATM    2  C   UNK N   1      28.581  16.139   4.493  0.00  0.00     0.081 C 
HETATM    3  C   UNK N   1      27.513  17.026   3.791  0.00  0.00     0.058 C 
HETATM    4  C   UNK N   1      28.219  16.060   5.979  0.00  0.00     0.044 C 
HETATM    5  C   UNK N   1      27.361  18.371   4.451  0.00  0.00    -0.044 A 
HETATM    6  C   UNK N   1      28.313  17.450   6.637  0.00  0.00     0.042 C 
HETATM    7  C   UNK N   1      27.765  18.574   5.790  0.00  0.00    -0.048 A 
HETATM    8  C   UNK N   1      26.832  19.436   3.714  0.00  0.00     0.011 A 
HETATM    9  C   UNK N   1      27.655  19.851   6.352  0.00  0.00     0.049 A 
HETATM   10  C   UNK N   1      26.714  20.700   4.289  0.00  0.00     0.043 A 
HETATM   11  C   UNK N   1      27.133  20.910   5.603  0.00  0.00     0.117 A 
ENDROOT
BRANCH   2  12
HETATM   12  O   UNK N   1      29.838  16.734   4.376  0.00  0.00    -0.308 OA
BRANCH  12  13
HETATM   13  C   UNK N   1      31.020  16.055   4.453  0.00  0.00     0.283 C 
HETATM   14  O   UNK N   1      31.566  15.696   3.424  0.00  0.00    -0.263 OA
BRANCH  13  15
HETATM   15  C   UNK N   1      31.690  15.772   5.762  0.00  0.00     0.277 C 
BRANCH  15  16
HETATM   16  O   UNK N   1      32.788  16.621   5.942  0.00  0.00    -0.386 OA
HETATM   17  C   UNK N   1      32.645  17.101   7.247  0.00  0.00     0.202 C 
ENDBRANCH  15  16
ENDBRANCH  13  15
ENDBRANCH  12  13
ENDBRANCH   2  12
BRANCH   2  18
HETATM   18  C   UNK N   1      28.573  14.749   3.855  0.00  0.00     0.069 C 
BRANCH  18  19
HETATM   19  C   UNK N   1      28.168  13.703   4.888  0.00  0.00     0.275 C 
BRANCH  19  20
HETATM   20  N   UNK N   1      27.036  12.945   4.408  0.00  0.00     0.084 N 
HETATM   21  C   UNK N   1      27.542  11.670   3.932  0.00  0.00     0.309 C 
BRANCH  20  22
HETATM   22  C   UNK N   1      26.184  12.685   5.561  0.00  0.00     0.272 C 
BRANCH  22  23
HETATM   23  C   UNK N   1      25.050  13.723   5.657  0.00  0.00     0.038 C 
BRANCH  23  24
HETATM   24  C   UNK N   1      25.066  14.505   6.976  0.00  0.00     0.078 C 
BRANCH  24  25
HETATM   25  C   UNK N   1      24.416  13.652   7.994  0.00  0.00     0.082 A 
HETATM   26  N   UNK N   1      23.075  13.629   8.175  0.00  0.00    -0.344 N 
HETATM   27  C   UNK N   1      22.927  13.031   9.365  0.00  0.00     0.060 A 
HETATM   28  H   UNK N   1      22.375  13.971   7.575  0.00  0.00     0.167 HD
HETATM   29  C   UNK N   1      24.150  12.727   9.876  0.00  0.00     0.060 A 
HETATM   30  C   UNK N   1      21.749  12.797  10.056  0.00  0.00     0.032 A 
HETATM   31  N   UNK N   1      25.106  13.109   9.030  0.00  0.00    -0.344 N 
HETATM   32  C   UNK N   1      24.301  12.164  11.139  0.00  0.00     0.032 A 
ATOM     33  HN  UNK N   1      26.117  13.018   9.137  1.00  0.00     0.167 HD
HETATM   34  C   UNK N   1      23.130  11.909  11.877  0.00  0.00     0.002 A 
HETATM   35  C   UNK N   1      21.859  12.222  11.337  0.00  0.00     0.002 A 
ENDBRANCH  24  25
ENDBRANCH  23  24
ENDBRANCH  22  23
ENDBRANCH  20  22
ENDBRANCH  19  20
ENDBRANCH  18  19
ENDBRANCH   2  18
BRANCH   3  36
HETATM   36  C   UNK N   1      26.158  16.318   3.526  0.00  0.00    -0.011 C 
HETATM   37  C   UNK N   1      24.954  17.042   4.102  0.00  0.00     0.010 C 
HETATM   38  C   UNK N   1      25.938  15.993   2.061  0.00  0.00     0.010 C 
ENDBRANCH   3  36
TORSDOF 12
ENDMDL
MODEL 6
REMARK VINA RESULT:      -6.4      4.653      8.298
REMARK  12 active torsions:
REMARK  status: ('A' for Active; 'I' for Inactive)
REMARK    1  A    between atoms: C_9  and  O_2 
REMARK    2  A    between atoms: O_2  and  C_23 
REMARK    3  A    between atoms: O_4  and  C_28 
REMARK    4  A    between atoms: N_5  and  C_17 
REMARK    5  A    between atoms: N_5  and  C_25 
REMARK    6  A    between atoms: C_9  and  C_13 
REMARK    7  A    between atoms: C_10  and  C_12 
REMARK    8  A    between atoms: C_13  and  C_17 
REMARK    9  A    between atoms: C_23  and  C_28 
REMARK   10  A    between atoms: C_25  and  C_27 
REMARK   11  A    between atoms: C_27  and  C_29 
REMARK   12  A    between atoms: C_29  and  C_30 
ROOT
HETATM    1  F   UNK N   1      19.848  20.776   1.760  0.00  0.00    -0.206 F 
HETATM    2  C   UNK N   1      23.705  16.437   4.499  0.00  0.00     0.081 C 
HETATM    3  C   UNK N   1      22.165  16.526   4.687  0.00  0.00     0.058 C 
HETATM    4  C   UNK N   1      24.301  17.795   4.879  0.00  0.00     0.044 C 
HETATM    5  C   UNK N   1      21.561  17.685   3.938  0.00  0.00    -0.044 A 
HETATM    6  C   UNK N   1      23.813  18.894   3.916  0.00  0.00     0.042 C 
HETATM    7  C   UNK N   1      22.350  18.791   3.553  0.00  0.00    -0.048 A 
HETATM    8  C   UNK N   1      20.203  17.648   3.604  0.00  0.00     0.011 A 
HETATM    9  C   UNK N   1      21.764  19.826   2.814  0.00  0.00     0.049 A 
HETATM   10  C   UNK N   1      19.627  18.690   2.880  0.00  0.00     0.043 A 
HETATM   11  C   UNK N   1      20.408  19.774   2.477  0.00  0.00     0.117 A 
ENDROOT
BRANCH   2  12
HETATM   12  O   UNK N   1      24.003  16.185   3.159  0.00  0.00    -0.308 OA
BRANCH  12  13
HETATM   13  C   UNK N   1      25.060  15.433   2.734  0.00  0.00     0.283 C 
HETATM   14  O   UNK N   1      26.145  15.967   2.583  0.00  0.00    -0.263 OA
BRANCH  13  15
HETATM   15  C   UNK N   1      24.941  13.961   2.485  0.00  0.00     0.277 C 
BRANCH  15  16
HETATM   16  O   UNK N   1      25.133  13.678   1.129  0.00  0.00    -0.386 OA
HETATM   17  C   UNK N   1      23.853  13.386   0.650  0.00  0.00     0.202 C 
ENDBRANCH  15  16
ENDBRANCH  13  15
ENDBRANCH  12  13
ENDBRANCH   2  12
BRANCH   2  18
HETATM   18  C   UNK N   1      24.255  15.329   5.398  0.00  0.00     0.069 C 
BRANCH  18  19
HETATM   19  C   UNK N   1      25.512  15.812   6.114  0.00  0.00     0.275 C 
BRANCH  19  20
HETATM   20  N   UNK N   1      26.336  14.685   6.483  0.00  0.00     0.084 N 
HETATM   21  C   UNK N   1      25.453  13.547   6.663  0.00  0.00     0.309 C 
BRANCH  20  22
HETATM   22  C   UNK N   1      27.200  14.404   5.343  0.00  0.00     0.272 C 
BRANCH  22  23
HETATM   23  C   UNK N   1      28.645  14.858   5.618  0.00  0.00     0.038 C 
BRANCH  23  24
HETATM   24  C   UNK N   1      29.247  15.668   4.465  0.00  0.00     0.078 C 
BRANCH  24  25
HETATM   25  C   UNK N   1      28.901  17.086   4.703  0.00  0.00     0.082 A 
HETATM   26  N   UNK N   1      28.756  17.602   5.945  0.00  0.00    -0.344 N 
HETATM   27  C   UNK N   1      28.127  18.765   5.734  0.00  0.00     0.060 A 
HETATM   28  H   UNK N   1      29.047  17.213   6.801  0.00  0.00     0.167 HD
HETATM   29  C   UNK N   1      27.892  18.919   4.403  0.00  0.00     0.060 A 
HETATM   30  C   UNK N   1      27.688  19.677   6.680  0.00  0.00     0.032 A 
HETATM   31  N   UNK N   1      28.370  17.873   3.731  0.00  0.00    -0.344 N 
HETATM   32  C   UNK N   1      27.184  20.007   3.901  0.00  0.00     0.032 A 
ATOM     33  HN  UNK N   1      28.342  17.702   2.725  1.00  0.00     0.167 HD
HETATM   34  C   UNK N   1      26.718  20.958   4.828  0.00  0.00     0.002 A 
HETATM   35  C   UNK N   1      26.972  20.795   6.212  0.00  0.00     0.002 A 
ENDBRANCH  24  25
ENDBRANCH  23  24
ENDBRANCH  22  23
ENDBRANCH  20  22
ENDBRANCH  19  20
ENDBRANCH  18  19
ENDBRANCH   2  18
BRANCH   3  36
HETATM   36  C   UNK N   1      21.687  16.434   6.161  0.00  0.00    -0.011 C 
HETATM   37  C   UNK N   1      21.164  17.742   6.728  0.00  0.00     0.010 C 
HETATM   38  C   UNK N   1      20.691  15.314   6.391  0.00  0.00     0.010 C 
ENDBRANCH   3  36
TORSDOF 12
ENDMDL
MODEL 7
REMARK VINA RESULT:      -6.4      4.051      7.629
REMARK  12 active torsions:
REMARK  status: ('A' for Active; 'I' for Inactive)
REMARK    1  A    between atoms: C_9  and  O_2 
REMARK    2  A    between atoms: O_2  and  C_23 
REMARK    3  A    between atoms: O_4  and  C_28 
REMARK    4  A    between atoms: N_5  and  C_17 
REMARK    5  A    between atoms: N_5  and  C_25 
REMARK    6  A    between atoms: C_9  and  C_13 
REMARK    7  A    between atoms: C_10  and  C_12 
REMARK    8  A    between atoms: C_13  and  C_17 
REMARK    9  A    between atoms: C_23  and  C_28 
REMARK   10  A    between atoms: C_25  and  C_27 
REMARK   11  A    between atoms: C_27  and  C_29 
REMARK   12  A    between atoms: C_29  and  C_30 
ROOT
HETATM    1  F   UNK N   1      20.423  20.952   2.364  0.00  0.00    -0.206 F 
HETATM    2  C   UNK N   1      22.726  15.442   4.718  0.00  0.00     0.081 C 
HETATM    3  C   UNK N   1      21.309  15.646   4.111  0.00  0.00     0.058 C 
HETATM    4  C   UNK N   1      22.901  16.462   5.848  0.00  0.00     0.044 C 
HETATM    5  C   UNK N   1      21.066  17.070   3.687  0.00  0.00    -0.044 A 
HETATM    6  C   UNK N   1      22.872  17.899   5.295  0.00  0.00     0.042 C 
HETATM    7  C   UNK N   1      21.826  18.130   4.230  0.00  0.00    -0.048 A 
HETATM    8  C   UNK N   1      20.088  17.337   2.723  0.00  0.00     0.011 A 
HETATM    9  C   UNK N   1      21.605  19.435   3.774  0.00  0.00     0.049 A 
HETATM   10  C   UNK N   1      19.867  18.642   2.287  0.00  0.00     0.043 A 
HETATM   11  C   UNK N   1      20.630  19.689   2.803  0.00  0.00     0.117 A 
ENDROOT
BRANCH   2  12
HETATM   12  O   UNK N   1      23.696  15.692   3.747  0.00  0.00    -0.308 OA
BRANCH  12  13
HETATM   13  C   UNK N   1      24.150  14.761   2.856  0.00  0.00     0.283 C 
HETATM   14  O   UNK N   1      25.217  14.212   3.065  0.00  0.00    -0.263 OA
BRANCH  13  15
HETATM   15  C   UNK N   1      23.358  14.363   1.649  0.00  0.00     0.277 C 
BRANCH  15  16
HETATM   16  O   UNK N   1      23.589  13.019   1.335  0.00  0.00    -0.386 OA
HETATM   17  C   UNK N   1      23.687  13.000  -0.058  0.00  0.00     0.202 C 
ENDBRANCH  15  16
ENDBRANCH  13  15
ENDBRANCH  12  13
ENDBRANCH   2  12
BRANCH   2  18
HETATM   18  C   UNK N   1      22.841  14.013   5.250  0.00  0.00     0.069 C 
BRANCH  18  19
HETATM   19  C   UNK N   1      23.429  14.025   6.658  0.00  0.00     0.275 C 
BRANCH  19  20
HETATM   20  N   UNK N   1      24.190  12.819   6.887  0.00  0.00     0.084 N 
HETATM   21  C   UNK N   1      23.674  11.807   5.982  0.00  0.00     0.309 C 
BRANCH  20  22
HETATM   22  C   UNK N   1      25.564  13.107   6.497  0.00  0.00     0.272 C 
BRANCH  22  23
HETATM   23  C   UNK N   1      25.936  14.567   6.820  0.00  0.00     0.038 C 
BRANCH  23  24
HETATM   24  C   UNK N   1      27.021  15.126   5.894  0.00  0.00     0.078 C 
BRANCH  24  25
HETATM   25  C   UNK N   1      26.669  16.534   5.614  0.00  0.00     0.082 A 
HETATM   26  N   UNK N   1      26.274  16.956   4.390  0.00  0.00    -0.344 N 
HETATM   27  C   UNK N   1      26.386  18.289   4.463  0.00  0.00     0.060 A 
HETATM   28  H   UNK N   1      25.973  16.412   3.628  0.00  0.00     0.167 HD
HETATM   29  C   UNK N   1      26.853  18.639   5.692  0.00  0.00     0.060 A 
HETATM   30  C   UNK N   1      26.154  19.217   3.461  0.00  0.00     0.032 A 
HETATM   31  N   UNK N   1      27.041  17.550   6.436  0.00  0.00    -0.344 N 
HETATM   32  C   UNK N   1      27.137  19.960   6.023  0.00  0.00     0.032 A 
ATOM     33  HN  UNK N   1      27.383  17.492   7.396  1.00  0.00     0.167 HD
HETATM   34  C   UNK N   1      26.916  20.936   5.034  0.00  0.00     0.002 A 
HETATM   35  C   UNK N   1      26.423  20.566   3.759  0.00  0.00     0.002 A 
ENDBRANCH  24  25
ENDBRANCH  23  24
ENDBRANCH  22  23
ENDBRANCH  20  22
ENDBRANCH  19  20
ENDBRANCH  18  19
ENDBRANCH   2  18
BRANCH   3  36
HETATM   36  C   UNK N   1      20.152  15.054   4.959  0.00  0.00    -0.011 C 
HETATM   37  C   UNK N   1      19.409  16.077   5.799  0.00  0.00     0.010 C 
HETATM   38  C   UNK N   1      19.181  14.228   4.138  0.00  0.00     0.010 C 
ENDBRANCH   3  36
TORSDOF 12
ENDMDL
MODEL 8
REMARK VINA RESULT:      -6.3      2.214      4.711
REMARK  12 active torsions:
REMARK  status: ('A' for Active; 'I' for Inactive)
REMARK    1  A    between atoms: C_9  and  O_2 
REMARK    2  A    between atoms: O_2  and  C_23 
REMARK    3  A    between atoms: O_4  and  C_28 
REMARK    4  A    between atoms: N_5  and  C_17 
REMARK    5  A    between atoms: N_5  and  C_25 
REMARK    6  A    between atoms: C_9  and  C_13 
REMARK    7  A    between atoms: C_10  and  C_12 
REMARK    8  A    between atoms: C_13  and  C_17 
REMARK    9  A    between atoms: C_23  and  C_28 
REMARK   10  A    between atoms: C_25  and  C_27 
REMARK   11  A    between atoms: C_27  and  C_29 
REMARK   12  A    between atoms: C_29  and  C_30 
ROOT
HETATM    1  F   UNK N   1      22.260  12.029  12.417  0.00  0.00    -0.206 F 
HETATM    2  C   UNK N   1      21.342  12.908   6.125  0.00  0.00     0.081 C 
HETATM    3  C   UNK N   1      22.660  12.420   6.788  0.00  0.00     0.058 C 
HETATM    4  C   UNK N   1      20.959  14.242   6.773  0.00  0.00     0.044 C 
HETATM    5  C   UNK N   1      22.559  12.358   8.289  0.00  0.00    -0.044 A 
HETATM    6  C   UNK N   1      20.643  14.051   8.268  0.00  0.00     0.042 C 
HETATM    7  C   UNK N   1      21.586  13.112   8.984  0.00  0.00    -0.048 A 
HETATM    8  C   UNK N   1      23.429  11.523   8.998  0.00  0.00     0.011 A 
HETATM    9  C   UNK N   1      21.490  12.990  10.375  0.00  0.00     0.049 A 
HETATM   10  C   UNK N   1      23.333  11.420  10.385  0.00  0.00     0.043 A 
HETATM   11  C   UNK N   1      22.359  12.144  11.072  0.00  0.00     0.117 A 
ENDROOT
BRANCH   2  12
HETATM   12  O   UNK N   1      20.321  11.990   6.373  0.00  0.00    -0.308 OA
BRANCH  12  13
HETATM   13  C   UNK N   1      20.043  10.915   5.577  0.00  0.00     0.283 C 
HETATM   14  O   UNK N   1      19.025  10.921   4.906  0.00  0.00    -0.263 OA
BRANCH  13  15
HETATM   15  C   UNK N   1      20.970   9.744   5.470  0.00  0.00     0.277 C 
BRANCH  15  16
HETATM   16  O   UNK N   1      21.404   9.584   4.150  0.00  0.00    -0.386 OA
HETATM   17  C   UNK N   1      22.798   9.573   4.241  0.00  0.00     0.202 C 
ENDBRANCH  15  16
ENDBRANCH  13  15
ENDBRANCH  12  13
ENDBRANCH   2  12
BRANCH   2  18
HETATM   18  C   UNK N   1      21.571  13.077   4.623  0.00  0.00     0.069 C 
BRANCH  18  19
HETATM   19  C   UNK N   1      20.504  13.993   4.031  0.00  0.00     0.275 C 
BRANCH  19  20
HETATM   20  N   UNK N   1      20.964  14.543   2.776  0.00  0.00     0.084 N 
HETATM   21  C   UNK N   1      19.903  15.392   2.265  0.00  0.00     0.309 C 
BRANCH  20  22
HETATM   22  C   UNK N   1      22.107  15.393   3.084  0.00  0.00     0.272 C 
BRANCH  22  23
HETATM   23  C   UNK N   1      21.657  16.830   3.410  0.00  0.00     0.038 C 
BRANCH  23  24
HETATM   24  C   UNK N   1      22.014  17.258   4.837  0.00  0.00     0.078 C 
BRANCH  24  25
HETATM   25  C   UNK N   1      23.159  18.188   4.738  0.00  0.00     0.082 A 
HETATM   26  N   UNK N   1      23.234  19.152   3.791  0.00  0.00    -0.344 N 
HETATM   27  C   UNK N   1      24.520  19.526   3.821  0.00  0.00     0.060 A 
HETATM   28  H   UNK N   1      22.513  19.497   3.217  0.00  0.00     0.167 HD
HETATM   29  C   UNK N   1      25.186  18.788   4.749  0.00  0.00     0.060 A 
HETATM   30  C   UNK N   1      25.153  20.455   3.011  0.00  0.00     0.032 A 
HETATM   31  N   UNK N   1      24.350  17.936   5.341  0.00  0.00    -0.344 N 
HETATM   32  C   UNK N   1      26.558  18.912   4.943  0.00  0.00     0.032 A 
ATOM     33  HN  UNK N   1      24.555  17.254   6.072  1.00  0.00     0.167 HD
HETATM   34  C   UNK N   1      27.242  19.845   4.141  0.00  0.00     0.002 A 
HETATM   35  C   UNK N   1      26.542  20.615   3.181  0.00  0.00     0.002 A 
ENDBRANCH  24  25
ENDBRANCH  23  24
ENDBRANCH  22  23
ENDBRANCH  20  22
ENDBRANCH  19  20
ENDBRANCH  18  19
ENDBRANCH   2  18
BRANCH   3  36
HETATM   36  C   UNK N   1      23.940  13.142   6.290  0.00  0.00    -0.011 C 
HETATM   37  C   UNK N   1      24.480  14.186   7.252  0.00  0.00     0.010 C 
HETATM   38  C   UNK N   1      25.036  12.181   5.872  0.00  0.00     0.010 C 
ENDBRANCH   3  36
TORSDOF 12
ENDMDL
MODEL 9
REMARK VINA RESULT:      -6.3      4.062      6.591
REMARK  12 active torsions:
REMARK  status: ('A' for Active; 'I' for Inactive)
REMARK    1  A    between atoms: C_9  and  O_2 
REMARK    2  A    between atoms: O_2  and  C_23 
REMARK    3  A    between atoms: O_4  and  C_28 
REMARK    4  A    between atoms: N_5  and  C_17 
REMARK    5  A    between atoms: N_5  and  C_25 
REMARK    6  A    between atoms: C_9  and  C_13 
REMARK    7  A    between atoms: C_10  and  C_12 
REMARK    8  A    between atoms: C_13  and  C_17 
REMARK    9  A    between atoms: C_23  and  C_28 
REMARK   10  A    between atoms: C_25  and  C_27 
REMARK   11  A    between atoms: C_27  and  C_29 
REMARK   12  A    between atoms: C_29  and  C_30 
ROOT
HETATM    1  F   UNK N   1      26.556  22.032   6.611  0.00  0.00    -0.206 F 
HETATM    2  C   UNK N   1      26.219  15.993   4.458  0.00  0.00     0.081 C 
HETATM    3  C   UNK N   1      27.372  16.586   5.315  0.00  0.00     0.058 C 
HETATM    4  C   UNK N   1      26.065  16.869   3.211  0.00  0.00     0.044 C 
HETATM    5  C   UNK N   1      27.168  18.046   5.620  0.00  0.00    -0.044 A 
HETATM    6  C   UNK N   1      25.626  18.295   3.596  0.00  0.00     0.042 C 
HETATM    7  C   UNK N   1      26.321  18.845   4.820  0.00  0.00    -0.048 A 
HETATM    8  C   UNK N   1      27.813  18.608   6.728  0.00  0.00     0.011 A 
HETATM    9  C   UNK N   1      26.117  20.186   5.166  0.00  0.00     0.049 A 
HETATM   10  C   UNK N   1      27.614  19.948   7.054  0.00  0.00     0.043 A 
HETATM   11  C   UNK N   1      26.760  20.734   6.281  0.00  0.00     0.117 A 
ENDROOT
BRANCH   2  12
HETATM   12  O   UNK N   1      25.024  16.040   5.178  0.00  0.00    -0.308 OA
BRANCH  12  13
HETATM   13  C   UNK N   1      24.723  15.213   6.222  0.00  0.00     0.283 C 
HETATM   14  O   UNK N   1      25.458  15.193   7.194  0.00  0.00    -0.263 OA
BRANCH  13  15
HETATM   15  C   UNK N   1      23.493  14.359   6.231  0.00  0.00     0.277 C 
BRANCH  15  16
HETATM   16  O   UNK N   1      22.352  15.146   6.418  0.00  0.00    -0.386 OA
HETATM   17  C   UNK N   1      21.831  14.718   7.641  0.00  0.00     0.202 C 
ENDBRANCH  15  16
ENDBRANCH  13  15
ENDBRANCH  12  13
ENDBRANCH   2  12
BRANCH   2  18
HETATM   18  C   UNK N   1      26.569  14.555   4.074  0.00  0.00     0.069 C 
BRANCH  18  19
HETATM   19  C   UNK N   1      26.690  14.433   2.559  0.00  0.00     0.275 C 
BRANCH  19  20
HETATM   20  N   UNK N   1      25.872  13.342   2.083  0.00  0.00     0.084 N 
HETATM   21  C   UNK N   1      26.551  12.109   2.438  0.00  0.00     0.309 C 
BRANCH  20  22
HETATM   22  C   UNK N   1      24.623  13.395   2.831  0.00  0.00     0.272 C 
BRANCH  22  23
HETATM   23  C   UNK N   1      23.579  14.266   2.106  0.00  0.00     0.038 C 
BRANCH  23  24
HETATM   24  C   UNK N   1      22.160  14.080   2.654  0.00  0.00     0.078 C 
BRANCH  24  25
HETATM   25  C   UNK N   1      21.650  15.422   3.005  0.00  0.00     0.082 A 
HETATM   26  N   UNK N   1      20.496  15.917   2.502  0.00  0.00    -0.344 N 
HETATM   27  C   UNK N   1      20.567  17.227   2.773  0.00  0.00     0.060 A 
HETATM   28  H   UNK N   1      19.773  15.428   2.046  0.00  0.00     0.167 HD
HETATM   29  C   UNK N   1      21.742  17.497   3.403  0.00  0.00     0.060 A 
HETATM   30  C   UNK N   1      19.660  18.216   2.428  0.00  0.00     0.032 A 
HETATM   31  N   UNK N   1      22.444  16.375   3.560  0.00  0.00    -0.344 N 
HETATM   32  C   UNK N   1      22.117  18.794   3.737  0.00  0.00     0.032 A 
ATOM     33  HN  UNK N   1      23.361  16.259   3.993  1.00  0.00     0.167 HD
HETATM   34  C   UNK N   1      21.226  19.831   3.404  0.00  0.00     0.002 A 
HETATM   35  C   UNK N   1      20.001  19.543   2.755  0.00  0.00     0.002 A 
ENDBRANCH  24  25
ENDBRANCH  23  24
ENDBRANCH  22  23
ENDBRANCH  20  22
ENDBRANCH  19  20
ENDBRANCH  18  19
ENDBRANCH   2  18
BRANCH   3  36
HETATM   36  C   UNK N   1      28.798  16.264   4.791  0.00  0.00    -0.011 C 
HETATM   37  C   UNK N   1      29.527  17.456   4.197  0.00  0.00     0.010 C 
HETATM   38  C   UNK N   1      29.662  15.566   5.823  0.00  0.00     0.010 C 
ENDBRANCH   3  36
TORSDOF 12
ENDMDL
