MODEL 1
REMARK VINA RESULT:      -8.5      0.000      0.000
REMARK  4 active torsions:
REMARK  status: ('A' for Active; 'I' for Inactive)
REMARK    1  A    between atoms: O_5  and  C_27 
REMARK    2  A    between atoms: N_7  and  C_14 
REMARK    3  A    between atoms: N_9  and  C_24 
REMARK    4  A    between atoms: C_23  and  C_27 
ROOT
HETATM    1  F   UNK N   1      28.562  20.038   4.562  0.00  0.00    -0.204 F 
HETATM    2  O   UNK N   1      24.292  21.308   2.402  0.00  0.00    -0.286 OA
HETATM    3  N   UNK N   1      23.357  18.034   4.580  0.00  0.00    -0.317 N 
HETATM    4  C   UNK N   1      26.996  18.365   5.319  0.00  0.00     0.071 A 
HETATM    5  C   UNK N   1      25.682  17.894   5.292  0.00  0.00     0.063 A 
HETATM    6  C   UNK N   1      24.658  18.526   4.578  0.00  0.00     0.056 A 
HETATM    7  C   UNK N   1      27.304  19.534   4.593  0.00  0.00     0.143 A 
HETATM    8  C   UNK N   1      24.991  19.680   3.826  0.00  0.00     0.045 A 
HETATM    9  C   UNK N   1      26.308  20.173   3.848  0.00  0.00     0.062 A 
HETATM   10  C   UNK N   1      24.009  20.320   3.063  0.00  0.00     0.202 A 
HETATM   11  C   UNK N   1      22.415  18.679   3.826  0.00  0.00     0.120 A 
HETATM   12  C   UNK N   1      22.699  19.810   3.058  0.00  0.00     0.104 A 
ENDROOT
BRANCH   3  13
HETATM   13  C   UNK N   1      22.935  16.851   5.354  0.00  0.00     0.078 A 
HETATM   14  C   UNK N   1      22.011  16.945   6.438  0.00  0.00     0.146 A 
HETATM   15  F   UNK N   1      21.460  18.127   6.810  0.00  0.00    -0.204 F 
HETATM   16  C   UNK N   1      21.626  15.798   7.141  0.00  0.00     0.086 A 
HETATM   17  C   UNK N   1      22.141  14.548   6.804  0.00  0.00     0.119 A 
HETATM   18  F   UNK N   1      21.754  13.443   7.485  0.00  0.00    -0.206 F 
HETATM   19  C   UNK N   1      23.053  14.434   5.762  0.00  0.00     0.045 A 
HETATM   20  C   UNK N   1      23.440  15.569   5.054  0.00  0.00     0.036 A 
ENDBRANCH   3  13
BRANCH  12  21
HETATM   21  C   UNK N   1      21.601  20.428   2.267  0.00  0.00     0.181 C 
HETATM   22  O   UNK N   1      21.046  19.809   1.373  0.00  0.00    -0.646 OA
BRANCH  21  23
HETATM   23  O   UNK N   1      21.204  21.688   2.538  0.00  0.00    -0.772 OA
HETATM   24  H   UNK N   1      20.792  21.890   3.355  0.00  0.00     0.167 HD
ENDBRANCH  21  23
ENDBRANCH  12  21
BRANCH   4  25
HETATM   25  N   UNK N   1      27.978  17.630   6.060  0.00  0.00    -0.375 N 
HETATM   26  C   UNK N   1      28.055  17.763   7.500  0.00  0.00     0.147 C 
HETATM   27  C   UNK N   1      29.478  18.131   7.900  0.00  0.00     0.090 C 
HETATM   28  N   UNK N   1      30.419  17.156   7.344  0.00  0.00    -0.414 N 
HETATM   29  C   UNK N   1      29.576  18.121   9.412  0.00  0.00     0.033 C 
HETATM   30  C   UNK N   1      30.340  17.187   5.880  0.00  0.00     0.134 C 
HETATM   31  H   UNK N   1      31.032  16.550   7.888  0.00  0.00     0.153 HD
HETATM   32  C   UNK N   1      28.943  16.764   5.423  0.00  0.00     0.142 C 
ENDBRANCH   4  25
TORSDOF 4
ENDMDL
MODEL 2
REMARK VINA RESULT:      -7.8      1.649      2.387
REMARK  4 active torsions:
REMARK  status: ('A' for Active; 'I' for Inactive)
REMARK    1  A    between atoms: O_5  and  C_27 
REMARK    2  A    between atoms: N_7  and  C_14 
REMARK    3  A    between atoms: N_9  and  C_24 
REMARK    4  A    between atoms: C_23  and  C_27 
ROOT
HETATM    1  F   UNK N   1      28.052  20.356   3.770  0.00  0.00    -0.204 F 
HETATM    2  O   UNK N   1      23.272  21.359   2.960  0.00  0.00    -0.286 OA
HETATM    3  N   UNK N   1      23.309  17.424   3.881  0.00  0.00    -0.317 N 
HETATM    4  C   UNK N   1      26.941  18.239   4.091  0.00  0.00     0.071 A 
HETATM    5  C   UNK N   1      25.732  17.541   4.103  0.00  0.00     0.063 A 
HETATM    6  C   UNK N   1      24.496  18.148   3.852  0.00  0.00     0.056 A 
HETATM    7  C   UNK N   1      26.914  19.621   3.814  0.00  0.00     0.143 A 
HETATM    8  C   UNK N   1      24.490  19.530   3.542  0.00  0.00     0.045 A 
HETATM    9  C   UNK N   1      25.698  20.250   3.532  0.00  0.00     0.062 A 
HETATM   10  C   UNK N   1      23.282  20.170   3.241  0.00  0.00     0.202 A 
HETATM   11  C   UNK N   1      22.142  18.073   3.585  0.00  0.00     0.120 A 
HETATM   12  C   UNK N   1      22.088  19.431   3.258  0.00  0.00     0.104 A 
ENDROOT
BRANCH   3  13
HETATM   13  C   UNK N   1      23.238  15.989   4.216  0.00  0.00     0.078 A 
HETATM   14  C   UNK N   1      23.037  15.532   5.553  0.00  0.00     0.146 A 
HETATM   15  F   UNK N   1      22.890  16.393   6.590  0.00  0.00    -0.204 F 
HETATM   16  C   UNK N   1      22.964  14.161   5.830  0.00  0.00     0.086 A 
HETATM   17  C   UNK N   1      23.094  13.221   4.810  0.00  0.00     0.119 A 
HETATM   18  F   UNK N   1      23.011  11.897   5.088  0.00  0.00    -0.206 F 
HETATM   19  C   UNK N   1      23.304  13.641   3.503  0.00  0.00     0.045 A 
HETATM   20  C   UNK N   1      23.375  15.002   3.217  0.00  0.00     0.036 A 
ENDBRANCH   3  13
BRANCH  12  21
HETATM   21  C   UNK N   1      20.766  20.035   2.944  0.00  0.00     0.181 C 
HETATM   22  O   UNK N   1      19.915  19.403   2.337  0.00  0.00    -0.646 OA
BRANCH  21  23
HETATM   23  O   UNK N   1      20.493  21.296   3.334  0.00  0.00    -0.772 OA
HETATM   24  H   UNK N   1      21.175  21.939   3.372  0.00  0.00     0.167 HD
ENDBRANCH  21  23
ENDBRANCH  12  21
BRANCH   4  25
HETATM   25  N   UNK N   1      28.156  17.519   4.335  0.00  0.00    -0.375 N 
HETATM   26  C   UNK N   1      28.658  16.580   3.353  0.00  0.00     0.147 C 
HETATM   27  C   UNK N   1      28.896  15.231   4.018  0.00  0.00     0.090 C 
HETATM   28  N   UNK N   1      29.771  15.396   5.181  0.00  0.00    -0.414 N 
HETATM   29  C   UNK N   1      29.557  14.305   3.017  0.00  0.00     0.033 C 
HETATM   30  C   UNK N   1      29.116  16.271   6.159  0.00  0.00     0.134 C 
HETATM   31  H   UNK N   1      30.691  14.971   5.293  0.00  0.00     0.153 HD
HETATM   32  C   UNK N   1      28.910  17.663   5.559  0.00  0.00     0.142 C 
ENDBRANCH   4  25
TORSDOF 4
ENDMDL
MODEL 3
REMARK VINA RESULT:      -7.7     11.911     15.235
REMARK  4 active torsions:
REMARK  status: ('A' for Active; 'I' for Inactive)
REMARK    1  A    between atoms: O_5  and  C_27 
REMARK    2  A    between atoms: N_7  and  C_14 
REMARK    3  A    between atoms: N_9  and  C_24 
REMARK    4  A    between atoms: C_23  and  C_27 
ROOT
HETATM    1  F   UNK N   1      28.485  21.650  -9.242  0.00  0.00    -0.204 F 
HETATM    2  O   UNK N   1      30.484  21.252  -4.730  0.00  0.00    -0.286 OA
HETATM    3  N   UNK N   1      28.532  24.789  -4.631  0.00  0.00    -0.317 N 
HETATM    4  C   UNK N   1      27.827  23.683  -8.121  0.00  0.00     0.071 A 
HETATM    5  C   UNK N   1      27.868  24.440  -6.948  0.00  0.00     0.063 A 
HETATM    6  C   UNK N   1      28.518  24.014  -5.786  0.00  0.00     0.056 A 
HETATM    7  C   UNK N   1      28.472  22.429  -8.133  0.00  0.00     0.143 A 
HETATM    8  C   UNK N   1      29.190  22.767  -5.824  0.00  0.00     0.045 A 
HETATM    9  C   UNK N   1      29.153  21.988  -6.995  0.00  0.00     0.062 A 
HETATM   10  C   UNK N   1      29.891  22.320  -4.699  0.00  0.00     0.202 A 
HETATM   11  C   UNK N   1      29.223  24.329  -3.544  0.00  0.00     0.120 A 
HETATM   12  C   UNK N   1      29.913  23.114  -3.540  0.00  0.00     0.104 A 
ENDROOT
BRANCH   3  13
HETATM   13  C   UNK N   1      27.838  26.086  -4.513  0.00  0.00     0.078 A 
HETATM   14  C   UNK N   1      26.447  26.176  -4.206  0.00  0.00     0.146 A 
HETATM   15  F   UNK N   1      25.687  25.073  -3.995  0.00  0.00    -0.204 F 
HETATM   16  C   UNK N   1      25.826  27.425  -4.091  0.00  0.00     0.086 A 
HETATM   17  C   UNK N   1      26.550  28.601  -4.282  0.00  0.00     0.119 A 
HETATM   18  F   UNK N   1      25.942  29.805  -4.158  0.00  0.00    -0.206 F 
HETATM   19  C   UNK N   1      27.902  28.538  -4.595  0.00  0.00     0.045 A 
HETATM   20  C   UNK N   1      28.529  27.300  -4.709  0.00  0.00     0.036 A 
ENDBRANCH   3  13
BRANCH  12  21
HETATM   21  C   UNK N   1      30.640  22.713  -2.306  0.00  0.00     0.181 C 
HETATM   22  O   UNK N   1      30.225  23.027  -1.201  0.00  0.00    -0.646 OA
BRANCH  21  23
HETATM   23  O   UNK N   1      31.773  21.988  -2.399  0.00  0.00    -0.772 OA
HETATM   24  H   UNK N   1      32.457  22.251  -2.984  0.00  0.00     0.167 HD
ENDBRANCH  21  23
ENDBRANCH  12  21
BRANCH   4  25
HETATM   25  N   UNK N   1      27.156  24.222  -9.267  0.00  0.00    -0.375 N 
HETATM   26  C   UNK N   1      27.851  25.121 -10.165  0.00  0.00     0.147 C 
HETATM   27  C   UNK N   1      27.039  26.399 -10.330  0.00  0.00     0.090 C 
HETATM   28  N   UNK N   1      25.677  26.072 -10.758  0.00  0.00    -0.414 N 
HETATM   29  C   UNK N   1      27.704  27.264 -11.382  0.00  0.00     0.033 C 
HETATM   30  C   UNK N   1      25.029  25.257  -9.726  0.00  0.00     0.134 C 
HETATM   31  H   UNK N   1      25.248  26.364 -11.635  0.00  0.00     0.153 HD
HETATM   32  C   UNK N   1      25.772  23.930  -9.564  0.00  0.00     0.142 C 
ENDBRANCH   4  25
TORSDOF 4
ENDMDL
MODEL 4
REMARK VINA RESULT:      -7.7      6.330      9.215
REMARK  4 active torsions:
REMARK  status: ('A' for Active; 'I' for Inactive)
REMARK    1  A    between atoms: O_5  and  C_27 
REMARK    2  A    between atoms: N_7  and  C_14 
REMARK    3  A    between atoms: N_9  and  C_24 
REMARK    4  A    between atoms: C_23  and  C_27 
ROOT
HETATM    1  F   UNK N   1      30.025  16.414   2.380  0.00  0.00    -0.204 F 
HETATM    2  O   UNK N   1      28.320  18.318   6.620  0.00  0.00    -0.286 OA
HETATM    3  N   UNK N   1      31.575  16.197   7.734  0.00  0.00    -0.317 N 
HETATM    4  C   UNK N   1      31.540  15.572   4.058  0.00  0.00     0.071 A 
HETATM    5  C   UNK N   1      31.891  15.540   5.409  0.00  0.00     0.063 A 
HETATM    6  C   UNK N   1      31.193  16.244   6.397  0.00  0.00     0.056 A 
HETATM    7  C   UNK N   1      30.430  16.351   3.672  0.00  0.00     0.143 A 
HETATM    8  C   UNK N   1      30.060  16.995   5.997  0.00  0.00     0.045 A 
HETATM    9  C   UNK N   1      29.697  17.044   4.639  0.00  0.00     0.062 A 
HETATM   10  C   UNK N   1      29.306  17.680   6.957  0.00  0.00     0.202 A 
HETATM   11  C   UNK N   1      30.822  16.876   8.652  0.00  0.00     0.120 A 
HETATM   12  C   UNK N   1      29.689  17.618   8.307  0.00  0.00     0.104 A 
ENDROOT
BRANCH   3  13
HETATM   13  C   UNK N   1      32.754  15.453   8.217  0.00  0.00     0.078 A 
HETATM   14  C   UNK N   1      34.064  16.018   8.204  0.00  0.00     0.146 A 
HETATM   15  F   UNK N   1      34.298  17.276   7.754  0.00  0.00    -0.204 F 
HETATM   16  C   UNK N   1      35.157  15.285   8.682  0.00  0.00     0.086 A 
HETATM   17  C   UNK N   1      34.987  13.992   9.172  0.00  0.00     0.119 A 
HETATM   18  F   UNK N   1      36.050  13.295   9.643  0.00  0.00    -0.206 F 
HETATM   19  C   UNK N   1      33.724  13.416   9.183  0.00  0.00     0.045 A 
HETATM   20  C   UNK N   1      32.630  14.138   8.712  0.00  0.00     0.036 A 
ENDBRANCH   3  13
BRANCH  12  21
HETATM   21  C   UNK N   1      28.937  18.311   9.387  0.00  0.00     0.181 C 
HETATM   22  O   UNK N   1      29.523  18.906  10.278  0.00  0.00    -0.646 OA
BRANCH  21  23
HETATM   23  O   UNK N   1      27.589  18.290   9.387  0.00  0.00    -0.772 OA
HETATM   24  H   UNK N   1      27.112  18.462  10.176  0.00  0.00     0.167 HD
ENDBRANCH  21  23
ENDBRANCH  12  21
BRANCH   4  25
HETATM   25  N   UNK N   1      32.304  14.794   3.128  0.00  0.00    -0.375 N 
HETATM   26  C   UNK N   1      31.762  13.564   2.587  0.00  0.00     0.147 C 
HETATM   27  C   UNK N   1      32.753  12.430   2.819  0.00  0.00     0.090 C 
HETATM   28  N   UNK N   1      34.062  12.793   2.271  0.00  0.00    -0.414 N 
HETATM   29  C   UNK N   1      32.240  11.187   2.121  0.00  0.00     0.033 C 
HETATM   30  C   UNK N   1      34.566  13.980   2.967  0.00  0.00     0.134 C 
HETATM   31  H   UNK N   1      34.546  12.297   1.523  0.00  0.00     0.153 HD
HETATM   32  C   UNK N   1      33.637  15.168   2.714  0.00  0.00     0.142 C 
ENDBRANCH   4  25
TORSDOF 4
ENDMDL
MODEL 5
REMARK VINA RESULT:      -7.7      2.795      6.019
REMARK  4 active torsions:
REMARK  status: ('A' for Active; 'I' for Inactive)
REMARK    1  A    between atoms: O_5  and  C_27 
REMARK    2  A    between atoms: N_7  and  C_14 
REMARK    3  A    between atoms: N_9  and  C_24 
REMARK    4  A    between atoms: C_23  and  C_27 
ROOT
HETATM    1  F   UNK N   1      19.454  15.488   6.029  0.00  0.00    -0.204 F 
HETATM    2  O   UNK N   1      19.320  18.970   2.512  0.00  0.00    -0.286 OA
HETATM    3  N   UNK N   1      23.180  18.932   3.711  0.00  0.00    -0.317 N 
HETATM    4  C   UNK N   1      21.717  16.319   5.933  0.00  0.00     0.071 A 
HETATM    5  C   UNK N   1      22.616  17.200   5.330  0.00  0.00     0.063 A 
HETATM    6  C   UNK N   1      22.256  18.072   4.296  0.00  0.00     0.056 A 
HETATM    7  C   UNK N   1      20.383  16.306   5.477  0.00  0.00     0.143 A 
HETATM    8  C   UNK N   1      20.903  18.071   3.873  0.00  0.00     0.045 A 
HETATM    9  C   UNK N   1      19.986  17.185   4.465  0.00  0.00     0.062 A 
HETATM   10  C   UNK N   1      20.487  18.957   2.872  0.00  0.00     0.202 A 
HETATM   11  C   UNK N   1      22.748  19.786   2.734  0.00  0.00     0.120 A 
HETATM   12  C   UNK N   1      21.423  19.832   2.295  0.00  0.00     0.104 A 
ENDROOT
BRANCH   3  13
HETATM   13  C   UNK N   1      24.606  18.971   4.087  0.00  0.00     0.078 A 
HETATM   14  C   UNK N   1      25.516  17.936   3.718  0.00  0.00     0.146 A 
HETATM   15  F   UNK N   1      25.122  16.861   2.991  0.00  0.00    -0.204 F 
HETATM   16  C   UNK N   1      26.865  18.015   4.083  0.00  0.00     0.086 A 
HETATM   17  C   UNK N   1      27.342  19.098   4.818  0.00  0.00     0.119 A 
HETATM   18  F   UNK N   1      28.652  19.170   5.157  0.00  0.00    -0.206 F 
HETATM   19  C   UNK N   1      26.472  20.111   5.201  0.00  0.00     0.045 A 
HETATM   20  C   UNK N   1      25.129  20.043   4.840  0.00  0.00     0.036 A 
ENDBRANCH   3  13
BRANCH  12  21
HETATM   21  C   UNK N   1      21.059  20.807   1.232  0.00  0.00     0.181 C 
HETATM   22  O   UNK N   1      21.084  20.490   0.053  0.00  0.00    -0.646 OA
BRANCH  21  23
HETATM   23  O   UNK N   1      20.690  22.059   1.567  0.00  0.00    -0.772 OA
HETATM   24  H   UNK N   1      20.438  22.673   0.905  0.00  0.00     0.167 HD
ENDBRANCH  21  23
ENDBRANCH  12  21
BRANCH   4  25
HETATM   25  N   UNK N   1      22.180  15.485   7.002  0.00  0.00    -0.375 N 
HETATM   26  C   UNK N   1      23.417  14.743   6.866  0.00  0.00     0.147 C 
HETATM   27  C   UNK N   1      23.160  13.271   7.159  0.00  0.00     0.090 C 
HETATM   28  N   UNK N   1      22.525  13.129   8.472  0.00  0.00    -0.414 N 
HETATM   29  C   UNK N   1      24.485  12.536   7.157  0.00  0.00     0.033 C 
HETATM   30  C   UNK N   1      21.232  13.818   8.461  0.00  0.00     0.134 C 
HETATM   31  H   UNK N   1      22.921  12.629   9.268  0.00  0.00     0.153 HD
HETATM   32  C   UNK N   1      21.440  15.316   8.231  0.00  0.00     0.142 C 
ENDBRANCH   4  25
TORSDOF 4
ENDMDL
MODEL 6
REMARK VINA RESULT:      -7.7     11.930     15.050
REMARK  4 active torsions:
REMARK  status: ('A' for Active; 'I' for Inactive)
REMARK    1  A    between atoms: O_5  and  C_27 
REMARK    2  A    between atoms: N_7  and  C_14 
REMARK    3  A    between atoms: N_9  and  C_24 
REMARK    4  A    between atoms: C_23  and  C_27 
ROOT
HETATM    1  F   UNK N   1      29.640  19.436  -8.932  0.00  0.00    -0.204 F 
HETATM    2  O   UNK N   1      31.287  20.565  -4.402  0.00  0.00    -0.286 OA
HETATM    3  N   UNK N   1      28.510  23.398  -5.172  0.00  0.00    -0.317 N 
HETATM    4  C   UNK N   1      28.401  21.417  -8.329  0.00  0.00     0.071 A 
HETATM    5  C   UNK N   1      28.152  22.393  -7.362  0.00  0.00     0.063 A 
HETATM    6  C   UNK N   1      28.788  22.415  -6.117  0.00  0.00     0.056 A 
HETATM    7  C   UNK N   1      29.338  20.405  -8.034  0.00  0.00     0.143 A 
HETATM    8  C   UNK N   1      29.752  21.412  -5.849  0.00  0.00     0.045 A 
HETATM    9  C   UNK N   1      30.010  20.416  -6.808  0.00  0.00     0.062 A 
HETATM   10  C   UNK N   1      30.445  21.420  -4.633  0.00  0.00     0.202 A 
HETATM   11  C   UNK N   1      29.200  23.383  -3.991  0.00  0.00     0.120 A 
HETATM   12  C   UNK N   1      30.169  22.423  -3.689  0.00  0.00     0.104 A 
ENDROOT
BRANCH   3  13
HETATM   13  C   UNK N   1      27.505  24.460  -5.375  0.00  0.00     0.078 A 
HETATM   14  C   UNK N   1      27.842  25.723  -5.948  0.00  0.00     0.146 A 
HETATM   15  F   UNK N   1      29.104  26.014  -6.348  0.00  0.00    -0.204 F 
HETATM   16  C   UNK N   1      26.858  26.701  -6.135  0.00  0.00     0.086 A 
HETATM   17  C   UNK N   1      25.537  26.464  -5.759  0.00  0.00     0.119 A 
HETATM   18  F   UNK N   1      24.591  27.414  -5.955  0.00  0.00    -0.206 F 
HETATM   19  C   UNK N   1      25.189  25.248  -5.187  0.00  0.00     0.045 A 
HETATM   20  C   UNK N   1      26.159  24.267  -5.000  0.00  0.00     0.036 A 
ENDBRANCH   3  13
BRANCH  12  21
HETATM   21  C   UNK N   1      30.867  22.505  -2.378  0.00  0.00     0.181 C 
HETATM   22  O   UNK N   1      30.409  23.172  -1.463  0.00  0.00    -0.646 OA
BRANCH  21  23
HETATM   23  O   UNK N   1      32.020  21.833  -2.188  0.00  0.00    -0.772 OA
HETATM   24  H   UNK N   1      32.170  21.016  -2.622  0.00  0.00     0.167 HD
ENDBRANCH  21  23
ENDBRANCH  12  21
BRANCH   4  25
HETATM   25  N   UNK N   1      27.715  21.498  -9.584  0.00  0.00    -0.375 N 
HETATM   26  C   UNK N   1      28.464  21.516 -10.825  0.00  0.00     0.147 C 
HETATM   27  C   UNK N   1      28.045  22.724 -11.651  0.00  0.00     0.090 C 
HETATM   28  N   UNK N   1      26.592  22.722 -11.836  0.00  0.00    -0.414 N 
HETATM   29  C   UNK N   1      28.726  22.648 -13.003  0.00  0.00     0.033 C 
HETATM   30  C   UNK N   1      25.938  22.823 -10.528  0.00  0.00     0.134 C 
HETATM   31  H   UNK N   1      26.111  22.660 -12.733  0.00  0.00     0.153 HD
HETATM   32  C   UNK N   1      26.277  21.597  -9.678  0.00  0.00     0.142 C 
ENDBRANCH   4  25
TORSDOF 4
ENDMDL
MODEL 7
REMARK VINA RESULT:      -7.7     11.234     13.878
REMARK  4 active torsions:
REMARK  status: ('A' for Active; 'I' for Inactive)
REMARK    1  A    between atoms: O_5  and  C_27 
REMARK    2  A    between atoms: N_7  and  C_14 
REMARK    3  A    between atoms: N_9  and  C_24 
REMARK    4  A    between atoms: C_23  and  C_27 
ROOT
HETATM    1  F   UNK N   1      25.619  23.509  -9.582  0.00  0.00    -0.204 F 
HETATM    2  O   UNK N   1      24.825  26.760  -5.933  0.00  0.00    -0.286 OA
HETATM    3  N   UNK N   1      28.065  24.679  -4.707  0.00  0.00    -0.317 N 
HETATM    4  C   UNK N   1      27.341  23.017  -7.965  0.00  0.00     0.071 A 
HETATM    5  C   UNK N   1      27.921  23.339  -6.737  0.00  0.00     0.063 A 
HETATM    6  C   UNK N   1      27.459  24.379  -5.923  0.00  0.00     0.056 A 
HETATM    7  C   UNK N   1      26.240  23.778  -8.407  0.00  0.00     0.143 A 
HETATM    8  C   UNK N   1      26.329  25.112  -6.365  0.00  0.00     0.045 A 
HETATM    9  C   UNK N   1      25.738  24.806  -7.604  0.00  0.00     0.062 A 
HETATM   10  C   UNK N   1      25.806  26.133  -5.564  0.00  0.00     0.202 A 
HETATM   11  C   UNK N   1      27.535  25.683  -3.944  0.00  0.00     0.120 A 
HETATM   12  C   UNK N   1      26.415  26.422  -4.331  0.00  0.00     0.104 A 
ENDROOT
BRANCH   3  13
HETATM   13  C   UNK N   1      29.254  23.972  -4.195  0.00  0.00     0.078 A 
HETATM   14  C   UNK N   1      29.220  23.203  -2.994  0.00  0.00     0.146 A 
HETATM   15  F   UNK N   1      28.087  23.069  -2.260  0.00  0.00    -0.204 F 
HETATM   16  C   UNK N   1      30.367  22.536  -2.546  0.00  0.00     0.086 A 
HETATM   17  C   UNK N   1      31.562  22.618  -3.258  0.00  0.00     0.119 A 
HETATM   18  F   UNK N   1      32.663  21.960  -2.821  0.00  0.00    -0.206 F 
HETATM   19  C   UNK N   1      31.623  23.372  -4.422  0.00  0.00     0.045 A 
HETATM   20  C   UNK N   1      30.487  24.036  -4.877  0.00  0.00     0.036 A 
ENDBRANCH   3  13
BRANCH  12  21
HETATM   21  C   UNK N   1      25.915  27.486  -3.420  0.00  0.00     0.181 C 
HETATM   22  O   UNK N   1      25.822  27.291  -2.218  0.00  0.00    -0.646 OA
BRANCH  21  23
HETATM   23  O   UNK N   1      25.561  28.687  -3.919  0.00  0.00    -0.772 OA
HETATM   24  H   UNK N   1      25.575  29.450  -3.374  0.00  0.00     0.167 HD
ENDBRANCH  21  23
ENDBRANCH  12  21
BRANCH   4  25
HETATM   25  N   UNK N   1      27.873  21.915  -8.712  0.00  0.00    -0.375 N 
HETATM   26  C   UNK N   1      27.875  20.582  -8.144  0.00  0.00     0.147 C 
HETATM   27  C   UNK N   1      29.285  20.010  -8.200  0.00  0.00     0.090 C 
HETATM   28  N   UNK N   1      29.793  20.070  -9.573  0.00  0.00    -0.414 N 
HETATM   29  C   UNK N   1      29.243  18.566  -7.741  0.00  0.00     0.033 C 
HETATM   30  C   UNK N   1      29.858  21.469 -10.004  0.00  0.00     0.134 C 
HETATM   31  H   UNK N   1      30.059  19.265 -10.140  0.00  0.00     0.153 HD
HETATM   32  C   UNK N   1      28.454  22.076 -10.025  0.00  0.00     0.142 C 
ENDBRANCH   4  25
TORSDOF 4
ENDMDL
MODEL 8
REMARK VINA RESULT:      -7.6      2.701      6.030
REMARK  4 active torsions:
REMARK  status: ('A' for Active; 'I' for Inactive)
REMARK    1  A    between atoms: O_5  and  C_27 
REMARK    2  A    between atoms: N_7  and  C_14 
REMARK    3  A    between atoms: N_9  and  C_24 
REMARK    4  A    between atoms: C_23  and  C_27 
ROOT
HETATM    1  F   UNK N   1      21.975  14.567   6.424  0.00  0.00    -0.204 F 
HETATM    2  O   UNK N   1      22.328  18.776   3.842  0.00  0.00    -0.286 OA
HETATM    3  N   UNK N   1      26.166  17.768   4.608  0.00  0.00    -0.317 N 
HETATM    4  C   UNK N   1      24.347  14.987   6.298  0.00  0.00     0.071 A 
HETATM    5  C   UNK N   1      25.366  15.818   5.829  0.00  0.00     0.063 A 
HETATM    6  C   UNK N   1      25.126  16.966   5.067  0.00  0.00     0.056 A 
HETATM    7  C   UNK N   1      23.013  15.320   5.987  0.00  0.00     0.143 A 
HETATM    8  C   UNK N   1      23.778  17.307   4.792  0.00  0.00     0.045 A 
HETATM    9  C   UNK N   1      22.740  16.476   5.251  0.00  0.00     0.062 A 
HETATM   10  C   UNK N   1      23.488  18.470   4.071  0.00  0.00     0.202 A 
HETATM   11  C   UNK N   1      25.855  18.899   3.904  0.00  0.00     0.120 A 
HETATM   12  C   UNK N   1      24.542  19.283   3.621  0.00  0.00     0.104 A 
ENDROOT
BRANCH   3  13
HETATM   13  C   UNK N   1      27.591  17.464   4.839  0.00  0.00     0.078 A 
HETATM   14  C   UNK N   1      28.255  17.819   6.051  0.00  0.00     0.146 A 
HETATM   15  F   UNK N   1      27.610  18.448   7.064  0.00  0.00    -0.204 F 
HETATM   16  C   UNK N   1      29.606  17.503   6.238  0.00  0.00     0.086 A 
HETATM   17  C   UNK N   1      30.327  16.845   5.244  0.00  0.00     0.119 A 
HETATM   18  F   UNK N   1      31.632  16.534   5.439  0.00  0.00    -0.206 F 
HETATM   19  C   UNK N   1      29.706  16.501   4.050  0.00  0.00     0.045 A 
HETATM   20  C   UNK N   1      28.362  16.809   3.856  0.00  0.00     0.036 A 
ENDBRANCH   3  13
BRANCH  12  21
HETATM   21  C   UNK N   1      24.317  20.538   2.855  0.00  0.00     0.181 C 
HETATM   22  O   UNK N   1      25.146  20.944   2.056  0.00  0.00    -0.646 OA
BRANCH  21  23
HETATM   23  O   UNK N   1      23.182  21.241   3.037  0.00  0.00    -0.772 OA
HETATM   24  H   UNK N   1      22.373  20.800   3.212  0.00  0.00     0.167 HD
ENDBRANCH  21  23
ENDBRANCH  12  21
BRANCH   4  25
HETATM   25  N   UNK N   1      24.697  13.847   7.094  0.00  0.00    -0.375 N 
HETATM   26  C   UNK N   1      24.458  12.508   6.595  0.00  0.00     0.147 C 
HETATM   27  C   UNK N   1      23.646  11.725   7.619  0.00  0.00     0.090 C 
HETATM   28  N   UNK N   1      24.318  11.761   8.920  0.00  0.00    -0.414 N 
HETATM   29  C   UNK N   1      23.531  10.288   7.151  0.00  0.00     0.033 C 
HETATM   30  C   UNK N   1      24.404  13.150   9.381  0.00  0.00     0.134 C 
HETATM   31  H   UNK N   1      24.671  10.949   9.425  0.00  0.00     0.153 HD
HETATM   32  C   UNK N   1      25.264  13.969   8.417  0.00  0.00     0.142 C 
ENDBRANCH   4  25
TORSDOF 4
ENDMDL
MODEL 9
REMARK VINA RESULT:      -7.6      2.650      5.822
REMARK  4 active torsions:
REMARK  status: ('A' for Active; 'I' for Inactive)
REMARK    1  A    between atoms: O_5  and  C_27 
REMARK    2  A    between atoms: N_7  and  C_14 
REMARK    3  A    between atoms: N_9  and  C_24 
REMARK    4  A    between atoms: C_23  and  C_27 
ROOT
HETATM    1  F   UNK N   1      20.967  15.240   6.899  0.00  0.00    -0.204 F 
HETATM    2  O   UNK N   1      21.891  19.180   4.047  0.00  0.00    -0.286 OA
HETATM    3  N   UNK N   1      25.537  17.564   4.703  0.00  0.00    -0.317 N 
HETATM    4  C   UNK N   1      23.366  15.235   6.642  0.00  0.00     0.071 A 
HETATM    5  C   UNK N   1      24.484  15.850   6.077  0.00  0.00     0.063 A 
HETATM    6  C   UNK N   1      24.402  16.980   5.257  0.00  0.00     0.056 A 
HETATM    7  C   UNK N   1      22.093  15.778   6.370  0.00  0.00     0.143 A 
HETATM    8  C   UNK N   1      23.119  17.534   5.021  0.00  0.00     0.045 A 
HETATM    9  C   UNK N   1      21.981  16.922   5.576  0.00  0.00     0.062 A 
HETATM   10  C   UNK N   1      22.993  18.690   4.242  0.00  0.00     0.202 A 
HETATM   11  C   UNK N   1      25.386  18.692   3.943  0.00  0.00     0.120 A 
HETATM   12  C   UNK N   1      24.144  19.282   3.696  0.00  0.00     0.104 A 
ENDROOT
BRANCH   3  13
HETATM   13  C   UNK N   1      26.900  17.030   4.888  0.00  0.00     0.078 A 
HETATM   14  C   UNK N   1      27.780  17.532   5.894  0.00  0.00     0.146 A 
HETATM   15  F   UNK N   1      27.408  18.521   6.742  0.00  0.00    -0.204 F 
HETATM   16  C   UNK N   1      29.062  16.991   6.046  0.00  0.00     0.086 A 
HETATM   17  C   UNK N   1      29.505  15.962   5.217  0.00  0.00     0.119 A 
HETATM   18  F   UNK N   1      30.744  15.438   5.381  0.00  0.00    -0.206 F 
HETATM   19  C   UNK N   1      28.671  15.467   4.223  0.00  0.00     0.045 A 
HETATM   20  C   UNK N   1      27.393  15.996   4.065  0.00  0.00     0.036 A 
ENDBRANCH   3  13
BRANCH  12  21
HETATM   21  C   UNK N   1      24.094  20.515   2.865  0.00  0.00     0.181 C 
HETATM   22  O   UNK N   1      25.007  20.795   2.103  0.00  0.00    -0.646 OA
BRANCH  21  23
HETATM   23  O   UNK N   1      23.029  21.336   2.944  0.00  0.00    -0.772 OA
HETATM   24  H   UNK N   1      22.610  21.645   2.164  0.00  0.00     0.167 HD
ENDBRANCH  21  23
ENDBRANCH  12  21
BRANCH   4  25
HETATM   25  N   UNK N   1      23.559  14.096   7.490  0.00  0.00    -0.375 N 
HETATM   26  C   UNK N   1      22.426  13.470   8.141  0.00  0.00     0.147 C 
HETATM   27  C   UNK N   1      22.689  13.381   9.639  0.00  0.00     0.090 C 
HETATM   28  N   UNK N   1      23.962  12.699   9.881  0.00  0.00    -0.414 N 
HETATM   29  C   UNK N   1      21.565  12.595  10.283  0.00  0.00     0.033 C 
HETATM   30  C   UNK N   1      25.050  13.477   9.279  0.00  0.00     0.134 C 
HETATM   31  H   UNK N   1      24.075  11.822  10.389  0.00  0.00     0.153 HD
HETATM   32  C   UNK N   1      24.866  13.544   7.762  0.00  0.00     0.142 C 
ENDBRANCH   4  25
TORSDOF 4
ENDMDL
