REMARK  4 active torsions:
REMARK  status: ('A' for Active; 'I' for Inactive)
REMARK    1  A    between atoms: O_5  and  C_27 
REMARK    2  A    between atoms: N_7  and  C_14 
REMARK    3  A    between atoms: N_9  and  C_24 
REMARK    4  A    between atoms: C_23  and  C_27 
ROOT
HETATM    1  F   UNK N   1       8.488   3.279  -0.518  0.00  0.00    -0.204 F 
HETATM    2  O   UNK N   1       3.708   4.495  -0.087  0.00  0.00    -0.286 OA
HETATM    3  N   UNK N   1       3.708   0.455   0.022  0.00  0.00    -0.317 N 
HETATM    4  C   UNK N   1       7.347   1.157  -0.387  0.00  0.00     0.071 A 
HETATM    5  C   UNK N   1       6.128   0.489  -0.255  0.00  0.00     0.063 A 
HETATM    6  C   UNK N   1       4.904   1.152  -0.116  0.00  0.00     0.056 A 
HETATM    7  C   UNK N   1       7.343   2.567  -0.378  0.00  0.00     0.143 A 
HETATM    8  C   UNK N   1       4.913   2.569  -0.143  0.00  0.00     0.045 A 
HETATM    9  C   UNK N   1       6.133   3.258  -0.268  0.00  0.00     0.062 A 
HETATM   10  C   UNK N   1       3.708   3.274  -0.051  0.00  0.00     0.202 A 
HETATM   11  C   UNK N   1       2.544   1.168   0.112  0.00  0.00     0.120 A 
HETATM   12  C   UNK N   1       2.502   2.564   0.075  0.00  0.00     0.104 A 
ENDROOT
BRANCH   3  13
HETATM   13  C   UNK N   1       3.626  -1.017   0.079  0.00  0.00     0.078 A 
HETATM   14  C   UNK N   1       2.379  -1.709   0.026  0.00  0.00     0.146 A 
HETATM   15  F   UNK N   1       1.199  -1.052  -0.090  0.00  0.00    -0.204 F 
HETATM   16  C   UNK N   1       2.343  -3.108   0.071  0.00  0.00     0.086 A 
HETATM   17  C   UNK N   1       3.519  -3.848   0.176  0.00  0.00     0.119 A 
HETATM   18  F   UNK N   1       3.473  -5.202   0.208  0.00  0.00    -0.206 F 
HETATM   19  C   UNK N   1       4.743  -3.196   0.243  0.00  0.00     0.045 A 
HETATM   20  C   UNK N   1       4.790  -1.805   0.196  0.00  0.00     0.036 A 
ENDBRANCH   3  13
BRANCH  12  21
HETATM   21  C   UNK N   1       1.180   3.239   0.171  0.00  0.00     0.181 C 
HETATM   22  O   UNK N   1       1.091   4.456   0.121  0.00  0.00    -0.646 OA
BRANCH  21  23
HETATM   23  O   UNK N   1       0.059   2.504   0.311  0.00  0.00    -0.772 OA
HETATM   24  H   UNK N   1      -0.774   2.923   0.408  0.00  0.00     0.167 HD
ENDBRANCH  21  23
ENDBRANCH  12  21
BRANCH   4  25
HETATM   25  N   UNK N   1       8.543   0.385  -0.550  0.00  0.00    -0.375 N 
HETATM   26  C   UNK N   1       8.463  -1.037  -0.816  0.00  0.00     0.147 C 
HETATM   27  C   UNK N   1       9.305  -1.791   0.205  0.00  0.00     0.090 C 
HETATM   28  N   UNK N   1      10.672  -1.265   0.209  0.00  0.00    -0.414 N 
HETATM   29  C   UNK N   1       9.330  -3.258  -0.174  0.00  0.00     0.033 C 
HETATM   30  C   UNK N   1      10.646   0.147   0.602  0.00  0.00     0.134 C 
HETATM   31  H   UNK N   1      11.510  -1.797  -0.025  0.00  0.00     0.153 HD
HETATM   32  C   UNK N   1       9.862   0.962  -0.428  0.00  0.00     0.142 C 
ENDBRANCH   4  25
TORSDOF 4
