REMARK  2 active torsions:
REMARK  status: ('A' for Active; 'I' for Inactive)
REMARK    1  A    between atoms: N_3  and  C_8 
REMARK    2  A    between atoms: N_4  and  C_6 
ROOT
HETATM    1  O   UNK N   1       5.393   0.116  -0.001  0.00  0.00    -0.264 OA
HETATM    2  N   UNK N   1       2.075   0.610   0.000  0.00  0.00    -0.289 N 
HETATM    3  N   UNK N   1       3.127  -0.213   0.000  0.00  0.00    -0.217 N 
HETATM    4  C   UNK N   1       2.509   1.890   0.000  0.00  0.00     0.057 A 
HETATM    5  C   UNK N   1       3.901   1.888  -0.000  0.00  0.00     0.124 A 
HETATM    6  C   UNK N   1       4.254   0.554  -0.000  0.00  0.00     0.295 A 
HETATM    7  C   UNK N   1       1.602   3.077   0.000  0.00  0.00     0.072 C 
HETATM    8  C   UNK N   1       0.670   0.218   0.001  0.00  0.00     0.178 C 
ENDROOT
BRANCH   3   9
HETATM    9  C   UNK N   1       3.086  -1.660   0.000  0.00  0.00     0.060 A 
HETATM   10  C   UNK N   1       4.279  -2.403   0.000  0.00  0.00     0.031 A 
HETATM   11  C   UNK N   1       4.251  -3.798   0.000  0.00  0.00     0.002 A 
HETATM   12  C   UNK N   1       3.027  -4.468  -0.000  0.00  0.00     0.000 A 
HETATM   13  C   UNK N   1       1.834  -3.744  -0.000  0.00  0.00     0.002 A 
HETATM   14  C   UNK N   1       1.865  -2.349   0.000  0.00  0.00     0.031 A 
ENDBRANCH   3   9
BRANCH   5  15
HETATM   15  N   UNK N   1       4.789   3.006  -0.000  0.00  0.00    -0.383 N 
HETATM   16  C   UNK N   1       4.286   4.353   0.000  0.00  0.00     0.149 C 
HETATM   17  C   UNK N   1       6.216   2.812  -0.001  0.00  0.00     0.149 C 
ENDBRANCH   5  15
TORSDOF 2
