MODEL 1
REMARK VINA RESULT:      -5.9      0.000      0.000
REMARK  2 active torsions:
REMARK  status: ('A' for Active; 'I' for Inactive)
REMARK    1  A    between atoms: N_3  and  C_8 
REMARK    2  A    between atoms: N_4  and  C_6 
ROOT
HETATM    1  O   UNK N   1      36.933  14.195  14.845  0.00  0.00    -0.264 OA
HETATM    2  N   UNK N   1      34.750  11.707  14.298  0.00  0.00    -0.289 N 
HETATM    3  N   UNK N   1      35.442  12.482  15.137  0.00  0.00    -0.217 N 
HETATM    4  C   UNK N   1      35.035  12.061  13.025  0.00  0.00     0.057 A 
HETATM    5  C   UNK N   1      35.951  13.109  13.049  0.00  0.00     0.124 A 
HETATM    6  C   UNK N   1      36.183  13.347  14.388  0.00  0.00     0.295 A 
HETATM    7  C   UNK N   1      34.439  11.403  11.824  0.00  0.00     0.072 C 
HETATM    8  C   UNK N   1      33.825  10.641  14.667  0.00  0.00     0.178 C 
ENDROOT
BRANCH   3   9
HETATM    9  C   UNK N   1      35.414  12.420  16.583  0.00  0.00     0.060 A 
HETATM   10  C   UNK N   1      35.094  13.563  17.336  0.00  0.00     0.031 A 
HETATM   11  C   UNK N   1      35.065  13.515  18.730  0.00  0.00     0.002 A 
HETATM   12  C   UNK N   1      35.357  12.321  19.390  0.00  0.00     0.000 A 
HETATM   13  C   UNK N   1      35.677  11.178  18.656  0.00  0.00     0.002 A 
HETATM   14  C   UNK N   1      35.705  11.229  17.262  0.00  0.00     0.031 A 
ENDBRANCH   3   9
BRANCH   5  15
HETATM   15  N   UNK N   1      36.535  13.802  11.946  0.00  0.00    -0.383 N 
HETATM   16  C   UNK N   1      37.603  13.214  11.182  0.00  0.00     0.149 C 
HETATM   17  C   UNK N   1      36.069  15.111  11.568  0.00  0.00     0.149 C 
ENDBRANCH   5  15
TORSDOF 2
ENDMDL
MODEL 2
REMARK VINA RESULT:      -5.8      2.071      2.724
REMARK  2 active torsions:
REMARK  status: ('A' for Active; 'I' for Inactive)
REMARK    1  A    between atoms: N_3  and  C_8 
REMARK    2  A    between atoms: N_4  and  C_6 
ROOT
HETATM    1  O   UNK N   1      35.871  15.032  12.698  0.00  0.00    -0.264 OA
HETATM    2  N   UNK N   1      37.197  12.101  13.649  0.00  0.00    -0.289 N 
HETATM    3  N   UNK N   1      36.668  13.290  13.952  0.00  0.00    -0.217 N 
HETATM    4  C   UNK N   1      37.243  11.961  12.306  0.00  0.00     0.057 A 
HETATM    5  C   UNK N   1      36.719  13.111  11.721  0.00  0.00     0.124 A 
HETATM    6  C   UNK N   1      36.369  13.921  12.781  0.00  0.00     0.295 A 
HETATM    7  C   UNK N   1      37.777  10.751  11.612  0.00  0.00     0.072 C 
HETATM    8  C   UNK N   1      37.661  11.094  14.597  0.00  0.00     0.178 C 
ENDROOT
BRANCH   3   9
HETATM    9  C   UNK N   1      36.447  13.819  15.281  0.00  0.00     0.060 A 
HETATM   10  C   UNK N   1      35.470  13.252  16.117  0.00  0.00     0.031 A 
HETATM   11  C   UNK N   1      35.249  13.754  17.400  0.00  0.00     0.002 A 
HETATM   12  C   UNK N   1      36.005  14.831  17.863  0.00  0.00     0.000 A 
HETATM   13  C   UNK N   1      36.980  15.405  17.045  0.00  0.00     0.002 A 
HETATM   14  C   UNK N   1      37.198  14.900  15.763  0.00  0.00     0.031 A 
ENDBRANCH   3   9
BRANCH   5  15
HETATM   15  N   UNK N   1      36.568  13.409  10.332  0.00  0.00    -0.383 N 
HETATM   16  C   UNK N   1      37.574  14.146   9.618  0.00  0.00     0.149 C 
HETATM   17  C   UNK N   1      35.398  12.977   9.611  0.00  0.00     0.149 C 
ENDBRANCH   5  15
TORSDOF 2
ENDMDL
MODEL 3
REMARK VINA RESULT:      -5.7     16.762     18.466
REMARK  2 active torsions:
REMARK  status: ('A' for Active; 'I' for Inactive)
REMARK    1  A    between atoms: N_3  and  C_8 
REMARK    2  A    between atoms: N_4  and  C_6 
ROOT
HETATM    1  O   UNK N   1      21.172  18.678   7.104  0.00  0.00    -0.264 OA
HETATM    2  N   UNK N   1      21.245  16.268   4.772  0.00  0.00    -0.289 N 
HETATM    3  N   UNK N   1      21.534  17.511   5.168  0.00  0.00    -0.217 N 
HETATM    4  C   UNK N   1      20.608  15.618   5.771  0.00  0.00     0.057 A 
HETATM    5  C   UNK N   1      20.481  16.481   6.855  0.00  0.00     0.124 A 
HETATM    6  C   UNK N   1      21.072  17.658   6.442  0.00  0.00     0.295 A 
HETATM    7  C   UNK N   1      20.136  14.203   5.675  0.00  0.00     0.072 C 
HETATM    8  C   UNK N   1      21.558  15.680   3.475  0.00  0.00     0.178 C 
ENDROOT
BRANCH   3   9
HETATM    9  C   UNK N   1      22.213  18.525   4.390  0.00  0.00     0.060 A 
HETATM   10  C   UNK N   1      23.612  18.648   4.453  0.00  0.00     0.031 A 
HETATM   11  C   UNK N   1      24.277  19.622   3.707  0.00  0.00     0.002 A 
HETATM   12  C   UNK N   1      23.550  20.486   2.888  0.00  0.00     0.000 A 
HETATM   13  C   UNK N   1      22.161  20.376   2.815  0.00  0.00     0.002 A 
HETATM   14  C   UNK N   1      21.498  19.401   3.562  0.00  0.00     0.031 A 
ENDBRANCH   3   9
BRANCH   5  15
HETATM   15  N   UNK N   1      19.878  16.228   8.124  0.00  0.00    -0.383 N 
HETATM   16  C   UNK N   1      20.510  15.368   9.088  0.00  0.00     0.149 C 
HETATM   17  C   UNK N   1      18.616  16.829   8.471  0.00  0.00     0.149 C 
ENDBRANCH   5  15
TORSDOF 2
ENDMDL
MODEL 4
REMARK VINA RESULT:      -5.6     11.177     14.061
REMARK  2 active torsions:
REMARK  status: ('A' for Active; 'I' for Inactive)
REMARK    1  A    between atoms: N_3  and  C_8 
REMARK    2  A    between atoms: N_4  and  C_6 
ROOT
HETATM    1  O   UNK N   1      27.746  19.461   7.424  0.00  0.00    -0.264 OA
HETATM    2  N   UNK N   1      28.573  17.149   5.138  0.00  0.00    -0.289 N 
HETATM    3  N   UNK N   1      27.847  18.207   5.511  0.00  0.00    -0.217 N 
HETATM    4  C   UNK N   1      29.400  16.796   6.147  0.00  0.00     0.057 A 
HETATM    5  C   UNK N   1      29.196  17.666   7.214  0.00  0.00     0.124 A 
HETATM    6  C   UNK N   1      28.217  18.537   6.781  0.00  0.00     0.295 A 
HETATM    7  C   UNK N   1      30.357  15.652   6.078  0.00  0.00     0.072 C 
HETATM    8  C   UNK N   1      28.505  16.464   3.852  0.00  0.00     0.178 C 
ENDROOT
BRANCH   3   9
HETATM    9  C   UNK N   1      26.847  18.887   4.715  0.00  0.00     0.060 A 
HETATM   10  C   UNK N   1      27.214  19.947   3.869  0.00  0.00     0.031 A 
HETATM   11  C   UNK N   1      26.258  20.609   3.098  0.00  0.00     0.002 A 
HETATM   12  C   UNK N   1      24.921  20.217   3.164  0.00  0.00     0.000 A 
HETATM   13  C   UNK N   1      24.540  19.166   4.000  0.00  0.00     0.002 A 
HETATM   14  C   UNK N   1      25.499  18.506   4.770  0.00  0.00     0.031 A 
ENDBRANCH   3   9
BRANCH   5  15
HETATM   15  N   UNK N   1      29.844  17.676   8.486  0.00  0.00    -0.383 N 
HETATM   16  C   UNK N   1      31.212  18.099   8.619  0.00  0.00     0.149 C 
HETATM   17  C   UNK N   1      29.142  17.260   9.673  0.00  0.00     0.149 C 
ENDBRANCH   5  15
TORSDOF 2
ENDMDL
MODEL 5
REMARK VINA RESULT:      -5.5     10.364     13.381
REMARK  2 active torsions:
REMARK  status: ('A' for Active; 'I' for Inactive)
REMARK    1  A    between atoms: N_3  and  C_8 
REMARK    2  A    between atoms: N_4  and  C_6 
ROOT
HETATM    1  O   UNK N   1      30.210  17.173   3.924  0.00  0.00    -0.264 OA
HETATM    2  N   UNK N   1      29.117  18.094   6.959  0.00  0.00    -0.289 N 
HETATM    3  N   UNK N   1      28.946  18.018   5.636  0.00  0.00    -0.217 N 
HETATM    4  C   UNK N   1      30.303  17.537   7.289  0.00  0.00     0.057 A 
HETATM    5  C   UNK N   1      30.920  17.083   6.127  0.00  0.00     0.124 A 
HETATM    6  C   UNK N   1      30.043  17.401   5.111  0.00  0.00     0.295 A 
HETATM    7  C   UNK N   1      30.820  17.447   8.687  0.00  0.00     0.072 C 
HETATM    8  C   UNK N   1      28.187  18.680   7.918  0.00  0.00     0.178 C 
ENDROOT
BRANCH   3   9
HETATM    9  C   UNK N   1      27.806  18.502   4.888  0.00  0.00     0.060 A 
HETATM   10  C   UNK N   1      26.708  17.658   4.644  0.00  0.00     0.031 A 
HETATM   11  C   UNK N   1      25.603  18.114   3.924  0.00  0.00     0.002 A 
HETATM   12  C   UNK N   1      25.583  19.422   3.437  0.00  0.00     0.000 A 
HETATM   13  C   UNK N   1      26.665  20.271   3.671  0.00  0.00     0.002 A 
HETATM   14  C   UNK N   1      27.769  19.813   4.392  0.00  0.00     0.031 A 
ENDBRANCH   3   9
BRANCH   5  15
HETATM   15  N   UNK N   1      32.183  16.430   5.991  0.00  0.00    -0.383 N 
HETATM   16  C   UNK N   1      32.297  15.002   6.118  0.00  0.00     0.149 C 
HETATM   17  C   UNK N   1      33.378  17.187   5.723  0.00  0.00     0.149 C 
ENDBRANCH   5  15
TORSDOF 2
ENDMDL
MODEL 6
REMARK VINA RESULT:      -5.5     21.997     24.769
REMARK  2 active torsions:
REMARK  status: ('A' for Active; 'I' for Inactive)
REMARK    1  A    between atoms: N_3  and  C_8 
REMARK    2  A    between atoms: N_4  and  C_6 
ROOT
HETATM    1  O   UNK N   1      29.370  26.867  -4.000  0.00  0.00    -0.264 OA
HETATM    2  N   UNK N   1      26.631  25.203  -4.993  0.00  0.00    -0.289 N 
HETATM    3  N   UNK N   1      27.885  25.207  -4.533  0.00  0.00    -0.217 N 
HETATM    4  C   UNK N   1      26.211  26.477  -5.155  0.00  0.00     0.057 A 
HETATM    5  C   UNK N   1      27.241  27.337  -4.783  0.00  0.00     0.124 A 
HETATM    6  C   UNK N   1      28.274  26.507  -4.399  0.00  0.00     0.295 A 
HETATM    7  C   UNK N   1      24.853  26.849  -5.656  0.00  0.00     0.072 C 
HETATM    8  C   UNK N   1      25.820  24.026  -5.282  0.00  0.00     0.178 C 
ENDROOT
BRANCH   3   9
HETATM    9  C   UNK N   1      28.693  24.045  -4.229  0.00  0.00     0.060 A 
HETATM   10  C   UNK N   1      28.893  23.649  -2.895  0.00  0.00     0.031 A 
HETATM   11  C   UNK N   1      29.669  22.531  -2.591  0.00  0.00     0.002 A 
HETATM   12  C   UNK N   1      30.256  21.792  -3.620  0.00  0.00     0.000 A 
HETATM   13  C   UNK N   1      30.067  22.172  -4.949  0.00  0.00     0.002 A 
HETATM   14  C   UNK N   1      29.290  23.292  -5.250  0.00  0.00     0.031 A 
ENDBRANCH   3   9
BRANCH   5  15
HETATM   15  N   UNK N   1      27.250  28.764  -4.789  0.00  0.00    -0.383 N 
HETATM   16  C   UNK N   1      26.639  29.514  -3.725  0.00  0.00     0.149 C 
HETATM   17  C   UNK N   1      27.872  29.492  -5.865  0.00  0.00     0.149 C 
ENDBRANCH   5  15
TORSDOF 2
ENDMDL
MODEL 7
REMARK VINA RESULT:      -5.5     21.682     24.480
REMARK  2 active torsions:
REMARK  status: ('A' for Active; 'I' for Inactive)
REMARK    1  A    between atoms: N_3  and  C_8 
REMARK    2  A    between atoms: N_4  and  C_6 
ROOT
HETATM    1  O   UNK N   1      26.747  24.566  -3.517  0.00  0.00    -0.264 OA
HETATM    2  N   UNK N   1      29.188  25.895  -5.395  0.00  0.00    -0.289 N 
HETATM    3  N   UNK N   1      28.730  24.921  -4.604  0.00  0.00    -0.217 N 
HETATM    4  C   UNK N   1      28.229  26.836  -5.545  0.00  0.00     0.057 A 
HETATM    5  C   UNK N   1      27.107  26.448  -4.818  0.00  0.00     0.124 A 
HETATM    6  C   UNK N   1      27.457  25.244  -4.241  0.00  0.00     0.295 A 
HETATM    7  C   UNK N   1      28.396  28.071  -6.368  0.00  0.00     0.072 C 
HETATM    8  C   UNK N   1      30.507  25.959  -6.014  0.00  0.00     0.178 C 
ENDROOT
BRANCH   3   9
HETATM    9  C   UNK N   1      29.451  23.732  -4.199  0.00  0.00     0.060 A 
HETATM   10  C   UNK N   1      30.138  23.703  -2.973  0.00  0.00     0.031 A 
HETATM   11  C   UNK N   1      30.836  22.563  -2.573  0.00  0.00     0.002 A 
HETATM   12  C   UNK N   1      30.856  21.436  -3.397  0.00  0.00     0.000 A 
HETATM   13  C   UNK N   1      30.179  21.451  -4.617  0.00  0.00     0.002 A 
HETATM   14  C   UNK N   1      29.482  22.592  -5.014  0.00  0.00     0.031 A 
ENDBRANCH   3   9
BRANCH   5  15
HETATM   15  N   UNK N   1      25.859  27.129  -4.684  0.00  0.00    -0.383 N 
HETATM   16  C   UNK N   1      24.789  26.907  -5.618  0.00  0.00     0.149 C 
HETATM   17  C   UNK N   1      25.641  28.058  -3.606  0.00  0.00     0.149 C 
ENDBRANCH   5  15
TORSDOF 2
ENDMDL
MODEL 8
REMARK VINA RESULT:      -5.4     14.810     16.374
REMARK  2 active torsions:
REMARK  status: ('A' for Active; 'I' for Inactive)
REMARK    1  A    between atoms: N_3  and  C_8 
REMARK    2  A    between atoms: N_4  and  C_6 
ROOT
HETATM    1  O   UNK N   1      21.363  11.614   6.719  0.00  0.00    -0.264 OA
HETATM    2  N   UNK N   1      20.732  14.724   7.805  0.00  0.00    -0.289 N 
HETATM    3  N   UNK N   1      21.209  13.495   8.016  0.00  0.00    -0.217 N 
HETATM    4  C   UNK N   1      20.256  14.808   6.543  0.00  0.00     0.057 A 
HETATM    5  C   UNK N   1      20.435  13.579   5.916  0.00  0.00     0.124 A 
HETATM    6  C   UNK N   1      21.035  12.780   6.868  0.00  0.00     0.295 A 
HETATM    7  C   UNK N   1      19.646  16.043   5.964  0.00  0.00     0.072 C 
HETATM    8  C   UNK N   1      20.715  15.822   8.766  0.00  0.00     0.178 C 
ENDROOT
BRANCH   3   9
HETATM    9  C   UNK N   1      21.805  13.002   9.240  0.00  0.00     0.060 A 
HETATM   10  C   UNK N   1      20.993  12.631  10.325  0.00  0.00     0.031 A 
HETATM   11  C   UNK N   1      21.557  12.156  11.509  0.00  0.00     0.002 A 
HETATM   12  C   UNK N   1      22.944  12.045  11.622  0.00  0.00     0.000 A 
HETATM   13  C   UNK N   1      23.763  12.409  10.553  0.00  0.00     0.002 A 
HETATM   14  C   UNK N   1      23.196  12.885   9.370  0.00  0.00     0.031 A 
ENDBRANCH   3   9
BRANCH   5  15
HETATM   15  N   UNK N   1      20.085  13.203   4.584  0.00  0.00    -0.383 N 
HETATM   16  C   UNK N   1      21.044  13.278   3.516  0.00  0.00     0.149 C 
HETATM   17  C   UNK N   1      18.757  12.739   4.276  0.00  0.00     0.149 C 
ENDBRANCH   5  15
TORSDOF 2
ENDMDL
MODEL 9
REMARK VINA RESULT:      -5.4      1.912      2.461
REMARK  2 active torsions:
REMARK  status: ('A' for Active; 'I' for Inactive)
REMARK    1  A    between atoms: N_3  and  C_8 
REMARK    2  A    between atoms: N_4  and  C_6 
ROOT
HETATM    1  O   UNK N   1      34.250  13.019  15.639  0.00  0.00    -0.264 OA
HETATM    2  N   UNK N   1      36.723  10.792  15.217  0.00  0.00    -0.289 N 
HETATM    3  N   UNK N   1      35.726  11.296  15.949  0.00  0.00    -0.217 N 
HETATM    4  C   UNK N   1      36.830  11.491  14.066  0.00  0.00     0.057 A 
HETATM    5  C   UNK N   1      35.858  12.488  14.058  0.00  0.00     0.124 A 
HETATM    6  C   UNK N   1      35.185  12.336  15.253  0.00  0.00     0.295 A 
HETATM    7  C   UNK N   1      37.843  11.202  13.007  0.00  0.00     0.072 C 
HETATM    8  C   UNK N   1      37.578   9.666  15.578  0.00  0.00     0.178 C 
ENDROOT
BRANCH   3   9
HETATM    9  C   UNK N   1      35.291  10.827  17.248  0.00  0.00     0.060 A 
HETATM   10  C   UNK N   1      35.602  11.560  18.406  0.00  0.00     0.031 A 
HETATM   11  C   UNK N   1      35.188  11.118  19.663  0.00  0.00     0.002 A 
HETATM   12  C   UNK N   1      34.456   9.935  19.777  0.00  0.00     0.000 A 
HETATM   13  C   UNK N   1      34.140   9.196  18.636  0.00  0.00     0.002 A 
HETATM   14  C   UNK N   1      34.555   9.641  17.380  0.00  0.00     0.031 A 
ENDBRANCH   3   9
BRANCH   5  15
HETATM   15  N   UNK N   1      35.597  13.463  13.049  0.00  0.00    -0.383 N 
HETATM   16  C   UNK N   1      36.117  14.799  13.156  0.00  0.00     0.149 C 
HETATM   17  C   UNK N   1      34.802  13.132  11.894  0.00  0.00     0.149 C 
ENDBRANCH   5  15
TORSDOF 2
ENDMDL
