MODEL 1
REMARK VINA RESULT:      -9.1      0.000      0.000
REMARK  7 active torsions:
REMARK  status: ('A' for Active; 'I' for Inactive)
REMARK    1  A    between atoms: N_3  and  C_12 
REMARK    2  A    between atoms: N_4  and  C_7 
REMARK       I    between atoms: N_5  and  C_22 
REMARK    3  A    between atoms: C_12  and  C_13 
REMARK    4  A    between atoms: C_13  and  C_15 
REMARK    5  A    between atoms: C_15  and  C_18 
REMARK    6  A    between atoms: C_15  and  C_19 
REMARK    7  A    between atoms: C_22  and  C_30 
ROOT
HETATM    1  N   UNK N   1      27.813  17.411   9.438  0.00  0.00    -0.196 NA
HETATM    2  C   UNK N   1      28.813  17.520   6.990  0.00  0.00     0.104 C 
HETATM    3  C   UNK N   1      28.277  17.461   8.379  0.00  0.00     0.079 C 
ENDROOT
BRANCH   2   4
HETATM    4  C   UNK N   1      28.369  16.235   6.212  0.00  0.00     0.065 C 
BRANCH   4   5
HETATM    5  C   UNK N   1      26.985  15.803   6.733  0.00  0.00     0.275 C 
BRANCH   5   6
HETATM    6  N   UNK N   1      26.039  15.134   5.867  0.00  0.00     0.088 N 
HETATM    7  C   UNK N   1      24.725  15.317   6.503  0.00  0.00     0.274 C 
HETATM    8  C   UNK N   1      23.571  15.285   5.510  0.00  0.00     0.056 C 
HETATM    9  C   UNK N   1      23.775  16.410   4.506  0.00  0.00     0.098 C 
HETATM   10  C   UNK N   1      25.028  16.048   3.735  0.00  0.00     0.056 C 
HETATM   11  C   UNK N   1      26.209  15.999   4.686  0.00  0.00     0.274 C 
BRANCH   9  12
HETATM   12  N   UNK N   1      22.592  16.540   3.647  0.00  0.00    -0.292 N 
HETATM   13  C   UNK N   1      21.752  17.585   3.450  0.00  0.00     0.066 A 
HETATM   14  C   UNK N   1      20.824  17.247   2.494  0.00  0.00     0.074 A 
HETATM   15  C   UNK N   1      21.753  18.841   4.059  0.00  0.00     0.032 A 
HETATM   16  N   UNK N   1      21.054  15.980   2.072  0.00  0.00    -0.231 N 
HETATM   17  C   UNK N   1      19.844  18.149   2.075  0.00  0.00     0.032 A 
HETATM   18  C   UNK N   1      22.126  15.563   2.816  0.00  0.00     0.337 A 
HETATM   19  C   UNK N   1      20.393  15.267   1.091  0.00  0.00     0.232 C 
HETATM   20  O   UNK N   1      22.634  14.457   2.730  0.00  0.00    -0.246 OA
HETATM   21  O   UNK N   1      19.466  15.781   0.481  0.00  0.00    -0.273 OA
HETATM   22  C   UNK N   1      19.824  19.423   2.674  0.00  0.00     0.002 A 
HETATM   23  C   UNK N   1      20.772  19.766   3.664  0.00  0.00     0.002 A 
BRANCH  19  24
HETATM   24  C   UNK N   1      20.838  13.867   0.740  0.00  0.00     0.099 C 
HETATM   25  C   UNK N   1      19.827  12.794   1.104  0.00  0.00     0.014 C 
ENDBRANCH  19  24
ENDBRANCH   9  12
ENDBRANCH   5   6
ENDBRANCH   4   5
ENDBRANCH   2   4
BRANCH   2  26
HETATM   26  C   UNK N   1      30.363  17.516   6.985  0.00  0.00    -0.031 A 
HETATM   27  C   UNK N   1      31.119  17.189   5.845  0.00  0.00     0.009 A 
HETATM   28  C   UNK N   1      32.510  17.088   5.898  0.00  0.00     0.001 A 
HETATM   29  C   UNK N   1      33.176  17.288   7.107  0.00  0.00     0.000 A 
HETATM   30  C   UNK N   1      32.450  17.622   8.248  0.00  0.00     0.001 A 
HETATM   31  C   UNK N   1      31.059  17.745   8.184  0.00  0.00     0.009 A 
ENDBRANCH   2  26
BRANCH   2  32
HETATM   32  C   UNK N   1      28.116  18.773   6.410  0.00  0.00    -0.031 A 
HETATM   33  C   UNK N   1      27.713  19.810   7.281  0.00  0.00     0.009 A 
HETATM   34  C   UNK N   1      27.178  21.003   6.779  0.00  0.00     0.001 A 
HETATM   35  C   UNK N   1      27.052  21.191   5.400  0.00  0.00     0.000 A 
HETATM   36  C   UNK N   1      27.443  20.182   4.524  0.00  0.00     0.001 A 
HETATM   37  C   UNK N   1      27.968  18.992   5.028  0.00  0.00     0.009 A 
ENDBRANCH   2  32
TORSDOF 7
ENDMDL
MODEL 2
REMARK VINA RESULT:      -8.9      8.062     13.999
REMARK  7 active torsions:
REMARK  status: ('A' for Active; 'I' for Inactive)
REMARK    1  A    between atoms: N_3  and  C_12 
REMARK    2  A    between atoms: N_4  and  C_7 
REMARK       I    between atoms: N_5  and  C_22 
REMARK    3  A    between atoms: C_12  and  C_13 
REMARK    4  A    between atoms: C_13  and  C_15 
REMARK    5  A    between atoms: C_15  and  C_18 
REMARK    6  A    between atoms: C_15  and  C_19 
REMARK    7  A    between atoms: C_22  and  C_30 
ROOT
HETATM    1  N   UNK N   1      34.110  18.888   8.082  0.00  0.00    -0.196 NA
HETATM    2  C   UNK N   1      32.571  16.869   7.329  0.00  0.00     0.104 C 
HETATM    3  C   UNK N   1      33.445  18.010   7.725  0.00  0.00     0.079 C 
ENDROOT
BRANCH   2   4
HETATM    4  C   UNK N   1      33.016  15.586   8.110  0.00  0.00     0.065 C 
BRANCH   4   5
HETATM    5  C   UNK N   1      34.468  15.781   8.586  0.00  0.00     0.275 C 
BRANCH   5   6
HETATM    6  N   UNK N   1      35.293  14.648   8.943  0.00  0.00     0.088 N 
HETATM    7  C   UNK N   1      36.190  15.133  10.004  0.00  0.00     0.274 C 
HETATM    8  C   UNK N   1      36.658  14.028  10.941  0.00  0.00     0.056 C 
HETATM    9  C   UNK N   1      35.434  13.409  11.597  0.00  0.00     0.098 C 
HETATM   10  C   UNK N   1      34.663  12.739  10.478  0.00  0.00     0.056 C 
HETATM   11  C   UNK N   1      34.223  13.784   9.471  0.00  0.00     0.274 C 
BRANCH   9  12
HETATM   12  N   UNK N   1      35.845  12.472  12.650  0.00  0.00    -0.292 N 
HETATM   13  C   UNK N   1      36.642  11.378  12.599  0.00  0.00     0.066 A 
HETATM   14  C   UNK N   1      36.785  10.861  13.865  0.00  0.00     0.074 A 
HETATM   15  C   UNK N   1      37.270  10.798  11.496  0.00  0.00     0.032 A 
HETATM   16  N   UNK N   1      36.078  11.616  14.741  0.00  0.00    -0.231 N 
HETATM   17  C   UNK N   1      37.578   9.739  14.111  0.00  0.00     0.032 A 
HETATM   18  C   UNK N   1      35.490  12.579  13.963  0.00  0.00     0.337 A 
HETATM   19  C   UNK N   1      35.986  11.482  16.112  0.00  0.00     0.232 C 
HETATM   20  O   UNK N   1      34.757  13.455  14.392  0.00  0.00    -0.246 OA
HETATM   21  O   UNK N   1      36.595  10.587  16.681  0.00  0.00    -0.273 OA
HETATM   22  C   UNK N   1      38.222   9.135  13.014  0.00  0.00     0.002 A 
HETATM   23  C   UNK N   1      38.065   9.660  11.713  0.00  0.00     0.002 A 
BRANCH  19  24
HETATM   24  C   UNK N   1      35.168  12.463  16.918  0.00  0.00     0.099 C 
HETATM   25  C   UNK N   1      35.290  12.276  18.419  0.00  0.00     0.014 C 
ENDBRANCH  19  24
ENDBRANCH   9  12
ENDBRANCH   5   6
ENDBRANCH   4   5
ENDBRANCH   2   4
BRANCH   2  26
HETATM   26  C   UNK N   1      32.729  16.537   5.824  0.00  0.00    -0.031 A 
HETATM   27  C   UNK N   1      32.858  17.529   4.836  0.00  0.00     0.009 A 
HETATM   28  C   UNK N   1      32.890  17.206   3.478  0.00  0.00     0.001 A 
HETATM   29  C   UNK N   1      32.766  15.877   3.077  0.00  0.00     0.000 A 
HETATM   30  C   UNK N   1      32.646  14.874   4.038  0.00  0.00     0.001 A 
HETATM   31  C   UNK N   1      32.639  15.202   5.397  0.00  0.00     0.009 A 
ENDBRANCH   2  26
BRANCH   2  32
HETATM   32  C   UNK N   1      31.174  17.334   7.800  0.00  0.00    -0.031 A 
HETATM   33  C   UNK N   1      31.050  18.051   9.011  0.00  0.00     0.009 A 
HETATM   34  C   UNK N   1      29.816  18.580   9.410  0.00  0.00     0.001 A 
HETATM   35  C   UNK N   1      28.688  18.417   8.603  0.00  0.00     0.000 A 
HETATM   36  C   UNK N   1      28.787  17.713   7.406  0.00  0.00     0.001 A 
HETATM   37  C   UNK N   1      30.016  17.182   7.015  0.00  0.00     0.009 A 
ENDBRANCH   2  32
TORSDOF 7
ENDMDL
MODEL 3
REMARK VINA RESULT:      -8.8      7.775     12.546
REMARK  7 active torsions:
REMARK  status: ('A' for Active; 'I' for Inactive)
REMARK    1  A    between atoms: N_3  and  C_12 
REMARK    2  A    between atoms: N_4  and  C_7 
REMARK       I    between atoms: N_5  and  C_22 
REMARK    3  A    between atoms: C_12  and  C_13 
REMARK    4  A    between atoms: C_13  and  C_15 
REMARK    5  A    between atoms: C_15  and  C_18 
REMARK    6  A    between atoms: C_15  and  C_19 
REMARK    7  A    between atoms: C_22  and  C_30 
ROOT
HETATM    1  N   UNK N   1      33.745  11.865  14.592  0.00  0.00    -0.196 NA
HETATM    2  C   UNK N   1      36.338  12.359  14.786  0.00  0.00     0.104 C 
HETATM    3  C   UNK N   1      34.883  12.053  14.685  0.00  0.00     0.079 C 
ENDROOT
BRANCH   2   4
HETATM    4  C   UNK N   1      36.843  12.919  13.413  0.00  0.00     0.065 C 
BRANCH   4   5
HETATM    5  C   UNK N   1      35.687  13.686  12.743  0.00  0.00     0.275 C 
BRANCH   5   6
HETATM    6  N   UNK N   1      35.719  13.998  11.330  0.00  0.00     0.088 N 
HETATM    7  C   UNK N   1      34.629  13.215  10.729  0.00  0.00     0.274 C 
HETATM    8  C   UNK N   1      34.074  13.842   9.457  0.00  0.00     0.056 C 
HETATM    9  C   UNK N   1      33.537  15.223   9.803  0.00  0.00     0.098 C 
HETATM   10  C   UNK N   1      34.744  16.043  10.207  0.00  0.00     0.056 C 
HETATM   11  C   UNK N   1      35.384  15.428  11.437  0.00  0.00     0.274 C 
BRANCH   9  12
HETATM   12  N   UNK N   1      32.820  15.787   8.652  0.00  0.00    -0.292 N 
HETATM   13  C   UNK N   1      33.189  15.915   7.355  0.00  0.00     0.066 A 
HETATM   14  C   UNK N   1      32.146  16.448   6.636  0.00  0.00     0.074 A 
HETATM   15  C   UNK N   1      34.401  15.579   6.749  0.00  0.00     0.032 A 
HETATM   16  N   UNK N   1      31.098  16.673   7.465  0.00  0.00    -0.231 N 
HETATM   17  C   UNK N   1      32.243  16.668   5.261  0.00  0.00     0.032 A 
HETATM   18  C   UNK N   1      31.550  16.284   8.698  0.00  0.00     0.337 A 
HETATM   19  C   UNK N   1      29.841  17.152   7.151  0.00  0.00     0.232 C 
HETATM   20  O   UNK N   1      30.889  16.342   9.723  0.00  0.00    -0.246 OA
HETATM   21  O   UNK N   1      29.565  17.432   5.993  0.00  0.00    -0.273 OA
HETATM   22  C   UNK N   1      33.456  16.338   4.626  0.00  0.00     0.002 A 
HETATM   23  C   UNK N   1      34.530  15.800   5.367  0.00  0.00     0.002 A 
BRANCH  19  24
HETATM   24  C   UNK N   1      28.792  17.292   8.228  0.00  0.00     0.099 C 
HETATM   25  C   UNK N   1      28.308  18.717   8.430  0.00  0.00     0.014 C 
ENDBRANCH  19  24
ENDBRANCH   9  12
ENDBRANCH   5   6
ENDBRANCH   4   5
ENDBRANCH   2   4
BRANCH   2  26
HETATM   26  C   UNK N   1      37.164  11.077  15.061  0.00  0.00    -0.031 A 
HETATM   27  C   UNK N   1      38.303  10.730  14.313  0.00  0.00     0.009 A 
HETATM   28  C   UNK N   1      38.964   9.517  14.512  0.00  0.00     0.001 A 
HETATM   29  C   UNK N   1      38.480   8.608  15.452  0.00  0.00     0.000 A 
HETATM   30  C   UNK N   1      37.358   8.933  16.213  0.00  0.00     0.001 A 
HETATM   31  C   UNK N   1      36.715  10.159  16.026  0.00  0.00     0.009 A 
ENDBRANCH   2  26
BRANCH   2  32
HETATM   32  C   UNK N   1      36.378  13.463  15.869  0.00  0.00    -0.031 A 
HETATM   33  C   UNK N   1      37.214  14.587  15.686  0.00  0.00     0.009 A 
HETATM   34  C   UNK N   1      37.192  15.653  16.594  0.00  0.00     0.001 A 
HETATM   35  C   UNK N   1      36.325  15.626  17.689  0.00  0.00     0.000 A 
HETATM   36  C   UNK N   1      35.493  14.527  17.888  0.00  0.00     0.001 A 
HETATM   37  C   UNK N   1      35.523  13.464  16.987  0.00  0.00     0.009 A 
ENDBRANCH   2  32
TORSDOF 7
ENDMDL
MODEL 4
REMARK VINA RESULT:      -8.5      1.282      3.018
REMARK  7 active torsions:
REMARK  status: ('A' for Active; 'I' for Inactive)
REMARK    1  A    between atoms: N_3  and  C_12 
REMARK    2  A    between atoms: N_4  and  C_7 
REMARK       I    between atoms: N_5  and  C_22 
REMARK    3  A    between atoms: C_12  and  C_13 
REMARK    4  A    between atoms: C_13  and  C_15 
REMARK    5  A    between atoms: C_15  and  C_18 
REMARK    6  A    between atoms: C_15  and  C_19 
REMARK    7  A    between atoms: C_22  and  C_30 
ROOT
HETATM    1  N   UNK N   1      27.863  16.854   8.465  0.00  0.00    -0.196 NA
HETATM    2  C   UNK N   1      28.872  17.281   6.055  0.00  0.00     0.104 C 
HETATM    3  C   UNK N   1      28.331  17.041   7.423  0.00  0.00     0.079 C 
ENDROOT
BRANCH   2   4
HETATM    4  C   UNK N   1      28.417  16.117   5.111  0.00  0.00     0.065 C 
BRANCH   4   5
HETATM    5  C   UNK N   1      27.641  15.082   5.949  0.00  0.00     0.275 C 
BRANCH   5   6
HETATM    6  N   UNK N   1      26.364  14.570   5.503  0.00  0.00     0.088 N 
HETATM    7  C   UNK N   1      25.351  15.338   6.245  0.00  0.00     0.274 C 
HETATM    8  C   UNK N   1      24.022  15.440   5.509  0.00  0.00     0.056 C 
HETATM    9  C   UNK N   1      24.266  16.134   4.178  0.00  0.00     0.098 C 
HETATM   10  C   UNK N   1      25.140  15.190   3.378  0.00  0.00     0.056 C 
HETATM   11  C   UNK N   1      26.462  14.995   4.096  0.00  0.00     0.274 C 
BRANCH   9  12
HETATM   12  N   UNK N   1      22.987  16.427   3.520  0.00  0.00    -0.292 N 
HETATM   13  C   UNK N   1      22.163  15.634   2.794  0.00  0.00     0.066 A 
HETATM   14  C   UNK N   1      21.043  16.347   2.439  0.00  0.00     0.074 A 
HETATM   15  C   UNK N   1      22.330  14.298   2.423  0.00  0.00     0.032 A 
HETATM   16  N   UNK N   1      21.138  17.606   2.930  0.00  0.00    -0.231 N 
HETATM   17  C   UNK N   1      20.009  15.766   1.702  0.00  0.00     0.032 A 
HETATM   18  C   UNK N   1      22.352  17.634   3.564  0.00  0.00     0.337 A 
HETATM   19  C   UNK N   1      20.216  18.632   2.851  0.00  0.00     0.232 C 
HETATM   20  O   UNK N   1      22.809  18.613   4.133  0.00  0.00    -0.246 OA
HETATM   21  O   UNK N   1      19.151  18.454   2.276  0.00  0.00    -0.273 OA
HETATM   22  C   UNK N   1      20.154  14.420   1.316  0.00  0.00     0.002 A 
HETATM   23  C   UNK N   1      21.310  13.691   1.671  0.00  0.00     0.002 A 
BRANCH  19  24
HETATM   24  C   UNK N   1      20.502  19.962   3.507  0.00  0.00     0.099 C 
HETATM   25  C   UNK N   1      21.011  21.022   2.547  0.00  0.00     0.014 C 
ENDBRANCH  19  24
ENDBRANCH   9  12
ENDBRANCH   5   6
ENDBRANCH   4   5
ENDBRANCH   2   4
BRANCH   2  26
HETATM   26  C   UNK N   1      30.421  17.261   6.052  0.00  0.00    -0.031 A 
HETATM   27  C   UNK N   1      31.185  17.304   7.232  0.00  0.00     0.009 A 
HETATM   28  C   UNK N   1      32.577  17.394   7.196  0.00  0.00     0.001 A 
HETATM   29  C   UNK N   1      33.238  17.468   5.970  0.00  0.00     0.000 A 
HETATM   30  C   UNK N   1      32.504  17.417   4.786  0.00  0.00     0.001 A 
HETATM   31  C   UNK N   1      31.112  17.303   4.829  0.00  0.00     0.009 A 
ENDBRANCH   2  26
BRANCH   2  32
HETATM   32  C   UNK N   1      28.190  18.607   5.648  0.00  0.00    -0.031 A 
HETATM   33  C   UNK N   1      27.630  18.735   4.357  0.00  0.00     0.009 A 
HETATM   34  C   UNK N   1      26.911  19.882   3.996  0.00  0.00     0.001 A 
HETATM   35  C   UNK N   1      26.723  20.913   4.919  0.00  0.00     0.000 A 
HETATM   36  C   UNK N   1      27.266  20.808   6.197  0.00  0.00     0.001 A 
HETATM   37  C   UNK N   1      27.988  19.668   6.551  0.00  0.00     0.009 A 
ENDBRANCH   2  32
TORSDOF 7
ENDMDL
MODEL 5
REMARK VINA RESULT:      -8.4      6.546     11.327
REMARK  7 active torsions:
REMARK  status: ('A' for Active; 'I' for Inactive)
REMARK    1  A    between atoms: N_3  and  C_12 
REMARK    2  A    between atoms: N_4  and  C_7 
REMARK       I    between atoms: N_5  and  C_22 
REMARK    3  A    between atoms: C_12  and  C_13 
REMARK    4  A    between atoms: C_13  and  C_15 
REMARK    5  A    between atoms: C_15  and  C_18 
REMARK    6  A    between atoms: C_15  and  C_19 
REMARK    7  A    between atoms: C_22  and  C_30 
ROOT
HETATM    1  N   UNK N   1      38.126  12.489  11.467  0.00  0.00    -0.196 NA
HETATM    2  C   UNK N   1      35.715  12.656  12.550  0.00  0.00     0.104 C 
HETATM    3  C   UNK N   1      37.084  12.565  11.967  0.00  0.00     0.079 C 
ENDROOT
BRANCH   2   4
HETATM    4  C   UNK N   1      34.949  13.846  11.879  0.00  0.00     0.065 C 
BRANCH   4   5
HETATM    5  C   UNK N   1      35.980  14.781  11.217  0.00  0.00     0.275 C 
BRANCH   5   6
HETATM    6  N   UNK N   1      35.793  15.256   9.864  0.00  0.00     0.088 N 
HETATM    7  C   UNK N   1      34.868  14.301   9.235  0.00  0.00     0.274 C 
HETATM    8  C   UNK N   1      34.052  14.916   8.105  0.00  0.00     0.056 C 
HETATM    9  C   UNK N   1      33.236  16.065   8.677  0.00  0.00     0.098 C 
HETATM   10  C   UNK N   1      34.245  17.109   9.109  0.00  0.00     0.056 C 
HETATM   11  C   UNK N   1      35.136  16.533  10.194  0.00  0.00     0.274 C 
BRANCH   9  12
HETATM   12  N   UNK N   1      32.291  16.563   7.670  0.00  0.00    -0.292 N 
HETATM   13  C   UNK N   1      32.451  16.793   6.344  0.00  0.00     0.066 A 
HETATM   14  C   UNK N   1      31.252  17.197   5.806  0.00  0.00     0.074 A 
HETATM   15  C   UNK N   1      33.599  16.661   5.561  0.00  0.00     0.032 A 
HETATM   16  N   UNK N   1      30.312  17.235   6.782  0.00  0.00    -0.231 N 
HETATM   17  C   UNK N   1      31.120  17.482   4.446  0.00  0.00     0.032 A 
HETATM   18  C   UNK N   1      30.985  16.868   7.917  0.00  0.00     0.337 A 
HETATM   19  C   UNK N   1      28.969  17.538   6.670  0.00  0.00     0.232 C 
HETATM   20  O   UNK N   1      30.475  16.790   9.023  0.00  0.00    -0.246 OA
HETATM   21  O   UNK N   1      28.495  17.819   5.578  0.00  0.00    -0.273 OA
HETATM   22  C   UNK N   1      32.264  17.356   3.634  0.00  0.00     0.002 A 
HETATM   23  C   UNK N   1      33.498  16.952   4.190  0.00  0.00     0.002 A 
BRANCH  19  24
HETATM   24  C   UNK N   1      28.075  17.482   7.886  0.00  0.00     0.099 C 
HETATM   25  C   UNK N   1      27.955  18.806   8.619  0.00  0.00     0.014 C 
ENDBRANCH  19  24
ENDBRANCH   9  12
ENDBRANCH   5   6
ENDBRANCH   4   5
ENDBRANCH   2   4
BRANCH   2  26
HETATM   26  C   UNK N   1      35.770  12.975  14.065  0.00  0.00    -0.031 A 
HETATM   27  C   UNK N   1      34.772  12.562  14.966  0.00  0.00     0.009 A 
HETATM   28  C   UNK N   1      34.792  12.955  16.305  0.00  0.00     0.001 A 
HETATM   29  C   UNK N   1      35.803  13.795  16.768  0.00  0.00     0.000 A 
HETATM   30  C   UNK N   1      36.809  14.211  15.897  0.00  0.00     0.001 A 
HETATM   31  C   UNK N   1      36.797  13.795  14.563  0.00  0.00     0.009 A 
ENDBRANCH   2  26
BRANCH   2  32
HETATM   32  C   UNK N   1      35.083  11.305  12.142  0.00  0.00    -0.031 A 
HETATM   33  C   UNK N   1      34.191  11.257  11.047  0.00  0.00     0.009 A 
HETATM   34  C   UNK N   1      33.687  10.034  10.585  0.00  0.00     0.001 A 
HETATM   35  C   UNK N   1      34.075   8.839  11.194  0.00  0.00     0.000 A 
HETATM   36  C   UNK N   1      34.953   8.864  12.276  0.00  0.00     0.001 A 
HETATM   37  C   UNK N   1      35.447  10.083  12.738  0.00  0.00     0.009 A 
ENDBRANCH   2  32
TORSDOF 7
ENDMDL
MODEL 6
REMARK VINA RESULT:      -8.3      5.733     11.938
REMARK  7 active torsions:
REMARK  status: ('A' for Active; 'I' for Inactive)
REMARK    1  A    between atoms: N_3  and  C_12 
REMARK    2  A    between atoms: N_4  and  C_7 
REMARK       I    between atoms: N_5  and  C_22 
REMARK    3  A    between atoms: C_12  and  C_13 
REMARK    4  A    between atoms: C_13  and  C_15 
REMARK    5  A    between atoms: C_15  and  C_18 
REMARK    6  A    between atoms: C_15  and  C_19 
REMARK    7  A    between atoms: C_22  and  C_30 
ROOT
HETATM    1  N   UNK N   1      27.771  17.171   9.488  0.00  0.00    -0.196 NA
HETATM    2  C   UNK N   1      28.298  17.204   6.894  0.00  0.00     0.104 C 
HETATM    3  C   UNK N   1      27.989  17.212   8.352  0.00  0.00     0.079 C 
ENDROOT
BRANCH   2   4
HETATM    4  C   UNK N   1      29.833  16.970   6.694  0.00  0.00     0.065 C 
BRANCH   4   5
HETATM    5  C   UNK N   1      30.599  17.906   7.648  0.00  0.00     0.275 C 
BRANCH   5   6
HETATM    6  N   UNK N   1      31.390  17.374   8.736  0.00  0.00     0.088 N 
HETATM    7  C   UNK N   1      31.390  15.915   8.547  0.00  0.00     0.274 C 
HETATM    8  C   UNK N   1      32.621  15.236   9.134  0.00  0.00     0.056 C 
HETATM    9  C   UNK N   1      33.852  15.807   8.448  0.00  0.00     0.098 C 
HETATM   10  C   UNK N   1      33.914  17.263   8.861  0.00  0.00     0.056 C 
HETATM   11  C   UNK N   1      32.678  17.983   8.359  0.00  0.00     0.274 C 
BRANCH   9  12
HETATM   12  N   UNK N   1      35.046  15.048   8.842  0.00  0.00    -0.292 N 
HETATM   13  C   UNK N   1      35.477  14.648  10.063  0.00  0.00     0.066 A 
HETATM   14  C   UNK N   1      36.622  13.902   9.918  0.00  0.00     0.074 A 
HETATM   15  C   UNK N   1      34.917  14.894  11.318  0.00  0.00     0.032 A 
HETATM   16  N   UNK N   1      36.940  13.819   8.603  0.00  0.00    -0.231 N 
HETATM   17  C   UNK N   1      37.273  13.340  11.018  0.00  0.00     0.032 A 
HETATM   18  C   UNK N   1      35.972  14.553   7.971  0.00  0.00     0.337 A 
HETATM   19  C   UNK N   1      37.979  13.126   8.012  0.00  0.00     0.232 C 
HETATM   20  O   UNK N   1      35.918  14.726   6.764  0.00  0.00    -0.246 OA
HETATM   21  O   UNK N   1      38.756  12.481   8.703  0.00  0.00    -0.273 OA
HETATM   22  C   UNK N   1      36.727  13.573  12.294  0.00  0.00     0.002 A 
HETATM   23  C   UNK N   1      35.557  14.349  12.444  0.00  0.00     0.002 A 
BRANCH  19  24
HETATM   24  C   UNK N   1      38.136  13.129   6.510  0.00  0.00     0.099 C 
HETATM   25  C   UNK N   1      39.286  13.989   6.016  0.00  0.00     0.014 C 
ENDBRANCH  19  24
ENDBRANCH   9  12
ENDBRANCH   5   6
ENDBRANCH   4   5
ENDBRANCH   2   4
BRANCH   2  26
HETATM   26  C   UNK N   1      27.980  18.576   6.245  0.00  0.00    -0.031 A 
HETATM   27  C   UNK N   1      27.645  19.714   6.999  0.00  0.00     0.009 A 
HETATM   28  C   UNK N   1      27.259  20.907   6.386  0.00  0.00     0.001 A 
HETATM   29  C   UNK N   1      27.174  20.978   4.996  0.00  0.00     0.000 A 
HETATM   30  C   UNK N   1      27.510  19.866   4.226  0.00  0.00     0.001 A 
HETATM   31  C   UNK N   1      27.919  18.681   4.845  0.00  0.00     0.009 A 
ENDBRANCH   2  26
BRANCH   2  32
HETATM   32  C   UNK N   1      27.492  15.987   6.384  0.00  0.00    -0.031 A 
HETATM   33  C   UNK N   1      28.092  15.086   5.476  0.00  0.00     0.009 A 
HETATM   34  C   UNK N   1      27.429  13.917   5.080  0.00  0.00     0.001 A 
HETATM   35  C   UNK N   1      26.166  13.617   5.594  0.00  0.00     0.000 A 
HETATM   36  C   UNK N   1      25.556  14.491   6.490  0.00  0.00     0.001 A 
HETATM   37  C   UNK N   1      26.215  15.658   6.877  0.00  0.00     0.009 A 
ENDBRANCH   2  32
TORSDOF 7
ENDMDL
MODEL 7
REMARK VINA RESULT:      -8.3     12.901     17.388
REMARK  7 active torsions:
REMARK  status: ('A' for Active; 'I' for Inactive)
REMARK    1  A    between atoms: N_3  and  C_12 
REMARK    2  A    between atoms: N_4  and  C_7 
REMARK       I    between atoms: N_5  and  C_22 
REMARK    3  A    between atoms: C_12  and  C_13 
REMARK    4  A    between atoms: C_13  and  C_15 
REMARK    5  A    between atoms: C_15  and  C_18 
REMARK    6  A    between atoms: C_15  and  C_19 
REMARK    7  A    between atoms: C_22  and  C_30 
ROOT
HETATM    1  N   UNK N   1      37.439   8.954  19.708  0.00  0.00    -0.196 NA
HETATM    2  C   UNK N   1      35.187   9.924  18.711  0.00  0.00     0.104 C 
HETATM    3  C   UNK N   1      36.466   9.405  19.273  0.00  0.00     0.079 C 
ENDROOT
BRANCH   2   4
HETATM    4  C   UNK N   1      34.884   9.193  17.359  0.00  0.00     0.065 C 
BRANCH   4   5
HETATM    5  C   UNK N   1      36.159   8.454  16.907  0.00  0.00     0.275 C 
BRANCH   5   6
HETATM    6  N   UNK N   1      36.562   8.448  15.518  0.00  0.00     0.088 N 
HETATM    7  C   UNK N   1      35.421   9.004  14.774  0.00  0.00     0.274 C 
HETATM    8  C   UNK N   1      35.829   9.674  13.468  0.00  0.00     0.056 C 
HETATM    9  C   UNK N   1      36.786  10.810  13.795  0.00  0.00     0.098 C 
HETATM   10  C   UNK N   1      38.028  10.151  14.357  0.00  0.00     0.056 C 
HETATM   11  C   UNK N   1      37.674   9.409  15.631  0.00  0.00     0.274 C 
BRANCH   9  12
HETATM   12  N   UNK N   1      37.055  11.605  12.590  0.00  0.00    -0.292 N 
HETATM   13  C   UNK N   1      37.670  11.272  11.429  0.00  0.00     0.066 A 
HETATM   14  C   UNK N   1      37.622  12.342  10.567  0.00  0.00     0.074 A 
HETATM   15  C   UNK N   1      38.275  10.067  11.068  0.00  0.00     0.032 A 
HETATM   16  N   UNK N   1      36.979  13.373  11.167  0.00  0.00    -0.231 N 
HETATM   17  C   UNK N   1      38.163  12.270   9.282  0.00  0.00     0.032 A 
HETATM   18  C   UNK N   1      36.668  12.901  12.415  0.00  0.00     0.337 A 
HETATM   19  C   UNK N   1      36.668  14.613  10.644  0.00  0.00     0.232 C 
HETATM   20  O   UNK N   1      36.084  13.549  13.268  0.00  0.00    -0.246 OA
HETATM   21  O   UNK N   1      36.983  14.888   9.494  0.00  0.00    -0.273 OA
HETATM   22  C   UNK N   1      38.779  11.065   8.894  0.00  0.00     0.002 A 
HETATM   23  C   UNK N   1      38.837   9.970   9.785  0.00  0.00     0.002 A 
BRANCH  19  24
HETATM   24  C   UNK N   1      35.903  15.617  11.473  0.00  0.00     0.099 C 
HETATM   25  C   UNK N   1      35.381  16.799  10.677  0.00  0.00     0.014 C 
ENDBRANCH  19  24
ENDBRANCH   9  12
ENDBRANCH   5   6
ENDBRANCH   4   5
ENDBRANCH   2   4
BRANCH   2  26
HETATM   26  C   UNK N   1      35.292  11.432  18.374  0.00  0.00    -0.031 A 
HETATM   27  C   UNK N   1      35.271  12.435  19.359  0.00  0.00     0.009 A 
HETATM   28  C   UNK N   1      35.258  13.789  19.021  0.00  0.00     0.001 A 
HETATM   29  C   UNK N   1      35.242  14.171  17.680  0.00  0.00     0.000 A 
HETATM   30  C   UNK N   1      35.272  13.196  16.684  0.00  0.00     0.001 A 
HETATM   31  C   UNK N   1      35.308  11.842  17.030  0.00  0.00     0.009 A 
ENDBRANCH   2  26
BRANCH   2  32
HETATM   32  C   UNK N   1      34.155   9.519  19.789  0.00  0.00    -0.031 A 
HETATM   33  C   UNK N   1      34.274  10.040  21.097  0.00  0.00     0.009 A 
HETATM   34  C   UNK N   1      33.296   9.780  22.066  0.00  0.00     0.001 A 
HETATM   35  C   UNK N   1      32.175   9.011  21.744  0.00  0.00     0.000 A 
HETATM   36  C   UNK N   1      32.038   8.488  20.461  0.00  0.00     0.001 A 
HETATM   37  C   UNK N   1      33.017   8.742  19.501  0.00  0.00     0.009 A 
ENDBRANCH   2  32
TORSDOF 7
ENDMDL
MODEL 8
REMARK VINA RESULT:      -8.2     13.747     17.188
REMARK  7 active torsions:
REMARK  status: ('A' for Active; 'I' for Inactive)
REMARK    1  A    between atoms: N_3  and  C_12 
REMARK    2  A    between atoms: N_4  and  C_7 
REMARK       I    between atoms: N_5  and  C_22 
REMARK    3  A    between atoms: C_12  and  C_13 
REMARK    4  A    between atoms: C_13  and  C_15 
REMARK    5  A    between atoms: C_15  and  C_18 
REMARK    6  A    between atoms: C_15  and  C_19 
REMARK    7  A    between atoms: C_22  and  C_30 
ROOT
HETATM    1  N   UNK N   1      37.451   8.941  19.391  0.00  0.00    -0.196 NA
HETATM    2  C   UNK N   1      35.205   9.982  18.454  0.00  0.00     0.104 C 
HETATM    3  C   UNK N   1      36.481   9.423  18.984  0.00  0.00     0.079 C 
ENDROOT
BRANCH   2   4
HETATM    4  C   UNK N   1      34.900   9.339  17.060  0.00  0.00     0.065 C 
BRANCH   4   5
HETATM    5  C   UNK N   1      36.146   8.557  16.600  0.00  0.00     0.275 C 
BRANCH   5   6
HETATM    6  N   UNK N   1      36.602   8.623  15.228  0.00  0.00     0.088 N 
HETATM    7  C   UNK N   1      35.446   9.095  14.451  0.00  0.00     0.274 C 
HETATM    8  C   UNK N   1      35.842   9.832  13.179  0.00  0.00     0.056 C 
HETATM    9  C   UNK N   1      36.679  11.041  13.570  0.00  0.00     0.098 C 
HETATM   10  C   UNK N   1      37.953  10.481  14.168  0.00  0.00     0.056 C 
HETATM   11  C   UNK N   1      37.617   9.676  15.410  0.00  0.00     0.274 C 
BRANCH   9  12
HETATM   12  N   UNK N   1      36.921  11.887  12.396  0.00  0.00    -0.292 N 
HETATM   13  C   UNK N   1      36.546  13.162  12.131  0.00  0.00     0.066 A 
HETATM   14  C   UNK N   1      37.070  13.547  10.920  0.00  0.00     0.074 A 
HETATM   15  C   UNK N   1      35.765  14.027  12.900  0.00  0.00     0.032 A 
HETATM   16  N   UNK N   1      37.784  12.523  10.393  0.00  0.00    -0.231 N 
HETATM   17  C   UNK N   1      36.860  14.829  10.407  0.00  0.00     0.032 A 
HETATM   18  C   UNK N   1      37.651  11.511  11.306  0.00  0.00     0.337 A 
HETATM   19  C   UNK N   1      38.514  12.498   9.221  0.00  0.00     0.232 C 
HETATM   20  O   UNK N   1      38.152  10.404  11.184  0.00  0.00    -0.246 OA
HETATM   21  O   UNK N   1      38.569  13.494   8.513  0.00  0.00    -0.273 OA
HETATM   22  C   UNK N   1      36.076  15.720  11.164  0.00  0.00     0.002 A 
HETATM   23  C   UNK N   1      35.528  15.319  12.403  0.00  0.00     0.002 A 
BRANCH  19  24
HETATM   24  C   UNK N   1      39.279  11.256   8.830  0.00  0.00     0.099 C 
HETATM   25  C   UNK N   1      40.775  11.476   8.690  0.00  0.00     0.014 C 
ENDBRANCH  19  24
ENDBRANCH   9  12
ENDBRANCH   5   6
ENDBRANCH   4   5
ENDBRANCH   2   4
BRANCH   2  26
HETATM   26  C   UNK N   1      35.318  11.509  18.212  0.00  0.00    -0.031 A 
HETATM   27  C   UNK N   1      35.314  12.448  19.259  0.00  0.00     0.009 A 
HETATM   28  C   UNK N   1      35.308  13.820  19.007  0.00  0.00     0.001 A 
HETATM   29  C   UNK N   1      35.281  14.286  17.693  0.00  0.00     0.000 A 
HETATM   30  C   UNK N   1      35.294  13.375  16.638  0.00  0.00     0.001 A 
HETATM   31  C   UNK N   1      35.323  12.002  16.897  0.00  0.00     0.009 A 
ENDBRANCH   2  26
BRANCH   2  32
HETATM   32  C   UNK N   1      34.169   9.516  19.504  0.00  0.00    -0.031 A 
HETATM   33  C   UNK N   1      34.214  10.052  20.811  0.00  0.00     0.009 A 
HETATM   34  C   UNK N   1      33.227   9.733  21.753  0.00  0.00     0.001 A 
HETATM   35  C   UNK N   1      32.169   8.890  21.403  0.00  0.00     0.000 A 
HETATM   36  C   UNK N   1      32.106   8.351  20.121  0.00  0.00     0.001 A 
HETATM   37  C   UNK N   1      33.094   8.664  19.188  0.00  0.00     0.009 A 
ENDBRANCH   2  32
TORSDOF 7
ENDMDL
MODEL 9
REMARK VINA RESULT:      -8.1      2.318      3.503
REMARK  7 active torsions:
REMARK  status: ('A' for Active; 'I' for Inactive)
REMARK    1  A    between atoms: N_3  and  C_12 
REMARK    2  A    between atoms: N_4  and  C_7 
REMARK       I    between atoms: N_5  and  C_22 
REMARK    3  A    between atoms: C_12  and  C_13 
REMARK    4  A    between atoms: C_13  and  C_15 
REMARK    5  A    between atoms: C_15  and  C_18 
REMARK    6  A    between atoms: C_15  and  C_19 
REMARK    7  A    between atoms: C_22  and  C_30 
ROOT
HETATM    1  N   UNK N   1      27.552  15.671   6.657  0.00  0.00    -0.196 NA
HETATM    2  C   UNK N   1      28.832  17.268   4.979  0.00  0.00     0.104 C 
HETATM    3  C   UNK N   1      28.137  16.363   5.938  0.00  0.00     0.079 C 
ENDROOT
BRANCH   2   4
HETATM    4  C   UNK N   1      28.579  16.763   3.518  0.00  0.00     0.065 C 
BRANCH   4   5
HETATM    5  C   UNK N   1      28.120  15.293   3.582  0.00  0.00     0.275 C 
BRANCH   5   6
HETATM    6  N   UNK N   1      26.848  14.885   3.027  0.00  0.00     0.088 N 
HETATM    7  C   UNK N   1      26.250  13.990   4.030  0.00  0.00     0.274 C 
HETATM    8  C   UNK N   1      24.728  13.968   3.979  0.00  0.00     0.056 C 
HETATM    9  C   UNK N   1      24.222  15.378   4.236  0.00  0.00     0.098 C 
HETATM   10  C   UNK N   1      24.690  16.204   3.055  0.00  0.00     0.056 C 
HETATM   11  C   UNK N   1      26.206  16.211   3.013  0.00  0.00     0.274 C 
BRANCH   9  12
HETATM   12  N   UNK N   1      22.762  15.371   4.388  0.00  0.00    -0.292 N 
HETATM   13  C   UNK N   1      21.788  14.933   3.553  0.00  0.00     0.066 A 
HETATM   14  C   UNK N   1      20.567  15.077   4.167  0.00  0.00     0.074 A 
HETATM   15  C   UNK N   1      21.905  14.399   2.269  0.00  0.00     0.032 A 
HETATM   16  N   UNK N   1      20.743  15.612   5.399  0.00  0.00    -0.231 N 
HETATM   17  C   UNK N   1      19.383  14.682   3.540  0.00  0.00     0.032 A 
HETATM   18  C   UNK N   1      22.096  15.807   5.495  0.00  0.00     0.337 A 
HETATM   19  C   UNK N   1      19.793  15.875   6.366  0.00  0.00     0.232 C 
HETATM   20  O   UNK N   1      22.654  16.286   6.469  0.00  0.00    -0.246 OA
HETATM   21  O   UNK N   1      18.616  15.619   6.153  0.00  0.00    -0.273 OA
HETATM   22  C   UNK N   1      19.474  14.140   2.244  0.00  0.00     0.002 A 
HETATM   23  C   UNK N   1      20.729  14.003   1.610  0.00  0.00     0.002 A 
BRANCH  19  24
HETATM   24  C   UNK N   1      20.207  16.442   7.703  0.00  0.00     0.099 C 
HETATM   25  C   UNK N   1      20.034  15.473   8.860  0.00  0.00     0.014 C 
ENDBRANCH  19  24
ENDBRANCH   9  12
ENDBRANCH   5   6
ENDBRANCH   4   5
ENDBRANCH   2   4
BRANCH   2  26
HETATM   26  C   UNK N   1      30.367  17.236   5.189  0.00  0.00    -0.031 A 
HETATM   27  C   UNK N   1      30.959  17.077   6.454  0.00  0.00     0.009 A 
HETATM   28  C   UNK N   1      32.341  17.160   6.628  0.00  0.00     0.001 A 
HETATM   29  C   UNK N   1      33.164  17.431   5.536  0.00  0.00     0.000 A 
HETATM   30  C   UNK N   1      32.603  17.583   4.269  0.00  0.00     0.001 A 
HETATM   31  C   UNK N   1      31.220  17.475   4.098  0.00  0.00     0.009 A 
ENDBRANCH   2  26
BRANCH   2  32
HETATM   32  C   UNK N   1      28.123  18.622   5.215  0.00  0.00    -0.031 A 
HETATM   33  C   UNK N   1      28.077  19.165   6.519  0.00  0.00     0.009 A 
HETATM   34  C   UNK N   1      27.539  20.438   6.748  0.00  0.00     0.001 A 
HETATM   35  C   UNK N   1      27.053  21.198   5.682  0.00  0.00     0.000 A 
HETATM   36  C   UNK N   1      27.088  20.681   4.389  0.00  0.00     0.001 A 
HETATM   37  C   UNK N   1      27.617  19.411   4.165  0.00  0.00     0.009 A 
ENDBRANCH   2  32
TORSDOF 7
ENDMDL
