MODEL 1
REMARK VINA RESULT:      -5.8      0.000      0.000
REMARK  3 active torsions:
REMARK  status: ('A' for Active; 'I' for Inactive)
REMARK    1  A    between atoms: N_1  and  C_5 
REMARK    2  A    between atoms: N_1  and  C_10 
REMARK    3  A    between atoms: C_4  and  C_9 
ROOT
HETATM    1  C   UNK N   1      35.656  10.050  15.058  0.00  0.00    -0.004 C 
HETATM    2  C   UNK N   1      35.629  11.738  13.561  0.00  0.00     0.009 C 
HETATM    3  C   UNK N   1      36.282  11.227  15.814  0.00  0.00     0.045 C 
HETATM    4  C   UNK N   1      36.052  12.414  14.874  0.00  0.00     0.089 C 
HETATM    5  C   UNK N   1      36.222  10.352  13.693  0.00  0.00     0.012 C 
HETATM    6  C   UNK N   1      34.164  10.297  14.809  0.00  0.00     0.006 C 
HETATM    7  C   UNK N   1      34.154  11.397  13.743  0.00  0.00     0.007 C 
ENDROOT
BRANCH   3   8
HETATM    8  C   UNK N   1      35.900  11.496  17.240  0.00  0.00    -0.052 A 
HETATM    9  C   UNK N   1      35.396  12.761  17.577  0.00  0.00     0.007 A 
HETATM   10  C   UNK N   1      35.059  13.060  18.898  0.00  0.00     0.001 A 
HETATM   11  C   UNK N   1      35.219  12.094  19.895  0.00  0.00     0.000 A 
HETATM   12  C   UNK N   1      35.721  10.830  19.568  0.00  0.00     0.001 A 
HETATM   13  C   UNK N   1      36.068  10.533  18.248  0.00  0.00     0.007 A 
ENDBRANCH   3   8
BRANCH   4  14
HETATM   14  N   UNK N   1      37.205  13.310  14.766  0.00  0.00    -0.416 N 
HETATM   15  H   UNK N   1      38.173  12.991  14.733  0.00  0.00     0.153 HD
BRANCH  14  16
HETATM   16  C   UNK N   1      36.810  14.712  14.711  0.00  0.00     0.110 C 
HETATM   17  C   UNK N   1      37.368  15.429  15.922  0.00  0.00     0.026 C 
ENDBRANCH  14  16
ENDBRANCH   4  14
TORSDOF 3
ENDMDL
MODEL 2
REMARK VINA RESULT:      -5.7     24.521     26.745
REMARK  3 active torsions:
REMARK  status: ('A' for Active; 'I' for Inactive)
REMARK    1  A    between atoms: N_1  and  C_5 
REMARK    2  A    between atoms: N_1  and  C_10 
REMARK    3  A    between atoms: C_4  and  C_9 
ROOT
HETATM    1  C   UNK N   1      26.063  26.594  -4.645  0.00  0.00    -0.004 C 
HETATM    2  C   UNK N   1      25.571  26.330  -6.832  0.00  0.00     0.009 C 
HETATM    3  C   UNK N   1      26.187  25.085  -4.874  0.00  0.00     0.045 C 
HETATM    4  C   UNK N   1      26.075  24.947  -6.395  0.00  0.00     0.089 C 
HETATM    5  C   UNK N   1      24.905  26.853  -5.577  0.00  0.00     0.012 C 
HETATM    6  C   UNK N   1      27.185  27.347  -5.369  0.00  0.00     0.006 C 
HETATM    7  C   UNK N   1      26.808  27.221  -6.848  0.00  0.00     0.007 C 
ENDROOT
BRANCH   3   8
HETATM    8  C   UNK N   1      27.333  24.323  -4.276  0.00  0.00    -0.052 A 
HETATM    9  C   UNK N   1      27.309  24.032  -2.904  0.00  0.00     0.007 A 
HETATM   10  C   UNK N   1      28.371  23.353  -2.305  0.00  0.00     0.001 A 
HETATM   11  C   UNK N   1      29.467  22.954  -3.075  0.00  0.00     0.000 A 
HETATM   12  C   UNK N   1      29.501  23.240  -4.444  0.00  0.00     0.001 A 
HETATM   13  C   UNK N   1      28.442  23.929  -5.042  0.00  0.00     0.007 A 
ENDBRANCH   3   8
BRANCH   4  14
HETATM   14  N   UNK N   1      25.243  23.820  -6.824  0.00  0.00    -0.416 N 
HETATM   15  H   UNK N   1      24.247  23.739  -6.621  0.00  0.00     0.153 HD
BRANCH  14  16
HETATM   16  C   UNK N   1      26.002  22.827  -7.573  0.00  0.00     0.110 C 
HETATM   17  C   UNK N   1      25.182  21.560  -7.684  0.00  0.00     0.026 C 
ENDBRANCH  14  16
ENDBRANCH   4  14
TORSDOF 3
ENDMDL
MODEL 3
REMARK VINA RESULT:      -5.6      9.508     11.608
REMARK  3 active torsions:
REMARK  status: ('A' for Active; 'I' for Inactive)
REMARK    1  A    between atoms: N_1  and  C_5 
REMARK    2  A    between atoms: N_1  and  C_10 
REMARK    3  A    between atoms: C_4  and  C_9 
ROOT
HETATM    1  C   UNK N   1      31.314  16.171   5.184  0.00  0.00    -0.004 C 
HETATM    2  C   UNK N   1      33.528  16.510   5.459  0.00  0.00     0.009 C 
HETATM    3  C   UNK N   1      31.487  16.278   6.702  0.00  0.00     0.045 C 
HETATM    4  C   UNK N   1      32.942  16.730   6.861  0.00  0.00     0.089 C 
HETATM    5  C   UNK N   1      32.607  15.460   4.875  0.00  0.00     0.012 C 
HETATM    6  C   UNK N   1      31.565  17.526   4.512  0.00  0.00     0.006 C 
HETATM    7  C   UNK N   1      33.079  17.717   4.643  0.00  0.00     0.007 C 
ENDROOT
BRANCH   3   8
HETATM    8  C   UNK N   1      30.510  17.071   7.519  0.00  0.00    -0.052 A 
HETATM    9  C   UNK N   1      29.149  17.016   7.186  0.00  0.00     0.007 A 
HETATM   10  C   UNK N   1      28.213  17.764   7.902  0.00  0.00     0.001 A 
HETATM   11  C   UNK N   1      28.631  18.572   8.963  0.00  0.00     0.000 A 
HETATM   12  C   UNK N   1      29.986  18.635   9.302  0.00  0.00     0.001 A 
HETATM   13  C   UNK N   1      30.924  17.894   8.579  0.00  0.00     0.007 A 
ENDBRANCH   3   8
BRANCH   4  14
HETATM   14  N   UNK N   1      33.655  16.048   7.944  0.00  0.00    -0.416 N 
HETATM   15  H   UNK N   1      33.526  15.064   8.179  0.00  0.00     0.153 HD
BRANCH  14  16
HETATM   16  C   UNK N   1      34.569  16.938   8.649  0.00  0.00     0.110 C 
HETATM   17  C   UNK N   1      34.374  18.350   8.139  0.00  0.00     0.026 C 
ENDBRANCH  14  16
ENDBRANCH   4  14
TORSDOF 3
ENDMDL
MODEL 4
REMARK VINA RESULT:      -5.5      1.444      2.545
REMARK  3 active torsions:
REMARK  status: ('A' for Active; 'I' for Inactive)
REMARK    1  A    between atoms: N_1  and  C_5 
REMARK    2  A    between atoms: N_1  and  C_10 
REMARK    3  A    between atoms: C_4  and  C_9 
ROOT
HETATM    1  C   UNK N   1      34.579   9.870  15.480  0.00  0.00    -0.004 C 
HETATM    2  C   UNK N   1      35.618  10.572  13.604  0.00  0.00     0.009 C 
HETATM    3  C   UNK N   1      35.756  10.704  15.997  0.00  0.00     0.045 C 
HETATM    4  C   UNK N   1      36.314  11.354  14.727  0.00  0.00     0.089 C 
HETATM    5  C   UNK N   1      35.262   9.265  14.279  0.00  0.00     0.012 C 
HETATM    6  C   UNK N   1      33.539  10.765  14.796  0.00  0.00     0.006 C 
HETATM    7  C   UNK N   1      34.226  11.183  13.492  0.00  0.00     0.007 C 
ENDROOT
BRANCH   3   8
HETATM    8  C   UNK N   1      35.560  11.660  17.136  0.00  0.00    -0.052 A 
HETATM    9  C   UNK N   1      35.510  11.154  18.443  0.00  0.00     0.007 A 
HETATM   10  C   UNK N   1      35.298  12.008  19.526  0.00  0.00     0.001 A 
HETATM   11  C   UNK N   1      35.138  13.380  19.312  0.00  0.00     0.000 A 
HETATM   12  C   UNK N   1      35.186  13.895  18.012  0.00  0.00     0.001 A 
HETATM   13  C   UNK N   1      35.389  13.038  16.927  0.00  0.00     0.007 A 
ENDBRANCH   3   8
BRANCH   4  14
HETATM   14  N   UNK N   1      37.777  11.361  14.664  0.00  0.00    -0.416 N 
HETATM   15  H   UNK N   1      38.363  12.047  15.140  0.00  0.00     0.153 HD
BRANCH  14  16
HETATM   16  C   UNK N   1      38.299  10.277  13.842  0.00  0.00     0.110 C 
HETATM   17  C   UNK N   1      39.116   9.348  14.714  0.00  0.00     0.026 C 
ENDBRANCH  14  16
ENDBRANCH   4  14
TORSDOF 3
ENDMDL
MODEL 5
REMARK VINA RESULT:      -5.4     24.272     26.403
REMARK  3 active torsions:
REMARK  status: ('A' for Active; 'I' for Inactive)
REMARK    1  A    between atoms: N_1  and  C_5 
REMARK    2  A    between atoms: N_1  and  C_10 
REMARK    3  A    between atoms: C_4  and  C_9 
ROOT
HETATM    1  C   UNK N   1      27.607  26.695  -6.067  0.00  0.00    -0.004 C 
HETATM    2  C   UNK N   1      25.561  27.404  -5.431  0.00  0.00     0.009 C 
HETATM    3  C   UNK N   1      27.643  26.609  -4.538  0.00  0.00     0.045 C 
HETATM    4  C   UNK N   1      26.190  26.874  -4.134  0.00  0.00     0.089 C 
HETATM    5  C   UNK N   1      26.760  27.936  -6.188  0.00  0.00     0.012 C 
HETATM    6  C   UNK N   1      26.655  25.642  -6.647  0.00  0.00     0.006 C 
HETATM    7  C   UNK N   1      25.266  26.166  -6.269  0.00  0.00     0.007 C 
ENDROOT
BRANCH   3   8
HETATM    8  C   UNK N   1      28.256  25.417  -3.863  0.00  0.00    -0.052 A 
HETATM    9  C   UNK N   1      27.414  24.499  -3.218  0.00  0.00     0.007 A 
HETATM   10  C   UNK N   1      27.948  23.394  -2.553  0.00  0.00     0.001 A 
HETATM   11  C   UNK N   1      29.331  23.195  -2.531  0.00  0.00     0.000 A 
HETATM   12  C   UNK N   1      30.179  24.105  -3.171  0.00  0.00     0.001 A 
HETATM   13  C   UNK N   1      29.645  25.216  -3.829  0.00  0.00     0.007 A 
ENDBRANCH   3   8
BRANCH   4  14
HETATM   14  N   UNK N   1      26.053  27.756  -2.973  0.00  0.00    -0.416 N 
HETATM   15  H   UNK N   1      25.279  27.706  -2.309  0.00  0.00     0.153 HD
BRANCH  14  16
HETATM   16  C   UNK N   1      27.147  28.713  -2.875  0.00  0.00     0.110 C 
HETATM   17  C   UNK N   1      26.628  30.092  -3.222  0.00  0.00     0.026 C 
ENDBRANCH  14  16
ENDBRANCH   4  14
TORSDOF 3
ENDMDL
MODEL 6
REMARK VINA RESULT:      -5.3     25.019     27.298
REMARK  3 active torsions:
REMARK  status: ('A' for Active; 'I' for Inactive)
REMARK    1  A    between atoms: N_1  and  C_5 
REMARK    2  A    between atoms: N_1  and  C_10 
REMARK    3  A    between atoms: C_4  and  C_9 
ROOT
HETATM    1  C   UNK N   1      25.349  25.829  -5.403  0.00  0.00    -0.004 C 
HETATM    2  C   UNK N   1      27.017  24.341  -5.712  0.00  0.00     0.009 C 
HETATM    3  C   UNK N   1      26.512  26.401  -4.587  0.00  0.00     0.045 C 
HETATM    4  C   UNK N   1      27.694  25.512  -4.984  0.00  0.00     0.089 C 
HETATM    5  C   UNK N   1      25.612  24.366  -5.148  0.00  0.00     0.012 C 
HETATM    6  C   UNK N   1      25.646  25.915  -6.905  0.00  0.00     0.006 C 
HETATM    7  C   UNK N   1      26.731  24.855  -7.118  0.00  0.00     0.007 C 
ENDROOT
BRANCH   3   8
HETATM    8  C   UNK N   1      26.813  27.870  -4.630  0.00  0.00    -0.052 A 
HETATM    9  C   UNK N   1      26.177  28.718  -3.711  0.00  0.00     0.007 A 
HETATM   10  C   UNK N   1      26.408  30.094  -3.739  0.00  0.00     0.001 A 
HETATM   11  C   UNK N   1      27.282  30.635  -4.686  0.00  0.00     0.000 A 
HETATM   12  C   UNK N   1      27.921  29.798  -5.607  0.00  0.00     0.001 A 
HETATM   13  C   UNK N   1      27.682  28.421  -5.585  0.00  0.00     0.007 A 
ENDBRANCH   3   8
BRANCH   4  14
HETATM   14  N   UNK N   1      28.547  25.130  -3.857  0.00  0.00    -0.416 N 
HETATM   15  H   UNK N   1      28.804  25.762  -3.098  0.00  0.00     0.153 HD
BRANCH  14  16
HETATM   16  C   UNK N   1      28.990  23.744  -3.943  0.00  0.00     0.110 C 
HETATM   17  C   UNK N   1      29.138  23.185  -2.545  0.00  0.00     0.026 C 
ENDBRANCH  14  16
ENDBRANCH   4  14
TORSDOF 3
ENDMDL
MODEL 7
REMARK VINA RESULT:      -5.3     11.950     13.904
REMARK  3 active torsions:
REMARK  status: ('A' for Active; 'I' for Inactive)
REMARK    1  A    between atoms: N_1  and  C_5 
REMARK    2  A    between atoms: N_1  and  C_10 
REMARK    3  A    between atoms: C_4  and  C_9 
ROOT
HETATM    1  C   UNK N   1      29.119  16.115   4.833  0.00  0.00    -0.004 C 
HETATM    2  C   UNK N   1      27.553  17.238   3.659  0.00  0.00     0.009 C 
HETATM    3  C   UNK N   1      29.159  17.529   5.420  0.00  0.00     0.045 C 
HETATM    4  C   UNK N   1      27.948  18.213   4.779  0.00  0.00     0.089 C 
HETATM    5  C   UNK N   1      28.844  16.491   3.399  0.00  0.00     0.012 C 
HETATM    6  C   UNK N   1      27.808  15.411   5.201  0.00  0.00     0.006 C 
HETATM    7  C   UNK N   1      26.760  16.135   4.350  0.00  0.00     0.007 C 
ENDROOT
BRANCH   3   8
HETATM    8  C   UNK N   1      29.255  17.727   6.904  0.00  0.00    -0.052 A 
HETATM    9  C   UNK N   1      30.481  17.486   7.541  0.00  0.00     0.007 A 
HETATM   10  C   UNK N   1      30.602  17.629   8.924  0.00  0.00     0.001 A 
HETATM   11  C   UNK N   1      29.497  18.020   9.684  0.00  0.00     0.000 A 
HETATM   12  C   UNK N   1      28.270  18.263   9.059  0.00  0.00     0.001 A 
HETATM   13  C   UNK N   1      28.146  18.110   7.675  0.00  0.00     0.007 A 
ENDBRANCH   3   8
BRANCH   4  14
HETATM   14  N   UNK N   1      28.211  19.585   4.341  0.00  0.00    -0.416 N 
HETATM   15  H   UNK N   1      29.074  19.882   3.885  0.00  0.00     0.153 HD
BRANCH  14  16
HETATM   16  C   UNK N   1      27.099  20.481   4.634  0.00  0.00     0.110 C 
HETATM   17  C   UNK N   1      27.377  21.204   5.934  0.00  0.00     0.026 C 
ENDBRANCH  14  16
ENDBRANCH   4  14
TORSDOF 3
ENDMDL
MODEL 8
REMARK VINA RESULT:      -5.3      8.559     11.063
REMARK  3 active torsions:
REMARK  status: ('A' for Active; 'I' for Inactive)
REMARK    1  A    between atoms: N_1  and  C_5 
REMARK    2  A    between atoms: N_1  and  C_10 
REMARK    3  A    between atoms: C_4  and  C_9 
ROOT
HETATM    1  C   UNK N   1      33.216  17.551   6.826  0.00  0.00    -0.004 C 
HETATM    2  C   UNK N   1      34.165  15.978   8.137  0.00  0.00     0.009 C 
HETATM    3  C   UNK N   1      32.034  16.696   7.294  0.00  0.00     0.045 C 
HETATM    4  C   UNK N   1      32.657  15.781   8.352  0.00  0.00     0.089 C 
HETATM    5  C   UNK N   1      34.237  16.448   6.700  0.00  0.00     0.012 C 
HETATM    6  C   UNK N   1      33.804  18.351   7.995  0.00  0.00     0.006 C 
HETATM    7  C   UNK N   1      34.503  17.285   8.844  0.00  0.00     0.007 C 
ENDROOT
BRANCH   3   8
HETATM    8  C   UNK N   1      30.756  17.350   7.729  0.00  0.00    -0.052 A 
HETATM    9  C   UNK N   1      29.719  17.495   6.796  0.00  0.00     0.007 A 
HETATM   10  C   UNK N   1      28.527  18.126   7.155  0.00  0.00     0.001 A 
HETATM   11  C   UNK N   1      28.358  18.613   8.453  0.00  0.00     0.000 A 
HETATM   12  C   UNK N   1      29.386  18.474   9.391  0.00  0.00     0.001 A 
HETATM   13  C   UNK N   1      30.584  17.851   9.030  0.00  0.00     0.007 A 
ENDBRANCH   3   8
BRANCH   4  14
HETATM   14  N   UNK N   1      32.196  14.393   8.274  0.00  0.00    -0.416 N 
HETATM   15  H   UNK N   1      31.262  14.120   7.968  0.00  0.00     0.153 HD
BRANCH  14  16
HETATM   16  C   UNK N   1      33.225  13.446   8.685  0.00  0.00     0.110 C 
HETATM   17  C   UNK N   1      33.502  12.492   7.543  0.00  0.00     0.026 C 
ENDBRANCH  14  16
ENDBRANCH   4  14
TORSDOF 3
ENDMDL
MODEL 9
REMARK VINA RESULT:      -5.2      1.519      2.211
REMARK  3 active torsions:
REMARK  status: ('A' for Active; 'I' for Inactive)
REMARK    1  A    between atoms: N_1  and  C_5 
REMARK    2  A    between atoms: N_1  and  C_10 
REMARK    3  A    between atoms: C_4  and  C_9 
ROOT
HETATM    1  C   UNK N   1      36.082  10.370  14.317  0.00  0.00    -0.004 C 
HETATM    2  C   UNK N   1      34.941  11.508  12.738  0.00  0.00     0.009 C 
HETATM    3  C   UNK N   1      36.059  11.809  14.842  0.00  0.00     0.045 C 
HETATM    4  C   UNK N   1      35.097  12.519  13.884  0.00  0.00     0.089 C 
HETATM    5  C   UNK N   1      36.206  10.684  12.848  0.00  0.00     0.012 C 
HETATM    6  C   UNK N   1      34.679   9.753  14.361  0.00  0.00     0.006 C 
HETATM    7  C   UNK N   1      33.931  10.484  13.242  0.00  0.00     0.007 C 
ENDROOT
BRANCH   3   8
HETATM    8  C   UNK N   1      35.785  12.080  16.292  0.00  0.00    -0.052 A 
HETATM    9  C   UNK N   1      35.855  11.015  17.203  0.00  0.00     0.007 A 
HETATM   10  C   UNK N   1      35.576  11.220  18.555  0.00  0.00     0.001 A 
HETATM   11  C   UNK N   1      35.229  12.495  19.010  0.00  0.00     0.000 A 
HETATM   12  C   UNK N   1      35.156  13.563  18.109  0.00  0.00     0.001 A 
HETATM   13  C   UNK N   1      35.426  13.356  16.754  0.00  0.00     0.007 A 
ENDBRANCH   3   8
BRANCH   4  14
HETATM   14  N   UNK N   1      35.548  13.852  13.478  0.00  0.00    -0.416 N 
HETATM   15  H   UNK N   1      35.712  14.620  14.129  0.00  0.00     0.153 HD
BRANCH  14  16
HETATM   16  C   UNK N   1      35.736  13.955  12.036  0.00  0.00     0.110 C 
HETATM   17  C   UNK N   1      34.750  14.961  11.482  0.00  0.00     0.026 C 
ENDBRANCH  14  16
ENDBRANCH   4  14
TORSDOF 3
ENDMDL
