REMARK  3 active torsions:
REMARK  status: ('A' for Active; 'I' for Inactive)
REMARK    1  A    between atoms: N_1  and  C_5 
REMARK    2  A    between atoms: N_1  and  C_10 
REMARK    3  A    between atoms: C_4  and  C_9 
ROOT
HETATM    1  C   UNK N   1       5.486   0.752   1.017  0.00  0.00    -0.004 C 
HETATM    2  C   UNK N   1       5.199   2.294  -0.605  0.00  0.00     0.009 C 
HETATM    3  C   UNK N   1       4.076   0.474   0.486  0.00  0.00     0.045 C 
HETATM    4  C   UNK N   1       3.982   1.369  -0.753  0.00  0.00     0.089 C 
HETATM    5  C   UNK N   1       5.468   2.254   0.884  0.00  0.00     0.012 C 
HETATM    6  C   UNK N   1       6.543   0.385  -0.031  0.00  0.00     0.006 C 
HETATM    7  C   UNK N   1       6.387   1.475  -1.096  0.00  0.00     0.007 C 
ENDROOT
BRANCH   3   8
HETATM    8  C   UNK N   1       3.622  -0.937   0.254  0.00  0.00    -0.052 A 
HETATM    9  C   UNK N   1       2.272  -1.172  -0.046  0.00  0.00     0.007 A 
HETATM   10  C   UNK N   1       1.805  -2.473  -0.238  0.00  0.00     0.001 A 
HETATM   11  C   UNK N   1       2.686  -3.553  -0.136  0.00  0.00     0.000 A 
HETATM   12  C   UNK N   1       4.034  -3.329   0.163  0.00  0.00     0.001 A 
HETATM   13  C   UNK N   1       4.500  -2.027   0.365  0.00  0.00     0.007 A 
ENDBRANCH   3   8
BRANCH   4  14
HETATM   14  N   UNK N   1       2.695   2.055  -0.887  0.00  0.00    -0.416 N 
HETATM   15  H   UNK N   1       2.113   2.014  -1.724  0.00  0.00     0.153 HD
BRANCH  14  16
HETATM   16  C   UNK N   1       2.341   2.804   0.312  0.00  0.00     0.110 C 
HETATM   17  C   UNK N   1       0.890   3.225   0.220  0.00  0.00     0.026 C 
ENDBRANCH  14  16
ENDBRANCH   4  14
TORSDOF 3
