MODEL 1
REMARK VINA RESULT:      -7.3      0.000      0.000
REMARK  2 active torsions:
REMARK  status: ('A' for Active; 'I' for Inactive)
REMARK    1  A    between atoms: C_6  and  O_1 
REMARK    2  A    between atoms: C_6  and  C_14 
ROOT
HETATM    1  C   UNK N   1      28.164  24.870  -4.434  0.00  0.00    -0.009 C 
HETATM    2  C   UNK N   1      27.979  23.579  -5.227  0.00  0.00     0.001 C 
HETATM    3  C   UNK N   1      29.269  23.121  -5.946  0.00  0.00    -0.005 C 
HETATM    4  C   UNK N   1      30.474  23.050  -4.932  0.00  0.00    -0.002 C 
HETATM    5  C   UNK N   1      26.712  25.142  -3.987  0.00  0.00     0.065 C 
HETATM    6  C   UNK N   1      29.171  24.608  -3.317  0.00  0.00     0.013 C 
HETATM    7  C   UNK N   1      26.762  23.888  -6.102  0.00  0.00     0.009 C 
HETATM    8  C   UNK N   1      30.520  24.245  -3.947  0.00  0.00     0.006 C 
HETATM    9  C   UNK N   1      25.923  24.894  -5.281  0.00  0.00     0.039 C 
HETATM   10  C   UNK N   1      30.524  21.672  -4.246  0.00  0.00     0.019 C 
HETATM   11  C   UNK N   1      28.941  21.762  -6.616  0.00  0.00     0.009 C 
HETATM   12  C   UNK N   1      28.688  26.007  -5.339  0.00  0.00     0.019 C 
HETATM   13  C   UNK N   1      30.062  20.721  -6.646  0.00  0.00     0.034 C 
HETATM   14  C   UNK N   1      30.861  20.693  -5.374  0.00  0.00    -0.079 C 
HETATM   15  C   UNK N   1      31.535  21.612  -3.083  0.00  0.00     0.010 C 
HETATM   16  C   UNK N   1      32.951  21.350  -3.564  0.00  0.00     0.004 C 
HETATM   17  C   UNK N   1      31.981  19.945  -5.359  0.00  0.00    -0.024 C 
HETATM   18  C   UNK N   1      32.955  19.976  -4.217  0.00  0.00     0.027 C 
ENDROOT
BRANCH   5  19
HETATM   19  O   UNK N   1      26.313  24.174  -3.057  0.00  0.00    -0.389 OA
HETATM   20  H   UNK N   1      26.240  23.427  -2.443  0.00  0.00     0.210 HD
ENDBRANCH   5  19
BRANCH   5  21
HETATM   21  C   UNK N   1      26.440  26.512  -3.340  0.00  0.00     0.034 C 
HETATM   22  C   UNK N   1      25.582  27.460  -4.165  0.00  0.00     0.008 C 
ENDBRANCH   5  21
TORSDOF 2
ENDMDL
MODEL 2
REMARK VINA RESULT:      -7.0     19.273     21.916
REMARK  2 active torsions:
REMARK  status: ('A' for Active; 'I' for Inactive)
REMARK    1  A    between atoms: C_6  and  O_1 
REMARK    2  A    between atoms: C_6  and  C_14 
ROOT
HETATM    1  C   UNK N   1      35.684  13.899  11.815  0.00  0.00    -0.009 C 
HETATM    2  C   UNK N   1      34.923  12.581  11.935  0.00  0.00     0.001 C 
HETATM    3  C   UNK N   1      35.624  11.561  12.863  0.00  0.00    -0.005 C 
HETATM    4  C   UNK N   1      35.944  12.212  14.261  0.00  0.00    -0.002 C 
HETATM    5  C   UNK N   1      34.848  14.615  10.734  0.00  0.00     0.065 C 
HETATM    6  C   UNK N   1      35.712  14.563  13.189  0.00  0.00     0.013 C 
HETATM    7  C   UNK N   1      34.718  12.172  10.474  0.00  0.00     0.009 C 
HETATM    8  C   UNK N   1      36.484  13.660  14.157  0.00  0.00     0.006 C 
HETATM    9  C   UNK N   1      34.647  13.504   9.692  0.00  0.00     0.039 C 
HETATM   10  C   UNK N   1      34.746  12.060  15.217  0.00  0.00     0.019 C 
HETATM   11  C   UNK N   1      34.685  10.329  12.951  0.00  0.00     0.009 C 
HETATM   12  C   UNK N   1      37.131  13.663  11.331  0.00  0.00     0.019 C 
HETATM   13  C   UNK N   1      34.625   9.607  14.299  0.00  0.00     0.034 C 
HETATM   14  C   UNK N   1      34.641  10.553  15.465  0.00  0.00    -0.079 C 
HETATM   15  C   UNK N   1      34.906  12.869  16.521  0.00  0.00     0.010 C 
HETATM   16  C   UNK N   1      35.740  12.134  17.555  0.00  0.00     0.004 C 
HETATM   17  C   UNK N   1      34.775  10.021  16.696  0.00  0.00    -0.024 C 
HETATM   18  C   UNK N   1      34.984  10.864  17.919  0.00  0.00     0.027 C 
ENDROOT
BRANCH   5  19
HETATM   19  O   UNK N   1      33.587  14.944  11.249  0.00  0.00    -0.389 OA
HETATM   20  H   UNK N   1      32.759  15.010  11.748  0.00  0.00     0.210 HD
ENDBRANCH   5  19
BRANCH   5  21
HETATM   21  C   UNK N   1      35.440  15.913  10.158  0.00  0.00     0.034 C 
HETATM   22  C   UNK N   1      34.445  16.827   9.458  0.00  0.00     0.008 C 
ENDBRANCH   5  21
TORSDOF 2
ENDMDL
MODEL 3
REMARK VINA RESULT:      -7.0     22.375     25.207
REMARK  2 active torsions:
REMARK  status: ('A' for Active; 'I' for Inactive)
REMARK    1  A    between atoms: C_6  and  O_1 
REMARK    2  A    between atoms: C_6  and  C_14 
ROOT
HETATM    1  C   UNK N   1      35.906  11.474  14.098  0.00  0.00    -0.009 C 
HETATM    2  C   UNK N   1      36.051  12.523  15.197  0.00  0.00     0.001 C 
HETATM    3  C   UNK N   1      34.976  12.394  16.301  0.00  0.00    -0.005 C 
HETATM    4  C   UNK N   1      34.930  10.922  16.862  0.00  0.00    -0.002 C 
HETATM    5  C   UNK N   1      36.981  11.954  13.100  0.00  0.00     0.065 C 
HETATM    6  C   UNK N   1      36.132  10.097  14.715  0.00  0.00     0.013 C 
HETATM    7  C   UNK N   1      36.093  13.836  14.411  0.00  0.00     0.009 C 
HETATM    8  C   UNK N   1      35.039   9.839  15.758  0.00  0.00     0.006 C 
HETATM    9  C   UNK N   1      36.722  13.467  13.048  0.00  0.00     0.039 C 
HETATM   10  C   UNK N   1      35.942  10.747  18.009  0.00  0.00     0.019 C 
HETATM   11  C   UNK N   1      35.319  13.458  17.376  0.00  0.00     0.009 C 
HETATM   12  C   UNK N   1      34.498  11.525  13.464  0.00  0.00     0.019 C 
HETATM   13  C   UNK N   1      35.053  13.073  18.833  0.00  0.00     0.034 C 
HETATM   14  C   UNK N   1      35.410  11.645  19.131  0.00  0.00    -0.079 C 
HETATM   15  C   UNK N   1      36.109   9.279  18.450  0.00  0.00     0.010 C 
HETATM   16  C   UNK N   1      35.030   8.844  19.425  0.00  0.00     0.004 C 
HETATM   17  C   UNK N   1      35.048  11.150  20.330  0.00  0.00    -0.024 C 
HETATM   18  C   UNK N   1      35.186   9.696  20.676  0.00  0.00     0.027 C 
ENDROOT
BRANCH   5  19
HETATM   19  O   UNK N   1      38.256  11.762  13.648  0.00  0.00    -0.389 OA
HETATM   20  H   UNK N   1      39.026  11.535  14.191  0.00  0.00     0.210 HD
ENDBRANCH   5  19
BRANCH   5  21
HETATM   21  C   UNK N   1      36.988  11.272  11.720  0.00  0.00     0.034 C 
HETATM   22  C   UNK N   1      37.568  12.105  10.587  0.00  0.00     0.008 C 
ENDBRANCH   5  21
TORSDOF 2
ENDMDL
MODEL 4
REMARK VINA RESULT:      -6.6     10.397     12.373
REMARK  2 active torsions:
REMARK  status: ('A' for Active; 'I' for Inactive)
REMARK    1  A    between atoms: C_6  and  O_1 
REMARK    2  A    between atoms: C_6  and  C_14 
ROOT
HETATM    1  C   UNK N   1      28.400  17.725   5.191  0.00  0.00    -0.009 C 
HETATM    2  C   UNK N   1      29.211  18.247   6.373  0.00  0.00     0.001 C 
HETATM    3  C   UNK N   1      30.035  17.143   7.077  0.00  0.00    -0.005 C 
HETATM    4  C   UNK N   1      30.912  16.355   6.032  0.00  0.00    -0.002 C 
HETATM    5  C   UNK N   1      27.592  18.985   4.818  0.00  0.00     0.065 C 
HETATM    6  C   UNK N   1      29.371  17.214   4.130  0.00  0.00     0.013 C 
HETATM    7  C   UNK N   1      28.160  18.978   7.211  0.00  0.00     0.009 C 
HETATM    8  C   UNK N   1      30.164  16.039   4.713  0.00  0.00     0.006 C 
HETATM    9  C   UNK N   1      27.112  19.479   6.191  0.00  0.00     0.039 C 
HETATM   10  C   UNK N   1      32.270  17.054   5.828  0.00  0.00     0.019 C 
HETATM   11  C   UNK N   1      30.866  17.850   8.180  0.00  0.00     0.009 C 
HETATM   12  C   UNK N   1      27.465  16.574   5.624  0.00  0.00     0.019 C 
HETATM   13  C   UNK N   1      32.270  17.300   8.439  0.00  0.00     0.034 C 
HETATM   14  C   UNK N   1      32.983  16.910   7.176  0.00  0.00    -0.079 C 
HETATM   15  C   UNK N   1      33.083  16.464   4.658  0.00  0.00     0.010 C 
HETATM   16  C   UNK N   1      33.858  15.223   5.063  0.00  0.00     0.004 C 
HETATM   17  C   UNK N   1      34.150  16.248   7.299  0.00  0.00    -0.024 C 
HETATM   18  C   UNK N   1      34.864  15.649   6.123  0.00  0.00     0.027 C 
ENDROOT
BRANCH   5  19
HETATM   19  O   UNK N   1      28.449  19.961   4.294  0.00  0.00    -0.389 OA
HETATM   20  H   UNK N   1      28.869  20.769   3.963  0.00  0.00     0.210 HD
ENDBRANCH   5  19
BRANCH   5  21
HETATM   21  C   UNK N   1      26.461  18.795   3.791  0.00  0.00     0.034 C 
HETATM   22  C   UNK N   1      25.829  20.079   3.276  0.00  0.00     0.008 C 
ENDBRANCH   5  21
TORSDOF 2
ENDMDL
MODEL 5
REMARK VINA RESULT:      -6.6      2.213      3.422
REMARK  2 active torsions:
REMARK  status: ('A' for Active; 'I' for Inactive)
REMARK    1  A    between atoms: C_6  and  O_1 
REMARK    2  A    between atoms: C_6  and  C_14 
ROOT
HETATM    1  C   UNK N   1      27.343  26.673  -5.167  0.00  0.00    -0.009 C 
HETATM    2  C   UNK N   1      26.294  25.752  -5.783  0.00  0.00     0.001 C 
HETATM    3  C   UNK N   1      26.784  25.058  -7.076  0.00  0.00    -0.005 C 
HETATM    4  C   UNK N   1      28.163  24.338  -6.831  0.00  0.00    -0.002 C 
HETATM    5  C   UNK N   1      26.525  27.317  -4.028  0.00  0.00     0.065 C 
HETATM    6  C   UNK N   1      28.535  25.823  -4.736  0.00  0.00     0.013 C 
HETATM    7  C   UNK N   1      25.067  26.660  -5.898  0.00  0.00     0.009 C 
HETATM    8  C   UNK N   1      29.152  25.174  -5.980  0.00  0.00     0.006 C 
HETATM    9  C   UNK N   1      25.208  27.670  -4.736  0.00  0.00     0.039 C 
HETATM   10  C   UNK N   1      27.942  22.908  -6.305  0.00  0.00     0.019 C 
HETATM   11  C   UNK N   1      25.650  24.096  -7.516  0.00  0.00     0.009 C 
HETATM   12  C   UNK N   1      27.814  27.737  -6.183  0.00  0.00     0.019 C 
HETATM   13  C   UNK N   1      26.080  22.770  -8.146  0.00  0.00     0.034 C 
HETATM   14  C   UNK N   1      27.278  22.168  -7.470  0.00  0.00    -0.079 C 
HETATM   15  C   UNK N   1      29.244  22.229  -5.832  0.00  0.00     0.010 C 
HETATM   16  C   UNK N   1      30.022  21.614  -6.981  0.00  0.00     0.004 C 
HETATM   17  C   UNK N   1      27.850  21.097  -8.054  0.00  0.00    -0.024 C 
HETATM   18  C   UNK N   1      29.151  20.519  -7.578  0.00  0.00     0.027 C 
ENDROOT
BRANCH   5  19
HETATM   19  O   UNK N   1      26.234  26.357  -3.050  0.00  0.00    -0.389 OA
HETATM   20  H   UNK N   1      26.155  25.824  -2.245  0.00  0.00     0.210 HD
ENDBRANCH   5  19
BRANCH   5  21
HETATM   21  C   UNK N   1      27.181  28.503  -3.299  0.00  0.00     0.034 C 
HETATM   22  C   UNK N   1      26.481  29.842  -3.475  0.00  0.00     0.008 C 
ENDBRANCH   5  21
TORSDOF 2
ENDMDL
MODEL 6
REMARK VINA RESULT:      -6.6     21.219     24.164
REMARK  2 active torsions:
REMARK  status: ('A' for Active; 'I' for Inactive)
REMARK    1  A    between atoms: C_6  and  O_1 
REMARK    2  A    between atoms: C_6  and  C_14 
ROOT
HETATM    1  C   UNK N   1      36.013  11.423  12.840  0.00  0.00    -0.009 C 
HETATM    2  C   UNK N   1      35.789  10.320  13.871  0.00  0.00     0.001 C 
HETATM    3  C   UNK N   1      36.589  10.541  15.176  0.00  0.00    -0.005 C 
HETATM    4  C   UNK N   1      36.322  11.982  15.753  0.00  0.00    -0.002 C 
HETATM    5  C   UNK N   1      35.238  10.850  11.635  0.00  0.00     0.065 C 
HETATM    6  C   UNK N   1      35.483  12.733  13.416  0.00  0.00     0.013 C 
HETATM    7  C   UNK N   1      36.084   9.045  13.076  0.00  0.00     0.009 C 
HETATM    8  C   UNK N   1      36.295  13.086  14.666  0.00  0.00     0.006 C 
HETATM    9  C   UNK N   1      35.703   9.386  11.617  0.00  0.00     0.039 C 
HETATM   10  C   UNK N   1      35.084  11.978  16.669  0.00  0.00     0.019 C 
HETATM   11  C   UNK N   1      36.180   9.398  16.142  0.00  0.00     0.009 C 
HETATM   12  C   UNK N   1      37.514  11.579  12.511  0.00  0.00     0.019 C 
HETATM   13  C   UNK N   1      36.090   9.754  17.627  0.00  0.00     0.034 C 
HETATM   14  C   UNK N   1      35.492  11.111  17.864  0.00  0.00    -0.079 C 
HETATM   15  C   UNK N   1      34.634  13.393  17.085  0.00  0.00     0.010 C 
HETATM   16  C   UNK N   1      35.425  13.923  18.268  0.00  0.00     0.004 C 
HETATM   17  C   UNK N   1      35.532  11.599  19.119  0.00  0.00    -0.024 C 
HETATM   18  C   UNK N   1      35.133  13.008  19.448  0.00  0.00     0.027 C 
ENDROOT
BRANCH   5  19
HETATM   19  O   UNK N   1      33.864  10.854  11.909  0.00  0.00    -0.389 OA
HETATM   20  H   UNK N   1      32.926  10.645  12.036  0.00  0.00     0.210 HD
ENDBRANCH   5  19
BRANCH   5  21
HETATM   21  C   UNK N   1      35.420  11.581  10.293  0.00  0.00     0.034 C 
HETATM   22  C   UNK N   1      35.306  10.705   9.055  0.00  0.00     0.008 C 
ENDBRANCH   5  21
TORSDOF 2
ENDMDL
MODEL 7
REMARK VINA RESULT:      -6.4     14.066     17.274
REMARK  2 active torsions:
REMARK  status: ('A' for Active; 'I' for Inactive)
REMARK    1  A    between atoms: C_6  and  O_1 
REMARK    2  A    between atoms: C_6  and  C_14 
ROOT
HETATM    1  C   UNK N   1      35.182  14.541  10.084  0.00  0.00    -0.009 C 
HETATM    2  C   UNK N   1      35.908  14.499   8.742  0.00  0.00     0.001 C 
HETATM    3  C   UNK N   1      34.974  14.153   7.559  0.00  0.00    -0.005 C 
HETATM    4  C   UNK N   1      33.718  15.104   7.547  0.00  0.00    -0.002 C 
HETATM    5  C   UNK N   1      36.370  14.741  11.047  0.00  0.00     0.065 C 
HETATM    6  C   UNK N   1      34.157  15.671  10.040  0.00  0.00     0.013 C 
HETATM    7  C   UNK N   1      37.075  13.547   9.016  0.00  0.00     0.009 C 
HETATM    8  C   UNK N   1      33.123  15.356   8.954  0.00  0.00     0.006 C 
HETATM    9  C   UNK N   1      37.391  13.722  10.519  0.00  0.00     0.039 C 
HETATM   10  C   UNK N   1      34.022  16.392   6.758  0.00  0.00     0.019 C 
HETATM   11  C   UNK N   1      35.838  14.246   6.274  0.00  0.00     0.009 C 
HETATM   12  C   UNK N   1      34.459  13.205  10.365  0.00  0.00     0.019 C 
HETATM   13  C   UNK N   1      35.146  14.782   5.019  0.00  0.00     0.034 C 
HETATM   14  C   UNK N   1      34.213  15.921   5.313  0.00  0.00    -0.079 C 
HETATM   15  C   UNK N   1      32.918  17.460   6.896  0.00  0.00     0.010 C 
HETATM   16  C   UNK N   1      31.765  17.224   5.938  0.00  0.00     0.004 C 
HETATM   17  C   UNK N   1      33.417  16.348   4.312  0.00  0.00    -0.024 C 
HETATM   18  C   UNK N   1      32.322  17.352   4.527  0.00  0.00     0.027 C 
ENDROOT
BRANCH   5  19
HETATM   19  O   UNK N   1      36.917  16.018  10.867  0.00  0.00    -0.389 OA
HETATM   20  H   UNK N   1      37.486  16.792  10.738  0.00  0.00     0.210 HD
ENDBRANCH   5  19
BRANCH   5  21
HETATM   21  C   UNK N   1      36.066  14.601  12.549  0.00  0.00     0.034 C 
HETATM   22  C   UNK N   1      36.643  13.362  13.216  0.00  0.00     0.008 C 
ENDBRANCH   5  21
TORSDOF 2
ENDMDL
MODEL 8
REMARK VINA RESULT:      -6.3     25.134     27.898
REMARK  2 active torsions:
REMARK  status: ('A' for Active; 'I' for Inactive)
REMARK    1  A    between atoms: C_6  and  O_1 
REMARK    2  A    between atoms: C_6  and  C_14 
ROOT
HETATM    1  C   UNK N   1      34.875   8.732  19.785  0.00  0.00    -0.009 C 
HETATM    2  C   UNK N   1      34.447  10.194  19.873  0.00  0.00     0.001 C 
HETATM    3  C   UNK N   1      35.544  11.175  19.398  0.00  0.00    -0.005 C 
HETATM    4  C   UNK N   1      36.065  10.775  17.966  0.00  0.00    -0.002 C 
HETATM    5  C   UNK N   1      33.672   8.040  20.458  0.00  0.00     0.065 C 
HETATM    6  C   UNK N   1      35.110   8.388  18.316  0.00  0.00     0.013 C 
HETATM    7  C   UNK N   1      33.972  10.323  21.322  0.00  0.00     0.009 C 
HETATM    8  C   UNK N   1      36.262   9.249  17.787  0.00  0.00     0.006 C 
HETATM    9  C   UNK N   1      33.445   8.919  21.697  0.00  0.00     0.039 C 
HETATM   10  C   UNK N   1      35.196  11.425  16.873  0.00  0.00     0.019 C 
HETATM   11  C   UNK N   1      34.922  12.595  19.459  0.00  0.00     0.009 C 
HETATM   12  C   UNK N   1      36.175   8.485  20.582  0.00  0.00     0.019 C 
HETATM   13  C   UNK N   1      35.343  13.577  18.364  0.00  0.00     0.034 C 
HETATM   14  C   UNK N   1      35.459  12.927  17.015  0.00  0.00    -0.079 C 
HETATM   15  C   UNK N   1      35.510  10.896  15.458  0.00  0.00     0.010 C 
HETATM   16  C   UNK N   1      36.703  11.597  14.833  0.00  0.00     0.004 C 
HETATM   17  C   UNK N   1      35.997  13.655  16.017  0.00  0.00    -0.024 C 
HETATM   18  C   UNK N   1      36.330  13.064  14.679  0.00  0.00     0.027 C 
ENDROOT
BRANCH   5  19
HETATM   19  O   UNK N   1      32.539   8.158  19.643  0.00  0.00    -0.389 OA
HETATM   20  H   UNK N   1      31.823   8.448  19.058  0.00  0.00     0.210 HD
ENDBRANCH   5  19
BRANCH   5  21
HETATM   21  C   UNK N   1      33.832   6.542  20.774  0.00  0.00     0.034 C 
HETATM   22  C   UNK N   1      33.687   6.169  22.242  0.00  0.00     0.008 C 
ENDBRANCH   5  21
TORSDOF 2
ENDMDL
MODEL 9
REMARK VINA RESULT:      -6.2     17.482     20.560
REMARK  2 active torsions:
REMARK  status: ('A' for Active; 'I' for Inactive)
REMARK    1  A    between atoms: C_6  and  O_1 
REMARK    2  A    between atoms: C_6  and  C_14 
ROOT
HETATM    1  C   UNK N   1      35.854  12.562  12.906  0.00  0.00    -0.009 C 
HETATM    2  C   UNK N   1      35.658  14.070  12.776  0.00  0.00     0.001 C 
HETATM    3  C   UNK N   1      36.034  14.610  11.376  0.00  0.00    -0.005 C 
HETATM    4  C   UNK N   1      35.291  13.796  10.250  0.00  0.00    -0.002 C 
HETATM    5  C   UNK N   1      35.562  12.364  14.409  0.00  0.00     0.065 C 
HETATM    6  C   UNK N   1      34.896  11.869  11.941  0.00  0.00     0.013 C 
HETATM    7  C   UNK N   1      36.440  14.620  13.971  0.00  0.00     0.009 C 
HETATM    8  C   UNK N   1      35.266  12.269  10.509  0.00  0.00     0.006 C 
HETATM    9  C   UNK N   1      36.358  13.513  15.047  0.00  0.00     0.039 C 
HETATM   10  C   UNK N   1      33.905  14.404   9.967  0.00  0.00     0.019 C 
HETATM   11  C   UNK N   1      35.690  16.122  11.380  0.00  0.00     0.009 C 
HETATM   12  C   UNK N   1      37.305  12.159  12.565  0.00  0.00     0.019 C 
HETATM   13  C   UNK N   1      35.154  16.708  10.072  0.00  0.00     0.034 C 
HETATM   14  C   UNK N   1      34.204  15.782   9.368  0.00  0.00    -0.079 C 
HETATM   15  C   UNK N   1      33.037  13.527   9.041  0.00  0.00     0.010 C 
HETATM   16  C   UNK N   1      33.359  13.746   7.573  0.00  0.00     0.004 C 
HETATM   17  C   UNK N   1      33.815  16.118   8.122  0.00  0.00    -0.024 C 
HETATM   18  C   UNK N   1      33.017  15.193   7.251  0.00  0.00     0.027 C 
ENDROOT
BRANCH   5  19
HETATM   19  O   UNK N   1      34.205  12.599  14.663  0.00  0.00    -0.389 OA
HETATM   20  H   UNK N   1      33.249  12.543  14.816  0.00  0.00     0.210 HD
ENDBRANCH   5  19
BRANCH   5  21
HETATM   21  C   UNK N   1      35.886  10.978  14.993  0.00  0.00     0.034 C 
HETATM   22  C   UNK N   1      34.681  10.091  15.266  0.00  0.00     0.008 C 
ENDBRANCH   5  21
TORSDOF 2
ENDMDL
