REMARK  5 active torsions:
REMARK  status: ('A' for Active; 'I' for Inactive)
REMARK    1  A    between atoms: O_6  and  C_14 
REMARK    2  A    between atoms: O_7  and  C_14 
REMARK    3  A    between atoms: N_8  and  C_9 
REMARK    4  A    between atoms: C_9  and  C_13 
REMARK    5  A    between atoms: C_14  and  C_15 
ROOT
HETATM    1  N   UNK N   1       0.707   5.548  -0.157  0.00  0.00    -0.069 N 
HETATM    2  C   UNK N   1       0.790   4.532  -1.195  0.00  0.00     0.272 C 
HETATM    3  C   UNK N   1      -0.356   6.463  -0.528  0.00  0.00     0.272 C 
HETATM    4  C   UNK N   1       0.351   4.937   1.114  0.00  0.00     0.272 C 
ENDROOT
BRANCH   1   5
HETATM    5  C   UNK N   1       1.947   6.331  -0.047  0.00  0.00     0.348 C 
BRANCH   5   6
HETATM    6  C   UNK N   1       3.215   5.538   0.197  0.00  0.00     0.199 C 
HETATM    7  O   UNK N   1       4.387   6.199   0.286  0.00  0.00    -0.647 OA
HETATM    8  O   UNK N   1       3.200   4.327   0.300  0.00  0.00    -0.647 OA
ENDBRANCH   5   6
ENDBRANCH   1   5
TORSDOF 5
