MODEL 1
REMARK VINA RESULT:      -3.9      0.000      0.000
REMARK  5 active torsions:
REMARK  status: ('A' for Active; 'I' for Inactive)
REMARK    1  A    between atoms: O_6  and  C_14 
REMARK    2  A    between atoms: O_7  and  C_14 
REMARK    3  A    between atoms: N_8  and  C_9 
REMARK    4  A    between atoms: C_9  and  C_13 
REMARK    5  A    between atoms: C_14  and  C_15 
ROOT
HETATM    1  N   UNK N   1      34.491  16.130   9.475  0.00  0.00    -0.069 N 
HETATM    2  C   UNK N   1      35.261  15.426   8.462  0.00  0.00     0.272 C 
HETATM    3  C   UNK N   1      33.531  15.190  10.023  0.00  0.00     0.272 C 
HETATM    4  C   UNK N   1      35.362  16.564  10.556  0.00  0.00     0.272 C 
ENDROOT
BRANCH   1   5
HETATM    5  C   UNK N   1      33.734  17.258   8.911  0.00  0.00     0.348 C 
BRANCH   5   6
HETATM    6  C   UNK N   1      34.504  18.182   7.990  0.00  0.00     0.199 C 
HETATM    7  O   UNK N   1      35.260  19.157   8.532  0.00  0.00    -0.647 OA
HETATM    8  O   UNK N   1      34.444  18.071   6.781  0.00  0.00    -0.647 OA
ENDBRANCH   5   6
ENDBRANCH   1   5
TORSDOF 5
ENDMDL
MODEL 2
REMARK VINA RESULT:      -3.5      1.055      1.373
REMARK  5 active torsions:
REMARK  status: ('A' for Active; 'I' for Inactive)
REMARK    1  A    between atoms: O_6  and  C_14 
REMARK    2  A    between atoms: O_7  and  C_14 
REMARK    3  A    between atoms: N_8  and  C_9 
REMARK    4  A    between atoms: C_9  and  C_13 
REMARK    5  A    between atoms: C_14  and  C_15 
ROOT
HETATM    1  N   UNK N   1      33.644  15.848   8.499  0.00  0.00    -0.069 N 
HETATM    2  C   UNK N   1      32.910  15.410   7.322  0.00  0.00     0.272 C 
HETATM    3  C   UNK N   1      33.072  15.168   9.646  0.00  0.00     0.272 C 
HETATM    4  C   UNK N   1      35.040  15.455   8.394  0.00  0.00     0.272 C 
ENDROOT
BRANCH   1   5
HETATM    5  C   UNK N   1      33.510  17.294   8.730  0.00  0.00     0.348 C 
BRANCH   5   6
HETATM    6  C   UNK N   1      34.396  18.188   7.885  0.00  0.00     0.199 C 
HETATM    7  O   UNK N   1      35.214  19.063   8.503  0.00  0.00    -0.647 OA
HETATM    8  O   UNK N   1      34.374  18.142   6.670  0.00  0.00    -0.647 OA
ENDBRANCH   5   6
ENDBRANCH   1   5
TORSDOF 5
ENDMDL
MODEL 3
REMARK VINA RESULT:      -3.4      1.781      2.578
REMARK  5 active torsions:
REMARK  status: ('A' for Active; 'I' for Inactive)
REMARK    1  A    between atoms: O_6  and  C_14 
REMARK    2  A    between atoms: O_7  and  C_14 
REMARK    3  A    between atoms: N_8  and  C_9 
REMARK    4  A    between atoms: C_9  and  C_13 
REMARK    5  A    between atoms: C_14  and  C_15 
ROOT
HETATM    1  N   UNK N   1      32.791  16.659   7.986  0.00  0.00    -0.069 N 
HETATM    2  C   UNK N   1      32.724  15.584   8.964  0.00  0.00     0.272 C 
HETATM    3  C   UNK N   1      32.178  16.174   6.764  0.00  0.00     0.272 C 
HETATM    4  C   UNK N   1      32.024  17.805   8.449  0.00  0.00     0.272 C 
ENDROOT
BRANCH   1   5
HETATM    5  C   UNK N   1      34.177  17.034   7.667  0.00  0.00     0.348 C 
BRANCH   5   6
HETATM    6  C   UNK N   1      34.839  18.006   8.623  0.00  0.00     0.199 C 
HETATM    7  O   UNK N   1      35.214  17.564   9.841  0.00  0.00    -0.647 OA
HETATM    8  O   UNK N   1      35.026  19.169   8.323  0.00  0.00    -0.647 OA
ENDBRANCH   5   6
ENDBRANCH   1   5
TORSDOF 5
ENDMDL
MODEL 4
REMARK VINA RESULT:      -3.1     14.410     15.082
REMARK  5 active torsions:
REMARK  status: ('A' for Active; 'I' for Inactive)
REMARK    1  A    between atoms: O_6  and  C_14 
REMARK    2  A    between atoms: O_7  and  C_14 
REMARK    3  A    between atoms: N_8  and  C_9 
REMARK    4  A    between atoms: C_9  and  C_13 
REMARK    5  A    between atoms: C_14  and  C_15 
ROOT
HETATM    1  N   UNK N   1      20.785  17.536   2.968  0.00  0.00    -0.069 N 
HETATM    2  C   UNK N   1      19.728  17.233   3.921  0.00  0.00     0.272 C 
HETATM    3  C   UNK N   1      21.584  16.336   2.808  0.00  0.00     0.272 C 
HETATM    4  C   UNK N   1      20.211  17.869   1.674  0.00  0.00     0.272 C 
ENDROOT
BRANCH   1   5
HETATM    5  C   UNK N   1      21.678  18.601   3.449  0.00  0.00     0.348 C 
BRANCH   5   6
HETATM    6  C   UNK N   1      21.234  20.021   3.161  0.00  0.00     0.199 C 
HETATM    7  O   UNK N   1      21.845  20.704   2.172  0.00  0.00    -0.647 OA
HETATM    8  O   UNK N   1      20.356  20.559   3.807  0.00  0.00    -0.647 OA
ENDBRANCH   5   6
ENDBRANCH   1   5
TORSDOF 5
ENDMDL
MODEL 5
REMARK VINA RESULT:      -3.1     17.801     18.839
REMARK  5 active torsions:
REMARK  status: ('A' for Active; 'I' for Inactive)
REMARK    1  A    between atoms: O_6  and  C_14 
REMARK    2  A    between atoms: O_7  and  C_14 
REMARK    3  A    between atoms: N_8  and  C_9 
REMARK    4  A    between atoms: C_9  and  C_13 
REMARK    5  A    between atoms: C_14  and  C_15 
ROOT
HETATM    1  N   UNK N   1      26.011  27.237  -4.939  0.00  0.00    -0.069 N 
HETATM    2  C   UNK N   1      24.727  27.197  -5.623  0.00  0.00     0.272 C 
HETATM    3  C   UNK N   1      26.804  28.280  -5.563  0.00  0.00     0.272 C 
HETATM    4  C   UNK N   1      25.822  27.591  -3.541  0.00  0.00     0.272 C 
ENDROOT
BRANCH   1   5
HETATM    5  C   UNK N   1      26.752  25.974  -5.077  0.00  0.00     0.348 C 
BRANCH   5   6
HETATM    6  C   UNK N   1      26.007  24.718  -4.674  0.00  0.00     0.199 C 
HETATM    7  O   UNK N   1      26.151  24.252  -3.417  0.00  0.00    -0.647 OA
HETATM    8  O   UNK N   1      25.298  24.118  -5.458  0.00  0.00    -0.647 OA
ENDBRANCH   5   6
ENDBRANCH   1   5
TORSDOF 5
ENDMDL
MODEL 6
REMARK VINA RESULT:      -3.0      2.751      3.252
REMARK  5 active torsions:
REMARK  status: ('A' for Active; 'I' for Inactive)
REMARK    1  A    between atoms: O_6  and  C_14 
REMARK    2  A    between atoms: O_7  and  C_14 
REMARK    3  A    between atoms: N_8  and  C_9 
REMARK    4  A    between atoms: C_9  and  C_13 
REMARK    5  A    between atoms: C_14  and  C_15 
ROOT
HETATM    1  N   UNK N   1      31.709  16.435   7.107  0.00  0.00    -0.069 N 
HETATM    2  C   UNK N   1      31.574  15.087   6.575  0.00  0.00     0.272 C 
HETATM    3  C   UNK N   1      30.378  17.007   7.185  0.00  0.00     0.272 C 
HETATM    4  C   UNK N   1      32.257  16.389   8.453  0.00  0.00     0.272 C 
ENDROOT
BRANCH   1   5
HETATM    5  C   UNK N   1      32.512  17.299   6.230  0.00  0.00     0.348 C 
BRANCH   5   6
HETATM    6  C   UNK N   1      34.007  17.289   6.474  0.00  0.00     0.199 C 
HETATM    7  O   UNK N   1      34.556  18.297   7.182  0.00  0.00    -0.647 OA
HETATM    8  O   UNK N   1      34.719  16.406   6.038  0.00  0.00    -0.647 OA
ENDBRANCH   5   6
ENDBRANCH   1   5
TORSDOF 5
ENDMDL
MODEL 7
REMARK VINA RESULT:      -3.0     13.165     14.419
REMARK  5 active torsions:
REMARK  status: ('A' for Active; 'I' for Inactive)
REMARK    1  A    between atoms: O_6  and  C_14 
REMARK    2  A    between atoms: O_7  and  C_14 
REMARK    3  A    between atoms: N_8  and  C_9 
REMARK    4  A    between atoms: C_9  and  C_13 
REMARK    5  A    between atoms: C_14  and  C_15 
ROOT
HETATM    1  N   UNK N   1      30.819  21.637  -4.995  0.00  0.00    -0.069 N 
HETATM    2  C   UNK N   1      29.687  21.651  -5.909  0.00  0.00     0.272 C 
HETATM    3  C   UNK N   1      31.692  20.552  -5.401  0.00  0.00     0.272 C 
HETATM    4  C   UNK N   1      31.566  22.880  -5.105  0.00  0.00     0.272 C 
ENDROOT
BRANCH   1   5
HETATM    5  C   UNK N   1      30.408  21.379  -3.607  0.00  0.00     0.348 C 
BRANCH   5   6
HETATM    6  C   UNK N   1      31.236  22.054  -2.532  0.00  0.00     0.199 C 
HETATM    7  O   UNK N   1      32.456  21.557  -2.244  0.00  0.00    -0.647 OA
HETATM    8  O   UNK N   1      30.821  23.018  -1.918  0.00  0.00    -0.647 OA
ENDBRANCH   5   6
ENDBRANCH   1   5
TORSDOF 5
ENDMDL
MODEL 8
REMARK VINA RESULT:      -3.0     10.755     11.676
REMARK  5 active torsions:
REMARK  status: ('A' for Active; 'I' for Inactive)
REMARK    1  A    between atoms: O_6  and  C_14 
REMARK    2  A    between atoms: O_7  and  C_14 
REMARK    3  A    between atoms: N_8  and  C_9 
REMARK    4  A    between atoms: C_9  and  C_13 
REMARK    5  A    between atoms: C_14  and  C_15 
ROOT
HETATM    1  N   UNK N   1      42.587  21.654   2.540  0.00  0.00    -0.069 N 
HETATM    2  C   UNK N   1      43.359  21.220   1.385  0.00  0.00     0.272 C 
HETATM    3  C   UNK N   1      41.284  22.074   2.059  0.00  0.00     0.272 C 
HETATM    4  C   UNK N   1      42.390  20.542   3.456  0.00  0.00     0.272 C 
ENDROOT
BRANCH   1   5
HETATM    5  C   UNK N   1      43.201  22.805   3.217  0.00  0.00     0.348 C 
BRANCH   5   6
HETATM    6  C   UNK N   1      44.153  22.480   4.351  0.00  0.00     0.199 C 
HETATM    7  O   UNK N   1      43.744  22.684   5.620  0.00  0.00    -0.647 OA
HETATM    8  O   UNK N   1      45.272  22.055   4.142  0.00  0.00    -0.647 OA
ENDBRANCH   5   6
ENDBRANCH   1   5
TORSDOF 5
ENDMDL
MODEL 9
REMARK VINA RESULT:      -3.0     13.473     14.830
REMARK  5 active torsions:
REMARK  status: ('A' for Active; 'I' for Inactive)
REMARK    1  A    between atoms: O_6  and  C_14 
REMARK    2  A    between atoms: O_7  and  C_14 
REMARK    3  A    between atoms: N_8  and  C_9 
REMARK    4  A    between atoms: C_9  and  C_13 
REMARK    5  A    between atoms: C_14  and  C_15 
ROOT
HETATM    1  N   UNK N   1      29.494  23.493  -4.327  0.00  0.00    -0.069 N 
HETATM    2  C   UNK N   1      29.119  23.222  -5.706  0.00  0.00     0.272 C 
HETATM    3  C   UNK N   1      30.647  24.373  -4.354  0.00  0.00     0.272 C 
HETATM    4  C   UNK N   1      28.415  24.188  -3.643  0.00  0.00     0.272 C 
ENDROOT
BRANCH   1   5
HETATM    5  C   UNK N   1      29.886  22.271  -3.608  0.00  0.00     0.348 C 
BRANCH   5   6
HETATM    6  C   UNK N   1      30.760  22.470  -2.386  0.00  0.00     0.199 C 
HETATM    7  O   UNK N   1      32.017  21.984  -2.402  0.00  0.00    -0.647 OA
HETATM    8  O   UNK N   1      30.350  23.042  -1.395  0.00  0.00    -0.647 OA
ENDBRANCH   5   6
ENDBRANCH   1   5
TORSDOF 5
ENDMDL
