MODEL 1
REMARK VINA RESULT:      -6.0      0.000      0.000
REMARK  5 active torsions:
REMARK  status: ('A' for Active; 'I' for Inactive)
REMARK    1  A    between atoms: O_1  and  C_13 
REMARK    2  A    between atoms: C_8  and  N_4 
REMARK    3  A    between atoms: C_5  and  C_6 
REMARK    4  A    between atoms: C_6  and  C_8 
REMARK    5  A    between atoms: C_8  and  C_13 
ROOT
HETATM    1  N   UNK N   1      36.372  13.837  15.262  0.00  0.00    -0.365 N 
HETATM    2  C   UNK N   1      35.665  13.554  13.145  0.00  0.00    -0.028 A 
HETATM    3  C   UNK N   1      35.156  12.542  13.911  0.00  0.00    -0.002 A 
HETATM    4  C   UNK N   1      35.600  12.739  15.184  0.00  0.00     0.042 A 
HETATM    5  C   UNK N   1      36.421  14.352  14.004  0.00  0.00     0.096 A 
HETATM    6  C   UNK N   1      34.337  11.469  13.569  0.00  0.00     0.014 A 
HETATM    7  C   UNK N   1      35.258  11.873  16.220  0.00  0.00     0.030 A 
HETATM    8  C   UNK N   1      33.971  10.574  14.589  0.00  0.00     0.001 A 
HETATM    9  C   UNK N   1      34.430  10.776  15.911  0.00  0.00     0.002 A 
HETATM   10  H   UNK N   1      36.813  14.195  16.066  0.00  0.00     0.165 HD
ENDROOT
BRANCH   2  11
HETATM   11  C   UNK N   1      35.407  13.700  11.673  0.00  0.00     0.076 C 
BRANCH  11  12
HETATM   12  C   UNK N   1      34.796  14.997  11.143  0.00  0.00     0.177 C 
BRANCH  12  13
HETATM   13  N   UNK N   1      33.370  15.113  10.883  0.00  0.00    -0.417 N 
HETATM   14  H   UNK N   1      32.807  15.779  11.413  0.00  0.00     0.150 HD
HETATM   15  H   UNK N   1      32.932  14.529  10.171  0.00  0.00     0.150 HD
ENDBRANCH  12  13
BRANCH  12  16
HETATM   16  C   UNK N   1      35.665  16.187  10.879  0.00  0.00     0.163 C 
HETATM   17  O   UNK N   1      35.158  17.274  10.649  0.00  0.00    -0.648 OA
BRANCH  16  18
HETATM   18  O   UNK N   1      37.006  16.067  10.893  0.00  0.00    -0.775 OA
HETATM   19  H   UNK N   1      37.450  15.690  10.159  0.00  0.00     0.167 HD
ENDBRANCH  16  18
ENDBRANCH  12  16
ENDBRANCH  11  12
ENDBRANCH   2  11
TORSDOF 5
ENDMDL
MODEL 2
REMARK VINA RESULT:      -5.9     19.364     22.637
REMARK  5 active torsions:
REMARK  status: ('A' for Active; 'I' for Inactive)
REMARK    1  A    between atoms: O_1  and  C_13 
REMARK    2  A    between atoms: C_8  and  N_4 
REMARK    3  A    between atoms: C_5  and  C_6 
REMARK    4  A    between atoms: C_6  and  C_8 
REMARK    5  A    between atoms: C_8  and  C_13 
ROOT
HETATM    1  N   UNK N   1      25.464  24.598  -5.979  0.00  0.00    -0.365 N 
HETATM    2  C   UNK N   1      26.719  24.376  -4.126  0.00  0.00    -0.028 A 
HETATM    3  C   UNK N   1      26.260  25.663  -4.186  0.00  0.00    -0.002 A 
HETATM    4  C   UNK N   1      25.505  25.767  -5.316  0.00  0.00     0.042 A 
HETATM    5  C   UNK N   1      26.212  23.726  -5.252  0.00  0.00     0.096 A 
HETATM    6  C   UNK N   1      26.459  26.739  -3.325  0.00  0.00     0.014 A 
HETATM    7  C   UNK N   1      24.886  26.963  -5.674  0.00  0.00     0.030 A 
HETATM    8  C   UNK N   1      25.849  27.962  -3.655  0.00  0.00     0.001 A 
HETATM    9  C   UNK N   1      25.065  28.073  -4.826  0.00  0.00     0.002 A 
HETATM   10  H   UNK N   1      24.987  24.411  -6.821  0.00  0.00     0.165 HD
ENDROOT
BRANCH   2  11
HETATM   11  C   UNK N   1      27.593  23.851  -3.024  0.00  0.00     0.076 C 
BRANCH  11  12
HETATM   12  C   UNK N   1      29.111  23.850  -3.207  0.00  0.00     0.177 C 
BRANCH  12  13
HETATM   13  N   UNK N   1      29.776  24.840  -4.039  0.00  0.00    -0.417 N 
HETATM   14  H   UNK N   1      29.232  25.417  -4.680  0.00  0.00     0.150 HD
HETATM   15  H   UNK N   1      30.788  24.957  -3.982  0.00  0.00     0.150 HD
ENDBRANCH  12  13
BRANCH  12  16
HETATM   16  C   UNK N   1      29.952  22.816  -2.524  0.00  0.00     0.163 C 
HETATM   17  O   UNK N   1      30.369  23.018  -1.395  0.00  0.00    -0.648 OA
BRANCH  16  18
HETATM   18  O   UNK N   1      30.252  21.662  -3.149  0.00  0.00    -0.775 OA
HETATM   19  H   UNK N   1      31.060  21.579  -3.617  0.00  0.00     0.167 HD
ENDBRANCH  16  18
ENDBRANCH  12  16
ENDBRANCH  11  12
ENDBRANCH   2  11
TORSDOF 5
ENDMDL
MODEL 3
REMARK VINA RESULT:      -5.9     15.330     17.505
REMARK  5 active torsions:
REMARK  status: ('A' for Active; 'I' for Inactive)
REMARK    1  A    between atoms: O_1  and  C_13 
REMARK    2  A    between atoms: C_8  and  N_4 
REMARK    3  A    between atoms: C_5  and  C_6 
REMARK    4  A    between atoms: C_6  and  C_8 
REMARK    5  A    between atoms: C_8  and  C_13 
ROOT
HETATM    1  N   UNK N   1      23.561  17.269   4.750  0.00  0.00    -0.365 N 
HETATM    2  C   UNK N   1      22.124  18.859   4.065  0.00  0.00    -0.028 A 
HETATM    3  C   UNK N   1      23.393  19.252   3.739  0.00  0.00    -0.002 A 
HETATM    4  C   UNK N   1      24.239  18.272   4.165  0.00  0.00     0.042 A 
HETATM    5  C   UNK N   1      22.248  17.620   4.695  0.00  0.00     0.096 A 
HETATM    6  C   UNK N   1      23.851  20.401   3.100  0.00  0.00     0.014 A 
HETATM    7  C   UNK N   1      25.617  18.365   3.984  0.00  0.00     0.030 A 
HETATM    8  C   UNK N   1      25.237  20.530   2.900  0.00  0.00     0.001 A 
HETATM    9  C   UNK N   1      26.117  19.514   3.341  0.00  0.00     0.002 A 
HETATM   10  H   UNK N   1      23.938  16.447   5.140  0.00  0.00     0.165 HD
ENDROOT
BRANCH   2  11
HETATM   11  C   UNK N   1      20.896  19.667   3.764  0.00  0.00     0.076 C 
BRANCH  11  12
HETATM   12  C   UNK N   1      20.196  19.495   2.417  0.00  0.00     0.177 C 
BRANCH  12  13
HETATM   13  N   UNK N   1      19.112  18.541   2.241  0.00  0.00    -0.417 N 
HETATM   14  H   UNK N   1      19.304  17.615   1.858  0.00  0.00     0.150 HD
HETATM   15  H   UNK N   1      18.159  18.798   2.500  0.00  0.00     0.150 HD
ENDBRANCH  12  13
BRANCH  12  16
HETATM   16  C   UNK N   1      20.618  20.314   1.237  0.00  0.00     0.163 C 
HETATM   17  O   UNK N   1      20.968  21.474   1.393  0.00  0.00    -0.648 OA
BRANCH  16  18
HETATM   18  O   UNK N   1      20.614  19.781   0.001  0.00  0.00    -0.775 OA
HETATM   19  H   UNK N   1      21.424  19.554  -0.413  0.00  0.00     0.167 HD
ENDBRANCH  16  18
ENDBRANCH  12  16
ENDBRANCH  11  12
ENDBRANCH   2  11
TORSDOF 5
ENDMDL
MODEL 4
REMARK VINA RESULT:      -5.8      6.293      8.464
REMARK  5 active torsions:
REMARK  status: ('A' for Active; 'I' for Inactive)
REMARK    1  A    between atoms: O_1  and  C_13 
REMARK    2  A    between atoms: C_8  and  N_4 
REMARK    3  A    between atoms: C_5  and  C_6 
REMARK    4  A    between atoms: C_6  and  C_8 
REMARK    5  A    between atoms: C_8  and  C_13 
ROOT
HETATM    1  N   UNK N   1      30.219  16.752   5.852  0.00  0.00    -0.365 N 
HETATM    2  C   UNK N   1      31.735  16.424   7.482  0.00  0.00    -0.028 A 
HETATM    3  C   UNK N   1      30.726  17.205   7.978  0.00  0.00    -0.002 A 
HETATM    4  C   UNK N   1      29.826  17.385   6.971  0.00  0.00     0.042 A 
HETATM    5  C   UNK N   1      31.401  16.152   6.155  0.00  0.00     0.096 A 
HETATM    6  C   UNK N   1      30.547  17.761   9.242  0.00  0.00     0.014 A 
HETATM    7  C   UNK N   1      28.670  18.142   7.150  0.00  0.00     0.030 A 
HETATM    8  C   UNK N   1      29.391  18.531   9.459  0.00  0.00     0.001 A 
HETATM    9  C   UNK N   1      28.455  18.721   8.416  0.00  0.00     0.002 A 
HETATM   10  H   UNK N   1      29.747  16.727   4.988  0.00  0.00     0.165 HD
ENDROOT
BRANCH   2  11
HETATM   11  C   UNK N   1      32.929  15.994   8.283  0.00  0.00     0.076 C 
BRANCH  11  12
HETATM   12  C   UNK N   1      33.916  17.048   8.783  0.00  0.00     0.177 C 
BRANCH  12  13
HETATM   13  N   UNK N   1      34.385  17.056  10.159  0.00  0.00    -0.417 N 
HETATM   14  H   UNK N   1      35.273  17.501  10.393  0.00  0.00     0.150 HD
HETATM   15  H   UNK N   1      33.827  16.617  10.892  0.00  0.00     0.150 HD
ENDBRANCH  12  13
BRANCH  12  16
HETATM   16  C   UNK N   1      34.424  18.107   7.854  0.00  0.00     0.163 C 
HETATM   17  O   UNK N   1      34.864  19.153   8.303  0.00  0.00    -0.648 OA
BRANCH  16  18
HETATM   18  O   UNK N   1      34.399  17.912   6.522  0.00  0.00    -0.775 OA
HETATM   19  H   UNK N   1      35.177  17.643   6.073  0.00  0.00     0.167 HD
ENDBRANCH  16  18
ENDBRANCH  12  16
ENDBRANCH  11  12
ENDBRANCH   2  11
TORSDOF 5
ENDMDL
MODEL 5
REMARK VINA RESULT:      -5.8      6.290      8.838
REMARK  5 active torsions:
REMARK  status: ('A' for Active; 'I' for Inactive)
REMARK    1  A    between atoms: O_1  and  C_13 
REMARK    2  A    between atoms: C_8  and  N_4 
REMARK    3  A    between atoms: C_5  and  C_6 
REMARK    4  A    between atoms: C_6  and  C_8 
REMARK    5  A    between atoms: C_8  and  C_13 
ROOT
HETATM    1  N   UNK N   1      29.513  18.120   8.212  0.00  0.00    -0.365 N 
HETATM    2  C   UNK N   1      31.456  16.989   8.132  0.00  0.00    -0.028 A 
HETATM    3  C   UNK N   1      30.916  17.013   6.876  0.00  0.00    -0.002 A 
HETATM    4  C   UNK N   1      29.743  17.703   6.955  0.00  0.00     0.042 A 
HETATM    5  C   UNK N   1      30.567  17.684   8.953  0.00  0.00     0.096 A 
HETATM    6  C   UNK N   1      31.381  16.475   5.678  0.00  0.00     0.014 A 
HETATM    7  C   UNK N   1      28.940  17.910   5.837  0.00  0.00     0.030 A 
HETATM    8  C   UNK N   1      30.595  16.665   4.528  0.00  0.00     0.001 A 
HETATM    9  C   UNK N   1      29.378  17.380   4.607  0.00  0.00     0.002 A 
HETATM   10  H   UNK N   1      28.738  18.637   8.532  0.00  0.00     0.165 HD
ENDROOT
BRANCH   2  11
HETATM   11  C   UNK N   1      32.756  16.320   8.471  0.00  0.00     0.076 C 
BRANCH  11  12
HETATM   12  C   UNK N   1      33.949  17.174   8.902  0.00  0.00     0.177 C 
BRANCH  12  13
HETATM   13  N   UNK N   1      34.564  17.014  10.210  0.00  0.00    -0.417 N 
HETATM   14  H   UNK N   1      35.319  16.341  10.340  0.00  0.00     0.150 HD
HETATM   15  H   UNK N   1      34.240  17.575  10.998  0.00  0.00     0.150 HD
ENDBRANCH  12  13
BRANCH  12  16
HETATM   16  C   UNK N   1      34.513  18.204   7.973  0.00  0.00     0.163 C 
HETATM   17  O   UNK N   1      34.402  18.064   6.766  0.00  0.00    -0.648 OA
BRANCH  16  18
HETATM   18  O   UNK N   1      35.144  19.289   8.463  0.00  0.00    -0.775 OA
HETATM   19  H   UNK N   1      35.314  19.356   9.381  0.00  0.00     0.167 HD
ENDBRANCH  16  18
ENDBRANCH  12  16
ENDBRANCH  11  12
ENDBRANCH   2  11
TORSDOF 5
ENDMDL
MODEL 6
REMARK VINA RESULT:      -5.8      2.673      4.109
REMARK  5 active torsions:
REMARK  status: ('A' for Active; 'I' for Inactive)
REMARK    1  A    between atoms: O_1  and  C_13 
REMARK    2  A    between atoms: C_8  and  N_4 
REMARK    3  A    between atoms: C_5  and  C_6 
REMARK    4  A    between atoms: C_6  and  C_8 
REMARK    5  A    between atoms: C_8  and  C_13 
ROOT
HETATM    1  N   UNK N   1      35.301  13.436  19.307  0.00  0.00    -0.365 N 
HETATM    2  C   UNK N   1      35.095  12.990  17.112  0.00  0.00    -0.028 A 
HETATM    3  C   UNK N   1      35.286  11.810  17.778  0.00  0.00    -0.002 A 
HETATM    4  C   UNK N   1      35.407  12.111  19.102  0.00  0.00     0.042 A 
HETATM    5  C   UNK N   1      35.108  13.993  18.082  0.00  0.00     0.096 A 
HETATM    6  C   UNK N   1      35.359  10.502  17.305  0.00  0.00     0.014 A 
HETATM    7  C   UNK N   1      35.612  11.122  20.061  0.00  0.00     0.030 A 
HETATM    8  C   UNK N   1      35.566   9.478  18.245  0.00  0.00     0.001 A 
HETATM    9  C   UNK N   1      35.691   9.787  19.619  0.00  0.00     0.002 A 
HETATM   10  H   UNK N   1      35.353  13.907  20.171  0.00  0.00     0.165 HD
ENDROOT
BRANCH   2  11
HETATM   11  C   UNK N   1      34.917  13.090  15.625  0.00  0.00     0.076 C 
BRANCH  11  12
HETATM   12  C   UNK N   1      36.047  13.666  14.771  0.00  0.00     0.177 C 
BRANCH  12  13
HETATM   13  N   UNK N   1      37.316  14.062  15.359  0.00  0.00    -0.417 N 
HETATM   14  H   UNK N   1      37.974  13.352  15.682  0.00  0.00     0.150 HD
HETATM   15  H   UNK N   1      37.551  15.051  15.449  0.00  0.00     0.150 HD
ENDBRANCH  12  13
BRANCH  12  16
HETATM   16  C   UNK N   1      35.865  13.835  13.295  0.00  0.00     0.163 C 
HETATM   17  O   UNK N   1      34.752  13.744  12.803  0.00  0.00    -0.648 OA
BRANCH  16  18
HETATM   18  O   UNK N   1      36.925  14.087  12.503  0.00  0.00    -0.775 OA
HETATM   19  H   UNK N   1      37.681  14.514  12.855  0.00  0.00     0.167 HD
ENDBRANCH  16  18
ENDBRANCH  12  16
ENDBRANCH  11  12
ENDBRANCH   2  11
TORSDOF 5
ENDMDL
MODEL 7
REMARK VINA RESULT:      -5.5      1.731      2.343
REMARK  5 active torsions:
REMARK  status: ('A' for Active; 'I' for Inactive)
REMARK    1  A    between atoms: O_1  and  C_13 
REMARK    2  A    between atoms: C_8  and  N_4 
REMARK    3  A    between atoms: C_5  and  C_6 
REMARK    4  A    between atoms: C_6  and  C_8 
REMARK    5  A    between atoms: C_8  and  C_13 
ROOT
HETATM    1  N   UNK N   1      34.363  11.514  12.680  0.00  0.00    -0.365 N 
HETATM    2  C   UNK N   1      35.410  13.487  12.952  0.00  0.00    -0.028 A 
HETATM    3  C   UNK N   1      35.316  12.874  14.171  0.00  0.00    -0.002 A 
HETATM    4  C   UNK N   1      34.680  11.684  13.975  0.00  0.00     0.042 A 
HETATM    5  C   UNK N   1      34.810  12.624  12.034  0.00  0.00     0.096 A 
HETATM    6  C   UNK N   1      35.748  13.285  15.430  0.00  0.00     0.014 A 
HETATM    7  C   UNK N   1      34.425  10.810  15.029  0.00  0.00     0.030 A 
HETATM    8  C   UNK N   1      35.507  12.427  16.517  0.00  0.00     0.001 A 
HETATM    9  C   UNK N   1      34.847  11.193  16.317  0.00  0.00     0.002 A 
HETATM   10  H   UNK N   1      33.902  10.741  12.280  0.00  0.00     0.165 HD
ENDROOT
BRANCH   2  11
HETATM   11  C   UNK N   1      36.050  14.827  12.738  0.00  0.00     0.076 C 
BRANCH  11  12
HETATM   12  C   UNK N   1      36.235  15.351  11.313  0.00  0.00     0.177 C 
BRANCH  12  13
HETATM   13  N   UNK N   1      37.359  14.933  10.491  0.00  0.00    -0.417 N 
HETATM   14  H   UNK N   1      37.367  14.002  10.072  0.00  0.00     0.150 HD
HETATM   15  H   UNK N   1      38.140  15.569  10.333  0.00  0.00     0.150 HD
ENDBRANCH  12  13
BRANCH  12  16
HETATM   16  C   UNK N   1      35.250  16.316  10.731  0.00  0.00     0.163 C 
HETATM   17  O   UNK N   1      35.616  17.430  10.390  0.00  0.00    -0.648 OA
BRANCH  16  18
HETATM   18  O   UNK N   1      33.959  15.964  10.580  0.00  0.00    -0.775 OA
HETATM   19  H   UNK N   1      33.382  15.973  11.318  0.00  0.00     0.167 HD
ENDBRANCH  16  18
ENDBRANCH  12  16
ENDBRANCH  11  12
ENDBRANCH   2  11
TORSDOF 5
ENDMDL
MODEL 8
REMARK VINA RESULT:      -5.5      2.294      3.811
REMARK  5 active torsions:
REMARK  status: ('A' for Active; 'I' for Inactive)
REMARK    1  A    between atoms: O_1  and  C_13 
REMARK    2  A    between atoms: C_8  and  N_4 
REMARK    3  A    between atoms: C_5  and  C_6 
REMARK    4  A    between atoms: C_6  and  C_8 
REMARK    5  A    between atoms: C_8  and  C_13 
ROOT
HETATM    1  N   UNK N   1      35.310   9.766  17.062  0.00  0.00    -0.365 N 
HETATM    2  C   UNK N   1      34.960  11.391  15.546  0.00  0.00    -0.028 A 
HETATM    3  C   UNK N   1      35.070  11.967  16.782  0.00  0.00    -0.002 A 
HETATM    4  C   UNK N   1      35.281  10.961  17.677  0.00  0.00     0.042 A 
HETATM    5  C   UNK N   1      35.113  10.018  15.740  0.00  0.00     0.096 A 
HETATM    6  C   UNK N   1      34.997  13.303  17.170  0.00  0.00     0.014 A 
HETATM    7  C   UNK N   1      35.437  11.214  19.038  0.00  0.00     0.030 A 
HETATM    8  C   UNK N   1      35.150  13.595  18.537  0.00  0.00     0.001 A 
HETATM    9  C   UNK N   1      35.370  12.554  19.468  0.00  0.00     0.002 A 
HETATM   10  H   UNK N   1      35.447   8.886  17.483  0.00  0.00     0.165 HD
ENDROOT
BRANCH   2  11
HETATM   11  C   UNK N   1      34.722  12.164  14.282  0.00  0.00     0.076 C 
BRANCH  11  12
HETATM   12  C   UNK N   1      35.882  12.919  13.635  0.00  0.00     0.177 C 
BRANCH  12  13
HETATM   13  N   UNK N   1      37.257  12.468  13.779  0.00  0.00    -0.417 N 
HETATM   14  H   UNK N   1      37.519  11.874  14.566  0.00  0.00     0.150 HD
HETATM   15  H   UNK N   1      37.959  12.744  13.093  0.00  0.00     0.150 HD
ENDBRANCH  12  13
BRANCH  12  16
HETATM   16  C   UNK N   1      35.622  14.154  12.829  0.00  0.00     0.163 C 
HETATM   17  O   UNK N   1      34.620  14.232  12.137  0.00  0.00    -0.648 OA
BRANCH  16  18
HETATM   18  O   UNK N   1      36.489  15.185  12.864  0.00  0.00    -0.775 OA
HETATM   19  H   UNK N   1      36.937  15.393  13.660  0.00  0.00     0.167 HD
ENDBRANCH  16  18
ENDBRANCH  12  16
ENDBRANCH  11  12
ENDBRANCH   2  11
TORSDOF 5
ENDMDL
MODEL 9
REMARK VINA RESULT:      -5.4      5.338      8.355
REMARK  5 active torsions:
REMARK  status: ('A' for Active; 'I' for Inactive)
REMARK    1  A    between atoms: O_1  and  C_13 
REMARK    2  A    between atoms: C_8  and  N_4 
REMARK    3  A    between atoms: C_5  and  C_6 
REMARK    4  A    between atoms: C_6  and  C_8 
REMARK    5  A    between atoms: C_8  and  C_13 
ROOT
HETATM    1  N   UNK N   1      30.631  16.502   6.031  0.00  0.00    -0.365 N 
HETATM    2  C   UNK N   1      32.201  17.257   7.454  0.00  0.00    -0.028 A 
HETATM    3  C   UNK N   1      30.972  17.617   7.934  0.00  0.00    -0.002 A 
HETATM    4  C   UNK N   1      30.044  17.148   7.053  0.00  0.00     0.042 A 
HETATM    5  C   UNK N   1      31.969  16.563   6.266  0.00  0.00     0.096 A 
HETATM    6  C   UNK N   1      30.617  18.323   9.081  0.00  0.00     0.014 A 
HETATM    7  C   UNK N   1      28.680  17.349   7.253  0.00  0.00     0.030 A 
HETATM    8  C   UNK N   1      29.248  18.545   9.314  0.00  0.00     0.001 A 
HETATM    9  C   UNK N   1      28.283  18.059   8.403  0.00  0.00     0.002 A 
HETATM   10  H   UNK N   1      30.183  16.073   5.266  0.00  0.00     0.165 HD
ENDROOT
BRANCH   2  11
HETATM   11  C   UNK N   1      33.495  17.588   8.138  0.00  0.00     0.076 C 
BRANCH  11  12
HETATM   12  C   UNK N   1      33.965  16.727   9.311  0.00  0.00     0.177 C 
BRANCH  12  13
HETATM   13  N   UNK N   1      34.913  17.232  10.292  0.00  0.00    -0.417 N 
HETATM   14  H   UNK N   1      35.601  16.603  10.707  0.00  0.00     0.150 HD
HETATM   15  H   UNK N   1      34.890  18.214  10.565  0.00  0.00     0.150 HD
ENDBRANCH  12  13
BRANCH  12  16
HETATM   16  C   UNK N   1      33.450  15.331   9.475  0.00  0.00     0.163 C 
HETATM   17  O   UNK N   1      33.946  14.419   8.833  0.00  0.00    -0.648 OA
BRANCH  16  18
HETATM   18  O   UNK N   1      32.441  15.073  10.329  0.00  0.00    -0.775 OA
HETATM   19  H   UNK N   1      32.257  15.667  11.029  0.00  0.00     0.167 HD
ENDBRANCH  16  18
ENDBRANCH  12  16
ENDBRANCH  11  12
ENDBRANCH   2  11
TORSDOF 5
ENDMDL
