MODEL 1
REMARK VINA RESULT:      -5.5      0.000      0.000
REMARK  4 active torsions:
REMARK  status: ('A' for Active; 'I' for Inactive)
REMARK    1  A    between atoms: N_2  and  C_3 
REMARK    2  A    between atoms: C_3  and  C_4 
REMARK    3  A    between atoms: C_3  and  C_6 
REMARK    4  A    between atoms: C_4  and  C_5 
ROOT
HETATM    1  N   UNK N   1      21.076  12.125  11.573  0.00  0.00    -0.365 N 
HETATM    2  C   UNK N   1      21.018  13.406   9.724  0.00  0.00    -0.028 A 
HETATM    3  C   UNK N   1      22.322  13.078   9.983  0.00  0.00    -0.002 A 
HETATM    4  C   UNK N   1      22.327  12.302  11.105  0.00  0.00     0.042 A 
HETATM    5  C   UNK N   1      20.260  12.806  10.729  0.00  0.00     0.096 A 
HETATM    6  C   UNK N   1      23.499  13.412   9.314  0.00  0.00     0.014 A 
HETATM    7  C   UNK N   1      23.503  11.796  11.647  0.00  0.00     0.030 A 
HETATM    8  C   UNK N   1      24.709  12.920   9.836  0.00  0.00     0.001 A 
HETATM    9  C   UNK N   1      24.711  12.113  10.997  0.00  0.00     0.002 A 
HETATM   10  H   UNK N   1      20.809  11.607  12.366  0.00  0.00     0.165 HD
ENDROOT
BRANCH   2  11
HETATM   11  C   UNK N   1      20.552  14.240   8.562  0.00  0.00     0.065 C 
BRANCH  11  12
HETATM   12  C   UNK N   1      20.638  15.756   8.731  0.00  0.00     0.077 C 
BRANCH  12  13
HETATM   13  N   UNK N   1      21.296  16.313   7.563  0.00  0.00    -0.426 N 
HETATM   14  H   UNK N   1      20.758  16.520   6.722  0.00  0.00     0.150 HD
HETATM   15  H   UNK N   1      22.300  16.498   7.584  0.00  0.00     0.150 HD
ENDBRANCH  12  13
BRANCH  12  16
HETATM   16  C   UNK N   1      19.276  16.409   8.882  0.00  0.00     0.020 C 
HETATM   17  C   UNK N   1      19.453  17.908   9.038  0.00  0.00     0.007 C 
ENDBRANCH  12  16
ENDBRANCH  11  12
ENDBRANCH   2  11
TORSDOF 4
ENDMDL
MODEL 2
REMARK VINA RESULT:      -5.5     17.538     19.382
REMARK  4 active torsions:
REMARK  status: ('A' for Active; 'I' for Inactive)
REMARK    1  A    between atoms: N_2  and  C_3 
REMARK    2  A    between atoms: C_3  and  C_4 
REMARK    3  A    between atoms: C_3  and  C_6 
REMARK    4  A    between atoms: C_4  and  C_5 
ROOT
HETATM    1  N   UNK N   1      25.466  24.585  -5.992  0.00  0.00    -0.365 N 
HETATM    2  C   UNK N   1      26.704  24.382  -4.124  0.00  0.00    -0.028 A 
HETATM    3  C   UNK N   1      26.229  25.664  -4.191  0.00  0.00    -0.002 A 
HETATM    4  C   UNK N   1      25.483  25.758  -5.330  0.00  0.00     0.042 A 
HETATM    5  C   UNK N   1      26.220  23.729  -5.257  0.00  0.00     0.096 A 
HETATM    6  C   UNK N   1      26.406  26.751  -3.336  0.00  0.00     0.014 A 
HETATM    7  C   UNK N   1      24.852  26.940  -5.703  0.00  0.00     0.030 A 
HETATM    8  C   UNK N   1      25.785  27.964  -3.684  0.00  0.00     0.001 A 
HETATM    9  C   UNK N   1      25.010  28.058  -4.862  0.00  0.00     0.002 A 
HETATM   10  H   UNK N   1      25.001  24.390  -6.837  0.00  0.00     0.165 HD
ENDROOT
BRANCH   2  11
HETATM   11  C   UNK N   1      27.562  23.835  -3.016  0.00  0.00     0.065 C 
BRANCH  11  12
HETATM   12  C   UNK N   1      29.035  23.598  -3.345  0.00  0.00     0.077 C 
BRANCH  12  13
HETATM   13  N   UNK N   1      29.644  24.875  -3.675  0.00  0.00    -0.426 N 
HETATM   14  H   UNK N   1      30.385  25.255  -3.086  0.00  0.00     0.150 HD
HETATM   15  H   UNK N   1      29.331  25.391  -4.497  0.00  0.00     0.150 HD
ENDBRANCH  12  13
BRANCH  12  16
HETATM   16  C   UNK N   1      29.801  22.974  -2.193  0.00  0.00     0.020 C 
HETATM   17  C   UNK N   1      31.039  22.281  -2.732  0.00  0.00     0.007 C 
ENDBRANCH  12  16
ENDBRANCH  11  12
ENDBRANCH   2  11
TORSDOF 4
ENDMDL
MODEL 3
REMARK VINA RESULT:      -5.4     14.504     15.872
REMARK  4 active torsions:
REMARK  status: ('A' for Active; 'I' for Inactive)
REMARK    1  A    between atoms: N_2  and  C_3 
REMARK    2  A    between atoms: C_3  and  C_4 
REMARK    3  A    between atoms: C_3  and  C_6 
REMARK    4  A    between atoms: C_4  and  C_5 
ROOT
HETATM    1  N   UNK N   1      35.288  13.598  19.185  0.00  0.00    -0.365 N 
HETATM    2  C   UNK N   1      35.271  13.129  16.984  0.00  0.00    -0.028 A 
HETATM    3  C   UNK N   1      35.215  11.950  17.679  0.00  0.00    -0.002 A 
HETATM    4  C   UNK N   1      35.226  12.265  19.006  0.00  0.00     0.042 A 
HETATM    5  C   UNK N   1      35.320  14.141  17.942  0.00  0.00     0.096 A 
HETATM    6  C   UNK N   1      35.161  10.629  17.236  0.00  0.00     0.014 A 
HETATM    7  C   UNK N   1      35.180  11.288  19.996  0.00  0.00     0.030 A 
HETATM    8  C   UNK N   1      35.118   9.615  18.209  0.00  0.00     0.001 A 
HETATM    9  C   UNK N   1      35.125   9.943  19.584  0.00  0.00     0.002 A 
HETATM   10  H   UNK N   1      35.308  14.080  20.043  0.00  0.00     0.165 HD
ENDROOT
BRANCH   2  11
HETATM   11  C   UNK N   1      35.262  13.249  15.485  0.00  0.00     0.065 C 
BRANCH  11  12
HETATM   12  C   UNK N   1      36.525  13.816  14.838  0.00  0.00     0.077 C 
BRANCH  12  13
HETATM   13  N   UNK N   1      37.509  12.753  14.738  0.00  0.00    -0.426 N 
HETATM   14  H   UNK N   1      38.281  12.830  14.075  0.00  0.00     0.150 HD
HETATM   15  H   UNK N   1      37.429  11.927  15.332  0.00  0.00     0.150 HD
ENDBRANCH  12  13
BRANCH  12  16
HETATM   16  C   UNK N   1      36.272  14.380  13.451  0.00  0.00     0.020 C 
HETATM   17  C   UNK N   1      35.289  13.486  12.718  0.00  0.00     0.007 C 
ENDBRANCH  12  16
ENDBRANCH  11  12
ENDBRANCH   2  11
TORSDOF 4
ENDMDL
MODEL 4
REMARK VINA RESULT:      -5.3      8.460     10.493
REMARK  4 active torsions:
REMARK  status: ('A' for Active; 'I' for Inactive)
REMARK    1  A    between atoms: N_2  and  C_3 
REMARK    2  A    between atoms: C_3  and  C_4 
REMARK    3  A    between atoms: C_3  and  C_6 
REMARK    4  A    between atoms: C_4  and  C_5 
ROOT
HETATM    1  N   UNK N   1      27.411  19.472   8.317  0.00  0.00    -0.365 N 
HETATM    2  C   UNK N   1      28.890  18.064   7.370  0.00  0.00    -0.028 A 
HETATM    3  C   UNK N   1      28.326  18.829   6.384  0.00  0.00    -0.002 A 
HETATM    4  C   UNK N   1      27.437  19.671   6.985  0.00  0.00     0.042 A 
HETATM    5  C   UNK N   1      28.303  18.479   8.565  0.00  0.00     0.096 A 
HETATM    6  C   UNK N   1      28.529  18.836   5.004  0.00  0.00     0.014 A 
HETATM    7  C   UNK N   1      26.684  20.589   6.261  0.00  0.00     0.030 A 
HETATM    8  C   UNK N   1      27.782  19.749   4.239  0.00  0.00     0.001 A 
HETATM    9  C   UNK N   1      26.864  20.624   4.865  0.00  0.00     0.002 A 
HETATM   10  H   UNK N   1      26.858  19.949   8.976  0.00  0.00     0.165 HD
ENDROOT
BRANCH   2  11
HETATM   11  C   UNK N   1      29.941  17.011   7.152  0.00  0.00     0.065 C 
BRANCH  11  12
HETATM   12  C   UNK N   1      31.355  17.348   7.626  0.00  0.00     0.077 C 
BRANCH  12  13
HETATM   13  N   UNK N   1      31.588  16.679   8.893  0.00  0.00    -0.426 N 
HETATM   14  H   UNK N   1      32.382  16.048   9.000  0.00  0.00     0.150 HD
HETATM   15  H   UNK N   1      30.956  16.840   9.678  0.00  0.00     0.150 HD
ENDBRANCH  12  13
BRANCH  12  16
HETATM   16  C   UNK N   1      32.424  16.915   6.640  0.00  0.00     0.020 C 
HETATM   17  C   UNK N   1      31.996  17.298   5.235  0.00  0.00     0.007 C 
ENDBRANCH  12  16
ENDBRANCH  11  12
ENDBRANCH   2  11
TORSDOF 4
ENDMDL
MODEL 5
REMARK VINA RESULT:      -5.3      8.544     10.589
REMARK  4 active torsions:
REMARK  status: ('A' for Active; 'I' for Inactive)
REMARK    1  A    between atoms: N_2  and  C_3 
REMARK    2  A    between atoms: C_3  and  C_4 
REMARK    3  A    between atoms: C_3  and  C_6 
REMARK    4  A    between atoms: C_4  and  C_5 
ROOT
HETATM    1  N   UNK N   1      29.910  17.577   3.891  0.00  0.00    -0.365 N 
HETATM    2  C   UNK N   1      29.491  17.406   6.095  0.00  0.00    -0.028 A 
HETATM    3  C   UNK N   1      30.846  17.363   5.907  0.00  0.00    -0.002 A 
HETATM    4  C   UNK N   1      31.070  17.469   4.566  0.00  0.00     0.042 A 
HETATM    5  C   UNK N   1      28.927  17.536   4.826  0.00  0.00     0.096 A 
HETATM    6  C   UNK N   1      31.892  17.232   6.820  0.00  0.00     0.014 A 
HETATM    7  C   UNK N   1      32.354  17.457   4.029  0.00  0.00     0.030 A 
HETATM    8  C   UNK N   1      33.203  17.213   6.313  0.00  0.00     0.001 A 
HETATM    9  C   UNK N   1      33.434  17.327   4.923  0.00  0.00     0.002 A 
HETATM   10  H   UNK N   1      29.798  17.667   2.917  0.00  0.00     0.165 HD
ENDROOT
BRANCH   2  11
HETATM   11  C   UNK N   1      28.801  17.340   7.430  0.00  0.00     0.065 C 
BRANCH  11  12
HETATM   12  C   UNK N   1      28.829  18.611   8.278  0.00  0.00     0.077 C 
BRANCH  12  13
HETATM   13  N   UNK N   1      27.469  18.934   8.670  0.00  0.00    -0.426 N 
HETATM   14  H   UNK N   1      27.253  19.146   9.644  0.00  0.00     0.150 HD
HETATM   15  H   UNK N   1      26.727  18.949   7.969  0.00  0.00     0.150 HD
ENDBRANCH  12  13
BRANCH  12  16
HETATM   16  C   UNK N   1      29.676  18.463   9.529  0.00  0.00     0.020 C 
HETATM   17  C   UNK N   1      29.354  17.140  10.199  0.00  0.00     0.007 C 
ENDBRANCH  12  16
ENDBRANCH  11  12
ENDBRANCH   2  11
TORSDOF 4
ENDMDL
MODEL 6
REMARK VINA RESULT:      -5.3      8.875     10.710
REMARK  4 active torsions:
REMARK  status: ('A' for Active; 'I' for Inactive)
REMARK    1  A    between atoms: N_2  and  C_3 
REMARK    2  A    between atoms: C_3  and  C_4 
REMARK    3  A    between atoms: C_3  and  C_6 
REMARK    4  A    between atoms: C_4  and  C_5 
ROOT
HETATM    1  N   UNK N   1      28.795  18.115   4.135  0.00  0.00    -0.365 N 
HETATM    2  C   UNK N   1      29.068  17.778   6.343  0.00  0.00    -0.028 A 
HETATM    3  C   UNK N   1      28.292  18.892   6.167  0.00  0.00    -0.002 A 
HETATM    4  C   UNK N   1      28.143  19.071   4.824  0.00  0.00     0.042 A 
HETATM    5  C   UNK N   1      29.373  17.312   5.065  0.00  0.00     0.096 A 
HETATM    6  C   UNK N   1      27.715  19.760   7.094  0.00  0.00     0.014 A 
HETATM    7  C   UNK N   1      27.405  20.126   4.297  0.00  0.00     0.030 A 
HETATM    8  C   UNK N   1      26.965  20.841   6.597  0.00  0.00     0.001 A 
HETATM    9  C   UNK N   1      26.809  21.022   5.204  0.00  0.00     0.002 A 
HETATM   10  H   UNK N   1      28.844  18.018   3.157  0.00  0.00     0.165 HD
ENDROOT
BRANCH   2  11
HETATM   11  C   UNK N   1      29.467  17.204   7.675  0.00  0.00     0.065 C 
BRANCH  11  12
HETATM   12  C   UNK N   1      30.576  17.937   8.430  0.00  0.00     0.077 C 
BRANCH  12  13
HETATM   13  N   UNK N   1      30.140  18.149   9.798  0.00  0.00    -0.426 N 
HETATM   14  H   UNK N   1      30.182  17.386  10.473  0.00  0.00     0.150 HD
HETATM   15  H   UNK N   1      29.790  19.064  10.086  0.00  0.00     0.150 HD
ENDBRANCH  12  13
BRANCH  12  16
HETATM   16  C   UNK N   1      31.883  17.166   8.447  0.00  0.00     0.020 C 
HETATM   17  C   UNK N   1      33.017  18.093   8.051  0.00  0.00     0.007 C 
ENDBRANCH  12  16
ENDBRANCH  11  12
ENDBRANCH   2  11
TORSDOF 4
ENDMDL
MODEL 7
REMARK VINA RESULT:      -5.2     18.709     21.397
REMARK  4 active torsions:
REMARK  status: ('A' for Active; 'I' for Inactive)
REMARK    1  A    between atoms: N_2  and  C_3 
REMARK    2  A    between atoms: C_3  and  C_4 
REMARK    3  A    between atoms: C_3  and  C_6 
REMARK    4  A    between atoms: C_4  and  C_5 
ROOT
HETATM    1  N   UNK N   1      27.766  28.192  -7.201  0.00  0.00    -0.365 N 
HETATM    2  C   UNK N   1      26.158  27.074  -6.092  0.00  0.00    -0.028 A 
HETATM    3  C   UNK N   1      26.483  28.193  -5.373  0.00  0.00    -0.002 A 
HETATM    4  C   UNK N   1      27.457  28.849  -6.067  0.00  0.00     0.042 A 
HETATM    5  C   UNK N   1      26.972  27.092  -7.224  0.00  0.00     0.096 A 
HETATM    6  C   UNK N   1      25.995  28.672  -4.157  0.00  0.00     0.014 A 
HETATM    7  C   UNK N   1      28.018  30.036  -5.607  0.00  0.00     0.030 A 
HETATM    8  C   UNK N   1      26.542  29.869  -3.660  0.00  0.00     0.001 A 
HETATM    9  C   UNK N   1      27.548  30.549  -4.383  0.00  0.00     0.002 A 
HETATM   10  H   UNK N   1      28.434  28.456  -7.874  0.00  0.00     0.165 HD
ENDROOT
BRANCH   2  11
HETATM   11  C   UNK N   1      25.111  26.068  -5.699  0.00  0.00     0.065 C 
BRANCH  11  12
HETATM   12  C   UNK N   1      25.603  24.655  -5.391  0.00  0.00     0.077 C 
BRANCH  12  13
HETATM   13  N   UNK N   1      25.553  23.873  -6.614  0.00  0.00    -0.426 N 
HETATM   14  H   UNK N   1      24.710  23.873  -7.188  0.00  0.00     0.150 HD
HETATM   15  H   UNK N   1      26.364  23.322  -6.900  0.00  0.00     0.150 HD
ENDBRANCH  12  13
BRANCH  12  16
HETATM   16  C   UNK N   1      27.022  24.631  -4.854  0.00  0.00     0.020 C 
HETATM   17  C   UNK N   1      26.983  24.589  -3.337  0.00  0.00     0.007 C 
ENDBRANCH  12  16
ENDBRANCH  11  12
ENDBRANCH   2  11
TORSDOF 4
ENDMDL
MODEL 8
REMARK VINA RESULT:      -5.1      8.281      9.714
REMARK  4 active torsions:
REMARK  status: ('A' for Active; 'I' for Inactive)
REMARK    1  A    between atoms: N_2  and  C_3 
REMARK    2  A    between atoms: C_3  and  C_4 
REMARK    3  A    between atoms: C_3  and  C_6 
REMARK    4  A    between atoms: C_4  and  C_5 
ROOT
HETATM    1  N   UNK N   1      30.810  17.826   9.436  0.00  0.00    -0.365 N 
HETATM    2  C   UNK N   1      29.377  17.469   7.738  0.00  0.00    -0.028 A 
HETATM    3  C   UNK N   1      30.653  17.433   7.243  0.00  0.00    -0.002 A 
HETATM    4  C   UNK N   1      31.498  17.651   8.291  0.00  0.00     0.042 A 
HETATM    5  C   UNK N   1      29.499  17.719   9.105  0.00  0.00     0.096 A 
HETATM    6  C   UNK N   1      31.125  17.230   5.947  0.00  0.00     0.014 A 
HETATM    7  C   UNK N   1      32.879  17.681   8.131  0.00  0.00     0.030 A 
HETATM    8  C   UNK N   1      32.517  17.257   5.747  0.00  0.00     0.001 A 
HETATM    9  C   UNK N   1      33.391  17.480   6.835  0.00  0.00     0.002 A 
HETATM   10  H   UNK N   1      31.184  17.998  10.330  0.00  0.00     0.165 HD
ENDROOT
BRANCH   2  11
HETATM   11  C   UNK N   1      28.128  17.257   6.926  0.00  0.00     0.065 C 
BRANCH  11  12
HETATM   12  C   UNK N   1      27.658  18.437   6.077  0.00  0.00     0.077 C 
BRANCH  12  13
HETATM   13  N   UNK N   1      26.279  18.202   5.687  0.00  0.00    -0.426 N 
HETATM   14  H   UNK N   1      26.041  17.397   5.107  0.00  0.00     0.150 HD
HETATM   15  H   UNK N   1      25.547  18.844   5.992  0.00  0.00     0.150 HD
ENDBRANCH  12  13
BRANCH  12  16
HETATM   16  C   UNK N   1      27.738  19.761   6.815  0.00  0.00     0.020 C 
HETATM   17  C   UNK N   1      27.371  20.887   5.867  0.00  0.00     0.007 C 
ENDBRANCH  12  16
ENDBRANCH  11  12
ENDBRANCH   2  11
TORSDOF 4
ENDMDL
MODEL 9
REMARK VINA RESULT:      -5.0      7.342      9.416
REMARK  4 active torsions:
REMARK  status: ('A' for Active; 'I' for Inactive)
REMARK    1  A    between atoms: N_2  and  C_3 
REMARK    2  A    between atoms: C_3  and  C_4 
REMARK    3  A    between atoms: C_3  and  C_6 
REMARK    4  A    between atoms: C_4  and  C_5 
ROOT
HETATM    1  N   UNK N   1      25.791  16.653   5.603  0.00  0.00    -0.365 N 
HETATM    2  C   UNK N   1      27.724  17.459   6.425  0.00  0.00    -0.028 A 
HETATM    3  C   UNK N   1      27.274  18.316   5.457  0.00  0.00    -0.002 A 
HETATM    4  C   UNK N   1      26.104  17.804   4.978  0.00  0.00     0.042 A 
HETATM    5  C   UNK N   1      26.787  16.429   6.497  0.00  0.00     0.096 A 
HETATM    6  C   UNK N   1      27.816  19.502   4.962  0.00  0.00     0.014 A 
HETATM    7  C   UNK N   1      25.380  18.435   3.972  0.00  0.00     0.030 A 
HETATM    8  C   UNK N   1      27.112  20.166   3.942  0.00  0.00     0.001 A 
HETATM    9  C   UNK N   1      25.897  19.635   3.450  0.00  0.00     0.002 A 
HETATM   10  H   UNK N   1      25.001  16.089   5.443  0.00  0.00     0.165 HD
ENDROOT
BRANCH   2  11
HETATM   11  C   UNK N   1      28.979  17.650   7.232  0.00  0.00     0.065 C 
BRANCH  11  12
HETATM   12  C   UNK N   1      28.924  18.696   8.345  0.00  0.00     0.077 C 
BRANCH  12  13
HETATM   13  N   UNK N   1      27.732  18.461   9.140  0.00  0.00    -0.426 N 
HETATM   14  H   UNK N   1      27.057  19.212   9.285  0.00  0.00     0.150 HD
HETATM   15  H   UNK N   1      27.570  17.543   9.554  0.00  0.00     0.150 HD
ENDBRANCH  12  13
BRANCH  12  16
HETATM   16  C   UNK N   1      30.137  18.649   9.256  0.00  0.00     0.020 C 
HETATM   17  C   UNK N   1      31.264  17.917   8.552  0.00  0.00     0.007 C 
ENDBRANCH  12  16
ENDBRANCH  11  12
ENDBRANCH   2  11
TORSDOF 4
ENDMDL
