MODEL 1
REMARK VINA RESULT:      -4.8      0.000      0.000
REMARK  5 active torsions:
REMARK  status: ('A' for Active; 'I' for Inactive)
REMARK    1  A    between atoms: N_1  and  C_3 
REMARK    2  A    between atoms: N_1  and  C_7 
REMARK    3  A    between atoms: C_3  and  C_4 
REMARK    4  A    between atoms: C_4  and  C_5 
REMARK    5  A    between atoms: C_7  and  C_10 
ROOT
HETATM    1  N   UNK N   1      27.317  19.926   3.858  0.00  0.00    -0.197 NA
HETATM    2  C   UNK N   1      27.324  21.007   6.231  0.00  0.00     0.143 C 
HETATM    3  C   UNK N   1      27.314  20.425   4.900  0.00  0.00     0.060 C 
ENDROOT
BRANCH   2   4
HETATM    4  C   UNK N   1      27.743  19.909   7.161  0.00  0.00     0.128 C 
BRANCH   4   5
HETATM    5  N   UNK N   1      28.304  18.833   6.364  0.00  0.00    -0.416 N 
HETATM    6  H   UNK N   1      28.249  18.767   5.348  0.00  0.00     0.153 HD
BRANCH   5   7
HETATM    7  C   UNK N   1      28.952  17.865   7.226  0.00  0.00     0.076 C 
HETATM    8  C   UNK N   1      27.973  17.253   8.232  0.00  0.00     0.032 C 
BRANCH   7   9
HETATM    9  C   UNK N   1      29.831  16.864   6.462  0.00  0.00     0.062 C 
BRANCH   9  10
HETATM   10  C   UNK N   1      31.254  17.199   6.703  0.00  0.00    -0.056 A 
HETATM   11  C   UNK N   1      31.647  17.580   7.989  0.00  0.00     0.007 A 
HETATM   12  C   UNK N   1      32.964  17.907   8.262  0.00  0.00     0.001 A 
HETATM   13  C   UNK N   1      33.914  17.830   7.246  0.00  0.00     0.000 A 
HETATM   14  C   UNK N   1      33.536  17.446   5.953  0.00  0.00     0.001 A 
HETATM   15  C   UNK N   1      32.199  17.138   5.674  0.00  0.00     0.007 A 
ENDBRANCH   9  10
ENDBRANCH   7   9
ENDBRANCH   5   7
ENDBRANCH   4   5
ENDBRANCH   2   4
TORSDOF 5
ENDMDL
MODEL 2
REMARK VINA RESULT:      -4.5     10.730     13.930
REMARK  5 active torsions:
REMARK  status: ('A' for Active; 'I' for Inactive)
REMARK    1  A    between atoms: N_1  and  C_3 
REMARK    2  A    between atoms: N_1  and  C_7 
REMARK    3  A    between atoms: C_3  and  C_4 
REMARK    4  A    between atoms: C_4  and  C_5 
REMARK    5  A    between atoms: C_7  and  C_10 
ROOT
HETATM    1  N   UNK N   1      31.390  20.208  -4.665  0.00  0.00    -0.197 NA
HETATM    2  C   UNK N   1      30.750  22.051  -2.934  0.00  0.00     0.143 C 
HETATM    3  C   UNK N   1      31.112  21.010  -3.881  0.00  0.00     0.060 C 
ENDROOT
BRANCH   2   4
HETATM    4  C   UNK N   1      30.259  23.205  -3.754  0.00  0.00     0.128 C 
BRANCH   4   5
HETATM    5  N   UNK N   1      28.880  23.467  -3.383  0.00  0.00    -0.416 N 
HETATM    6  H   UNK N   1      28.487  23.322  -2.453  0.00  0.00     0.153 HD
BRANCH   5   7
HETATM    7  C   UNK N   1      28.145  23.966  -4.528  0.00  0.00     0.076 C 
HETATM    8  C   UNK N   1      28.624  23.325  -5.835  0.00  0.00     0.032 C 
BRANCH   7   9
HETATM    9  C   UNK N   1      26.625  23.980  -4.314  0.00  0.00     0.062 C 
BRANCH   9  10
HETATM   10  C   UNK N   1      26.140  25.375  -4.436  0.00  0.00    -0.056 A 
HETATM   11  C   UNK N   1      26.476  26.294  -3.438  0.00  0.00     0.007 A 
HETATM   12  C   UNK N   1      26.042  27.606  -3.504  0.00  0.00     0.001 A 
HETATM   13  C   UNK N   1      25.282  28.022  -4.595  0.00  0.00     0.000 A 
HETATM   14  C   UNK N   1      24.940  27.114  -5.606  0.00  0.00     0.001 A 
HETATM   15  C   UNK N   1      25.361  25.781  -5.524  0.00  0.00     0.007 A 
ENDBRANCH   9  10
ENDBRANCH   7   9
ENDBRANCH   5   7
ENDBRANCH   4   5
ENDBRANCH   2   4
TORSDOF 5
ENDMDL
MODEL 3
REMARK VINA RESULT:      -4.5     12.317     15.279
REMARK  5 active torsions:
REMARK  status: ('A' for Active; 'I' for Inactive)
REMARK    1  A    between atoms: N_1  and  C_3 
REMARK    2  A    between atoms: N_1  and  C_7 
REMARK    3  A    between atoms: C_3  and  C_4 
REMARK    4  A    between atoms: C_4  and  C_5 
REMARK    5  A    between atoms: C_7  and  C_10 
ROOT
HETATM    1  N   UNK N   1      30.854  25.680  -3.239  0.00  0.00    -0.197 NA
HETATM    2  C   UNK N   1      28.939  24.005  -3.813  0.00  0.00     0.143 C 
HETATM    3  C   UNK N   1      30.011  24.926  -3.475  0.00  0.00     0.060 C 
ENDROOT
BRANCH   2   4
HETATM    4  C   UNK N   1      28.346  24.511  -5.092  0.00  0.00     0.128 C 
BRANCH   4   5
HETATM    5  N   UNK N   1      26.900  24.481  -4.961  0.00  0.00    -0.416 N 
HETATM    6  H   UNK N   1      26.392  24.084  -4.170  0.00  0.00     0.153 HD
BRANCH   5   7
HETATM    7  C   UNK N   1      26.285  25.098  -6.119  0.00  0.00     0.076 C 
HETATM    8  C   UNK N   1      25.856  24.056  -7.158  0.00  0.00     0.032 C 
BRANCH   7   9
HETATM    9  C   UNK N   1      25.225  26.149  -5.757  0.00  0.00     0.062 C 
BRANCH   9  10
HETATM   10  C   UNK N   1      25.912  27.406  -5.378  0.00  0.00    -0.056 A 
HETATM   11  C   UNK N   1      26.906  27.911  -6.220  0.00  0.00     0.007 A 
HETATM   12  C   UNK N   1      27.579  29.078  -5.906  0.00  0.00     0.001 A 
HETATM   13  C   UNK N   1      27.242  29.772  -4.745  0.00  0.00     0.000 A 
HETATM   14  C   UNK N   1      26.245  29.280  -3.893  0.00  0.00     0.001 A 
HETATM   15  C   UNK N   1      25.582  28.087  -4.202  0.00  0.00     0.007 A 
ENDBRANCH   9  10
ENDBRANCH   7   9
ENDBRANCH   5   7
ENDBRANCH   4   5
ENDBRANCH   2   4
TORSDOF 5
ENDMDL
MODEL 4
REMARK VINA RESULT:      -4.4      6.943      9.542
REMARK  5 active torsions:
REMARK  status: ('A' for Active; 'I' for Inactive)
REMARK    1  A    between atoms: N_1  and  C_3 
REMARK    2  A    between atoms: N_1  and  C_7 
REMARK    3  A    between atoms: C_3  and  C_4 
REMARK    4  A    between atoms: C_4  and  C_5 
REMARK    5  A    between atoms: C_7  and  C_10 
ROOT
HETATM    1  N   UNK N   1      21.643  14.692   0.973  0.00  0.00    -0.197 NA
HETATM    2  C   UNK N   1      20.174  16.829   0.693  0.00  0.00     0.143 C 
HETATM    3  C   UNK N   1      20.992  15.635   0.827  0.00  0.00     0.060 C 
ENDROOT
BRANCH   2   4
HETATM    4  C   UNK N   1      20.045  17.400   2.072  0.00  0.00     0.128 C 
BRANCH   4   5
HETATM    5  N   UNK N   1      19.699  18.804   1.948  0.00  0.00    -0.416 N 
HETATM    6  H   UNK N   1      18.748  19.173   1.927  0.00  0.00     0.153 HD
BRANCH   5   7
HETATM    7  C   UNK N   1      20.904  19.604   1.860  0.00  0.00     0.076 C 
HETATM    8  C   UNK N   1      20.794  20.679   0.773  0.00  0.00     0.032 C 
BRANCH   7   9
HETATM    9  C   UNK N   1      21.413  20.091   3.225  0.00  0.00     0.062 C 
BRANCH   9  10
HETATM   10  C   UNK N   1      22.853  19.762   3.341  0.00  0.00    -0.056 A 
HETATM   11  C   UNK N   1      23.790  20.637   2.786  0.00  0.00     0.007 A 
HETATM   12  C   UNK N   1      25.146  20.370   2.864  0.00  0.00     0.001 A 
HETATM   13  C   UNK N   1      25.581  19.225   3.529  0.00  0.00     0.000 A 
HETATM   14  C   UNK N   1      24.653  18.340   4.094  0.00  0.00     0.001 A 
HETATM   15  C   UNK N   1      23.282  18.601   3.993  0.00  0.00     0.007 A 
ENDBRANCH   9  10
ENDBRANCH   7   9
ENDBRANCH   5   7
ENDBRANCH   4   5
ENDBRANCH   2   4
TORSDOF 5
ENDMDL
MODEL 5
REMARK VINA RESULT:      -4.4     13.838     15.384
REMARK  5 active torsions:
REMARK  status: ('A' for Active; 'I' for Inactive)
REMARK    1  A    between atoms: N_1  and  C_3 
REMARK    2  A    between atoms: N_1  and  C_7 
REMARK    3  A    between atoms: C_3  and  C_4 
REMARK    4  A    between atoms: C_4  and  C_5 
REMARK    5  A    between atoms: C_7  and  C_10 
ROOT
HETATM    1  N   UNK N   1      29.154  25.479  -6.546  0.00  0.00    -0.197 NA
HETATM    2  C   UNK N   1      29.173  26.276  -4.063  0.00  0.00     0.143 C 
HETATM    3  C   UNK N   1      29.171  25.812  -5.439  0.00  0.00     0.060 C 
ENDROOT
BRANCH   2   4
HETATM    4  C   UNK N   1      28.634  27.674  -4.095  0.00  0.00     0.128 C 
BRANCH   4   5
HETATM    5  N   UNK N   1      27.597  27.733  -5.110  0.00  0.00    -0.416 N 
HETATM    6  H   UNK N   1      27.764  27.785  -6.115  0.00  0.00     0.153 HD
BRANCH   5   7
HETATM    7  C   UNK N   1      26.291  27.710  -4.484  0.00  0.00     0.076 C 
HETATM    8  C   UNK N   1      26.018  28.990  -3.688  0.00  0.00     0.032 C 
BRANCH   7   9
HETATM    9  C   UNK N   1      25.169  27.270  -5.437  0.00  0.00     0.062 C 
BRANCH   9  10
HETATM   10  C   UNK N   1      25.479  25.912  -5.942  0.00  0.00    -0.056 A 
HETATM   11  C   UNK N   1      25.628  25.724  -7.319  0.00  0.00     0.007 A 
HETATM   12  C   UNK N   1      25.913  24.473  -7.839  0.00  0.00     0.001 A 
HETATM   13  C   UNK N   1      26.078  23.393  -6.974  0.00  0.00     0.000 A 
HETATM   14  C   UNK N   1      25.935  23.567  -5.591  0.00  0.00     0.001 A 
HETATM   15  C   UNK N   1      25.625  24.828  -5.070  0.00  0.00     0.007 A 
ENDBRANCH   9  10
ENDBRANCH   7   9
ENDBRANCH   5   7
ENDBRANCH   4   5
ENDBRANCH   2   4
TORSDOF 5
ENDMDL
MODEL 6
REMARK VINA RESULT:      -4.3     14.567     16.506
REMARK  5 active torsions:
REMARK  status: ('A' for Active; 'I' for Inactive)
REMARK    1  A    between atoms: N_1  and  C_3 
REMARK    2  A    between atoms: N_1  and  C_7 
REMARK    3  A    between atoms: C_3  and  C_4 
REMARK    4  A    between atoms: C_4  and  C_5 
REMARK    5  A    between atoms: C_7  and  C_10 
ROOT
HETATM    1  N   UNK N   1      31.258   8.548  20.055  0.00  0.00    -0.197 NA
HETATM    2  C   UNK N   1      32.495   9.855  21.943  0.00  0.00     0.143 C 
HETATM    3  C   UNK N   1      31.791   9.143  20.890  0.00  0.00     0.060 C 
ENDROOT
BRANCH   2   4
HETATM    4  C   UNK N   1      33.680   9.008  22.293  0.00  0.00     0.128 C 
BRANCH   4   5
HETATM    5  N   UNK N   1      34.398   8.707  21.068  0.00  0.00    -0.416 N 
HETATM    6  H   UNK N   1      34.177   7.939  20.434  0.00  0.00     0.153 HD
BRANCH   5   7
HETATM    7  C   UNK N   1      35.476   9.657  20.880  0.00  0.00     0.076 C 
HETATM    8  C   UNK N   1      36.485   9.609  22.032  0.00  0.00     0.032 C 
BRANCH   7   9
HETATM    9  C   UNK N   1      36.080   9.618  19.468  0.00  0.00     0.062 C 
BRANCH   9  10
HETATM   10  C   UNK N   1      35.744  10.884  18.773  0.00  0.00    -0.056 A 
HETATM   11  C   UNK N   1      35.449  12.015  19.538  0.00  0.00     0.007 A 
HETATM   12  C   UNK N   1      35.124  13.217  18.935  0.00  0.00     0.001 A 
HETATM   13  C   UNK N   1      35.118  13.306  17.544  0.00  0.00     0.000 A 
HETATM   14  C   UNK N   1      35.416  12.181  16.763  0.00  0.00     0.001 A 
HETATM   15  C   UNK N   1      35.721  10.961  17.376  0.00  0.00     0.007 A 
ENDBRANCH   9  10
ENDBRANCH   7   9
ENDBRANCH   5   7
ENDBRANCH   4   5
ENDBRANCH   2   4
TORSDOF 5
ENDMDL
MODEL 7
REMARK VINA RESULT:      -4.3     13.715     15.759
REMARK  5 active torsions:
REMARK  status: ('A' for Active; 'I' for Inactive)
REMARK    1  A    between atoms: N_1  and  C_3 
REMARK    2  A    between atoms: N_1  and  C_7 
REMARK    3  A    between atoms: C_3  and  C_4 
REMARK    4  A    between atoms: C_4  and  C_5 
REMARK    5  A    between atoms: C_7  and  C_10 
ROOT
HETATM    1  N   UNK N   1      28.161  24.638  -8.488  0.00  0.00    -0.197 NA
HETATM    2  C   UNK N   1      27.148  22.600  -7.214  0.00  0.00     0.143 C 
HETATM    3  C   UNK N   1      27.727  23.721  -7.934  0.00  0.00     0.060 C 
ENDROOT
BRANCH   2   4
HETATM    4  C   UNK N   1      26.057  23.172  -6.363  0.00  0.00     0.128 C 
BRANCH   4   5
HETATM    5  N   UNK N   1      26.142  24.620  -6.434  0.00  0.00    -0.416 N 
HETATM    6  H   UNK N   1      26.576  25.144  -7.194  0.00  0.00     0.153 HD
BRANCH   5   7
HETATM    7  C   UNK N   1      25.519  25.210  -5.266  0.00  0.00     0.076 C 
HETATM    8  C   UNK N   1      26.463  25.215  -4.059  0.00  0.00     0.032 C 
BRANCH   7   9
HETATM    9  C   UNK N   1      24.813  26.542  -5.562  0.00  0.00     0.062 C 
BRANCH   9  10
HETATM   10  C   UNK N   1      25.781  27.647  -5.366  0.00  0.00    -0.056 A 
HETATM   11  C   UNK N   1      25.675  28.439  -4.220  0.00  0.00     0.007 A 
HETATM   12  C   UNK N   1      26.552  29.486  -3.996  0.00  0.00     0.001 A 
HETATM   13  C   UNK N   1      27.570  29.736  -4.914  0.00  0.00     0.000 A 
HETATM   14  C   UNK N   1      27.691  28.947  -6.066  0.00  0.00     0.001 A 
HETATM   15  C   UNK N   1      26.789  27.904  -6.301  0.00  0.00     0.007 A 
ENDBRANCH   9  10
ENDBRANCH   7   9
ENDBRANCH   5   7
ENDBRANCH   4   5
ENDBRANCH   2   4
TORSDOF 5
ENDMDL
MODEL 8
REMARK VINA RESULT:      -4.3      8.894      9.724
REMARK  5 active torsions:
REMARK  status: ('A' for Active; 'I' for Inactive)
REMARK    1  A    between atoms: N_1  and  C_3 
REMARK    2  A    between atoms: N_1  and  C_7 
REMARK    3  A    between atoms: C_3  and  C_4 
REMARK    4  A    between atoms: C_4  and  C_5 
REMARK    5  A    between atoms: C_7  and  C_10 
ROOT
HETATM    1  N   UNK N   1      21.261  15.675   3.543  0.00  0.00    -0.197 NA
HETATM    2  C   UNK N   1      21.684  17.539   5.318  0.00  0.00     0.143 C 
HETATM    3  C   UNK N   1      21.458  16.514   4.314  0.00  0.00     0.060 C 
ENDROOT
BRANCH   2   4
HETATM    4  C   UNK N   1      21.164  16.980   6.606  0.00  0.00     0.128 C 
BRANCH   4   5
HETATM    5  N   UNK N   1      21.616  15.605   6.717  0.00  0.00    -0.416 N 
HETATM    6  H   UNK N   1      22.036  15.064   5.960  0.00  0.00     0.153 HD
BRANCH   5   7
HETATM    7  C   UNK N   1      21.383  15.113   8.059  0.00  0.00     0.076 C 
HETATM    8  C   UNK N   1      20.365  15.975   8.813  0.00  0.00     0.032 C 
BRANCH   7   9
HETATM    9  C   UNK N   1      21.142  13.597   8.118  0.00  0.00     0.062 C 
BRANCH   9  10
HETATM   10  C   UNK N   1      21.820  13.053   9.318  0.00  0.00    -0.056 A 
HETATM   11  C   UNK N   1      21.049  12.720  10.434  0.00  0.00     0.007 A 
HETATM   12  C   UNK N   1      21.637  12.214  11.580  0.00  0.00     0.001 A 
HETATM   13  C   UNK N   1      23.015  12.009  11.609  0.00  0.00     0.000 A 
HETATM   14  C   UNK N   1      23.801  12.335  10.496  0.00  0.00     0.001 A 
HETATM   15  C   UNK N   1      23.206  12.868   9.347  0.00  0.00     0.007 A 
ENDBRANCH   9  10
ENDBRANCH   7   9
ENDBRANCH   5   7
ENDBRANCH   4   5
ENDBRANCH   2   4
TORSDOF 5
ENDMDL
MODEL 9
REMARK VINA RESULT:      -4.2     12.987     14.792
REMARK  5 active torsions:
REMARK  status: ('A' for Active; 'I' for Inactive)
REMARK    1  A    between atoms: N_1  and  C_3 
REMARK    2  A    between atoms: N_1  and  C_7 
REMARK    3  A    between atoms: C_3  and  C_4 
REMARK    4  A    between atoms: C_4  and  C_5 
REMARK    5  A    between atoms: C_7  and  C_10 
ROOT
HETATM    1  N   UNK N   1      30.888  23.923  -7.580  0.00  0.00    -0.197 NA
HETATM    2  C   UNK N   1      30.269  22.796  -5.311  0.00  0.00     0.143 C 
HETATM    3  C   UNK N   1      30.635  23.415  -6.573  0.00  0.00     0.060 C 
ENDROOT
BRANCH   2   4
HETATM    4  C   UNK N   1      28.833  23.150  -5.076  0.00  0.00     0.128 C 
BRANCH   4   5
HETATM    5  N   UNK N   1      28.215  23.408  -6.364  0.00  0.00    -0.416 N 
HETATM    6  H   UNK N   1      28.710  23.429  -7.256  0.00  0.00     0.153 HD
BRANCH   5   7
HETATM    7  C   UNK N   1      26.794  23.632  -6.196  0.00  0.00     0.076 C 
HETATM    8  C   UNK N   1      25.961  22.558  -6.903  0.00  0.00     0.032 C 
BRANCH   7   9
HETATM    9  C   UNK N   1      26.393  23.933  -4.744  0.00  0.00     0.062 C 
BRANCH   9  10
HETATM   10  C   UNK N   1      26.030  25.366  -4.637  0.00  0.00    -0.056 A 
HETATM   11  C   UNK N   1      26.457  26.087  -3.519  0.00  0.00     0.007 A 
HETATM   12  C   UNK N   1      26.137  27.425  -3.373  0.00  0.00     0.001 A 
HETATM   13  C   UNK N   1      25.402  28.068  -4.367  0.00  0.00     0.000 A 
HETATM   14  C   UNK N   1      24.971  27.358  -5.496  0.00  0.00     0.001 A 
HETATM   15  C   UNK N   1      25.276  25.999  -5.631  0.00  0.00     0.007 A 
ENDBRANCH   9  10
ENDBRANCH   7   9
ENDBRANCH   5   7
ENDBRANCH   4   5
ENDBRANCH   2   4
TORSDOF 5
ENDMDL
