MODEL 1
REMARK VINA RESULT:      -4.9      0.000      0.000
REMARK  3 active torsions:
REMARK  status: ('A' for Active; 'I' for Inactive)
REMARK    1  A    between atoms: N_2  and  C_3 
REMARK    2  A    between atoms: C_3  and  C_4 
REMARK    3  A    between atoms: C_4  and  C_7 
ROOT
HETATM    1 Cl   UNK N   1      35.264  10.131  20.803  0.00  0.00    -0.084 Cl
HETATM    2  C   UNK N   1      35.211  12.543  16.944  0.00  0.00    -0.056 A 
HETATM    3  C   UNK N   1      35.283  13.196  18.182  0.00  0.00     0.009 A 
HETATM    4  C   UNK N   1      35.149  11.146  16.899  0.00  0.00     0.009 A 
HETATM    5  C   UNK N   1      35.313  12.453  19.367  0.00  0.00     0.024 A 
HETATM    6  C   UNK N   1      35.172  10.403  18.085  0.00  0.00     0.024 A 
HETATM    7  C   UNK N   1      35.253  11.059  19.318  0.00  0.00     0.034 A 
ENDROOT
BRANCH   2   8
HETATM    8  C   UNK N   1      35.114  13.330  15.669  0.00  0.00     0.068 C 
BRANCH   8   9
HETATM    9  C   UNK N   1      36.389  13.517  14.828  0.00  0.00     0.019 C 
HETATM   10  C   UNK N   1      35.984  13.968  13.441  0.00  0.00     0.037 C 
HETATM   11  C   UNK N   1      37.252  12.273  14.687  0.00  0.00     0.037 C 
BRANCH   9  12
HETATM   12  N   UNK N   1      37.184  14.567  15.439  0.00  0.00    -0.422 N 
HETATM   13  H   UNK N   1      37.075  15.570  15.586  0.00  0.00     0.150 HD
HETATM   14  H   UNK N   1      38.066  14.216  15.810  0.00  0.00     0.150 HD
ENDBRANCH   9  12
ENDBRANCH   8   9
ENDBRANCH   2   8
TORSDOF 3
ENDMDL
MODEL 2
REMARK VINA RESULT:      -4.9     26.789     28.009
REMARK  3 active torsions:
REMARK  status: ('A' for Active; 'I' for Inactive)
REMARK    1  A    between atoms: N_2  and  C_3 
REMARK    2  A    between atoms: C_3  and  C_4 
REMARK    3  A    between atoms: C_4  and  C_7 
ROOT
HETATM    1 Cl   UNK N   1      26.184  22.985  -6.456  0.00  0.00    -0.084 Cl
HETATM    2  C   UNK N   1      25.790  27.061  -4.469  0.00  0.00    -0.056 A 
HETATM    3  C   UNK N   1      26.383  25.995  -3.779  0.00  0.00     0.009 A 
HETATM    4  C   UNK N   1      25.312  26.865  -5.770  0.00  0.00     0.009 A 
HETATM    5  C   UNK N   1      26.516  24.747  -4.395  0.00  0.00     0.024 A 
HETATM    6  C   UNK N   1      25.440  25.614  -6.383  0.00  0.00     0.024 A 
HETATM    7  C   UNK N   1      26.041  24.556  -5.695  0.00  0.00     0.034 A 
ENDROOT
BRANCH   2   8
HETATM    8  C   UNK N   1      25.583  28.388  -3.796  0.00  0.00     0.068 C 
BRANCH   8   9
HETATM    9  C   UNK N   1      26.738  29.403  -3.816  0.00  0.00     0.019 C 
HETATM   10  C   UNK N   1      27.368  29.383  -5.193  0.00  0.00     0.037 C 
HETATM   11  C   UNK N   1      27.834  29.149  -2.792  0.00  0.00     0.037 C 
BRANCH   9  12
HETATM   12  N   UNK N   1      26.185  30.725  -3.584  0.00  0.00    -0.422 N 
HETATM   13  H   UNK N   1      26.568  31.659  -3.435  0.00  0.00     0.150 HD
HETATM   14  H   UNK N   1      25.166  30.719  -3.563  0.00  0.00     0.150 HD
ENDBRANCH   9  12
ENDBRANCH   8   9
ENDBRANCH   2   8
TORSDOF 3
ENDMDL
MODEL 3
REMARK VINA RESULT:      -4.7     27.559     28.535
REMARK  3 active torsions:
REMARK  status: ('A' for Active; 'I' for Inactive)
REMARK    1  A    between atoms: N_2  and  C_3 
REMARK    2  A    between atoms: C_3  and  C_4 
REMARK    3  A    between atoms: C_4  and  C_7 
ROOT
HETATM    1 Cl   UNK N   1      26.534  22.905  -8.547  0.00  0.00    -0.084 Cl
HETATM    2  C   UNK N   1      25.480  26.406  -5.836  0.00  0.00    -0.056 A 
HETATM    3  C   UNK N   1      25.785  26.627  -7.186  0.00  0.00     0.009 A 
HETATM    4  C   UNK N   1      25.508  25.105  -5.322  0.00  0.00     0.009 A 
HETATM    5  C   UNK N   1      26.095  25.550  -8.021  0.00  0.00     0.024 A 
HETATM    6  C   UNK N   1      25.825  24.027  -6.157  0.00  0.00     0.024 A 
HETATM    7  C   UNK N   1      26.120  24.251  -7.506  0.00  0.00     0.034 A 
ENDROOT
BRANCH   2   8
HETATM    8  C   UNK N   1      25.208  27.560  -4.914  0.00  0.00     0.068 C 
BRANCH   8   9
HETATM    9  C   UNK N   1      26.318  27.993  -3.940  0.00  0.00     0.019 C 
HETATM   10  C   UNK N   1      26.342  29.505  -3.885  0.00  0.00     0.037 C 
HETATM   11  C   UNK N   1      27.714  27.511  -4.304  0.00  0.00     0.037 C 
BRANCH   9  12
HETATM   12  N   UNK N   1      25.984  27.490  -2.620  0.00  0.00    -0.422 N 
HETATM   13  H   UNK N   1      26.508  27.106  -1.833  0.00  0.00     0.150 HD
HETATM   14  H   UNK N   1      24.983  27.530  -2.433  0.00  0.00     0.150 HD
ENDBRANCH   9  12
ENDBRANCH   8   9
ENDBRANCH   2   8
TORSDOF 3
ENDMDL
MODEL 4
REMARK VINA RESULT:      -4.6     27.131     28.620
REMARK  3 active torsions:
REMARK  status: ('A' for Active; 'I' for Inactive)
REMARK    1  A    between atoms: N_2  and  C_3 
REMARK    2  A    between atoms: C_3  and  C_4 
REMARK    3  A    between atoms: C_4  and  C_7 
ROOT
HETATM    1 Cl   UNK N   1      27.631  30.977  -3.589  0.00  0.00    -0.084 Cl
HETATM    2  C   UNK N   1      25.987  27.341  -5.777  0.00  0.00    -0.056 A 
HETATM    3  C   UNK N   1      25.452  27.719  -4.539  0.00  0.00     0.009 A 
HETATM    4  C   UNK N   1      27.035  28.082  -6.336  0.00  0.00     0.009 A 
HETATM    5  C   UNK N   1      25.949  28.844  -3.873  0.00  0.00     0.024 A 
HETATM    6  C   UNK N   1      27.535  29.204  -5.667  0.00  0.00     0.024 A 
HETATM    7  C   UNK N   1      26.992  29.583  -4.435  0.00  0.00     0.034 A 
ENDROOT
BRANCH   2   8
HETATM    8  C   UNK N   1      25.507  26.098  -6.471  0.00  0.00     0.068 C 
BRANCH   8   9
HETATM    9  C   UNK N   1      26.147  24.753  -6.084  0.00  0.00     0.019 C 
HETATM   10  C   UNK N   1      25.891  24.510  -4.612  0.00  0.00     0.037 C 
HETATM   11  C   UNK N   1      27.646  24.664  -6.324  0.00  0.00     0.037 C 
BRANCH   9  12
HETATM   12  N   UNK N   1      25.492  23.704  -6.844  0.00  0.00    -0.422 N 
HETATM   13  H   UNK N   1      25.718  22.743  -7.101  0.00  0.00     0.150 HD
HETATM   14  H   UNK N   1      24.589  24.000  -7.211  0.00  0.00     0.150 HD
ENDBRANCH   9  12
ENDBRANCH   8   9
ENDBRANCH   2   8
TORSDOF 3
ENDMDL
MODEL 5
REMARK VINA RESULT:      -4.6     15.148     15.984
REMARK  3 active torsions:
REMARK  status: ('A' for Active; 'I' for Inactive)
REMARK    1  A    between atoms: N_2  and  C_3 
REMARK    2  A    between atoms: C_3  and  C_4 
REMARK    3  A    between atoms: C_4  and  C_7 
ROOT
HETATM    1 Cl   UNK N   1      23.283  11.685  13.203  0.00  0.00    -0.084 Cl
HETATM    2  C   UNK N   1      21.751  13.057   9.143  0.00  0.00    -0.056 A 
HETATM    3  C   UNK N   1      20.848  12.750  10.169  0.00  0.00     0.009 A 
HETATM    4  C   UNK N   1      23.127  12.932   9.368  0.00  0.00     0.009 A 
HETATM    5  C   UNK N   1      21.320  12.342  11.421  0.00  0.00     0.024 A 
HETATM    6  C   UNK N   1      23.598  12.517  10.619  0.00  0.00     0.024 A 
HETATM    7  C   UNK N   1      22.694  12.221  11.644  0.00  0.00     0.034 A 
ENDROOT
BRANCH   2   8
HETATM    8  C   UNK N   1      21.257  13.434   7.776  0.00  0.00     0.068 C 
BRANCH   8   9
HETATM    9  C   UNK N   1      21.094  14.928   7.446  0.00  0.00     0.019 C 
HETATM   10  C   UNK N   1      22.395  15.432   6.860  0.00  0.00     0.037 C 
HETATM   11  C   UNK N   1      20.736  15.811   8.632  0.00  0.00     0.037 C 
BRANCH   9  12
HETATM   12  N   UNK N   1      20.056  15.060   6.440  0.00  0.00    -0.422 N 
HETATM   13  H   UNK N   1      19.161  15.546   6.378  0.00  0.00     0.150 HD
HETATM   14  H   UNK N   1      20.273  14.541   5.590  0.00  0.00     0.150 HD
ENDBRANCH   9  12
ENDBRANCH   8   9
ENDBRANCH   2   8
TORSDOF 3
ENDMDL
MODEL 6
REMARK VINA RESULT:      -4.6     26.949     28.065
REMARK  3 active torsions:
REMARK  status: ('A' for Active; 'I' for Inactive)
REMARK    1  A    between atoms: N_2  and  C_3 
REMARK    2  A    between atoms: C_3  and  C_4 
REMARK    3  A    between atoms: C_4  and  C_7 
ROOT
HETATM    1 Cl   UNK N   1      26.287  29.285  -3.321  0.00  0.00    -0.084 Cl
HETATM    2  C   UNK N   1      25.797  25.197  -5.261  0.00  0.00    -0.056 A 
HETATM    3  C   UNK N   1      25.170  26.320  -5.816  0.00  0.00     0.009 A 
HETATM    4  C   UNK N   1      26.570  25.336  -4.103  0.00  0.00     0.009 A 
HETATM    5  C   UNK N   1      25.332  27.578  -5.227  0.00  0.00     0.024 A 
HETATM    6  C   UNK N   1      26.727  26.594  -3.510  0.00  0.00     0.024 A 
HETATM    7  C   UNK N   1      26.106  27.714  -4.073  0.00  0.00     0.034 A 
ENDROOT
BRANCH   2   8
HETATM    8  C   UNK N   1      25.579  23.831  -5.846  0.00  0.00     0.068 C 
BRANCH   8   9
HETATM    9  C   UNK N   1      26.155  23.536  -7.242  0.00  0.00     0.019 C 
HETATM   10  C   UNK N   1      26.420  22.049  -7.344  0.00  0.00     0.037 C 
HETATM   11  C   UNK N   1      27.447  24.269  -7.571  0.00  0.00     0.037 C 
BRANCH   9  12
HETATM   12  N   UNK N   1      25.155  23.893  -8.230  0.00  0.00    -0.422 N 
HETATM   13  H   UNK N   1      25.169  24.300  -9.166  0.00  0.00     0.150 HD
HETATM   14  H   UNK N   1      24.208  23.690  -7.912  0.00  0.00     0.150 HD
ENDBRANCH   9  12
ENDBRANCH   8   9
ENDBRANCH   2   8
TORSDOF 3
ENDMDL
MODEL 7
REMARK VINA RESULT:      -4.5     14.193     15.005
REMARK  3 active torsions:
REMARK  status: ('A' for Active; 'I' for Inactive)
REMARK    1  A    between atoms: N_2  and  C_3 
REMARK    2  A    between atoms: C_3  and  C_4 
REMARK    3  A    between atoms: C_4  and  C_7 
ROOT
HETATM    1 Cl   UNK N   1      23.317  11.922  13.533  0.00  0.00    -0.084 Cl
HETATM    2  C   UNK N   1      23.251  12.402   9.007  0.00  0.00    -0.056 A 
HETATM    3  C   UNK N   1      24.472  12.301   9.687  0.00  0.00     0.009 A 
HETATM    4  C   UNK N   1      22.051  12.361   9.726  0.00  0.00     0.009 A 
HETATM    5  C   UNK N   1      24.491  12.140  11.076  0.00  0.00     0.024 A 
HETATM    6  C   UNK N   1      22.071  12.206  11.117  0.00  0.00     0.024 A 
HETATM    7  C   UNK N   1      23.292  12.097  11.790  0.00  0.00     0.034 A 
ENDROOT
BRANCH   2   8
HETATM    8  C   UNK N   1      23.218  12.639   7.525  0.00  0.00     0.068 C 
BRANCH   8   9
HETATM    9  C   UNK N   1      22.982  11.434   6.598  0.00  0.00     0.019 C 
HETATM   10  C   UNK N   1      21.495  11.309   6.345  0.00  0.00     0.037 C 
HETATM   11  C   UNK N   1      23.482  10.102   7.138  0.00  0.00     0.037 C 
BRANCH   9  12
HETATM   12  N   UNK N   1      23.643  11.698   5.333  0.00  0.00    -0.422 N 
HETATM   13  H   UNK N   1      24.406  11.270   4.807  0.00  0.00     0.150 HD
HETATM   14  H   UNK N   1      23.251  12.507   4.854  0.00  0.00     0.150 HD
ENDBRANCH   9  12
ENDBRANCH   8   9
ENDBRANCH   2   8
TORSDOF 3
ENDMDL
MODEL 8
REMARK VINA RESULT:      -4.4     11.616     13.279
REMARK  3 active torsions:
REMARK  status: ('A' for Active; 'I' for Inactive)
REMARK    1  A    between atoms: N_2  and  C_3 
REMARK    2  A    between atoms: C_3  and  C_4 
REMARK    3  A    between atoms: C_4  and  C_7 
ROOT
HETATM    1 Cl   UNK N   1      34.464  18.076   8.042  0.00  0.00    -0.084 Cl
HETATM    2  C   UNK N   1      30.121  17.238   6.969  0.00  0.00    -0.056 A 
HETATM    3  C   UNK N   1      31.132  17.036   6.021  0.00  0.00     0.009 A 
HETATM    4  C   UNK N   1      30.450  17.706   8.246  0.00  0.00     0.009 A 
HETATM    5  C   UNK N   1      32.467  17.280   6.355  0.00  0.00     0.024 A 
HETATM    6  C   UNK N   1      31.786  17.957   8.579  0.00  0.00     0.024 A 
HETATM    7  C   UNK N   1      32.794  17.745   7.632  0.00  0.00     0.034 A 
ENDROOT
BRANCH   2   8
HETATM    8  C   UNK N   1      28.677  17.041   6.603  0.00  0.00     0.068 C 
BRANCH   8   9
HETATM    9  C   UNK N   1      27.874  18.262   6.122  0.00  0.00     0.019 C 
HETATM   10  C   UNK N   1      28.412  18.686   4.773  0.00  0.00     0.037 C 
HETATM   11  C   UNK N   1      27.921  19.466   7.050  0.00  0.00     0.037 C 
BRANCH   9  12
HETATM   12  N   UNK N   1      26.489  17.857   5.958  0.00  0.00    -0.422 N 
HETATM   13  H   UNK N   1      25.977  17.263   5.306  0.00  0.00     0.150 HD
HETATM   14  H   UNK N   1      25.881  18.267   6.666  0.00  0.00     0.150 HD
ENDBRANCH   9  12
ENDBRANCH   8   9
ENDBRANCH   2   8
TORSDOF 3
ENDMDL
MODEL 9
REMARK VINA RESULT:      -4.3      9.255     11.450
REMARK  3 active torsions:
REMARK  status: ('A' for Active; 'I' for Inactive)
REMARK    1  A    between atoms: N_2  and  C_3 
REMARK    2  A    between atoms: C_3  and  C_4 
REMARK    3  A    between atoms: C_4  and  C_7 
ROOT
HETATM    1 Cl   UNK N   1      28.016  17.126   6.297  0.00  0.00    -0.084 Cl
HETATM    2  C   UNK N   1      32.223  17.558   7.979  0.00  0.00    -0.056 A 
HETATM    3  C   UNK N   1      32.023  16.973   6.721  0.00  0.00     0.009 A 
HETATM    4  C   UNK N   1      31.122  18.002   8.720  0.00  0.00     0.009 A 
HETATM    5  C   UNK N   1      30.732  16.853   6.199  0.00  0.00     0.024 A 
HETATM    6  C   UNK N   1      29.829  17.876   8.200  0.00  0.00     0.024 A 
HETATM    7  C   UNK N   1      29.635  17.300   6.940  0.00  0.00     0.034 A 
ENDROOT
BRANCH   2   8
HETATM    8  C   UNK N   1      33.598  17.634   8.578  0.00  0.00     0.068 C 
BRANCH   8   9
HETATM    9  C   UNK N   1      34.199  16.356   9.190  0.00  0.00     0.019 C 
HETATM   10  C   UNK N   1      35.183  16.759  10.267  0.00  0.00     0.037 C 
HETATM   11  C   UNK N   1      34.923  15.452   8.203  0.00  0.00     0.037 C 
BRANCH   9  12
HETATM   12  N   UNK N   1      33.125  15.601   9.808  0.00  0.00    -0.422 N 
HETATM   13  H   UNK N   1      32.394  14.970   9.477  0.00  0.00     0.150 HD
HETATM   14  H   UNK N   1      33.091  15.733  10.818  0.00  0.00     0.150 HD
ENDBRANCH   9  12
ENDBRANCH   8   9
ENDBRANCH   2   8
TORSDOF 3
ENDMDL
