MODEL 1
REMARK VINA RESULT:      -7.6      0.000      0.000
REMARK  6 active torsions:
REMARK  status: ('A' for Active; 'I' for Inactive)
REMARK    1  A    between atoms: O_3  and  C_13 
REMARK    2  A    between atoms: O_3  and  C_22 
REMARK    3  A    between atoms: O_4  and  C_18 
REMARK    4  A    between atoms: C_8  and  C_13 
REMARK    5  A    between atoms: C_23  and  C_26 
REMARK    6  A    between atoms: C_26  and  C_27 
ROOT
HETATM    1  C   UNK N   1      27.306  21.771  -7.785  0.00  0.00     0.213 C 
ENDROOT
BRANCH   1   2
HETATM    2  O   UNK N   1      26.447  22.711  -8.305  0.00  0.00    -0.348 OA
BRANCH   2   3
HETATM    3  C   UNK N   1      26.115  23.845  -7.660  0.00  0.00     0.068 A 
HETATM    4  C   UNK N   1      25.942  25.063  -8.338  0.00  0.00     0.037 A 
HETATM    5  C   UNK N   1      25.653  26.224  -7.608  0.00  0.00     0.010 A 
HETATM    6  C   UNK N   1      25.490  26.149  -6.218  0.00  0.00    -0.056 A 
HETATM    7  C   UNK N   1      25.602  24.922  -5.567  0.00  0.00     0.010 A 
HETATM    8  C   UNK N   1      25.934  23.783  -6.281  0.00  0.00     0.037 A 
BRANCH   6   9
HETATM    9  C   UNK N   1      25.357  27.382  -5.398  0.00  0.00     0.063 C 
BRANCH   9  10
HETATM   10  C   UNK N   1      26.661  27.636  -4.625  0.00  0.00     0.153 A 
HETATM   11  S   UNK N   1      27.454  29.165  -5.267  0.00  0.00    -0.054 SA
HETATM   12  C   UNK N   1      27.338  29.866  -3.624  0.00  0.00     0.287 A 
HETATM   13  O   UNK N   1      27.735  30.987  -3.364  0.00  0.00    -0.260 OA
HETATM   14  N   UNK N   1      26.819  29.076  -2.685  0.00  0.00    -0.287 N 
HETATM   15  C   UNK N   1      26.448  27.879  -3.144  0.00  0.00     0.239 A 
HETATM   16  H   UNK N   1      26.720  29.348  -1.744  0.00  0.00     0.172 HD
HETATM   17  O   UNK N   1      26.008  27.032  -2.388  0.00  0.00    -0.272 OA
ENDBRANCH   9  10
ENDBRANCH   6   9
ENDBRANCH   2   3
ENDBRANCH   1   2
BRANCH   1  18
HETATM   18  C   UNK N   1      28.774  22.073  -8.168  0.00  0.00     0.086 C 
HETATM   19  O   UNK N   1      29.149  23.276  -7.601  0.00  0.00    -0.337 OA
HETATM   20  C   UNK N   1      29.544  23.386  -6.300  0.00  0.00     0.083 A 
HETATM   21  C   UNK N   1      29.863  22.231  -5.549  0.00  0.00    -0.015 A 
HETATM   22  C   UNK N   1      29.645  24.652  -5.710  0.00  0.00    -0.019 A 
HETATM   23  C   UNK N   1      29.800  20.874  -6.200  0.00  0.00     0.045 C 
HETATM   24  C   UNK N   1      30.255  22.351  -4.205  0.00  0.00    -0.019 A 
HETATM   25  C   UNK N   1      29.772  20.991  -7.724  0.00  0.00     0.045 C 
HETATM   26  C   UNK N   1      30.348  23.622  -3.618  0.00  0.00     0.078 A 
HETATM   27  C   UNK N   1      30.589  21.135  -3.397  0.00  0.00     0.052 C 
HETATM   28  C   UNK N   1      30.049  24.770  -4.367  0.00  0.00    -0.020 A 
HETATM   29  C   UNK N   1      30.163  26.119  -3.728  0.00  0.00     0.052 C 
HETATM   30  C   UNK N   1      29.318  25.867  -6.518  0.00  0.00     0.052 C 
HETATM   31  C   UNK N   1      28.844  22.191  -9.676  0.00  0.00     0.049 C 
BRANCH  26  32
HETATM   32  O   UNK N   1      30.734  23.739  -2.332  0.00  0.00    -0.360 OA
HETATM   33  H   UNK N   1      30.530  24.504  -1.831  0.00  0.00     0.217 HD
ENDBRANCH  26  32
ENDBRANCH   1  18
TORSDOF 6
ENDMDL
MODEL 2
REMARK VINA RESULT:      -7.3     18.602     22.451
REMARK  6 active torsions:
REMARK  status: ('A' for Active; 'I' for Inactive)
REMARK    1  A    between atoms: O_3  and  C_13 
REMARK    2  A    between atoms: O_3  and  C_22 
REMARK    3  A    between atoms: O_4  and  C_18 
REMARK    4  A    between atoms: C_8  and  C_13 
REMARK    5  A    between atoms: C_23  and  C_26 
REMARK    6  A    between atoms: C_26  and  C_27 
ROOT
HETATM    1  C   UNK N   1      35.215  12.397  12.660  0.00  0.00     0.213 C 
ENDROOT
BRANCH   1   2
HETATM    2  O   UNK N   1      34.864  13.726  12.706  0.00  0.00    -0.348 OA
BRANCH   2   3
HETATM    3  C   UNK N   1      34.852  14.525  11.623  0.00  0.00     0.068 A 
HETATM    4  C   UNK N   1      35.374  15.829  11.654  0.00  0.00     0.037 A 
HETATM    5  C   UNK N   1      35.284  16.636  10.512  0.00  0.00     0.010 A 
HETATM    6  C   UNK N   1      34.719  16.119   9.338  0.00  0.00    -0.056 A 
HETATM    7  C   UNK N   1      34.263  14.803   9.304  0.00  0.00     0.010 A 
HETATM    8  C   UNK N   1      34.310  14.019  10.444  0.00  0.00     0.037 A 
BRANCH   6   9
HETATM    9  C   UNK N   1      34.450  16.998   8.169  0.00  0.00     0.063 C 
BRANCH   9  10
HETATM   10  C   UNK N   1      33.622  16.234   7.124  0.00  0.00     0.153 A 
HETATM   11  S   UNK N   1      32.023  17.103   6.869  0.00  0.00    -0.054 SA
HETATM   12  C   UNK N   1      32.453  17.302   5.142  0.00  0.00     0.287 A 
HETATM   13  O   UNK N   1      31.722  17.867   4.349  0.00  0.00    -0.260 OA
HETATM   14  N   UNK N   1      33.611  16.766   4.762  0.00  0.00    -0.287 N 
HETATM   15  C   UNK N   1      34.277  16.177   5.758  0.00  0.00     0.239 A 
HETATM   16  H   UNK N   1      33.945  16.800   3.836  0.00  0.00     0.172 HD
HETATM   17  O   UNK N   1      35.326  15.597   5.547  0.00  0.00    -0.272 OA
ENDBRANCH   9  10
ENDBRANCH   6   9
ENDBRANCH   2   3
ENDBRANCH   1   2
BRANCH   1  18
HETATM   18  C   UNK N   1      36.626  12.164  13.247  0.00  0.00     0.086 C 
HETATM   19  O   UNK N   1      36.933  13.201  14.107  0.00  0.00    -0.337 OA
HETATM   20  C   UNK N   1      36.486  13.245  15.395  0.00  0.00     0.083 A 
HETATM   21  C   UNK N   1      35.926  12.096  15.999  0.00  0.00    -0.015 A 
HETATM   22  C   UNK N   1      36.595  14.435  16.126  0.00  0.00    -0.019 A 
HETATM   23  C   UNK N   1      35.854  10.805  15.227  0.00  0.00     0.045 C 
HETATM   24  C   UNK N   1      35.455  12.154  17.321  0.00  0.00    -0.019 A 
HETATM   25  C   UNK N   1      36.776  10.836  14.008  0.00  0.00     0.045 C 
HETATM   26  C   UNK N   1      35.560  13.351  18.046  0.00  0.00     0.078 A 
HETATM   27  C   UNK N   1      34.852  10.946  17.970  0.00  0.00     0.052 C 
HETATM   28  C   UNK N   1      36.132  14.488  17.454  0.00  0.00    -0.020 A 
HETATM   29  C   UNK N   1      36.245  15.754  18.245  0.00  0.00     0.052 C 
HETATM   30  C   UNK N   1      37.202  15.641  15.482  0.00  0.00     0.052 C 
HETATM   31  C   UNK N   1      37.613  12.164  12.097  0.00  0.00     0.049 C 
BRANCH  26  32
HETATM   32  O   UNK N   1      35.117  13.406  19.317  0.00  0.00    -0.360 OA
HETATM   33  H   UNK N   1      35.642  13.097  20.029  0.00  0.00     0.217 HD
ENDBRANCH  26  32
ENDBRANCH   1  18
TORSDOF 6
ENDMDL
MODEL 3
REMARK VINA RESULT:      -7.2     16.202     20.224
REMARK  6 active torsions:
REMARK  status: ('A' for Active; 'I' for Inactive)
REMARK    1  A    between atoms: O_3  and  C_13 
REMARK    2  A    between atoms: O_3  and  C_22 
REMARK    3  A    between atoms: O_4  and  C_18 
REMARK    4  A    between atoms: C_8  and  C_13 
REMARK    5  A    between atoms: C_23  and  C_26 
REMARK    6  A    between atoms: C_26  and  C_27 
ROOT
HETATM    1  C   UNK N   1      33.405  15.176   7.518  0.00  0.00     0.213 C 
ENDROOT
BRANCH   1   2
HETATM    2  O   UNK N   1      34.673  15.202   8.050  0.00  0.00    -0.348 OA
BRANCH   2   3
HETATM    3  C   UNK N   1      34.928  15.029   9.360  0.00  0.00     0.068 A 
HETATM    4  C   UNK N   1      35.577  16.010  10.128  0.00  0.00     0.037 A 
HETATM    5  C   UNK N   1      35.867  15.752  11.475  0.00  0.00     0.010 A 
HETATM    6  C   UNK N   1      35.463  14.541  12.054  0.00  0.00    -0.056 A 
HETATM    7  C   UNK N   1      34.763  13.604  11.296  0.00  0.00     0.010 A 
HETATM    8  C   UNK N   1      34.517  13.838   9.954  0.00  0.00     0.037 A 
BRANCH   6   9
HETATM    9  C   UNK N   1      35.905  14.165  13.422  0.00  0.00     0.063 C 
BRANCH   9  10
HETATM   10  C   UNK N   1      35.441  12.735  13.744  0.00  0.00     0.153 A 
HETATM   11  S   UNK N   1      36.835  11.571  13.460  0.00  0.00    -0.054 SA
HETATM   12  C   UNK N   1      36.727  11.086  15.180  0.00  0.00     0.287 A 
HETATM   13  O   UNK N   1      37.468  10.253  15.670  0.00  0.00    -0.260 OA
HETATM   14  N   UNK N   1      35.762  11.665  15.892  0.00  0.00    -0.287 N 
HETATM   15  C   UNK N   1      35.039  12.542  15.192  0.00  0.00     0.239 A 
HETATM   16  H   UNK N   1      35.598  11.466  16.843  0.00  0.00     0.172 HD
HETATM   17  O   UNK N   1      34.087  13.109  15.699  0.00  0.00    -0.272 OA
ENDBRANCH   9  10
ENDBRANCH   6   9
ENDBRANCH   2   3
ENDBRANCH   1   2
BRANCH   1  18
HETATM   18  C   UNK N   1      33.163  16.374   6.571  0.00  0.00     0.086 C 
HETATM   19  O   UNK N   1      31.889  16.280   6.042  0.00  0.00    -0.337 OA
HETATM   20  C   UNK N   1      30.779  16.689   6.721  0.00  0.00     0.083 A 
HETATM   21  C   UNK N   1      30.902  17.490   7.880  0.00  0.00    -0.015 A 
HETATM   22  C   UNK N   1      29.509  16.321   6.258  0.00  0.00    -0.019 A 
HETATM   23  C   UNK N   1      32.266  17.923   8.347  0.00  0.00     0.045 C 
HETATM   24  C   UNK N   1      29.754  17.894   8.581  0.00  0.00    -0.019 A 
HETATM   25  C   UNK N   1      33.313  17.747   7.247  0.00  0.00     0.045 C 
HETATM   26  C   UNK N   1      28.485  17.517   8.116  0.00  0.00     0.078 A 
HETATM   27  C   UNK N   1      29.871  18.736   9.814  0.00  0.00     0.052 C 
HETATM   28  C   UNK N   1      28.360  16.737   6.955  0.00  0.00    -0.020 A 
HETATM   29  C   UNK N   1      26.999  16.352   6.468  0.00  0.00     0.052 C 
HETATM   30  C   UNK N   1      29.391  15.486   5.023  0.00  0.00     0.052 C 
HETATM   31  C   UNK N   1      34.175  16.288   5.447  0.00  0.00     0.049 C 
BRANCH  26  32
HETATM   32  O   UNK N   1      27.383  17.912   8.782  0.00  0.00    -0.360 OA
HETATM   33  H   UNK N   1      26.872  17.305   9.281  0.00  0.00     0.217 HD
ENDBRANCH  26  32
ENDBRANCH   1  18
TORSDOF 6
ENDMDL
MODEL 4
REMARK VINA RESULT:      -7.2     20.286     24.174
REMARK  6 active torsions:
REMARK  status: ('A' for Active; 'I' for Inactive)
REMARK    1  A    between atoms: O_3  and  C_13 
REMARK    2  A    between atoms: O_3  and  C_22 
REMARK    3  A    between atoms: O_4  and  C_18 
REMARK    4  A    between atoms: C_8  and  C_13 
REMARK    5  A    between atoms: C_23  and  C_26 
REMARK    6  A    between atoms: C_26  and  C_27 
ROOT
HETATM    1  C   UNK N   1      36.605  11.423  13.887  0.00  0.00     0.213 C 
ENDROOT
BRANCH   1   2
HETATM    2  O   UNK N   1      36.537  11.747  12.552  0.00  0.00    -0.348 OA
BRANCH   2   3
HETATM    3  C   UNK N   1      36.263  12.987  12.106  0.00  0.00     0.068 A 
HETATM    4  C   UNK N   1      36.428  14.123  12.916  0.00  0.00     0.037 A 
HETATM    5  C   UNK N   1      36.073  15.384  12.418  0.00  0.00     0.010 A 
HETATM    6  C   UNK N   1      35.604  15.505  11.102  0.00  0.00    -0.056 A 
HETATM    7  C   UNK N   1      35.506  14.377  10.290  0.00  0.00     0.010 A 
HETATM    8  C   UNK N   1      35.812  13.126  10.796  0.00  0.00     0.037 A 
BRANCH   6   9
HETATM    9  C   UNK N   1      35.057  16.794  10.603  0.00  0.00     0.063 C 
BRANCH   9  10
HETATM   10  C   UNK N   1      34.650  16.650   9.129  0.00  0.00     0.153 A 
HETATM   11  S   UNK N   1      33.021  15.805   9.032  0.00  0.00    -0.054 SA
HETATM   12  C   UNK N   1      32.369  17.245   8.192  0.00  0.00     0.287 A 
HETATM   13  O   UNK N   1      31.211  17.317   7.824  0.00  0.00    -0.260 OA
HETATM   14  N   UNK N   1      33.235  18.230   7.960  0.00  0.00    -0.287 N 
HETATM   15  C   UNK N   1      34.463  17.977   8.421  0.00  0.00     0.239 A 
HETATM   16  H   UNK N   1      32.995  19.063   7.493  0.00  0.00     0.172 HD
HETATM   17  O   UNK N   1      35.372  18.765   8.232  0.00  0.00    -0.272 OA
ENDBRANCH   9  10
ENDBRANCH   6   9
ENDBRANCH   2   3
ENDBRANCH   1   2
BRANCH   1  18
HETATM   18  C   UNK N   1      35.286  10.788  14.383  0.00  0.00     0.086 C 
HETATM   19  O   UNK N   1      35.537  10.073  15.539  0.00  0.00    -0.337 OA
HETATM   20  C   UNK N   1      35.627  10.663  16.765  0.00  0.00     0.083 A 
HETATM   21  C   UNK N   1      35.186  11.993  16.954  0.00  0.00    -0.015 A 
HETATM   22  C   UNK N   1      36.150   9.941  17.846  0.00  0.00    -0.019 A 
HETATM   23  C   UNK N   1      34.580  12.750  15.802  0.00  0.00     0.045 C 
HETATM   24  C   UNK N   1      35.296  12.599  18.217  0.00  0.00    -0.019 A 
HETATM   25  C   UNK N   1      34.170  11.807  14.671  0.00  0.00     0.045 C 
HETATM   26  C   UNK N   1      35.826  11.873  19.294  0.00  0.00     0.078 A 
HETATM   27  C   UNK N   1      34.839  14.009  18.428  0.00  0.00     0.052 C 
HETATM   28  C   UNK N   1      36.249  10.546  19.112  0.00  0.00    -0.020 A 
HETATM   29  C   UNK N   1      36.804   9.783  20.274  0.00  0.00     0.052 C 
HETATM   30  C   UNK N   1      36.601   8.530  17.637  0.00  0.00     0.052 C 
HETATM   31  C   UNK N   1      34.794   9.840  13.309  0.00  0.00     0.049 C 
BRANCH  26  32
HETATM   32  O   UNK N   1      35.924  12.449  20.508  0.00  0.00    -0.360 OA
HETATM   33  H   UNK N   1      36.482  12.094  21.171  0.00  0.00     0.217 HD
ENDBRANCH  26  32
ENDBRANCH   1  18
TORSDOF 6
ENDMDL
MODEL 5
REMARK VINA RESULT:      -7.1     15.333     18.027
REMARK  6 active torsions:
REMARK  status: ('A' for Active; 'I' for Inactive)
REMARK    1  A    between atoms: O_3  and  C_13 
REMARK    2  A    between atoms: O_3  and  C_22 
REMARK    3  A    between atoms: O_4  and  C_18 
REMARK    4  A    between atoms: C_8  and  C_13 
REMARK    5  A    between atoms: C_23  and  C_26 
REMARK    6  A    between atoms: C_26  and  C_27 
ROOT
HETATM    1  C   UNK N   1      25.885  15.187   7.180  0.00  0.00     0.213 C 
ENDROOT
BRANCH   1   2
HETATM    2  O   UNK N   1      26.763  15.847   6.353  0.00  0.00    -0.348 OA
BRANCH   2   3
HETATM    3  C   UNK N   1      27.906  16.410   6.787  0.00  0.00     0.068 A 
HETATM    4  C   UNK N   1      29.121  16.254   6.100  0.00  0.00     0.037 A 
HETATM    5  C   UNK N   1      30.291  16.816   6.630  0.00  0.00     0.010 A 
HETATM    6  C   UNK N   1      30.228  17.569   7.811  0.00  0.00    -0.056 A 
HETATM    7  C   UNK N   1      29.004  17.768   8.447  0.00  0.00     0.010 A 
HETATM    8  C   UNK N   1      27.856  17.175   7.950  0.00  0.00     0.037 A 
BRANCH   6   9
HETATM    9  C   UNK N   1      31.468  18.028   8.490  0.00  0.00     0.063 C 
BRANCH   9  10
HETATM   10  C   UNK N   1      32.607  17.033   8.220  0.00  0.00     0.153 A 
HETATM   11  S   UNK N   1      34.213  17.925   8.279  0.00  0.00    -0.054 SA
HETATM   12  C   UNK N   1      34.720  16.841   9.611  0.00  0.00     0.287 A 
HETATM   13  O   UNK N   1      35.809  16.934  10.148  0.00  0.00    -0.260 OA
HETATM   14  N   UNK N   1      33.848  15.899   9.964  0.00  0.00    -0.287 N 
HETATM   15  C   UNK N   1      32.712  15.938   9.262  0.00  0.00     0.239 A 
HETATM   16  H   UNK N   1      34.022  15.238  10.672  0.00  0.00     0.172 HD
HETATM   17  O   UNK N   1      31.844  15.102   9.438  0.00  0.00    -0.272 OA
ENDBRANCH   9  10
ENDBRANCH   6   9
ENDBRANCH   2   3
ENDBRANCH   1   2
BRANCH   1  18
HETATM   18  C   UNK N   1      25.117  14.080   6.421  0.00  0.00     0.086 C 
HETATM   19  O   UNK N   1      24.433  13.299   7.334  0.00  0.00    -0.337 OA
HETATM   20  C   UNK N   1      23.231  13.667   7.864  0.00  0.00     0.083 A 
HETATM   21  C   UNK N   1      22.491  14.726   7.290  0.00  0.00    -0.015 A 
HETATM   22  C   UNK N   1      22.724  12.982   8.975  0.00  0.00    -0.019 A 
HETATM   23  C   UNK N   1      23.015  15.430   6.067  0.00  0.00     0.045 C 
HETATM   24  C   UNK N   1      21.260  15.108   7.851  0.00  0.00    -0.019 A 
HETATM   25  C   UNK N   1      24.113  14.613   5.385  0.00  0.00     0.045 C 
HETATM   26  C   UNK N   1      20.760  14.422   8.968  0.00  0.00     0.078 A 
HETATM   27  C   UNK N   1      20.470  16.233   7.258  0.00  0.00     0.052 C 
HETATM   28  C   UNK N   1      21.487  13.359   9.527  0.00  0.00    -0.020 A 
HETATM   29  C   UNK N   1      20.935  12.632  10.713  0.00  0.00     0.052 C 
HETATM   30  C   UNK N   1      23.511  11.853   9.564  0.00  0.00     0.052 C 
HETATM   31  C   UNK N   1      26.133  13.223   5.696  0.00  0.00     0.049 C 
BRANCH  26  32
HETATM   32  O   UNK N   1      19.577  14.782   9.501  0.00  0.00    -0.360 OA
HETATM   33  H   UNK N   1      18.779  14.365   9.240  0.00  0.00     0.217 HD
ENDBRANCH  26  32
ENDBRANCH   1  18
TORSDOF 6
ENDMDL
MODEL 6
REMARK VINA RESULT:      -7.0     20.141     23.985
REMARK  6 active torsions:
REMARK  status: ('A' for Active; 'I' for Inactive)
REMARK    1  A    between atoms: O_3  and  C_13 
REMARK    2  A    between atoms: O_3  and  C_22 
REMARK    3  A    between atoms: O_4  and  C_18 
REMARK    4  A    between atoms: C_8  and  C_13 
REMARK    5  A    between atoms: C_23  and  C_26 
REMARK    6  A    between atoms: C_26  and  C_27 
ROOT
HETATM    1  C   UNK N   1      35.409  10.099  13.958  0.00  0.00     0.213 C 
ENDROOT
BRANCH   1   2
HETATM    2  O   UNK N   1      35.511  10.201  12.590  0.00  0.00    -0.348 OA
BRANCH   2   3
HETATM    3  C   UNK N   1      35.166  11.307  11.904  0.00  0.00     0.068 A 
HETATM    4  C   UNK N   1      35.347  12.596  12.431  0.00  0.00     0.037 A 
HETATM    5  C   UNK N   1      34.917  13.709  11.695  0.00  0.00     0.010 A 
HETATM    6  C   UNK N   1      34.358  13.527  10.422  0.00  0.00    -0.056 A 
HETATM    7  C   UNK N   1      34.245  12.246   9.886  0.00  0.00     0.010 A 
HETATM    8  C   UNK N   1      34.626  11.143  10.631  0.00  0.00     0.037 A 
BRANCH   6   9
HETATM    9  C   UNK N   1      33.736  14.664   9.693  0.00  0.00     0.063 C 
BRANCH   9  10
HETATM   10  C   UNK N   1      34.829  15.518   9.033  0.00  0.00     0.153 A 
HETATM   11  S   UNK N   1      34.476  15.668   7.235  0.00  0.00    -0.054 SA
HETATM   12  C   UNK N   1      34.396  17.445   7.440  0.00  0.00     0.287 A 
HETATM   13  O   UNK N   1      34.164  18.198   6.512  0.00  0.00    -0.260 OA
HETATM   14  N   UNK N   1      34.638  17.905   8.667  0.00  0.00    -0.287 N 
HETATM   15  C   UNK N   1      34.884  16.940   9.556  0.00  0.00     0.239 A 
HETATM   16  H   UNK N   1      34.636  18.862   8.895  0.00  0.00     0.172 HD
HETATM   17  O   UNK N   1      35.175  17.214  10.706  0.00  0.00    -0.272 OA
ENDBRANCH   9  10
ENDBRANCH   6   9
ENDBRANCH   2   3
ENDBRANCH   1   2
BRANCH   1  18
HETATM   18  C   UNK N   1      36.787  10.263  14.641  0.00  0.00     0.086 C 
HETATM   19  O   UNK N   1      36.918  11.566  15.084  0.00  0.00    -0.337 OA
HETATM   20  C   UNK N   1      36.369  12.004  16.253  0.00  0.00     0.083 A 
HETATM   21  C   UNK N   1      35.884  11.081  17.207  0.00  0.00    -0.015 A 
HETATM   22  C   UNK N   1      36.298  13.379  16.513  0.00  0.00    -0.019 A 
HETATM   23  C   UNK N   1      36.006   9.603  16.947  0.00  0.00     0.045 C 
HETATM   24  C   UNK N   1      35.307  11.541  18.403  0.00  0.00    -0.019 A 
HETATM   25  C   UNK N   1      37.012   9.317  15.832  0.00  0.00     0.045 C 
HETATM   26  C   UNK N   1      35.233  12.919  18.655  0.00  0.00     0.078 A 
HETATM   27  C   UNK N   1      34.783  10.573  19.418  0.00  0.00     0.052 C 
HETATM   28  C   UNK N   1      35.730  13.837  17.716  0.00  0.00    -0.020 A 
HETATM   29  C   UNK N   1      35.652  15.304  18.005  0.00  0.00     0.052 C 
HETATM   30  C   UNK N   1      36.828  14.346  15.502  0.00  0.00     0.052 C 
HETATM   31  C   UNK N   1      37.855   9.981  13.605  0.00  0.00     0.049 C 
BRANCH  26  32
HETATM   32  O   UNK N   1      34.689  13.362  19.805  0.00  0.00    -0.360 OA
HETATM   33  H   UNK N   1      33.779  13.236  19.993  0.00  0.00     0.217 HD
ENDBRANCH  26  32
ENDBRANCH   1  18
TORSDOF 6
ENDMDL
MODEL 7
REMARK VINA RESULT:      -6.9      3.580      7.616
REMARK  6 active torsions:
REMARK  status: ('A' for Active; 'I' for Inactive)
REMARK    1  A    between atoms: O_3  and  C_13 
REMARK    2  A    between atoms: O_3  and  C_22 
REMARK    3  A    between atoms: O_4  and  C_18 
REMARK    4  A    between atoms: C_8  and  C_13 
REMARK    5  A    between atoms: C_23  and  C_26 
REMARK    6  A    between atoms: C_26  and  C_27 
ROOT
HETATM    1  C   UNK N   1      27.122  26.787  -3.927  0.00  0.00     0.213 C 
ENDROOT
BRANCH   1   2
HETATM    2  O   UNK N   1      28.469  27.065  -3.949  0.00  0.00    -0.348 OA
BRANCH   2   3
HETATM    3  C   UNK N   1      29.415  26.125  -4.131  0.00  0.00     0.068 A 
HETATM    4  C   UNK N   1      30.708  26.256  -3.599  0.00  0.00     0.037 A 
HETATM    5  C   UNK N   1      31.669  25.273  -3.868  0.00  0.00     0.010 A 
HETATM    6  C   UNK N   1      31.316  24.145  -4.623  0.00  0.00    -0.056 A 
HETATM    7  C   UNK N   1      30.013  23.998  -5.091  0.00  0.00     0.010 A 
HETATM    8  C   UNK N   1      29.075  24.991  -4.865  0.00  0.00     0.037 A 
BRANCH   6   9
HETATM    9  C   UNK N   1      32.350  23.175  -5.072  0.00  0.00     0.063 C 
BRANCH   9  10
HETATM   10  C   UNK N   1      31.994  21.767  -4.570  0.00  0.00     0.153 A 
HETATM   11  S   UNK N   1      32.959  20.525  -5.521  0.00  0.00    -0.054 SA
HETATM   12  C   UNK N   1      33.686  19.971  -3.982  0.00  0.00     0.287 A 
HETATM   13  O   UNK N   1      34.503  19.069  -3.934  0.00  0.00    -0.260 OA
HETATM   14  N   UNK N   1      33.258  20.581  -2.878  0.00  0.00    -0.287 N 
HETATM   15  C   UNK N   1      32.355  21.535  -3.116  0.00  0.00     0.239 A 
HETATM   16  H   UNK N   1      33.575  20.350  -1.975  0.00  0.00     0.172 HD
HETATM   17  O   UNK N   1      31.834  22.141  -2.197  0.00  0.00    -0.272 OA
ENDBRANCH   9  10
ENDBRANCH   6   9
ENDBRANCH   2   3
ENDBRANCH   1   2
BRANCH   1  18
HETATM   18  C   UNK N   1      26.309  27.867  -4.678  0.00  0.00     0.086 C 
HETATM   19  O   UNK N   1      27.092  28.403  -5.682  0.00  0.00    -0.337 OA
HETATM   20  C   UNK N   1      27.258  27.794  -6.891  0.00  0.00     0.083 A 
HETATM   21  C   UNK N   1      26.410  26.731  -7.279  0.00  0.00    -0.015 A 
HETATM   22  C   UNK N   1      28.267  28.234  -7.757  0.00  0.00    -0.019 A 
HETATM   23  C   UNK N   1      25.296  26.291  -6.367  0.00  0.00     0.045 C 
HETATM   24  C   UNK N   1      26.597  26.099  -8.520  0.00  0.00    -0.019 A 
HETATM   25  C   UNK N   1      25.003  27.347  -5.301  0.00  0.00     0.045 C 
HETATM   26  C   UNK N   1      27.614  26.540  -9.381  0.00  0.00     0.078 A 
HETATM   27  C   UNK N   1      25.711  24.967  -8.940  0.00  0.00     0.052 C 
HETATM   28  C   UNK N   1      28.444  27.607  -9.004  0.00  0.00    -0.020 A 
HETATM   29  C   UNK N   1      29.518  28.071  -9.938  0.00  0.00     0.052 C 
HETATM   30  C   UNK N   1      29.148  29.369  -7.342  0.00  0.00     0.052 C 
HETATM   31  C   UNK N   1      25.958  28.956  -3.686  0.00  0.00     0.049 C 
BRANCH  26  32
HETATM   32  O   UNK N   1      27.787  25.941 -10.575  0.00  0.00    -0.360 OA
HETATM   33  H   UNK N   1      27.826  26.439 -11.368  0.00  0.00     0.217 HD
ENDBRANCH  26  32
ENDBRANCH   1  18
TORSDOF 6
ENDMDL
MODEL 8
REMARK VINA RESULT:      -6.9     15.878     20.020
REMARK  6 active torsions:
REMARK  status: ('A' for Active; 'I' for Inactive)
REMARK    1  A    between atoms: O_3  and  C_13 
REMARK    2  A    between atoms: O_3  and  C_22 
REMARK    3  A    between atoms: O_4  and  C_18 
REMARK    4  A    between atoms: C_8  and  C_13 
REMARK    5  A    between atoms: C_23  and  C_26 
REMARK    6  A    between atoms: C_26  and  C_27 
ROOT
HETATM    1  C   UNK N   1      33.484  16.074   8.240  0.00  0.00     0.213 C 
ENDROOT
BRANCH   1   2
HETATM    2  O   UNK N   1      34.828  15.843   8.419  0.00  0.00    -0.348 OA
BRANCH   2   3
HETATM    3  C   UNK N   1      35.331  15.204   9.491  0.00  0.00     0.068 A 
HETATM    4  C   UNK N   1      36.507  14.438   9.419  0.00  0.00     0.037 A 
HETATM    5  C   UNK N   1      36.953  13.749  10.554  0.00  0.00     0.010 A 
HETATM    6  C   UNK N   1      36.251  13.870  11.762  0.00  0.00    -0.056 A 
HETATM    7  C   UNK N   1      35.123  14.684  11.834  0.00  0.00     0.010 A 
HETATM    8  C   UNK N   1      34.655  15.328  10.702  0.00  0.00     0.037 A 
BRANCH   6   9
HETATM    9  C   UNK N   1      36.595  13.019  12.932  0.00  0.00     0.063 C 
BRANCH   9  10
HETATM   10  C   UNK N   1      35.603  13.284  14.076  0.00  0.00     0.153 A 
HETATM   11  S   UNK N   1      34.575  11.784  14.342  0.00  0.00    -0.054 SA
HETATM   12  C   UNK N   1      35.188  11.713  16.023  0.00  0.00     0.287 A 
HETATM   13  O   UNK N   1      34.846  10.844  16.805  0.00  0.00    -0.260 OA
HETATM   14  N   UNK N   1      36.019  12.688  16.386  0.00  0.00    -0.287 N 
HETATM   15  C   UNK N   1      36.275  13.559  15.406  0.00  0.00     0.239 A 
HETATM   16  H   UNK N   1      36.407  12.761  17.288  0.00  0.00     0.172 HD
HETATM   17  O   UNK N   1      36.976  14.534  15.608  0.00  0.00    -0.272 OA
ENDBRANCH   9  10
ENDBRANCH   6   9
ENDBRANCH   2   3
ENDBRANCH   1   2
BRANCH   1  18
HETATM   18  C   UNK N   1      33.215  17.531   7.796  0.00  0.00     0.086 C 
HETATM   19  O   UNK N   1      32.902  17.540   6.449  0.00  0.00    -0.337 OA
HETATM   20  C   UNK N   1      31.655  17.247   5.982  0.00  0.00     0.083 A 
HETATM   21  C   UNK N   1      30.552  17.197   6.866  0.00  0.00    -0.015 A 
HETATM   22  C   UNK N   1      31.466  17.004   4.616  0.00  0.00    -0.019 A 
HETATM   23  C   UNK N   1      30.750  17.506   8.326  0.00  0.00     0.045 C 
HETATM   24  C   UNK N   1      29.273  16.880   6.378  0.00  0.00    -0.019 A 
HETATM   25  C   UNK N   1      32.079  18.221   8.568  0.00  0.00     0.045 C 
HETATM   26  C   UNK N   1      29.091  16.631   5.010  0.00  0.00     0.078 A 
HETATM   27  C   UNK N   1      28.099  16.817   7.305  0.00  0.00     0.052 C 
HETATM   28  C   UNK N   1      30.182  16.697   4.128  0.00  0.00    -0.020 A 
HETATM   29  C   UNK N   1      29.969  16.438   2.670  0.00  0.00     0.052 C 
HETATM   30  C   UNK N   1      32.638  17.072   3.688  0.00  0.00     0.052 C 
HETATM   31  C   UNK N   1      34.486  18.325   8.015  0.00  0.00     0.049 C 
BRANCH  26  32
HETATM   32  O   UNK N   1      27.864  16.335   4.540  0.00  0.00    -0.360 OA
HETATM   33  H   UNK N   1      27.245  17.009   4.338  0.00  0.00     0.217 HD
ENDBRANCH  26  32
ENDBRANCH   1  18
TORSDOF 6
ENDMDL
MODEL 9
REMARK VINA RESULT:      -6.8      1.694      3.127
REMARK  6 active torsions:
REMARK  status: ('A' for Active; 'I' for Inactive)
REMARK    1  A    between atoms: O_3  and  C_13 
REMARK    2  A    between atoms: O_3  and  C_22 
REMARK    3  A    between atoms: O_4  and  C_18 
REMARK    4  A    between atoms: C_8  and  C_13 
REMARK    5  A    between atoms: C_23  and  C_26 
REMARK    6  A    between atoms: C_26  and  C_27 
ROOT
HETATM    1  C   UNK N   1      26.936  23.961  -8.323  0.00  0.00     0.213 C 
ENDROOT
BRANCH   1   2
HETATM    2  O   UNK N   1      26.092  25.042  -8.218  0.00  0.00    -0.348 OA
BRANCH   2   3
HETATM    3  C   UNK N   1      26.409  26.164  -7.545  0.00  0.00     0.068 A 
HETATM    4  C   UNK N   1      27.539  26.932  -7.869  0.00  0.00     0.037 A 
HETATM    5  C   UNK N   1      27.852  28.059  -7.097  0.00  0.00     0.010 A 
HETATM    6  C   UNK N   1      27.007  28.437  -6.044  0.00  0.00    -0.056 A 
HETATM    7  C   UNK N   1      25.855  27.702  -5.776  0.00  0.00     0.010 A 
HETATM    8  C   UNK N   1      25.570  26.561  -6.507  0.00  0.00     0.037 A 
BRANCH   6   9
HETATM    9  C   UNK N   1      27.399  29.519  -5.102  0.00  0.00     0.063 C 
BRANCH   9  10
HETATM   10  C   UNK N   1      28.189  28.923  -3.927  0.00  0.00     0.153 A 
HETATM   11  S   UNK N   1      29.594  30.035  -3.518  0.00  0.00    -0.054 SA
HETATM   12  C   UNK N   1      28.918  30.215  -1.869  0.00  0.00     0.287 A 
HETATM   13  O   UNK N   1      29.447  30.909  -1.020  0.00  0.00    -0.260 OA
HETATM   14  N   UNK N   1      27.813  29.518  -1.609  0.00  0.00    -0.287 N 
HETATM   15  C   UNK N   1      27.379  28.805  -2.651  0.00  0.00     0.239 A 
HETATM   16  H   UNK N   1      27.361  29.527  -0.735  0.00  0.00     0.172 HD
HETATM   17  O   UNK N   1      26.409  28.076  -2.545  0.00  0.00    -0.272 OA
ENDBRANCH   9  10
ENDBRANCH   6   9
ENDBRANCH   2   3
ENDBRANCH   1   2
BRANCH   1  18
HETATM   18  C   UNK N   1      26.477  22.795  -7.417  0.00  0.00     0.086 C 
HETATM   19  O   UNK N   1      27.436  21.800  -7.443  0.00  0.00    -0.337 OA
HETATM   20  C   UNK N   1      28.567  21.848  -6.681  0.00  0.00     0.083 A 
HETATM   21  C   UNK N   1      28.675  22.775  -5.619  0.00  0.00    -0.015 A 
HETATM   22  C   UNK N   1      29.620  20.965  -6.948  0.00  0.00    -0.019 A 
HETATM   23  C   UNK N   1      27.522  23.690  -5.303  0.00  0.00     0.045 C 
HETATM   24  C   UNK N   1      29.849  22.827  -4.848  0.00  0.00    -0.019 A 
HETATM   25  C   UNK N   1      26.229  23.198  -5.954  0.00  0.00     0.045 C 
HETATM   26  C   UNK N   1      30.904  21.944  -5.124  0.00  0.00     0.078 A 
HETATM   27  C   UNK N   1      29.980  23.808  -3.725  0.00  0.00     0.052 C 
HETATM   28  C   UNK N   1      30.790  21.012  -6.167  0.00  0.00    -0.020 A 
HETATM   29  C   UNK N   1      31.921  20.071  -6.443  0.00  0.00     0.052 C 
HETATM   30  C   UNK N   1      29.488  19.980  -8.066  0.00  0.00     0.052 C 
HETATM   31  C   UNK N   1      25.182  22.251  -7.983  0.00  0.00     0.049 C 
BRANCH  26  32
HETATM   32  O   UNK N   1      32.026  21.987  -4.380  0.00  0.00    -0.360 OA
HETATM   33  H   UNK N   1      32.285  22.770  -3.934  0.00  0.00     0.217 HD
ENDBRANCH  26  32
ENDBRANCH   1  18
TORSDOF 6
ENDMDL
