MODEL 1
REMARK VINA RESULT:      -6.5      0.000      0.000
REMARK  7 active torsions:
REMARK  status: ('A' for Active; 'I' for Inactive)
REMARK    1  A    between atoms: C_1  and  C_5 
REMARK    2  A    between atoms: C_6  and  O_7 
REMARK    3  A    between atoms: C_12  and  C_17 
REMARK    4  A    between atoms: C_17  and  N_19 
REMARK    5  A    between atoms: N_19  and  C_21 
REMARK    6  A    between atoms: C_21  and  C_22 
REMARK    7  A    between atoms: C_22  and  O_24 
ROOT
HETATM    1  C   UNK N   1      32.447  17.346   7.076  0.00  0.00     0.092 A 
HETATM    2  C   UNK N   1      32.651  16.837   5.742  0.00  0.00     0.084 A 
HETATM    3  C   UNK N   1      31.556  16.701   4.895  0.00  0.00     0.038 A 
HETATM    4  C   UNK N   1      30.274  17.034   5.292  0.00  0.00     0.016 A 
HETATM    5  C   UNK N   1      30.009  17.515   6.571  0.00  0.00    -0.012 A 
HETATM    6  C   UNK N   1      28.672  17.862   6.981  0.00  0.00     0.013 A 
HETATM    7  C   UNK N   1      28.497  18.322   8.294  0.00  0.00     0.015 A 
HETATM    8  C   UNK N   1      29.553  18.451   9.177  0.00  0.00     0.002 A 
HETATM    9  C   UNK N   1      30.836  18.138   8.768  0.00  0.00     0.013 A 
HETATM   10  C   UNK N   1      31.103  17.666   7.478  0.00  0.00    -0.007 A 
ENDROOT
BRANCH   6  11
HETATM   11  C   UNK N   1      27.430  17.863   6.093  0.00  0.00     0.110 C 
HETATM   12  S   UNK N   1      26.690  16.642   5.852  0.00  0.00    -0.060 SA
BRANCH  11  13
HETATM   13  N   UNK N   1      27.111  19.024   5.299  0.00  0.00    -0.366 N 
HETATM   14  C   UNK N   1      27.687  19.212   3.987  0.00  0.00     0.151 C 
BRANCH  13  15
HETATM   15  C   UNK N   1      26.061  19.931   5.721  0.00  0.00     0.233 C 
BRANCH  15  16
HETATM   16  C   UNK N   1      26.538  20.938   6.712  0.00  0.00     0.158 C 
HETATM   17  O   UNK N   1      27.406  21.737   6.407  0.00  0.00    -0.649 OA
BRANCH  16  18
HETATM   18  O   UNK N   1      26.044  20.925   7.964  0.00  0.00    -0.775 OA
HETATM   19  H   UNK N   1      26.433  20.394   8.630  0.00  0.00     0.167 HD
ENDBRANCH  16  18
ENDBRANCH  15  16
ENDBRANCH  13  15
ENDBRANCH  11  13
ENDBRANCH   6  11
BRANCH   1  20
HETATM   20  C   UNK N   1      33.633  17.552   8.035  0.00  0.00     0.420 C 
HETATM   21  F   UNK N   1      34.846  17.079   7.574  0.00  0.00    -0.166 F 
HETATM   22  F   UNK N   1      33.809  18.901   8.278  0.00  0.00    -0.166 F 
HETATM   23  F   UNK N   1      33.387  16.879   9.218  0.00  0.00    -0.166 F 
ENDBRANCH   1  20
BRANCH   2  24
HETATM   24  O   UNK N   1      33.847  16.468   5.200  0.00  0.00    -0.355 OA
HETATM   25  C   UNK N   1      34.287  15.222   4.831  0.00  0.00     0.210 C 
ENDBRANCH   2  24
TORSDOF 7
ENDMDL
MODEL 2
REMARK VINA RESULT:      -6.4      5.923      8.776
REMARK  7 active torsions:
REMARK  status: ('A' for Active; 'I' for Inactive)
REMARK    1  A    between atoms: C_1  and  C_5 
REMARK    2  A    between atoms: C_6  and  O_7 
REMARK    3  A    between atoms: C_12  and  C_17 
REMARK    4  A    between atoms: C_17  and  N_19 
REMARK    5  A    between atoms: N_19  and  C_21 
REMARK    6  A    between atoms: C_21  and  C_22 
REMARK    7  A    between atoms: C_22  and  O_24 
ROOT
HETATM    1  C   UNK N   1      22.600  19.075   3.761  0.00  0.00     0.092 A 
HETATM    2  C   UNK N   1      22.272  17.914   4.551  0.00  0.00     0.084 A 
HETATM    3  C   UNK N   1      23.299  17.201   5.163  0.00  0.00     0.038 A 
HETATM    4  C   UNK N   1      24.626  17.567   5.034  0.00  0.00     0.016 A 
HETATM    5  C   UNK N   1      25.008  18.668   4.273  0.00  0.00    -0.012 A 
HETATM    6  C   UNK N   1      26.392  19.048   4.142  0.00  0.00     0.013 A 
HETATM    7  C   UNK N   1      26.684  20.161   3.341  0.00  0.00     0.015 A 
HETATM    8  C   UNK N   1      25.699  20.885   2.696  0.00  0.00     0.002 A 
HETATM    9  C   UNK N   1      24.371  20.528   2.846  0.00  0.00     0.013 A 
HETATM   10  C   UNK N   1      23.987  19.428   3.622  0.00  0.00    -0.007 A 
ENDROOT
BRANCH   6  11
HETATM   11  C   UNK N   1      27.573  18.406   4.867  0.00  0.00     0.110 C 
HETATM   12  S   UNK N   1      28.318  17.325   4.258  0.00  0.00    -0.060 SA
BRANCH  11  13
HETATM   13  N   UNK N   1      27.818  18.708   6.256  0.00  0.00    -0.366 N 
HETATM   14  C   UNK N   1      27.513  20.011   6.802  0.00  0.00     0.151 C 
BRANCH  13  15
HETATM   15  C   UNK N   1      28.197  17.653   7.176  0.00  0.00     0.233 C 
BRANCH  15  16
HETATM   16  C   UNK N   1      28.439  18.157   8.558  0.00  0.00     0.158 C 
HETATM   17  O   UNK N   1      29.544  18.560   8.880  0.00  0.00    -0.649 OA
BRANCH  16  18
HETATM   18  O   UNK N   1      27.446  18.117   9.465  0.00  0.00    -0.775 OA
HETATM   19  H   UNK N   1      26.554  18.005   9.198  0.00  0.00     0.167 HD
ENDBRANCH  16  18
ENDBRANCH  15  16
ENDBRANCH  13  15
ENDBRANCH  11  13
ENDBRANCH   6  11
BRANCH   1  20
HETATM   20  C   UNK N   1      21.496  19.920   3.100  0.00  0.00     0.420 C 
HETATM   21  F   UNK N   1      21.906  21.153   2.632  0.00  0.00    -0.166 F 
HETATM   22  F   UNK N   1      20.978  19.244   2.012  0.00  0.00    -0.166 F 
HETATM   23  F   UNK N   1      20.500  20.177   4.026  0.00  0.00    -0.166 F 
ENDBRANCH   1  20
BRANCH   2  24
HETATM   24  O   UNK N   1      21.020  17.426   4.776  0.00  0.00    -0.355 OA
HETATM   25  C   UNK N   1      20.275  16.558   4.018  0.00  0.00     0.210 C 
ENDBRANCH   2  24
TORSDOF 7
ENDMDL
MODEL 3
REMARK VINA RESULT:      -6.2     12.087     14.789
REMARK  7 active torsions:
REMARK  status: ('A' for Active; 'I' for Inactive)
REMARK    1  A    between atoms: C_1  and  C_5 
REMARK    2  A    between atoms: C_6  and  O_7 
REMARK    3  A    between atoms: C_12  and  C_17 
REMARK    4  A    between atoms: C_17  and  N_19 
REMARK    5  A    between atoms: N_19  and  C_21 
REMARK    6  A    between atoms: C_21  and  C_22 
REMARK    7  A    between atoms: C_22  and  O_24 
ROOT
HETATM    1  C   UNK N   1      27.174  27.296  -4.236  0.00  0.00     0.092 A 
HETATM    2  C   UNK N   1      28.369  27.978  -3.806  0.00  0.00     0.084 A 
HETATM    3  C   UNK N   1      29.601  27.350  -3.965  0.00  0.00     0.038 A 
HETATM    4  C   UNK N   1      29.716  26.089  -4.519  0.00  0.00     0.016 A 
HETATM    5  C   UNK N   1      28.599  25.373  -4.940  0.00  0.00    -0.012 A 
HETATM    6  C   UNK N   1      28.722  24.058  -5.518  0.00  0.00     0.013 A 
HETATM    7  C   UNK N   1      27.541  23.405  -5.896  0.00  0.00     0.015 A 
HETATM    8  C   UNK N   1      26.295  23.981  -5.736  0.00  0.00     0.002 A 
HETATM    9  C   UNK N   1      26.187  25.252  -5.201  0.00  0.00     0.013 A 
HETATM   10  C   UNK N   1      27.312  25.976  -4.791  0.00  0.00    -0.007 A 
ENDROOT
BRANCH   6  11
HETATM   11  C   UNK N   1      30.029  23.338  -5.844  0.00  0.00     0.110 C 
HETATM   12  S   UNK N   1      30.574  23.362  -7.185  0.00  0.00    -0.060 SA
BRANCH  11  13
HETATM   13  N   UNK N   1      30.614  22.435  -4.884  0.00  0.00    -0.366 N 
HETATM   14  C   UNK N   1      30.319  21.021  -4.912  0.00  0.00     0.151 C 
BRANCH  13  15
HETATM   15  C   UNK N   1      31.657  22.898  -3.988  0.00  0.00     0.233 C 
BRANCH  15  16
HETATM   16  C   UNK N   1      31.487  22.387  -2.598  0.00  0.00     0.158 C 
HETATM   17  O   UNK N   1      30.684  22.910  -1.845  0.00  0.00    -0.649 OA
BRANCH  16  18
HETATM   18  O   UNK N   1      32.264  21.379  -2.159  0.00  0.00    -0.775 OA
HETATM   19  H   UNK N   1      31.894  20.547  -1.938  0.00  0.00     0.167 HD
ENDBRANCH  16  18
ENDBRANCH  15  16
ENDBRANCH  13  15
ENDBRANCH  11  13
ENDBRANCH   6  11
BRANCH   1  20
HETATM   20  C   UNK N   1      25.794  27.968  -4.118  0.00  0.00     0.420 C 
HETATM   21  F   UNK N   1      24.854  27.535  -5.034  0.00  0.00    -0.166 F 
HETATM   22  F   UNK N   1      25.259  27.723  -2.868  0.00  0.00    -0.166 F 
HETATM   23  F   UNK N   1      25.928  29.329  -4.326  0.00  0.00    -0.166 F 
ENDBRANCH   1  20
BRANCH   2  24
HETATM   24  O   UNK N   1      28.425  29.220  -3.245  0.00  0.00    -0.355 OA
HETATM   25  C   UNK N   1      28.240  29.593  -1.938  0.00  0.00     0.210 C 
ENDBRANCH   2  24
TORSDOF 7
ENDMDL
MODEL 4
REMARK VINA RESULT:      -6.2      7.932     10.175
REMARK  7 active torsions:
REMARK  status: ('A' for Active; 'I' for Inactive)
REMARK    1  A    between atoms: C_1  and  C_5 
REMARK    2  A    between atoms: C_6  and  O_7 
REMARK    3  A    between atoms: C_12  and  C_17 
REMARK    4  A    between atoms: C_17  and  N_19 
REMARK    5  A    between atoms: N_19  and  C_21 
REMARK    6  A    between atoms: C_21  and  C_22 
REMARK    7  A    between atoms: C_22  and  O_24 
ROOT
HETATM    1  C   UNK N   1      34.977  11.688  14.462  0.00  0.00     0.092 A 
HETATM    2  C   UNK N   1      35.637  12.707  15.240  0.00  0.00     0.084 A 
HETATM    3  C   UNK N   1      36.236  13.778  14.584  0.00  0.00     0.038 A 
HETATM    4  C   UNK N   1      36.223  13.895  13.206  0.00  0.00     0.016 A 
HETATM    5  C   UNK N   1      35.617  12.937  12.399  0.00  0.00    -0.012 A 
HETATM    6  C   UNK N   1      35.605  13.063  10.963  0.00  0.00     0.013 A 
HETATM    7  C   UNK N   1      34.986  12.041  10.230  0.00  0.00     0.015 A 
HETATM    8  C   UNK N   1      34.399  10.947  10.838  0.00  0.00     0.002 A 
HETATM    9  C   UNK N   1      34.395  10.846  12.217  0.00  0.00     0.013 A 
HETATM   10  C   UNK N   1      34.993  11.816  13.029  0.00  0.00    -0.007 A 
ENDROOT
BRANCH   6  11
HETATM   11  C   UNK N   1      36.125  14.253  10.160  0.00  0.00     0.110 C 
HETATM   12  S   UNK N   1      37.499  14.297   9.705  0.00  0.00    -0.060 SA
BRANCH  11  13
HETATM   13  N   UNK N   1      35.327  15.448  10.042  0.00  0.00    -0.366 N 
HETATM   14  C   UNK N   1      35.642  16.635  10.804  0.00  0.00     0.151 C 
BRANCH  13  15
HETATM   15  C   UNK N   1      34.305  15.546   9.016  0.00  0.00     0.233 C 
BRANCH  15  16
HETATM   16  C   UNK N   1      32.969  15.092   9.494  0.00  0.00     0.158 C 
HETATM   17  O   UNK N   1      32.091  14.818   8.694  0.00  0.00    -0.649 OA
BRANCH  16  18
HETATM   18  O   UNK N   1      32.717  15.037  10.815  0.00  0.00    -0.775 OA
HETATM   19  H   UNK N   1      32.532  14.221  11.237  0.00  0.00     0.167 HD
ENDBRANCH  16  18
ENDBRANCH  15  16
ENDBRANCH  13  15
ENDBRANCH  11  13
ENDBRANCH   6  11
BRANCH   1  20
HETATM   20  C   UNK N   1      34.265  10.507  15.145  0.00  0.00     0.420 C 
HETATM   21  F   UNK N   1      34.389  10.467  16.520  0.00  0.00    -0.166 F 
HETATM   22  F   UNK N   1      32.911  10.558  14.878  0.00  0.00    -0.166 F 
HETATM   23  F   UNK N   1      34.802   9.319  14.681  0.00  0.00    -0.166 F 
ENDBRANCH   1  20
BRANCH   2  24
HETATM   24  O   UNK N   1      35.735  12.739  16.600  0.00  0.00    -0.355 OA
HETATM   25  C   UNK N   1      35.094  13.552  17.500  0.00  0.00     0.210 C 
ENDBRANCH   2  24
TORSDOF 7
ENDMDL
MODEL 5
REMARK VINA RESULT:      -6.1     12.285     14.616
REMARK  7 active torsions:
REMARK  status: ('A' for Active; 'I' for Inactive)
REMARK    1  A    between atoms: C_1  and  C_5 
REMARK    2  A    between atoms: C_6  and  O_7 
REMARK    3  A    between atoms: C_12  and  C_17 
REMARK    4  A    between atoms: C_17  and  N_19 
REMARK    5  A    between atoms: N_19  and  C_21 
REMARK    6  A    between atoms: C_21  and  C_22 
REMARK    7  A    between atoms: C_22  and  O_24 
ROOT
HETATM    1  C   UNK N   1      26.771  22.111  -7.308  0.00  0.00     0.092 A 
HETATM    2  C   UNK N   1      27.983  21.539  -7.840  0.00  0.00     0.084 A 
HETATM    3  C   UNK N   1      29.203  21.888  -7.269  0.00  0.00     0.038 A 
HETATM    4  C   UNK N   1      29.292  22.771  -6.209  0.00  0.00     0.016 A 
HETATM    5  C   UNK N   1      28.161  23.368  -5.660  0.00  0.00    -0.012 A 
HETATM    6  C   UNK N   1      28.257  24.287  -4.555  0.00  0.00     0.013 A 
HETATM    7  C   UNK N   1      27.065  24.854  -4.080  0.00  0.00     0.015 A 
HETATM    8  C   UNK N   1      25.834  24.554  -4.631  0.00  0.00     0.002 A 
HETATM    9  C   UNK N   1      25.748  23.654  -5.677  0.00  0.00     0.013 A 
HETATM   10  C   UNK N   1      26.885  23.043  -6.219  0.00  0.00    -0.007 A 
ENDROOT
BRANCH   6  11
HETATM   11  C   UNK N   1      29.528  24.639  -3.785  0.00  0.00     0.110 C 
HETATM   12  S   UNK N   1      30.239  25.871  -4.052  0.00  0.00    -0.060 SA
BRANCH  11  13
HETATM   13  N   UNK N   1      30.164  23.649  -2.951  0.00  0.00    -0.366 N 
HETATM   14  C   UNK N   1      29.452  23.021  -1.862  0.00  0.00     0.151 C 
BRANCH  13  15
HETATM   15  C   UNK N   1      31.470  23.126  -3.306  0.00  0.00     0.233 C 
BRANCH  15  16
HETATM   16  C   UNK N   1      31.585  21.660  -3.062  0.00  0.00     0.158 C 
HETATM   17  O   UNK N   1      30.930  20.874  -3.723  0.00  0.00    -0.649 OA
BRANCH  16  18
HETATM   18  O   UNK N   1      32.377  21.210  -2.071  0.00  0.00    -0.775 OA
HETATM   19  H   UNK N   1      33.302  21.364  -2.086  0.00  0.00     0.167 HD
ENDBRANCH  16  18
ENDBRANCH  15  16
ENDBRANCH  13  15
ENDBRANCH  11  13
ENDBRANCH   6  11
BRANCH   1  20
HETATM   20  C   UNK N   1      25.395  21.723  -7.880  0.00  0.00     0.420 C 
HETATM   21  F   UNK N   1      25.396  20.613  -8.702  0.00  0.00    -0.166 F 
HETATM   22  F   UNK N   1      24.522  21.442  -6.848  0.00  0.00    -0.166 F 
HETATM   23  F   UNK N   1      24.910  22.766  -8.650  0.00  0.00    -0.166 F 
ENDBRANCH   1  20
BRANCH   2  24
HETATM   24  O   UNK N   1      28.065  20.656  -8.876  0.00  0.00    -0.355 OA
HETATM   25  C   UNK N   1      28.283  20.897 -10.209  0.00  0.00     0.210 C 
ENDBRANCH   2  24
TORSDOF 7
ENDMDL
MODEL 6
REMARK VINA RESULT:      -6.0     13.129     14.907
REMARK  7 active torsions:
REMARK  status: ('A' for Active; 'I' for Inactive)
REMARK    1  A    between atoms: C_1  and  C_5 
REMARK    2  A    between atoms: C_6  and  O_7 
REMARK    3  A    between atoms: C_12  and  C_17 
REMARK    4  A    between atoms: C_17  and  N_19 
REMARK    5  A    between atoms: N_19  and  C_21 
REMARK    6  A    between atoms: C_21  and  C_22 
REMARK    7  A    between atoms: C_22  and  O_24 
ROOT
HETATM    1  C   UNK N   1      36.180  11.797  15.477  0.00  0.00     0.092 A 
HETATM    2  C   UNK N   1      36.661  10.481  15.136  0.00  0.00     0.084 A 
HETATM    3  C   UNK N   1      36.766   9.518  16.136  0.00  0.00     0.038 A 
HETATM    4  C   UNK N   1      36.427   9.785  17.449  0.00  0.00     0.016 A 
HETATM    5  C   UNK N   1      35.971  11.039  17.845  0.00  0.00    -0.012 A 
HETATM    6  C   UNK N   1      35.619  11.312  19.216  0.00  0.00     0.013 A 
HETATM    7  C   UNK N   1      35.186  12.610  19.525  0.00  0.00     0.015 A 
HETATM    8  C   UNK N   1      35.089  13.603  18.569  0.00  0.00     0.002 A 
HETATM    9  C   UNK N   1      35.408  13.326  17.252  0.00  0.00     0.013 A 
HETATM   10  C   UNK N   1      35.853  12.061  16.853  0.00  0.00    -0.007 A 
ENDROOT
BRANCH   6  11
HETATM   11  C   UNK N   1      35.584  10.297  20.356  0.00  0.00     0.110 C 
HETATM   12  S   UNK N   1      36.810   9.793  20.938  0.00  0.00    -0.060 SA
BRANCH  11  13
HETATM   13  N   UNK N   1      34.344   9.653  20.711  0.00  0.00    -0.366 N 
HETATM   14  C   UNK N   1      33.487   9.074  19.702  0.00  0.00     0.151 C 
BRANCH  13  15
HETATM   15  C   UNK N   1      34.021   9.408  22.104  0.00  0.00     0.233 C 
BRANCH  15  16
HETATM   16  C   UNK N   1      32.951  10.311  22.613  0.00  0.00     0.158 C 
HETATM   17  O   UNK N   1      32.014   9.858  23.247  0.00  0.00    -0.649 OA
BRANCH  16  18
HETATM   18  O   UNK N   1      32.995  11.625  22.323  0.00  0.00    -0.775 OA
HETATM   19  H   UNK N   1      32.604  11.959  21.539  0.00  0.00     0.167 HD
ENDBRANCH  16  18
ENDBRANCH  15  16
ENDBRANCH  13  15
ENDBRANCH  11  13
ENDBRANCH   6  11
BRANCH   1  20
HETATM   20  C   UNK N   1      36.008  12.881  14.398  0.00  0.00     0.420 C 
HETATM   21  F   UNK N   1      36.229  12.456  13.103  0.00  0.00    -0.166 F 
HETATM   22  F   UNK N   1      34.717  13.374  14.431  0.00  0.00    -0.166 F 
HETATM   23  F   UNK N   1      36.917  13.900  14.624  0.00  0.00    -0.166 F 
ENDBRANCH   1  20
BRANCH   2  24
HETATM   24  O   UNK N   1      37.031  10.061  13.893  0.00  0.00    -0.355 OA
HETATM   25  C   UNK N   1      36.478   9.085  13.103  0.00  0.00     0.210 C 
ENDBRANCH   2  24
TORSDOF 7
ENDMDL
MODEL 7
REMARK VINA RESULT:      -6.0      5.304      7.414
REMARK  7 active torsions:
REMARK  status: ('A' for Active; 'I' for Inactive)
REMARK    1  A    between atoms: C_1  and  C_5 
REMARK    2  A    between atoms: C_6  and  O_7 
REMARK    3  A    between atoms: C_12  and  C_17 
REMARK    4  A    between atoms: C_17  and  N_19 
REMARK    5  A    between atoms: N_19  and  C_21 
REMARK    6  A    between atoms: C_21  and  C_22 
REMARK    7  A    between atoms: C_22  and  O_24 
ROOT
HETATM    1  C   UNK N   1      25.998  19.041   4.415  0.00  0.00     0.092 A 
HETATM    2  C   UNK N   1      26.556  17.881   5.065  0.00  0.00     0.084 A 
HETATM    3  C   UNK N   1      25.743  16.772   5.285  0.00  0.00     0.038 A 
HETATM    4  C   UNK N   1      24.415  16.749   4.904  0.00  0.00     0.016 A 
HETATM    5  C   UNK N   1      23.813  17.842   4.286  0.00  0.00    -0.012 A 
HETATM    6  C   UNK N   1      22.428  17.813   3.890  0.00  0.00     0.013 A 
HETATM    7  C   UNK N   1      21.903  18.967   3.290  0.00  0.00     0.015 A 
HETATM    8  C   UNK N   1      22.667  20.099   3.074  0.00  0.00     0.002 A 
HETATM    9  C   UNK N   1      24.001  20.110   3.437  0.00  0.00     0.013 A 
HETATM   10  C   UNK N   1      24.608  19.005   4.045  0.00  0.00    -0.007 A 
ENDROOT
BRANCH   6  11
HETATM   11  C   UNK N   1      21.492  16.610   3.976  0.00  0.00     0.110 C 
HETATM   12  S   UNK N   1      21.314  15.726   2.844  0.00  0.00    -0.060 SA
BRANCH  11  13
HETATM   13  N   UNK N   1      20.599  16.470   5.101  0.00  0.00    -0.366 N 
HETATM   14  C   UNK N   1      19.204  16.144   4.911  0.00  0.00     0.151 C 
BRANCH  13  15
HETATM   15  C   UNK N   1      21.124  16.467   6.453  0.00  0.00     0.233 C 
BRANCH  15  16
HETATM   16  C   UNK N   1      20.617  17.608   7.267  0.00  0.00     0.158 C 
HETATM   17  O   UNK N   1      21.001  18.742   7.041  0.00  0.00    -0.649 OA
BRANCH  16  18
HETATM   18  O   UNK N   1      19.773  17.373   8.289  0.00  0.00    -0.775 OA
HETATM   19  H   UNK N   1      19.984  16.749   8.955  0.00  0.00     0.167 HD
ENDBRANCH  16  18
ENDBRANCH  15  16
ENDBRANCH  13  15
ENDBRANCH  11  13
ENDBRANCH   6  11
BRANCH   1  20
HETATM   20  C   UNK N   1      26.868  20.275   4.114  0.00  0.00     0.420 C 
HETATM   21  F   UNK N   1      28.230  20.063   4.197  0.00  0.00    -0.166 F 
HETATM   22  F   UNK N   1      26.621  20.719   2.829  0.00  0.00    -0.166 F 
HETATM   23  F   UNK N   1      26.582  21.271   5.031  0.00  0.00    -0.166 F 
ENDBRANCH   1  20
BRANCH   2  24
HETATM   24  O   UNK N   1      27.841  17.746   5.497  0.00  0.00    -0.355 OA
HETATM   25  C   UNK N   1      28.328  17.057   6.580  0.00  0.00     0.210 C 
ENDBRANCH   2  24
TORSDOF 7
ENDMDL
MODEL 8
REMARK VINA RESULT:      -5.9      9.087      9.818
REMARK  7 active torsions:
REMARK  status: ('A' for Active; 'I' for Inactive)
REMARK    1  A    between atoms: C_1  and  C_5 
REMARK    2  A    between atoms: C_6  and  O_7 
REMARK    3  A    between atoms: C_12  and  C_17 
REMARK    4  A    between atoms: C_17  and  N_19 
REMARK    5  A    between atoms: N_19  and  C_21 
REMARK    6  A    between atoms: C_21  and  C_22 
REMARK    7  A    between atoms: C_22  and  O_24 
ROOT
HETATM    1  C   UNK N   1      22.249  13.053   8.567  0.00  0.00     0.092 A 
HETATM    2  C   UNK N   1      23.026  12.353   7.575  0.00  0.00     0.084 A 
HETATM    3  C   UNK N   1      23.227  12.945   6.331  0.00  0.00     0.038 A 
HETATM    4  C   UNK N   1      22.702  14.184   6.015  0.00  0.00     0.016 A 
HETATM    5  C   UNK N   1      21.932  14.904   6.924  0.00  0.00    -0.012 A 
HETATM    6  C   UNK N   1      21.387  16.195   6.590  0.00  0.00     0.013 A 
HETATM    7  C   UNK N   1      20.608  16.839   7.562  0.00  0.00     0.015 A 
HETATM    8  C   UNK N   1      20.362  16.278   8.802  0.00  0.00     0.002 A 
HETATM    9  C   UNK N   1      20.908  15.048   9.122  0.00  0.00     0.013 A 
HETATM   10  C   UNK N   1      21.694  14.332   8.212  0.00  0.00    -0.007 A 
ENDROOT
BRANCH   6  11
HETATM   11  C   UNK N   1      21.649  16.978   5.306  0.00  0.00     0.110 C 
HETATM   12  S   UNK N   1      22.697  17.976   5.247  0.00  0.00    -0.060 SA
BRANCH  11  13
HETATM   13  N   UNK N   1      20.715  16.903   4.210  0.00  0.00    -0.366 N 
HETATM   14  C   UNK N   1      19.507  16.115   4.312  0.00  0.00     0.151 C 
BRANCH  13  15
HETATM   15  C   UNK N   1      20.872  17.766   3.055  0.00  0.00     0.233 C 
BRANCH  15  16
HETATM   16  C   UNK N   1      19.862  18.861   3.015  0.00  0.00     0.158 C 
HETATM   17  O   UNK N   1      20.055  19.898   3.626  0.00  0.00    -0.649 OA
BRANCH  16  18
HETATM   18  O   UNK N   1      18.709  18.679   2.345  0.00  0.00    -0.775 OA
HETATM   19  H   UNK N   1      17.918  18.458   2.797  0.00  0.00     0.167 HD
ENDBRANCH  16  18
ENDBRANCH  15  16
ENDBRANCH  13  15
ENDBRANCH  11  13
ENDBRANCH   6  11
BRANCH   1  20
HETATM   20  C   UNK N   1      22.034  12.457   9.970  0.00  0.00     0.420 C 
HETATM   21  F   UNK N   1      20.720  12.419  10.393  0.00  0.00    -0.166 F 
HETATM   22  F   UNK N   1      22.490  11.153  10.000  0.00  0.00    -0.166 F 
HETATM   23  F   UNK N   1      22.711  13.224  10.902  0.00  0.00    -0.166 F 
ENDBRANCH   1  20
BRANCH   2  24
HETATM   24  O   UNK N   1      23.610  11.131   7.731  0.00  0.00    -0.355 OA
HETATM   25  C   UNK N   1      23.687  10.084   6.848  0.00  0.00     0.210 C 
ENDBRANCH   2  24
TORSDOF 7
ENDMDL
MODEL 9
REMARK VINA RESULT:      -5.8      2.250      2.753
REMARK  7 active torsions:
REMARK  status: ('A' for Active; 'I' for Inactive)
REMARK    1  A    between atoms: C_1  and  C_5 
REMARK    2  A    between atoms: C_6  and  O_7 
REMARK    3  A    between atoms: C_12  and  C_17 
REMARK    4  A    between atoms: C_17  and  N_19 
REMARK    5  A    between atoms: N_19  and  C_21 
REMARK    6  A    between atoms: C_21  and  C_22 
REMARK    7  A    between atoms: C_22  and  O_24 
ROOT
HETATM    1  C   UNK N   1      33.299  17.003   7.224  0.00  0.00     0.092 A 
HETATM    2  C   UNK N   1      33.758  16.466   5.967  0.00  0.00     0.084 A 
HETATM    3  C   UNK N   1      32.854  16.339   4.916  0.00  0.00     0.038 A 
HETATM    4  C   UNK N   1      31.528  16.708   5.039  0.00  0.00     0.016 A 
HETATM    5  C   UNK N   1      31.020  17.218   6.231  0.00  0.00    -0.012 A 
HETATM    6  C   UNK N   1      29.637  17.602   6.356  0.00  0.00     0.013 A 
HETATM    7  C   UNK N   1      29.211  18.090   7.600  0.00  0.00     0.015 A 
HETATM    8  C   UNK N   1      30.068  18.211   8.678  0.00  0.00     0.002 A 
HETATM    9  C   UNK N   1      31.399  17.861   8.543  0.00  0.00     0.013 A 
HETATM   10  C   UNK N   1      31.911  17.361   7.340  0.00  0.00    -0.007 A 
ENDROOT
BRANCH   6  11
HETATM   11  C   UNK N   1      28.602  17.615   5.233  0.00  0.00     0.110 C 
HETATM   12  S   UNK N   1      28.021  18.859   4.774  0.00  0.00    -0.060 SA
BRANCH  11  13
HETATM   13  N   UNK N   1      28.019  16.378   4.775  0.00  0.00    -0.366 N 
HETATM   14  C   UNK N   1      28.020  16.025   3.374  0.00  0.00     0.151 C 
BRANCH  13  15
HETATM   15  C   UNK N   1      27.587  15.376   5.731  0.00  0.00     0.233 C 
BRANCH  15  16
HETATM   16  C   UNK N   1      26.364  15.786   6.479  0.00  0.00     0.158 C 
HETATM   17  O   UNK N   1      26.199  15.426   7.631  0.00  0.00    -0.649 OA
BRANCH  16  18
HETATM   18  O   UNK N   1      25.417  16.513   5.857  0.00  0.00    -0.775 OA
HETATM   19  H   UNK N   1      25.642  17.272   5.356  0.00  0.00     0.167 HD
ENDBRANCH  16  18
ENDBRANCH  15  16
ENDBRANCH  13  15
ENDBRANCH  11  13
ENDBRANCH   6  11
BRANCH   1  20
HETATM   20  C   UNK N   1      34.271  17.200   8.402  0.00  0.00     0.420 C 
HETATM   21  F   UNK N   1      33.679  17.216   9.650  0.00  0.00    -0.166 F 
HETATM   22  F   UNK N   1      35.196  16.174   8.423  0.00  0.00    -0.166 F 
HETATM   23  F   UNK N   1      34.909  18.420   8.269  0.00  0.00    -0.166 F 
ENDBRANCH   1  20
BRANCH   2  24
HETATM   24  O   UNK N   1      35.028  16.060   5.685  0.00  0.00    -0.355 OA
HETATM   25  C   UNK N   1      35.499  14.800   5.411  0.00  0.00     0.210 C 
ENDBRANCH   2  24
TORSDOF 7
ENDMDL
