MODEL 1
REMARK VINA RESULT:      -7.1      0.000      0.000
REMARK  6 active torsions:
REMARK  status: ('A' for Active; 'I' for Inactive)
REMARK    1  A    between atoms: O_2  and  C_20 
REMARK    2  A    between atoms: O_3  and  C_21 
REMARK    3  A    between atoms: O_4  and  C_24 
REMARK    4  A    between atoms: C_5  and  C_6 
REMARK    5  A    between atoms: C_5  and  C_7 
REMARK    6  A    between atoms: C_8  and  C_9 
ROOT
HETATM    1 Cl   UNK N   1      29.317  18.302   8.617  0.00  0.00    -0.082 Cl
HETATM    2  C   UNK N   1      30.021  17.308   6.116  0.00  0.00     0.007 C 
HETATM    3  C   UNK N   1      30.399  17.521   7.441  0.00  0.00     0.056 C 
ENDROOT
BRANCH   2   4
HETATM    4  C   UNK N   1      31.024  16.784   5.123  0.00  0.00    -0.023 A 
HETATM    5  C   UNK N   1      31.146  15.397   4.914  0.00  0.00     0.015 A 
HETATM    6  C   UNK N   1      32.043  14.893   3.972  0.00  0.00     0.037 A 
HETATM    7  C   UNK N   1      32.844  15.760   3.229  0.00  0.00     0.068 A 
HETATM    8  C   UNK N   1      32.766  17.144   3.465  0.00  0.00     0.037 A 
HETATM    9  C   UNK N   1      31.870  17.651   4.416  0.00  0.00     0.015 A 
BRANCH   7  10
HETATM   10  O   UNK N   1      33.671  15.240   2.291  0.00  0.00    -0.356 OA
HETATM   11  C   UNK N   1      34.158  13.954   2.343  0.00  0.00     0.210 C 
ENDBRANCH   7  10
ENDBRANCH   2   4
BRANCH   2  12
HETATM   12  C   UNK N   1      28.642  17.661   5.569  0.00  0.00    -0.023 A 
HETATM   13  C   UNK N   1      28.442  18.887   4.906  0.00  0.00     0.015 A 
HETATM   14  C   UNK N   1      27.177  19.269   4.445  0.00  0.00     0.037 A 
HETATM   15  C   UNK N   1      26.073  18.437   4.644  0.00  0.00     0.068 A 
HETATM   16  C   UNK N   1      26.255  17.208   5.291  0.00  0.00     0.037 A 
HETATM   17  C   UNK N   1      27.521  16.832   5.743  0.00  0.00     0.015 A 
BRANCH  15  18
HETATM   18  O   UNK N   1      24.854  18.842   4.214  0.00  0.00    -0.356 OA
HETATM   19  C   UNK N   1      24.656  19.996   3.489  0.00  0.00     0.210 C 
ENDBRANCH  15  18
ENDBRANCH   2  12
BRANCH   3  20
HETATM   20  C   UNK N   1      31.724  17.096   8.032  0.00  0.00    -0.013 A 
HETATM   21  C   UNK N   1      32.784  18.017   8.075  0.00  0.00     0.016 A 
HETATM   22  C   UNK N   1      34.025  17.657   8.609  0.00  0.00     0.037 A 
HETATM   23  C   UNK N   1      34.224  16.370   9.135  0.00  0.00     0.068 A 
HETATM   24  C   UNK N   1      33.163  15.466   9.143  0.00  0.00     0.037 A 
HETATM   25  C   UNK N   1      31.926  15.830   8.609  0.00  0.00     0.016 A 
BRANCH  23  26
HETATM   26  O   UNK N   1      35.421  15.982   9.633  0.00  0.00    -0.356 OA
HETATM   27  C   UNK N   1      35.791  16.178  10.945  0.00  0.00     0.210 C 
ENDBRANCH  23  26
ENDBRANCH   3  20
TORSDOF 6
ENDMDL
MODEL 2
REMARK VINA RESULT:      -6.7      2.644      8.158
REMARK  6 active torsions:
REMARK  status: ('A' for Active; 'I' for Inactive)
REMARK    1  A    between atoms: O_2  and  C_20 
REMARK    2  A    between atoms: O_3  and  C_21 
REMARK    3  A    between atoms: O_4  and  C_24 
REMARK    4  A    between atoms: C_5  and  C_6 
REMARK    5  A    between atoms: C_5  and  C_7 
REMARK    6  A    between atoms: C_8  and  C_9 
ROOT
HETATM    1 Cl   UNK N   1      27.811  20.379   6.637  0.00  0.00    -0.082 Cl
HETATM    2  C   UNK N   1      27.955  17.862   5.460  0.00  0.00     0.007 C 
HETATM    3  C   UNK N   1      27.309  19.096   5.511  0.00  0.00     0.056 C 
ENDROOT
BRANCH   2   4
HETATM    4  C   UNK N   1      27.401  16.757   4.602  0.00  0.00    -0.023 A 
HETATM    5  C   UNK N   1      26.483  15.839   5.145  0.00  0.00     0.015 A 
HETATM    6  C   UNK N   1      25.930  14.830   4.358  0.00  0.00     0.037 A 
HETATM    7  C   UNK N   1      26.289  14.709   3.015  0.00  0.00     0.068 A 
HETATM    8  C   UNK N   1      27.242  15.591   2.474  0.00  0.00     0.037 A 
HETATM    9  C   UNK N   1      27.803  16.600   3.267  0.00  0.00     0.015 A 
BRANCH   7  10
HETATM   10  O   UNK N   1      25.698  13.747   2.266  0.00  0.00    -0.356 OA
HETATM   11  C   UNK N   1      24.608  13.981   1.459  0.00  0.00     0.210 C 
ENDBRANCH   7  10
ENDBRANCH   2   4
BRANCH   2  12
HETATM   12  C   UNK N   1      29.177  17.519   6.305  0.00  0.00    -0.023 A 
HETATM   13  C   UNK N   1      29.070  17.474   7.709  0.00  0.00     0.015 A 
HETATM   14  C   UNK N   1      30.184  17.222   8.518  0.00  0.00     0.037 A 
HETATM   15  C   UNK N   1      31.440  17.017   7.945  0.00  0.00     0.068 A 
HETATM   16  C   UNK N   1      31.564  17.046   6.549  0.00  0.00     0.037 A 
HETATM   17  C   UNK N   1      30.448  17.292   5.749  0.00  0.00     0.015 A 
BRANCH  15  18
HETATM   18  O   UNK N   1      32.508  16.803   8.750  0.00  0.00    -0.356 OA
HETATM   19  C   UNK N   1      33.704  17.471   8.607  0.00  0.00     0.210 C 
ENDBRANCH  15  18
ENDBRANCH   2  12
BRANCH   3  20
HETATM   20  C   UNK N   1      26.156  19.496   4.619  0.00  0.00    -0.013 A 
HETATM   21  C   UNK N   1      26.406  20.286   3.485  0.00  0.00     0.016 A 
HETATM   22  C   UNK N   1      25.363  20.679   2.640  0.00  0.00     0.037 A 
HETATM   23  C   UNK N   1      24.046  20.269   2.903  0.00  0.00     0.068 A 
HETATM   24  C   UNK N   1      23.796  19.442   3.997  0.00  0.00     0.037 A 
HETATM   25  C   UNK N   1      24.839  19.052   4.837  0.00  0.00     0.016 A 
BRANCH  23  26
HETATM   26  O   UNK N   1      23.011  20.655   2.121  0.00  0.00    -0.356 OA
HETATM   27  C   UNK N   1      21.695  20.571   2.517  0.00  0.00     0.210 C 
ENDBRANCH  23  26
ENDBRANCH   3  20
TORSDOF 6
ENDMDL
MODEL 3
REMARK VINA RESULT:      -6.6      1.186      7.028
REMARK  6 active torsions:
REMARK  status: ('A' for Active; 'I' for Inactive)
REMARK    1  A    between atoms: O_2  and  C_20 
REMARK    2  A    between atoms: O_3  and  C_21 
REMARK    3  A    between atoms: O_4  and  C_24 
REMARK    4  A    between atoms: C_5  and  C_6 
REMARK    5  A    between atoms: C_5  and  C_7 
REMARK    6  A    between atoms: C_8  and  C_9 
ROOT
HETATM    1 Cl   UNK N   1      29.708  18.482   8.656  0.00  0.00    -0.082 Cl
HETATM    2  C   UNK N   1      31.056  16.888   6.818  0.00  0.00     0.007 C 
HETATM    3  C   UNK N   1      29.874  17.547   7.153  0.00  0.00     0.056 C 
ENDROOT
BRANCH   2   4
HETATM    4  C   UNK N   1      31.100  15.986   5.614  0.00  0.00    -0.023 A 
HETATM    5  C   UNK N   1      30.673  14.649   5.722  0.00  0.00     0.015 A 
HETATM    6  C   UNK N   1      30.672  13.807   4.610  0.00  0.00     0.037 A 
HETATM    7  C   UNK N   1      31.108  14.278   3.371  0.00  0.00     0.068 A 
HETATM    8  C   UNK N   1      31.583  15.597   3.262  0.00  0.00     0.037 A 
HETATM    9  C   UNK N   1      31.591  16.441   4.381  0.00  0.00     0.015 A 
BRANCH   7  10
HETATM   10  O   UNK N   1      31.050  13.449   2.302  0.00  0.00    -0.356 OA
HETATM   11  C   UNK N   1      32.092  12.633   1.922  0.00  0.00     0.210 C 
ENDBRANCH   7  10
ENDBRANCH   2   4
BRANCH   2  12
HETATM   12  C   UNK N   1      32.324  16.957   7.664  0.00  0.00    -0.023 A 
HETATM   13  C   UNK N   1      32.567  15.976   8.646  0.00  0.00     0.015 A 
HETATM   14  C   UNK N   1      33.688  16.042   9.480  0.00  0.00     0.037 A 
HETATM   15  C   UNK N   1      34.594  17.097   9.362  0.00  0.00     0.068 A 
HETATM   16  C   UNK N   1      34.376  18.075   8.383  0.00  0.00     0.037 A 
HETATM   17  C   UNK N   1      33.258  18.000   7.551  0.00  0.00     0.015 A 
BRANCH  15  18
HETATM   18  O   UNK N   1      35.657  17.154  10.200  0.00  0.00    -0.356 OA
HETATM   19  C   UNK N   1      36.016  16.117  11.033  0.00  0.00     0.210 C 
ENDBRANCH  15  18
ENDBRANCH   2  12
BRANCH   3  20
HETATM   20  C   UNK N   1      28.635  17.573   6.287  0.00  0.00    -0.013 A 
HETATM   21  C   UNK N   1      28.548  18.504   5.239  0.00  0.00     0.016 A 
HETATM   22  C   UNK N   1      27.415  18.561   4.422  0.00  0.00     0.037 A 
HETATM   23  C   UNK N   1      26.350  17.668   4.624  0.00  0.00     0.068 A 
HETATM   24  C   UNK N   1      26.450  16.706   5.629  0.00  0.00     0.037 A 
HETATM   25  C   UNK N   1      27.582  16.653   6.442  0.00  0.00     0.016 A 
BRANCH  23  26
HETATM   26  O   UNK N   1      25.228  17.715   3.869  0.00  0.00    -0.356 OA
HETATM   27  C   UNK N   1      24.367  18.789   3.865  0.00  0.00     0.210 C 
ENDBRANCH  23  26
ENDBRANCH   3  20
TORSDOF 6
ENDMDL
MODEL 4
REMARK VINA RESULT:      -6.5      2.729      4.262
REMARK  6 active torsions:
REMARK  status: ('A' for Active; 'I' for Inactive)
REMARK    1  A    between atoms: O_2  and  C_20 
REMARK    2  A    between atoms: O_3  and  C_21 
REMARK    3  A    between atoms: O_4  and  C_24 
REMARK    4  A    between atoms: C_5  and  C_6 
REMARK    5  A    between atoms: C_5  and  C_7 
REMARK    6  A    between atoms: C_8  and  C_9 
ROOT
HETATM    1 Cl   UNK N   1      27.312  20.533   6.274  0.00  0.00    -0.082 Cl
HETATM    2  C   UNK N   1      26.695  18.193   4.902  0.00  0.00     0.007 C 
HETATM    3  C   UNK N   1      27.523  18.824   5.830  0.00  0.00     0.056 C 
ENDROOT
BRANCH   2   4
HETATM    4  C   UNK N   1      27.006  16.793   4.446  0.00  0.00    -0.023 A 
HETATM    5  C   UNK N   1      27.659  16.583   3.217  0.00  0.00     0.015 A 
HETATM    6  C   UNK N   1      27.988  15.296   2.792  0.00  0.00     0.037 A 
HETATM    7  C   UNK N   1      27.663  14.191   3.580  0.00  0.00     0.068 A 
HETATM    8  C   UNK N   1      26.967  14.385   4.787  0.00  0.00     0.037 A 
HETATM    9  C   UNK N   1      26.630  15.677   5.210  0.00  0.00     0.015 A 
BRANCH   7  10
HETATM   10  O   UNK N   1      28.039  12.959   3.161  0.00  0.00    -0.356 OA
HETATM   11  C   UNK N   1      29.059  12.745   2.263  0.00  0.00     0.210 C 
ENDBRANCH   7  10
ENDBRANCH   2   4
BRANCH   2  12
HETATM   12  C   UNK N   1      25.507  18.877   4.236  0.00  0.00    -0.023 A 
HETATM   13  C   UNK N   1      25.723  19.923   3.316  0.00  0.00     0.015 A 
HETATM   14  C   UNK N   1      24.656  20.613   2.732  0.00  0.00     0.037 A 
HETATM   15  C   UNK N   1      23.339  20.283   3.059  0.00  0.00     0.068 A 
HETATM   16  C   UNK N   1      23.103  19.238   3.962  0.00  0.00     0.037 A 
HETATM   17  C   UNK N   1      24.173  18.550   4.536  0.00  0.00     0.015 A 
BRANCH  15  18
HETATM   18  O   UNK N   1      22.323  20.984   2.502  0.00  0.00    -0.356 OA
HETATM   19  C   UNK N   1      20.996  20.671   2.696  0.00  0.00     0.210 C 
ENDBRANCH  15  18
ENDBRANCH   2  12
BRANCH   3  20
HETATM   20  C   UNK N   1      28.648  18.142   6.575  0.00  0.00    -0.013 A 
HETATM   21  C   UNK N   1      28.560  17.994   7.969  0.00  0.00     0.016 A 
HETATM   22  C   UNK N   1      29.584  17.375   8.691  0.00  0.00     0.037 A 
HETATM   23  C   UNK N   1      30.713  16.868   8.027  0.00  0.00     0.068 A 
HETATM   24  C   UNK N   1      30.786  16.965   6.638  0.00  0.00     0.037 A 
HETATM   25  C   UNK N   1      29.761  17.583   5.921  0.00  0.00     0.016 A 
BRANCH  23  26
HETATM   26  O   UNK N   1      31.734  16.288   8.700  0.00  0.00    -0.356 OA
HETATM   27  C   UNK N   1      33.015  16.792   8.706  0.00  0.00     0.210 C 
ENDBRANCH  23  26
ENDBRANCH   3  20
TORSDOF 6
ENDMDL
MODEL 5
REMARK VINA RESULT:      -6.5      3.105      5.194
REMARK  6 active torsions:
REMARK  status: ('A' for Active; 'I' for Inactive)
REMARK    1  A    between atoms: O_2  and  C_20 
REMARK    2  A    between atoms: O_3  and  C_21 
REMARK    3  A    between atoms: O_4  and  C_24 
REMARK    4  A    between atoms: C_5  and  C_6 
REMARK    5  A    between atoms: C_5  and  C_7 
REMARK    6  A    between atoms: C_8  and  C_9 
ROOT
HETATM    1 Cl   UNK N   1      30.080  13.723   4.389  0.00  0.00    -0.082 Cl
HETATM    2  C   UNK N   1      28.512  16.017   4.520  0.00  0.00     0.007 C 
HETATM    3  C   UNK N   1      29.753  15.430   4.764  0.00  0.00     0.056 C 
ENDROOT
BRANCH   2   4
HETATM    4  C   UNK N   1      28.236  17.418   4.994  0.00  0.00    -0.023 A 
HETATM    5  C   UNK N   1      27.978  17.661   6.357  0.00  0.00     0.015 A 
HETATM    6  C   UNK N   1      27.756  18.957   6.822  0.00  0.00     0.037 A 
HETATM    7  C   UNK N   1      27.775  20.035   5.937  0.00  0.00     0.068 A 
HETATM    8  C   UNK N   1      27.983  19.799   4.566  0.00  0.00     0.037 A 
HETATM    9  C   UNK N   1      28.199  18.497   4.097  0.00  0.00     0.015 A 
BRANCH   7  10
HETATM   10  O   UNK N   1      27.601  21.285   6.429  0.00  0.00    -0.356 OA
HETATM   11  C   UNK N   1      26.411  21.730   6.958  0.00  0.00     0.210 C 
ENDBRANCH   7  10
ENDBRANCH   2   4
BRANCH   2  12
HETATM   12  C   UNK N   1      27.351  15.281   3.859  0.00  0.00    -0.023 A 
HETATM   13  C   UNK N   1      27.226  15.283   2.456  0.00  0.00     0.015 A 
HETATM   14  C   UNK N   1      26.142  14.671   1.819  0.00  0.00     0.037 A 
HETATM   15  C   UNK N   1      25.145  14.045   2.570  0.00  0.00     0.068 A 
HETATM   16  C   UNK N   1      25.258  14.022   3.966  0.00  0.00     0.037 A 
HETATM   17  C   UNK N   1      26.345  14.631   4.593  0.00  0.00     0.015 A 
BRANCH  15  18
HETATM   18  O   UNK N   1      24.090  13.483   1.932  0.00  0.00    -0.356 OA
HETATM   19  C   UNK N   1      23.686  13.859   0.670  0.00  0.00     0.210 C 
ENDBRANCH  15  18
ENDBRANCH   2  12
BRANCH   3  20
HETATM   20  C   UNK N   1      30.948  16.161   5.331  0.00  0.00    -0.013 A 
HETATM   21  C   UNK N   1      31.798  16.866   4.464  0.00  0.00     0.016 A 
HETATM   22  C   UNK N   1      32.916  17.549   4.952  0.00  0.00     0.037 A 
HETATM   23  C   UNK N   1      33.195  17.559   6.329  0.00  0.00     0.068 A 
HETATM   24  C   UNK N   1      32.328  16.905   7.203  0.00  0.00     0.037 A 
HETATM   25  C   UNK N   1      31.214  16.225   6.711  0.00  0.00     0.016 A 
BRANCH  23  26
HETATM   26  O   UNK N   1      34.284  18.187   6.830  0.00  0.00    -0.356 OA
HETATM   27  C   UNK N   1      34.569  18.242   8.176  0.00  0.00     0.210 C 
ENDBRANCH  23  26
ENDBRANCH   3  20
TORSDOF 6
ENDMDL
MODEL 6
REMARK VINA RESULT:      -6.4     12.263     16.043
REMARK  6 active torsions:
REMARK  status: ('A' for Active; 'I' for Inactive)
REMARK    1  A    between atoms: O_2  and  C_20 
REMARK    2  A    between atoms: O_3  and  C_21 
REMARK    3  A    between atoms: O_4  and  C_24 
REMARK    4  A    between atoms: C_5  and  C_6 
REMARK    5  A    between atoms: C_5  and  C_7 
REMARK    6  A    between atoms: C_8  and  C_9 
ROOT
HETATM    1 Cl   UNK N   1      25.357  26.388  -8.684  0.00  0.00    -0.082 Cl
HETATM    2  C   UNK N   1      26.561  24.617  -6.908  0.00  0.00     0.007 C 
HETATM    3  C   UNK N   1      26.136  25.921  -7.155  0.00  0.00     0.056 C 
ENDROOT
BRANCH   2   4
HETATM    4  C   UNK N   1      27.350  24.305  -5.665  0.00  0.00    -0.023 A 
HETATM    5  C   UNK N   1      28.735  24.071  -5.752  0.00  0.00     0.015 A 
HETATM    6  C   UNK N   1      29.491  23.816  -4.608  0.00  0.00     0.037 A 
HETATM    7  C   UNK N   1      28.878  23.777  -3.355  0.00  0.00     0.068 A 
HETATM    8  C   UNK N   1      27.487  23.961  -3.261  0.00  0.00     0.037 A 
HETATM    9  C   UNK N   1      26.727  24.210  -4.411  0.00  0.00     0.015 A 
BRANCH   7  10
HETATM   10  O   UNK N   1      29.648  23.573  -2.259  0.00  0.00    -0.356 OA
HETATM   11  C   UNK N   1      30.789  22.804  -2.271  0.00  0.00     0.210 C 
ENDBRANCH   7  10
ENDBRANCH   2   4
BRANCH   2  12
HETATM   12  C   UNK N   1      26.347  23.466  -7.885  0.00  0.00    -0.023 A 
HETATM   13  C   UNK N   1      26.966  23.493  -9.150  0.00  0.00     0.015 A 
HETATM   14  C   UNK N   1      26.743  22.484 -10.093  0.00  0.00     0.037 A 
HETATM   15  C   UNK N   1      25.885  21.422  -9.800  0.00  0.00     0.068 A 
HETATM   16  C   UNK N   1      25.269  21.371  -8.542  0.00  0.00     0.037 A 
HETATM   17  C   UNK N   1      25.501  22.378  -7.605  0.00  0.00     0.015 A 
BRANCH  15  18
HETATM   18  O   UNK N   1      25.663  20.472 -10.740  0.00  0.00    -0.356 OA
HETATM   19  C   UNK N   1      25.939  20.656 -12.076  0.00  0.00     0.210 C 
ENDBRANCH  15  18
ENDBRANCH   2  12
BRANCH   3  20
HETATM   20  C   UNK N   1      26.251  27.060  -6.167  0.00  0.00    -0.013 A 
HETATM   21  C   UNK N   1      27.262  28.020  -6.339  0.00  0.00     0.016 A 
HETATM   22  C   UNK N   1      27.403  29.083  -5.442  0.00  0.00     0.037 A 
HETATM   23  C   UNK N   1      26.516  29.221  -4.362  0.00  0.00     0.068 A 
HETATM   24  C   UNK N   1      25.478  28.302  -4.212  0.00  0.00     0.037 A 
HETATM   25  C   UNK N   1      25.342  27.243  -5.109  0.00  0.00     0.016 A 
BRANCH  23  26
HETATM   26  O   UNK N   1      26.642  30.222  -3.461  0.00  0.00    -0.356 OA
HETATM   27  C   UNK N   1      27.637  30.260  -2.509  0.00  0.00     0.210 C 
ENDBRANCH  23  26
ENDBRANCH   3  20
TORSDOF 6
ENDMDL
MODEL 7
REMARK VINA RESULT:      -6.1      5.852     10.957
REMARK  6 active torsions:
REMARK  status: ('A' for Active; 'I' for Inactive)
REMARK    1  A    between atoms: O_2  and  C_20 
REMARK    2  A    between atoms: O_3  and  C_21 
REMARK    3  A    between atoms: O_4  and  C_24 
REMARK    4  A    between atoms: C_5  and  C_6 
REMARK    5  A    between atoms: C_5  and  C_7 
REMARK    6  A    between atoms: C_8  and  C_9 
ROOT
HETATM    1 Cl   UNK N   1      38.107  11.261  13.592  0.00  0.00    -0.082 Cl
HETATM    2  C   UNK N   1      36.289  13.270  12.961  0.00  0.00     0.007 C 
HETATM    3  C   UNK N   1      37.212  12.335  12.493  0.00  0.00     0.056 C 
ENDROOT
BRANCH   2   4
HETATM    4  C   UNK N   1      35.671  14.259  12.009  0.00  0.00    -0.023 A 
HETATM    5  C   UNK N   1      36.243  15.536  11.854  0.00  0.00     0.015 A 
HETATM    6  C   UNK N   1      35.707  16.453  10.950  0.00  0.00     0.037 A 
HETATM    7  C   UNK N   1      34.584  16.121  10.193  0.00  0.00     0.068 A 
HETATM    8  C   UNK N   1      33.975  14.867  10.376  0.00  0.00     0.037 A 
HETATM    9  C   UNK N   1      34.508  13.947  11.288  0.00  0.00     0.015 A 
BRANCH   7  10
HETATM   10  O   UNK N   1      34.117  17.018   9.292  0.00  0.00    -0.356 OA
HETATM   11  C   UNK N   1      32.994  16.804   8.526  0.00  0.00     0.210 C 
ENDBRANCH   7  10
ENDBRANCH   2   4
BRANCH   2  12
HETATM   12  C   UNK N   1      35.915  13.416  14.432  0.00  0.00    -0.023 A 
HETATM   13  C   UNK N   1      36.725  14.187  15.289  0.00  0.00     0.015 A 
HETATM   14  C   UNK N   1      36.446  14.294  16.656  0.00  0.00     0.037 A 
HETATM   15  C   UNK N   1      35.352  13.623  17.207  0.00  0.00     0.068 A 
HETATM   16  C   UNK N   1      34.528  12.861  16.368  0.00  0.00     0.037 A 
HETATM   17  C   UNK N   1      34.810  12.765  15.005  0.00  0.00     0.015 A 
BRANCH  15  18
HETATM   18  O   UNK N   1      35.118  13.719  18.538  0.00  0.00    -0.356 OA
HETATM   19  C   UNK N   1      35.253  12.656  19.404  0.00  0.00     0.210 C 
ENDBRANCH  15  18
ENDBRANCH   2  12
BRANCH   3  20
HETATM   20  C   UNK N   1      37.531  12.105  11.034  0.00  0.00    -0.013 A 
HETATM   21  C   UNK N   1      38.577  12.828  10.437  0.00  0.00     0.016 A 
HETATM   22  C   UNK N   1      38.898  12.645   9.088  0.00  0.00     0.037 A 
HETATM   23  C   UNK N   1      38.188  11.714   8.311  0.00  0.00     0.068 A 
HETATM   24  C   UNK N   1      37.182  10.956   8.908  0.00  0.00     0.037 A 
HETATM   25  C   UNK N   1      36.867  11.141  10.254  0.00  0.00     0.016 A 
BRANCH  23  26
HETATM   26  O   UNK N   1      38.455  11.534   6.997  0.00  0.00    -0.356 OA
HETATM   27  C   UNK N   1      39.580  10.888   6.537  0.00  0.00     0.210 C 
ENDBRANCH  23  26
ENDBRANCH   3  20
TORSDOF 6
ENDMDL
MODEL 8
REMARK VINA RESULT:      -6.0      2.967      5.389
REMARK  6 active torsions:
REMARK  status: ('A' for Active; 'I' for Inactive)
REMARK    1  A    between atoms: O_2  and  C_20 
REMARK    2  A    between atoms: O_3  and  C_21 
REMARK    3  A    between atoms: O_4  and  C_24 
REMARK    4  A    between atoms: C_5  and  C_6 
REMARK    5  A    between atoms: C_5  and  C_7 
REMARK    6  A    between atoms: C_8  and  C_9 
ROOT
HETATM    1 Cl   UNK N   1      26.427  16.225   4.300  0.00  0.00    -0.082 Cl
HETATM    2  C   UNK N   1      28.935  17.193   5.019  0.00  0.00     0.007 C 
HETATM    3  C   UNK N   1      28.197  16.151   4.457  0.00  0.00     0.056 C 
ENDROOT
BRANCH   2   4
HETATM    4  C   UNK N   1      30.408  17.022   5.270  0.00  0.00    -0.023 A 
HETATM    5  C   UNK N   1      31.342  17.516   4.339  0.00  0.00     0.015 A 
HETATM    6  C   UNK N   1      32.712  17.399   4.570  0.00  0.00     0.037 A 
HETATM    7  C   UNK N   1      33.180  16.778   5.728  0.00  0.00     0.068 A 
HETATM    8  C   UNK N   1      32.257  16.236   6.642  0.00  0.00     0.037 A 
HETATM    9  C   UNK N   1      30.880  16.347   6.406  0.00  0.00     0.015 A 
BRANCH   7  10
HETATM   10  O   UNK N   1      34.516  16.722   5.944  0.00  0.00    -0.356 OA
HETATM   11  C   UNK N   1      35.181  15.563   6.270  0.00  0.00     0.210 C 
ENDBRANCH   7  10
ENDBRANCH   2   4
BRANCH   2  12
HETATM   12  C   UNK N   1      28.312  18.504   5.488  0.00  0.00    -0.023 A 
HETATM   13  C   UNK N   1      28.127  18.741   6.864  0.00  0.00     0.015 A 
HETATM   14  C   UNK N   1      27.504  19.905   7.326  0.00  0.00     0.037 A 
HETATM   15  C   UNK N   1      27.040  20.863   6.422  0.00  0.00     0.068 A 
HETATM   16  C   UNK N   1      27.226  20.650   5.050  0.00  0.00     0.037 A 
HETATM   17  C   UNK N   1      27.853  19.489   4.597  0.00  0.00     0.015 A 
BRANCH  15  18
HETATM   18  O   UNK N   1      26.415  21.969   6.892  0.00  0.00    -0.356 OA
HETATM   19  C   UNK N   1      25.686  21.982   8.060  0.00  0.00     0.210 C 
ENDBRANCH  15  18
ENDBRANCH   2  12
BRANCH   3  20
HETATM   20  C   UNK N   1      28.799  14.882   3.899  0.00  0.00    -0.013 A 
HETATM   21  C   UNK N   1      28.833  13.727   4.699  0.00  0.00     0.016 A 
HETATM   22  C   UNK N   1      29.387  12.537   4.218  0.00  0.00     0.037 A 
HETATM   23  C   UNK N   1      29.899  12.471   2.912  0.00  0.00     0.068 A 
HETATM   24  C   UNK N   1      29.824  13.597   2.093  0.00  0.00     0.037 A 
HETATM   25  C   UNK N   1      29.270  14.782   2.577  0.00  0.00     0.016 A 
BRANCH  23  26
HETATM   26  O   UNK N   1      30.467  11.342   2.427  0.00  0.00    -0.356 OA
HETATM   27  C   UNK N   1      30.657  11.112   1.083  0.00  0.00     0.210 C 
ENDBRANCH  23  26
ENDBRANCH   3  20
TORSDOF 6
ENDMDL
MODEL 9
REMARK VINA RESULT:      -5.9     10.608     15.025
REMARK  6 active torsions:
REMARK  status: ('A' for Active; 'I' for Inactive)
REMARK    1  A    between atoms: O_2  and  C_20 
REMARK    2  A    between atoms: O_3  and  C_21 
REMARK    3  A    between atoms: O_4  and  C_24 
REMARK    4  A    between atoms: C_5  and  C_6 
REMARK    5  A    between atoms: C_5  and  C_7 
REMARK    6  A    between atoms: C_8  and  C_9 
ROOT
HETATM    1 Cl   UNK N   1      36.612   7.019  18.525  0.00  0.00    -0.082 Cl
HETATM    2  C   UNK N   1      35.335   9.308  17.592  0.00  0.00     0.007 C 
HETATM    3  C   UNK N   1      36.220   8.266  17.319  0.00  0.00     0.056 C 
ENDROOT
BRANCH   2   4
HETATM    4  C   UNK N   1      35.153  10.422  16.597  0.00  0.00    -0.023 A 
HETATM    5  C   UNK N   1      35.976  11.562  16.660  0.00  0.00     0.015 A 
HETATM    6  C   UNK N   1      35.848  12.589  15.725  0.00  0.00     0.037 A 
HETATM    7  C   UNK N   1      34.889  12.505  14.715  0.00  0.00     0.068 A 
HETATM    8  C   UNK N   1      34.029  11.393  14.671  0.00  0.00     0.037 A 
HETATM    9  C   UNK N   1      34.152  10.365  15.615  0.00  0.00     0.015 A 
BRANCH   7  10
HETATM   10  O   UNK N   1      34.822  13.498  13.796  0.00  0.00    -0.356 OA
HETATM   11  C   UNK N   1      35.932  14.134  13.289  0.00  0.00     0.210 C 
ENDBRANCH   7  10
ENDBRANCH   2   4
BRANCH   2  12
HETATM   12  C   UNK N   1      34.578   9.442  18.909  0.00  0.00    -0.023 A 
HETATM   13  C   UNK N   1      33.416   8.677  19.133  0.00  0.00     0.015 A 
HETATM   14  C   UNK N   1      32.663   8.819  20.303  0.00  0.00     0.037 A 
HETATM   15  C   UNK N   1      33.048   9.737  21.282  0.00  0.00     0.068 A 
HETATM   16  C   UNK N   1      34.207  10.499  21.083  0.00  0.00     0.037 A 
HETATM   17  C   UNK N   1      34.955  10.348  19.915  0.00  0.00     0.015 A 
BRANCH  15  18
HETATM   18  O   UNK N   1      32.287   9.877  22.394  0.00  0.00    -0.356 OA
HETATM   19  C   UNK N   1      32.763  10.414  23.569  0.00  0.00     0.210 C 
ENDBRANCH  15  18
ENDBRANCH   2  12
BRANCH   3  20
HETATM   20  C   UNK N   1      36.911   8.057  15.991  0.00  0.00    -0.013 A 
HETATM   21  C   UNK N   1      36.251   7.345  14.976  0.00  0.00     0.016 A 
HETATM   22  C   UNK N   1      36.861   7.128  13.737  0.00  0.00     0.037 A 
HETATM   23  C   UNK N   1      38.143   7.641  13.480  0.00  0.00     0.068 A 
HETATM   24  C   UNK N   1      38.786   8.393  14.462  0.00  0.00     0.037 A 
HETATM   25  C   UNK N   1      38.172   8.607  15.697  0.00  0.00     0.016 A 
BRANCH  23  26
HETATM   26  O   UNK N   1      38.773   7.425  12.302  0.00  0.00    -0.356 OA
HETATM   27  C   UNK N   1      38.571   8.204  11.184  0.00  0.00     0.210 C 
ENDBRANCH  23  26
ENDBRANCH   3  20
TORSDOF 6
ENDMDL
