MODEL 1
REMARK VINA RESULT:      -5.8      0.000      0.000
REMARK  4 active torsions:
REMARK  status: ('A' for Active; 'I' for Inactive)
REMARK    1  A    between atoms: S_1  and  N_8 
REMARK    2  A    between atoms: S_1  and  C_11 
REMARK    3  A    between atoms: O_3  and  C_13 
REMARK    4  A    between atoms: O_3  and  C_16 
ROOT
HETATM    1  S   UNK N   1      34.081  15.078   9.286  0.00  0.00    -0.057 SA
HETATM    2  N   UNK N   1      35.169  16.812  10.691  0.00  0.00    -0.339 N 
ATOM      3  HN  UNK N   1      35.533  17.697  11.043  1.00  0.00     0.167 HD
HETATM    4  C   UNK N   1      34.716  14.514  10.692  0.00  0.00     0.037 A 
HETATM    5  C   UNK N   1      35.278  15.605  11.352  0.00  0.00     0.051 A 
HETATM    6  C   UNK N   1      34.510  16.664   9.506  0.00  0.00     0.192 A 
HETATM    7  C   UNK N   1      34.762  13.225  11.197  0.00  0.00     0.058 A 
HETATM    8  C   UNK N   1      35.405  13.021  12.426  0.00  0.00     0.070 A 
HETATM    9  C   UNK N   1      35.915  15.424  12.579  0.00  0.00     0.034 A 
HETATM   10  C   UNK N   1      35.978  14.123  13.116  0.00  0.00     0.039 A 
ENDROOT
BRANCH   6  11
HETATM   11  S   UNK N   1      34.266  17.960   8.304  0.00  0.00     0.279 S 
HETATM   12  O   UNK N   1      34.663  17.496   6.894  0.00  0.00    -0.199 OA
HETATM   13  O   UNK N   1      35.193  19.166   8.510  0.00  0.00    -0.199 OA
BRANCH  11  14
HETATM   14  N   UNK N   1      32.647  18.634   8.117  0.00  0.00    -0.323 N 
HETATM   15  H   UNK N   1      32.190  19.495   7.816  0.00  0.00     0.169 HD
HETATM   16  H   UNK N   1      31.947  17.947   8.399  0.00  0.00     0.169 HD
ENDBRANCH  11  14
ENDBRANCH   6  11
BRANCH   8  17
HETATM   17  O   UNK N   1      35.463  11.762  12.920  0.00  0.00    -0.351 OA
BRANCH  17  18
HETATM   18  C   UNK N   1      34.430  10.861  12.828  0.00  0.00     0.171 C 
HETATM   19  C   UNK N   1      33.791  10.701  14.192  0.00  0.00     0.034 C 
ENDBRANCH  17  18
ENDBRANCH   8  17
TORSDOF 4
ENDMDL
MODEL 2
REMARK VINA RESULT:      -5.6     11.469     13.446
REMARK  4 active torsions:
REMARK  status: ('A' for Active; 'I' for Inactive)
REMARK    1  A    between atoms: S_1  and  N_8 
REMARK    2  A    between atoms: S_1  and  C_11 
REMARK    3  A    between atoms: O_3  and  C_13 
REMARK    4  A    between atoms: O_3  and  C_16 
ROOT
HETATM    1  S   UNK N   1      23.141  18.543   4.146  0.00  0.00    -0.057 SA
HETATM    2  N   UNK N   1      23.865  20.579   2.923  0.00  0.00    -0.339 N 
ATOM      3  HN  UNK N   1      23.873  21.433   2.366  1.00  0.00     0.167 HD
HETATM    4  C   UNK N   1      24.759  18.822   4.187  0.00  0.00     0.037 A 
HETATM    5  C   UNK N   1      24.991  19.990   3.463  0.00  0.00     0.051 A 
HETATM    6  C   UNK N   1      22.743  19.868   3.231  0.00  0.00     0.192 A 
HETATM    7  C   UNK N   1      25.777  18.086   4.771  0.00  0.00     0.058 A 
HETATM    8  C   UNK N   1      27.093  18.546   4.621  0.00  0.00     0.070 A 
HETATM    9  C   UNK N   1      26.290  20.468   3.309  0.00  0.00     0.034 A 
HETATM   10  C   UNK N   1      27.346  19.739   3.892  0.00  0.00     0.039 A 
ENDROOT
BRANCH   6  11
HETATM   11  S   UNK N   1      21.104  20.230   2.626  0.00  0.00     0.279 S 
HETATM   12  O   UNK N   1      21.123  21.391   1.620  0.00  0.00    -0.199 OA
HETATM   13  O   UNK N   1      20.159  20.770   3.710  0.00  0.00    -0.199 OA
BRANCH  11  14
HETATM   14  N   UNK N   1      20.208  18.945   1.815  0.00  0.00    -0.323 N 
HETATM   15  H   UNK N   1      19.682  18.100   2.038  0.00  0.00     0.169 HD
HETATM   16  H   UNK N   1      20.220  19.094   0.806  0.00  0.00     0.169 HD
ENDBRANCH  11  14
ENDBRANCH   6  11
BRANCH   8  17
HETATM   17  O   UNK N   1      28.094  17.825   5.180  0.00  0.00    -0.351 OA
BRANCH  17  18
HETATM   18  C   UNK N   1      28.099  17.424   6.494  0.00  0.00     0.171 C 
HETATM   19  C   UNK N   1      28.411  18.618   7.373  0.00  0.00     0.034 C 
ENDBRANCH  17  18
ENDBRANCH   8  17
TORSDOF 4
ENDMDL
MODEL 3
REMARK VINA RESULT:      -5.5      5.356      7.345
REMARK  4 active torsions:
REMARK  status: ('A' for Active; 'I' for Inactive)
REMARK    1  A    between atoms: S_1  and  N_8 
REMARK    2  A    between atoms: S_1  and  C_11 
REMARK    3  A    between atoms: O_3  and  C_13 
REMARK    4  A    between atoms: O_3  and  C_16 
ROOT
HETATM    1  S   UNK N   1      31.843  17.041   6.773  0.00  0.00    -0.057 SA
HETATM    2  N   UNK N   1      31.548  17.824   9.110  0.00  0.00    -0.339 N 
ATOM      3  HN  UNK N   1      31.722  18.155  10.059  1.00  0.00     0.167 HD
HETATM    4  C   UNK N   1      30.280  17.127   7.269  0.00  0.00     0.037 A 
HETATM    5  C   UNK N   1      30.294  17.581   8.587  0.00  0.00     0.051 A 
HETATM    6  C   UNK N   1      32.522  17.564   8.192  0.00  0.00     0.192 A 
HETATM    7  C   UNK N   1      29.111  16.805   6.598  0.00  0.00     0.058 A 
HETATM    8  C   UNK N   1      27.897  16.945   7.284  0.00  0.00     0.070 A 
HETATM    9  C   UNK N   1      29.097  17.735   9.284  0.00  0.00     0.034 A 
HETATM   10  C   UNK N   1      27.893  17.414   8.626  0.00  0.00     0.039 A 
ENDROOT
BRANCH   6  11
HETATM   11  S   UNK N   1      34.276  17.640   8.512  0.00  0.00     0.279 S 
HETATM   12  O   UNK N   1      34.826  19.055   8.276  0.00  0.00    -0.199 OA
HETATM   13  O   UNK N   1      35.112  16.809   7.527  0.00  0.00    -0.199 OA
BRANCH  11  14
HETATM   14  N   UNK N   1      34.854  17.193  10.118  0.00  0.00    -0.323 N 
HETATM   15  H   UNK N   1      35.211  17.630  10.968  0.00  0.00     0.169 HD
HETATM   16  H   UNK N   1      34.822  16.180  10.232  0.00  0.00     0.169 HD
ENDBRANCH  11  14
ENDBRANCH   6  11
BRANCH   8  17
HETATM   17  O   UNK N   1      26.752  16.622   6.639  0.00  0.00    -0.351 OA
BRANCH  17  18
HETATM   18  C   UNK N   1      26.469  15.359   6.179  0.00  0.00     0.171 C 
HETATM   19  C   UNK N   1      25.378  14.753   7.039  0.00  0.00     0.034 C 
ENDBRANCH  17  18
ENDBRANCH   8  17
TORSDOF 4
ENDMDL
MODEL 4
REMARK VINA RESULT:      -5.5      1.393      1.996
REMARK  4 active torsions:
REMARK  status: ('A' for Active; 'I' for Inactive)
REMARK    1  A    between atoms: S_1  and  N_8 
REMARK    2  A    between atoms: S_1  and  C_11 
REMARK    3  A    between atoms: O_3  and  C_13 
REMARK    4  A    between atoms: O_3  and  C_16 
ROOT
HETATM    1  S   UNK N   1      35.393  16.768  10.781  0.00  0.00    -0.057 SA
HETATM    2  N   UNK N   1      34.462  15.218   9.080  0.00  0.00    -0.339 N 
ATOM      3  HN  UNK N   1      34.046  14.834   8.231  1.00  0.00     0.167 HD
HETATM    4  C   UNK N   1      35.381  15.189  11.233  0.00  0.00     0.037 A 
HETATM    5  C   UNK N   1      34.836  14.465  10.174  0.00  0.00     0.051 A 
HETATM    6  C   UNK N   1      34.721  16.541   9.282  0.00  0.00     0.192 A 
HETATM    7  C   UNK N   1      35.782  14.597  12.420  0.00  0.00     0.058 A 
HETATM    8  C   UNK N   1      35.628  13.210  12.550  0.00  0.00     0.070 A 
HETATM    9  C   UNK N   1      34.682  13.084  10.280  0.00  0.00     0.034 A 
HETATM   10  C   UNK N   1      35.081  12.455  11.477  0.00  0.00     0.039 A 
ENDROOT
BRANCH   6  11
HETATM   11  S   UNK N   1      34.278  17.854   8.157  0.00  0.00     0.279 S 
HETATM   12  O   UNK N   1      34.660  17.503   6.711  0.00  0.00    -0.199 OA
HETATM   13  O   UNK N   1      35.073  19.148   8.387  0.00  0.00    -0.199 OA
BRANCH  11  14
HETATM   14  N   UNK N   1      32.587  18.347   8.071  0.00  0.00    -0.323 N 
HETATM   15  H   UNK N   1      31.904  18.890   8.600  0.00  0.00     0.169 HD
HETATM   16  H   UNK N   1      32.155  17.970   7.227  0.00  0.00     0.169 HD
ENDBRANCH  11  14
ENDBRANCH   6  11
BRANCH   8  17
HETATM   17  O   UNK N   1      36.007  12.627  13.711  0.00  0.00    -0.351 OA
BRANCH  17  18
HETATM   18  C   UNK N   1      36.139  13.309  14.897  0.00  0.00     0.171 C 
HETATM   19  C   UNK N   1      35.227  12.681  15.931  0.00  0.00     0.034 C 
ENDBRANCH  17  18
ENDBRANCH   8  17
TORSDOF 4
ENDMDL
MODEL 5
REMARK VINA RESULT:      -5.4      5.715      8.545
REMARK  4 active torsions:
REMARK  status: ('A' for Active; 'I' for Inactive)
REMARK    1  A    between atoms: S_1  and  N_8 
REMARK    2  A    between atoms: S_1  and  C_11 
REMARK    3  A    between atoms: O_3  and  C_13 
REMARK    4  A    between atoms: O_3  and  C_16 
ROOT
HETATM    1  S   UNK N   1      31.180  16.102   6.958  0.00  0.00    -0.057 SA
HETATM    2  N   UNK N   1      30.958  16.774   9.338  0.00  0.00    -0.339 N 
ATOM      3  HN  UNK N   1      31.089  16.857  10.346  1.00  0.00     0.167 HD
HETATM    4  C   UNK N   1      29.998  17.206   7.246  0.00  0.00     0.037 A 
HETATM    5  C   UNK N   1      30.012  17.472   8.614  0.00  0.00     0.051 A 
HETATM    6  C   UNK N   1      31.694  15.961   8.528  0.00  0.00     0.192 A 
HETATM    7  C   UNK N   1      29.094  17.795   6.376  0.00  0.00     0.058 A 
HETATM    8  C   UNK N   1      28.157  18.693   6.907  0.00  0.00     0.070 A 
HETATM    9  C   UNK N   1      29.095  18.368   9.160  0.00  0.00     0.034 A 
HETATM   10  C   UNK N   1      28.162  18.980   8.299  0.00  0.00     0.039 A 
ENDROOT
BRANCH   6  11
HETATM   11  S   UNK N   1      32.937  14.811   9.090  0.00  0.00     0.279 S 
HETATM   12  O   UNK N   1      34.239  14.957   8.287  0.00  0.00    -0.199 OA
HETATM   13  O   UNK N   1      32.571  13.342   8.829  0.00  0.00    -0.199 OA
BRANCH  11  14
HETATM   14  N   UNK N   1      33.439  14.880  10.779  0.00  0.00    -0.323 N 
HETATM   15  H   UNK N   1      33.355  15.488  11.594  0.00  0.00     0.169 HD
HETATM   16  H   UNK N   1      33.987  14.052  11.016  0.00  0.00     0.169 HD
ENDBRANCH  11  14
ENDBRANCH   6  11
BRANCH   8  17
HETATM   17  O   UNK N   1      27.264  19.263   6.064  0.00  0.00    -0.351 OA
BRANCH  17  18
HETATM   18  C   UNK N   1      27.524  20.399   5.337  0.00  0.00     0.171 C 
HETATM   19  C   UNK N   1      27.062  21.607   6.126  0.00  0.00     0.034 C 
ENDBRANCH  17  18
ENDBRANCH   8  17
TORSDOF 4
ENDMDL
MODEL 6
REMARK VINA RESULT:      -5.2      4.762      7.831
REMARK  4 active torsions:
REMARK  status: ('A' for Active; 'I' for Inactive)
REMARK    1  A    between atoms: S_1  and  N_8 
REMARK    2  A    between atoms: S_1  and  C_11 
REMARK    3  A    between atoms: O_3  and  C_13 
REMARK    4  A    between atoms: O_3  and  C_16 
ROOT
HETATM    1  S   UNK N   1      32.088  16.390   8.524  0.00  0.00    -0.057 SA
HETATM    2  N   UNK N   1      34.105  16.770   7.127  0.00  0.00    -0.339 N 
ATOM      3  HN  UNK N   1      35.069  16.853   6.805  1.00  0.00     0.167 HD
HETATM    4  C   UNK N   1      31.769  16.847   6.979  0.00  0.00     0.037 A 
HETATM    5  C   UNK N   1      32.997  17.014   6.340  0.00  0.00     0.051 A 
HETATM    6  C   UNK N   1      33.741  16.405   8.389  0.00  0.00     0.192 A 
HETATM    7  C   UNK N   1      30.558  17.079   6.348  0.00  0.00     0.058 A 
HETATM    8  C   UNK N   1      30.580  17.499   5.011  0.00  0.00     0.070 A 
HETATM    9  C   UNK N   1      33.041  17.423   5.009  0.00  0.00     0.034 A 
HETATM   10  C   UNK N   1      31.823  17.667   4.343  0.00  0.00     0.039 A 
ENDROOT
BRANCH   6  11
HETATM   11  S   UNK N   1      34.873  16.119   9.738  0.00  0.00     0.279 S 
HETATM   12  O   UNK N   1      35.557  17.421  10.180  0.00  0.00    -0.199 OA
HETATM   13  O   UNK N   1      36.078  15.248   9.349  0.00  0.00    -0.199 OA
BRANCH  11  14
HETATM   14  N   UNK N   1      34.241  15.414  11.226  0.00  0.00    -0.323 N 
HETATM   15  H   UNK N   1      33.782  14.564  11.553  0.00  0.00     0.169 HD
HETATM   16  H   UNK N   1      34.378  16.059  12.004  0.00  0.00     0.169 HD
ENDBRANCH  11  14
ENDBRANCH   6  11
BRANCH   8  17
HETATM   17  O   UNK N   1      29.400  17.738   4.392  0.00  0.00    -0.351 OA
BRANCH  17  18
HETATM   18  C   UNK N   1      28.305  18.276   5.025  0.00  0.00     0.171 C 
HETATM   19  C   UNK N   1      27.697  19.343   4.138  0.00  0.00     0.034 C 
ENDBRANCH  17  18
ENDBRANCH   8  17
TORSDOF 4
ENDMDL
MODEL 7
REMARK VINA RESULT:      -5.2      3.347      4.453
REMARK  4 active torsions:
REMARK  status: ('A' for Active; 'I' for Inactive)
REMARK    1  A    between atoms: S_1  and  N_8 
REMARK    2  A    between atoms: S_1  and  C_11 
REMARK    3  A    between atoms: O_3  and  C_13 
REMARK    4  A    between atoms: O_3  and  C_16 
ROOT
HETATM    1  S   UNK N   1      36.225  14.248  13.609  0.00  0.00    -0.057 SA
HETATM    2  N   UNK N   1      34.668  12.877  12.246  0.00  0.00    -0.339 N 
ATOM      3  HN  UNK N   1      34.090  12.521  11.485  1.00  0.00     0.167 HD
HETATM    4  C   UNK N   1      35.608  12.941  14.390  0.00  0.00     0.037 A 
HETATM    5  C   UNK N   1      34.766  12.289  13.492  0.00  0.00     0.051 A 
HETATM    6  C   UNK N   1      35.443  13.996  12.169  0.00  0.00     0.192 A 
HETATM    7  C   UNK N   1      35.800  12.506  15.691  0.00  0.00     0.058 A 
HETATM    8  C   UNK N   1      35.112  11.359  16.111  0.00  0.00     0.070 A 
HETATM    9  C   UNK N   1      34.080  11.142  13.886  0.00  0.00     0.034 A 
HETATM   10  C   UNK N   1      34.255  10.677  15.205  0.00  0.00     0.039 A 
ENDROOT
BRANCH   6  11
HETATM   11  S   UNK N   1      35.504  15.104  10.772  0.00  0.00     0.279 S 
HETATM   12  O   UNK N   1      35.981  14.380   9.504  0.00  0.00    -0.199 OA
HETATM   13  O   UNK N   1      36.559  16.211  10.917  0.00  0.00    -0.199 OA
BRANCH  11  14
HETATM   14  N   UNK N   1      34.019  15.926  10.291  0.00  0.00    -0.323 N 
HETATM   15  H   UNK N   1      33.055  16.042  10.603  0.00  0.00     0.169 HD
HETATM   16  H   UNK N   1      34.173  16.451   9.430  0.00  0.00     0.169 HD
ENDBRANCH  11  14
ENDBRANCH   6  11
BRANCH   8  17
HETATM   17  O   UNK N   1      35.286  10.934  17.384  0.00  0.00    -0.351 OA
BRANCH  17  18
HETATM   18  C   UNK N   1      36.233  10.010  17.755  0.00  0.00     0.171 C 
HETATM   19  C   UNK N   1      36.543  10.184  19.227  0.00  0.00     0.034 C 
ENDBRANCH  17  18
ENDBRANCH   8  17
TORSDOF 4
ENDMDL
MODEL 8
REMARK VINA RESULT:      -5.2     20.470     21.651
REMARK  4 active torsions:
REMARK  status: ('A' for Active; 'I' for Inactive)
REMARK    1  A    between atoms: S_1  and  N_8 
REMARK    2  A    between atoms: S_1  and  C_11 
REMARK    3  A    between atoms: O_3  and  C_13 
REMARK    4  A    between atoms: O_3  and  C_16 
ROOT
HETATM    1  S   UNK N   1      26.764  23.918  -5.031  0.00  0.00    -0.057 SA
HETATM    2  N   UNK N   1      25.139  24.982  -6.576  0.00  0.00    -0.339 N 
ATOM      3  HN  UNK N   1      24.492  25.156  -7.345  1.00  0.00     0.167 HD
HETATM    4  C   UNK N   1      26.366  25.463  -4.641  0.00  0.00     0.037 A 
HETATM    5  C   UNK N   1      25.453  25.903  -5.597  0.00  0.00     0.051 A 
HETATM    6  C   UNK N   1      25.806  23.810  -6.380  0.00  0.00     0.192 A 
HETATM    7  C   UNK N   1      26.815  26.267  -3.606  0.00  0.00     0.058 A 
HETATM    8  C   UNK N   1      26.325  27.578  -3.528  0.00  0.00     0.070 A 
HETATM    9  C   UNK N   1      24.948  27.200  -5.533  0.00  0.00     0.034 A 
HETATM   10  C   UNK N   1      25.388  28.041  -4.492  0.00  0.00     0.039 A 
ENDROOT
BRANCH   6  11
HETATM   11  S   UNK N   1      25.765  22.411  -7.487  0.00  0.00     0.279 S 
HETATM   12  O   UNK N   1      25.226  22.808  -8.870  0.00  0.00    -0.199 OA
HETATM   13  O   UNK N   1      24.765  21.326  -7.061  0.00  0.00    -0.199 OA
BRANCH  11  14
HETATM   14  N   UNK N   1      27.274  21.560  -7.818  0.00  0.00    -0.323 N 
HETATM   15  H   UNK N   1      27.781  20.726  -7.520  0.00  0.00     0.169 HD
HETATM   16  H   UNK N   1      27.807  22.058  -8.530  0.00  0.00     0.169 HD
ENDBRANCH  11  14
ENDBRANCH   6  11
BRANCH   8  17
HETATM   17  O   UNK N   1      26.769  28.372  -2.526  0.00  0.00    -0.351 OA
BRANCH  17  18
HETATM   18  C   UNK N   1      27.969  29.039  -2.560  0.00  0.00     0.171 C 
HETATM   19  C   UNK N   1      28.049  29.973  -1.369  0.00  0.00     0.034 C 
ENDBRANCH  17  18
ENDBRANCH   8  17
TORSDOF 4
ENDMDL
MODEL 9
REMARK VINA RESULT:      -5.1     16.995     17.625
REMARK  4 active torsions:
REMARK  status: ('A' for Active; 'I' for Inactive)
REMARK    1  A    between atoms: S_1  and  N_8 
REMARK    2  A    between atoms: S_1  and  C_11 
REMARK    3  A    between atoms: O_3  and  C_13 
REMARK    4  A    between atoms: O_3  and  C_16 
ROOT
HETATM    1  S   UNK N   1      20.775  17.508   2.982  0.00  0.00    -0.057 SA
HETATM    2  N   UNK N   1      19.991  18.081   0.697  0.00  0.00    -0.339 N 
ATOM      3  HN  UNK N   1      19.764  18.584  -0.160  1.00  0.00     0.167 HD
HETATM    4  C   UNK N   1      20.132  16.247   2.147  0.00  0.00     0.037 A 
HETATM    5  C   UNK N   1      19.750  16.736   0.899  0.00  0.00     0.051 A 
HETATM    6  C   UNK N   1      20.572  18.646   1.793  0.00  0.00     0.192 A 
HETATM    7  C   UNK N   1      19.936  14.930   2.529  0.00  0.00     0.058 A 
HETATM    8  C   UNK N   1      19.326  14.061   1.614  0.00  0.00     0.070 A 
HETATM    9  C   UNK N   1      19.150  15.888  -0.028  0.00  0.00     0.034 A 
HETATM   10  C   UNK N   1      18.937  14.542   0.334  0.00  0.00     0.039 A 
ENDROOT
BRANCH   6  11
HETATM   11  S   UNK N   1      20.934  20.383   1.978  0.00  0.00     0.279 S 
HETATM   12  O   UNK N   1      22.449  20.642   1.971  0.00  0.00    -0.199 OA
HETATM   13  O   UNK N   1      20.525  20.950   3.346  0.00  0.00    -0.199 OA
BRANCH  11  14
HETATM   14  N   UNK N   1      20.280  21.506   0.786  0.00  0.00    -0.323 N 
HETATM   15  H   UNK N   1      20.039  22.493   0.693  0.00  0.00     0.169 HD
HETATM   16  H   UNK N   1      20.079  21.014  -0.085  0.00  0.00     0.169 HD
ENDBRANCH  11  14
ENDBRANCH   6  11
BRANCH   8  17
HETATM   17  O   UNK N   1      19.121  12.776   1.985  0.00  0.00    -0.351 OA
BRANCH  17  18
HETATM   18  C   UNK N   1      20.108  11.821   1.993  0.00  0.00     0.171 C 
HETATM   19  C   UNK N   1      20.067  11.058   0.684  0.00  0.00     0.034 C 
ENDBRANCH  17  18
ENDBRANCH   8  17
TORSDOF 4
ENDMDL
