MODEL 1
REMARK VINA RESULT:      -6.9      0.000      0.000
REMARK  5 active torsions:
REMARK  status: ('A' for Active; 'I' for Inactive)
REMARK    1  A    between atoms: O_2  and  C_13 
REMARK    2  A    between atoms: O_3  and  C_17 
REMARK    3  A    between atoms: N_6  and  C_12 
REMARK    4  A    between atoms: C_7  and  C_9 
REMARK    5  A    between atoms: C_8  and  C_9 
ROOT
HETATM    1  C   UNK N   1      32.386  16.527   7.727  0.00  0.00     0.020 A 
HETATM    2  C   UNK N   1      32.759  15.571   8.677  0.00  0.00     0.054 A 
HETATM    3  C   UNK N   1      33.132  17.708   7.634  0.00  0.00     0.055 A 
HETATM    4  C   UNK N   1      33.856  15.774   9.527  0.00  0.00     0.139 A 
HETATM    5  C   UNK N   1      34.226  17.935   8.464  0.00  0.00     0.102 A 
HETATM    6  C   UNK N   1      34.598  16.977   9.414  0.00  0.00     0.132 A 
ENDROOT
BRANCH   1   7
HETATM    7  C   UNK N   1      31.209  16.261   6.846  0.00  0.00     0.192 C 
HETATM    8  O   UNK N   1      31.149  15.186   6.263  0.00  0.00    -0.287 OA
BRANCH   7   9
HETATM    9  C   UNK N   1      30.102  17.242   6.642  0.00  0.00     0.015 A 
HETATM   10  C   UNK N   1      29.658  17.589   5.357  0.00  0.00     0.016 A 
HETATM   11  C   UNK N   1      28.624  18.505   5.180  0.00  0.00     0.007 A 
HETATM   12  C   UNK N   1      28.017  19.091   6.288  0.00  0.00    -0.062 A 
HETATM   13  C   UNK N   1      28.446  18.759   7.577  0.00  0.00     0.007 A 
HETATM   14  C   UNK N   1      26.916  20.067   6.095  0.00  0.00     0.048 C 
HETATM   15  C   UNK N   1      29.483  17.838   7.753  0.00  0.00     0.016 A 
ENDBRANCH   7   9
ENDBRANCH   1   7
BRANCH   4  16
HETATM   16  N   UNK N   1      34.189  14.762  10.476  0.00  0.00    -0.113 N 
HETATM   17  O   UNK N   1      34.450  13.538  10.065  0.00  0.00    -0.532 OA
HETATM   18  O   UNK N   1      34.235  15.006  11.643  0.00  0.00    -0.532 OA
ENDBRANCH   4  16
BRANCH   5  19
HETATM   19  O   UNK N   1      34.920  19.081   8.346  0.00  0.00    -0.358 OA
HETATM   20  H   UNK N   1      34.491  19.904   8.476  0.00  0.00     0.217 HD
ENDBRANCH   5  19
BRANCH   6  21
HETATM   21  O   UNK N   1      35.657  17.215  10.208  0.00  0.00    -0.356 OA
HETATM   22  H   UNK N   1      36.516  16.953   9.936  0.00  0.00     0.218 HD
ENDBRANCH   6  21
TORSDOF 5
ENDMDL
MODEL 2
REMARK VINA RESULT:      -6.9     10.919     12.978
REMARK  5 active torsions:
REMARK  status: ('A' for Active; 'I' for Inactive)
REMARK    1  A    between atoms: O_2  and  C_13 
REMARK    2  A    between atoms: O_3  and  C_17 
REMARK    3  A    between atoms: N_6  and  C_12 
REMARK    4  A    between atoms: C_7  and  C_9 
REMARK    5  A    between atoms: C_8  and  C_9 
ROOT
HETATM    1  C   UNK N   1      20.891  18.030   4.826  0.00  0.00     0.020 A 
HETATM    2  C   UNK N   1      21.298  19.235   4.245  0.00  0.00     0.054 A 
HETATM    3  C   UNK N   1      20.307  17.054   4.009  0.00  0.00     0.055 A 
HETATM    4  C   UNK N   1      21.133  19.478   2.874  0.00  0.00     0.139 A 
HETATM    5  C   UNK N   1      20.131  17.270   2.645  0.00  0.00     0.102 A 
HETATM    6  C   UNK N   1      20.540  18.476   2.066  0.00  0.00     0.132 A 
ENDROOT
BRANCH   1   7
HETATM    7  C   UNK N   1      21.090  17.821   6.292  0.00  0.00     0.192 C 
HETATM    8  O   UNK N   1      21.053  18.799   7.029  0.00  0.00    -0.287 OA
BRANCH   7   9
HETATM    9  C   UNK N   1      21.332  16.481   6.902  0.00  0.00     0.015 A 
HETATM   10  C   UNK N   1      22.493  15.746   6.620  0.00  0.00     0.016 A 
HETATM   11  C   UNK N   1      22.707  14.495   7.197  0.00  0.00     0.007 A 
HETATM   12  C   UNK N   1      21.760  13.960   8.066  0.00  0.00    -0.062 A 
HETATM   13  C   UNK N   1      20.596  14.678   8.359  0.00  0.00     0.007 A 
HETATM   14  C   UNK N   1      21.991  12.628   8.678  0.00  0.00     0.048 C 
HETATM   15  C   UNK N   1      20.383  15.933   7.781  0.00  0.00     0.016 A 
ENDBRANCH   7   9
ENDBRANCH   1   7
BRANCH   4  16
HETATM   16  N   UNK N   1      21.568  20.728   2.338  0.00  0.00    -0.113 N 
HETATM   17  O   UNK N   1      20.897  21.287   1.352  0.00  0.00    -0.532 OA
HETATM   18  O   UNK N   1      22.535  21.278   2.770  0.00  0.00    -0.532 OA
ENDBRANCH   4  16
BRANCH   5  19
HETATM   19  O   UNK N   1      19.567  16.309   1.891  0.00  0.00    -0.358 OA
HETATM   20  H   UNK N   1      19.247  15.525   2.294  0.00  0.00     0.217 HD
ENDBRANCH   5  19
BRANCH   6  21
HETATM   21  O   UNK N   1      20.361  18.666   0.746  0.00  0.00    -0.356 OA
HETATM   22  H   UNK N   1      20.936  19.234   0.271  0.00  0.00     0.218 HD
ENDBRANCH   6  21
TORSDOF 5
ENDMDL
MODEL 3
REMARK VINA RESULT:      -6.7      2.861      4.526
REMARK  5 active torsions:
REMARK  status: ('A' for Active; 'I' for Inactive)
REMARK    1  A    between atoms: O_2  and  C_13 
REMARK    2  A    between atoms: O_3  and  C_17 
REMARK    3  A    between atoms: N_6  and  C_12 
REMARK    4  A    between atoms: C_7  and  C_9 
REMARK    5  A    between atoms: C_8  and  C_9 
ROOT
HETATM    1  C   UNK N   1      28.995  17.595   6.203  0.00  0.00     0.020 A 
HETATM    2  C   UNK N   1      30.274  17.172   6.576  0.00  0.00     0.054 A 
HETATM    3  C   UNK N   1      28.069  17.901   7.207  0.00  0.00     0.055 A 
HETATM    4  C   UNK N   1      30.639  17.051   7.925  0.00  0.00     0.139 A 
HETATM    5  C   UNK N   1      28.405  17.790   8.553  0.00  0.00     0.102 A 
HETATM    6  C   UNK N   1      29.685  17.367   8.925  0.00  0.00     0.132 A 
ENDROOT
BRANCH   1   7
HETATM    7  C   UNK N   1      28.657  17.707   4.751  0.00  0.00     0.192 C 
HETATM    8  O   UNK N   1      29.387  17.152   3.939  0.00  0.00    -0.287 OA
BRANCH   7   9
HETATM    9  C   UNK N   1      27.474  18.462   4.243  0.00  0.00     0.015 A 
HETATM   10  C   UNK N   1      27.533  19.843   4.001  0.00  0.00     0.016 A 
HETATM   11  C   UNK N   1      26.421  20.535   3.526  0.00  0.00     0.007 A 
HETATM   12  C   UNK N   1      25.230  19.855   3.285  0.00  0.00    -0.062 A 
HETATM   13  C   UNK N   1      25.151  18.479   3.519  0.00  0.00     0.007 A 
HETATM   14  C   UNK N   1      24.048  20.596   2.779  0.00  0.00     0.048 C 
HETATM   15  C   UNK N   1      26.268  17.785   3.995  0.00  0.00     0.016 A 
ENDBRANCH   7   9
ENDBRANCH   1   7
BRANCH   4  16
HETATM   16  N   UNK N   1      31.960  16.615   8.245  0.00  0.00    -0.113 N 
HETATM   17  O   UNK N   1      32.329  15.383   7.961  0.00  0.00    -0.532 OA
HETATM   18  O   UNK N   1      32.740  17.350   8.768  0.00  0.00    -0.532 OA
ENDBRANCH   4  16
BRANCH   5  19
HETATM   19  O   UNK N   1      27.488  18.093   9.490  0.00  0.00    -0.358 OA
HETATM   20  H   UNK N   1      27.232  18.984   9.624  0.00  0.00     0.217 HD
ENDBRANCH   5  19
BRANCH   6  21
HETATM   21  O   UNK N   1      29.991  17.265  10.231  0.00  0.00    -0.356 OA
HETATM   22  H   UNK N   1      29.664  17.899  10.840  0.00  0.00     0.218 HD
ENDBRANCH   6  21
TORSDOF 5
ENDMDL
MODEL 4
REMARK VINA RESULT:      -6.7      2.423      3.679
REMARK  5 active torsions:
REMARK  status: ('A' for Active; 'I' for Inactive)
REMARK    1  A    between atoms: O_2  and  C_13 
REMARK    2  A    between atoms: O_3  and  C_17 
REMARK    3  A    between atoms: N_6  and  C_12 
REMARK    4  A    between atoms: C_7  and  C_9 
REMARK    5  A    between atoms: C_8  and  C_9 
ROOT
HETATM    1  C   UNK N   1      30.419  17.092   5.826  0.00  0.00     0.020 A 
HETATM    2  C   UNK N   1      31.807  17.215   5.708  0.00  0.00     0.054 A 
HETATM    3  C   UNK N   1      29.852  17.068   7.106  0.00  0.00     0.055 A 
HETATM    4  C   UNK N   1      32.630  17.314   6.840  0.00  0.00     0.139 A 
HETATM    5  C   UNK N   1      30.646  17.165   8.245  0.00  0.00     0.102 A 
HETATM    6  C   UNK N   1      32.035  17.288   8.126  0.00  0.00     0.132 A 
ENDROOT
BRANCH   1   7
HETATM    7  C   UNK N   1      29.586  16.990   4.589  0.00  0.00     0.192 C 
HETATM    8  O   UNK N   1      29.911  16.174   3.736  0.00  0.00    -0.287 OA
BRANCH   7   9
HETATM    9  C   UNK N   1      28.380  17.832   4.343  0.00  0.00     0.015 A 
HETATM   10  C   UNK N   1      27.182  17.278   3.866  0.00  0.00     0.016 A 
HETATM   11  C   UNK N   1      26.063  18.076   3.640  0.00  0.00     0.007 A 
HETATM   12  C   UNK N   1      26.124  19.445   3.889  0.00  0.00    -0.062 A 
HETATM   13  C   UNK N   1      27.309  20.017   4.366  0.00  0.00     0.007 A 
HETATM   14  C   UNK N   1      24.930  20.292   3.648  0.00  0.00     0.048 C 
HETATM   15  C   UNK N   1      28.431  19.214   4.593  0.00  0.00     0.016 A 
ENDBRANCH   7   9
ENDBRANCH   1   7
BRANCH   4  16
HETATM   16  N   UNK N   1      34.040  17.437   6.656  0.00  0.00    -0.113 N 
HETATM   17  O   UNK N   1      34.677  16.584   5.881  0.00  0.00    -0.532 OA
HETATM   18  O   UNK N   1      34.656  18.305   7.196  0.00  0.00    -0.532 OA
ENDBRANCH   4  16
BRANCH   5  19
HETATM   19  O   UNK N   1      30.067  17.139   9.460  0.00  0.00    -0.358 OA
HETATM   20  H   UNK N   1      29.696  16.342   9.784  0.00  0.00     0.217 HD
ENDBRANCH   5  19
BRANCH   6  21
HETATM   21  O   UNK N   1      32.785  17.380   9.239  0.00  0.00    -0.356 OA
HETATM   22  H   UNK N   1      32.449  17.818   9.996  0.00  0.00     0.218 HD
ENDBRANCH   6  21
TORSDOF 5
ENDMDL
MODEL 5
REMARK VINA RESULT:      -6.6      1.786      2.957
REMARK  5 active torsions:
REMARK  status: ('A' for Active; 'I' for Inactive)
REMARK    1  A    between atoms: O_2  and  C_13 
REMARK    2  A    between atoms: O_3  and  C_17 
REMARK    3  A    between atoms: N_6  and  C_12 
REMARK    4  A    between atoms: C_7  and  C_9 
REMARK    5  A    between atoms: C_8  and  C_9 
ROOT
HETATM    1  C   UNK N   1      31.207  16.963   7.792  0.00  0.00     0.020 A 
HETATM    2  C   UNK N   1      32.278  17.686   8.327  0.00  0.00     0.054 A 
HETATM    3  C   UNK N   1      31.480  15.792   7.074  0.00  0.00     0.055 A 
HETATM    4  C   UNK N   1      33.604  17.262   8.158  0.00  0.00     0.139 A 
HETATM    5  C   UNK N   1      32.786  15.348   6.892  0.00  0.00     0.102 A 
HETATM    6  C   UNK N   1      33.856  16.073   7.428  0.00  0.00     0.132 A 
ENDROOT
BRANCH   1   7
HETATM    7  C   UNK N   1      29.813  17.458   8.001  0.00  0.00     0.192 C 
HETATM    8  O   UNK N   1      29.282  17.261   9.087  0.00  0.00    -0.287 OA
BRANCH   7   9
HETATM    9  C   UNK N   1      29.036  18.181   6.952  0.00  0.00     0.015 A 
HETATM   10  C   UNK N   1      29.137  17.836   5.596  0.00  0.00     0.016 A 
HETATM   11  C   UNK N   1      28.405  18.519   4.627  0.00  0.00     0.007 A 
HETATM   12  C   UNK N   1      27.559  19.560   5.000  0.00  0.00    -0.062 A 
HETATM   13  C   UNK N   1      27.445  19.919   6.347  0.00  0.00     0.007 A 
HETATM   14  C   UNK N   1      26.781  20.285   3.965  0.00  0.00     0.048 C 
HETATM   15  C   UNK N   1      28.179  19.232   7.319  0.00  0.00     0.016 A 
ENDBRANCH   7   9
ENDBRANCH   1   7
BRANCH   4  16
HETATM   16  N   UNK N   1      34.655  18.042   8.727  0.00  0.00    -0.113 N 
HETATM   17  O   UNK N   1      35.343  17.570   9.746  0.00  0.00    -0.532 OA
HETATM   18  O   UNK N   1      34.923  19.121   8.293  0.00  0.00    -0.532 OA
ENDBRANCH   4  16
BRANCH   5  19
HETATM   19  O   UNK N   1      33.010  14.218   6.196  0.00  0.00    -0.358 OA
HETATM   20  H   UNK N   1      33.624  13.587   6.514  0.00  0.00     0.217 HD
ENDBRANCH   5  19
BRANCH   6  21
HETATM   21  O   UNK N   1      35.112  15.628   7.240  0.00  0.00    -0.356 OA
HETATM   22  H   UNK N   1      35.326  14.735   7.428  0.00  0.00     0.218 HD
ENDBRANCH   6  21
TORSDOF 5
ENDMDL
MODEL 6
REMARK VINA RESULT:      -6.6     12.212     14.459
REMARK  5 active torsions:
REMARK  status: ('A' for Active; 'I' for Inactive)
REMARK    1  A    between atoms: O_2  and  C_13 
REMARK    2  A    between atoms: O_3  and  C_17 
REMARK    3  A    between atoms: N_6  and  C_12 
REMARK    4  A    between atoms: C_7  and  C_9 
REMARK    5  A    between atoms: C_8  and  C_9 
ROOT
HETATM    1  C   UNK N   1      29.687  22.415  -4.975  0.00  0.00     0.020 A 
HETATM    2  C   UNK N   1      30.741  21.565  -5.324  0.00  0.00     0.054 A 
HETATM    3  C   UNK N   1      29.613  22.890  -3.660  0.00  0.00     0.055 A 
HETATM    4  C   UNK N   1      31.714  21.186  -4.388  0.00  0.00     0.139 A 
HETATM    5  C   UNK N   1      30.566  22.529  -2.712  0.00  0.00     0.102 A 
HETATM    6  C   UNK N   1      31.620  21.679  -3.062  0.00  0.00     0.132 A 
ENDROOT
BRANCH   1   7
HETATM    7  C   UNK N   1      28.676  22.789  -6.010  0.00  0.00     0.192 C 
HETATM    8  O   UNK N   1      28.625  22.127  -7.040  0.00  0.00    -0.287 OA
BRANCH   7   9
HETATM    9  C   UNK N   1      27.725  23.928  -5.852  0.00  0.00     0.015 A 
HETATM   10  C   UNK N   1      26.413  23.730  -5.396  0.00  0.00     0.016 A 
HETATM   11  C   UNK N   1      25.535  24.802  -5.252  0.00  0.00     0.007 A 
HETATM   12  C   UNK N   1      25.957  26.092  -5.563  0.00  0.00    -0.062 A 
HETATM   13  C   UNK N   1      27.261  26.310  -6.020  0.00  0.00     0.007 A 
HETATM   14  C   UNK N   1      25.019  27.232  -5.409  0.00  0.00     0.048 C 
HETATM   15  C   UNK N   1      28.141  25.233  -6.162  0.00  0.00     0.016 A 
ENDBRANCH   7   9
ENDBRANCH   1   7
BRANCH   4  16
HETATM   16  N   UNK N   1      32.767  20.316  -4.803  0.00  0.00    -0.113 N 
HETATM   17  O   UNK N   1      33.506  20.634  -5.846  0.00  0.00    -0.532 OA
HETATM   18  O   UNK N   1      32.991  19.301  -4.218  0.00  0.00    -0.532 OA
ENDBRANCH   4  16
BRANCH   5  19
HETATM   19  O   UNK N   1      30.463  23.005  -1.457  0.00  0.00    -0.358 OA
HETATM   20  H   UNK N   1      30.138  22.454  -0.773  0.00  0.00     0.217 HD
ENDBRANCH   5  19
BRANCH   6  21
HETATM   21  O   UNK N   1      32.531  21.342  -2.131  0.00  0.00    -0.356 OA
HETATM   22  H   UNK N   1      33.352  21.792  -2.094  0.00  0.00     0.218 HD
ENDBRANCH   6  21
TORSDOF 5
ENDMDL
MODEL 7
REMARK VINA RESULT:      -6.6      6.329      9.633
REMARK  5 active torsions:
REMARK  status: ('A' for Active; 'I' for Inactive)
REMARK    1  A    between atoms: O_2  and  C_13 
REMARK    2  A    between atoms: O_3  and  C_17 
REMARK    3  A    between atoms: N_6  and  C_12 
REMARK    4  A    between atoms: C_7  and  C_9 
REMARK    5  A    between atoms: C_8  and  C_9 
ROOT
HETATM    1  C   UNK N   1      35.477  12.651  12.832  0.00  0.00     0.020 A 
HETATM    2  C   UNK N   1      34.816  13.746  12.265  0.00  0.00     0.054 A 
HETATM    3  C   UNK N   1      36.806  12.406  12.467  0.00  0.00     0.055 A 
HETATM    4  C   UNK N   1      35.457  14.590  11.347  0.00  0.00     0.139 A 
HETATM    5  C   UNK N   1      37.466  13.228  11.558  0.00  0.00     0.102 A 
HETATM    6  C   UNK N   1      36.803  14.323  10.992  0.00  0.00     0.132 A 
ENDROOT
BRANCH   1   7
HETATM    7  C   UNK N   1      34.749  11.782  13.805  0.00  0.00     0.192 C 
HETATM    8  O   UNK N   1      33.981  10.934  13.367  0.00  0.00    -0.287 OA
BRANCH   7   9
HETATM    9  C   UNK N   1      34.910  11.896  15.284  0.00  0.00     0.015 A 
HETATM   10  C   UNK N   1      34.810  13.132  15.940  0.00  0.00     0.016 A 
HETATM   11  C   UNK N   1      34.963  13.224  17.322  0.00  0.00     0.007 A 
HETATM   12  C   UNK N   1      35.219  12.078  18.071  0.00  0.00    -0.062 A 
HETATM   13  C   UNK N   1      35.323  10.837  17.435  0.00  0.00     0.007 A 
HETATM   14  C   UNK N   1      35.382  12.181  19.542  0.00  0.00     0.048 C 
HETATM   15  C   UNK N   1      35.168  10.745  16.049  0.00  0.00     0.016 A 
ENDBRANCH   7   9
ENDBRANCH   1   7
BRANCH   4  16
HETATM   16  N   UNK N   1      34.731  15.692  10.802  0.00  0.00    -0.113 N 
HETATM   17  O   UNK N   1      35.182  16.918  10.965  0.00  0.00    -0.532 OA
HETATM   18  O   UNK N   1      33.717  15.520  10.197  0.00  0.00    -0.532 OA
ENDBRANCH   4  16
BRANCH   5  19
HETATM   19  O   UNK N   1      38.743  12.962  11.231  0.00  0.00    -0.358 OA
HETATM   20  H   UNK N   1      38.986  12.868  10.331  0.00  0.00     0.217 HD
ENDBRANCH   5  19
BRANCH   6  21
HETATM   21  O   UNK N   1      37.457  15.106  10.116  0.00  0.00    -0.356 OA
HETATM   22  H   UNK N   1      37.013  15.438   9.360  0.00  0.00     0.218 HD
ENDBRANCH   6  21
TORSDOF 5
ENDMDL
MODEL 8
REMARK VINA RESULT:      -6.4      2.925      5.194
REMARK  5 active torsions:
REMARK  status: ('A' for Active; 'I' for Inactive)
REMARK    1  A    between atoms: O_2  and  C_13 
REMARK    2  A    between atoms: O_3  and  C_17 
REMARK    3  A    between atoms: N_6  and  C_12 
REMARK    4  A    between atoms: C_7  and  C_9 
REMARK    5  A    between atoms: C_8  and  C_9 
ROOT
HETATM    1  C   UNK N   1      35.959  15.496  10.737  0.00  0.00     0.020 A 
HETATM    2  C   UNK N   1      35.668  15.153  12.061  0.00  0.00     0.054 A 
HETATM    3  C   UNK N   1      36.858  14.699  10.018  0.00  0.00     0.055 A 
HETATM    4  C   UNK N   1      36.256  14.035  12.672  0.00  0.00     0.139 A 
HETATM    5  C   UNK N   1      37.454  13.584  10.600  0.00  0.00     0.102 A 
HETATM    6  C   UNK N   1      37.162  13.242  11.925  0.00  0.00     0.132 A 
ENDROOT
BRANCH   1   7
HETATM    7  C   UNK N   1      35.307  16.697  10.133  0.00  0.00     0.192 C 
HETATM    8  O   UNK N   1      35.790  17.799  10.362  0.00  0.00    -0.287 OA
BRANCH   7   9
HETATM    9  C   UNK N   1      34.096  16.620   9.265  0.00  0.00     0.015 A 
HETATM   10  C   UNK N   1      33.732  17.677   8.416  0.00  0.00     0.016 A 
HETATM   11  C   UNK N   1      32.599  17.592   7.610  0.00  0.00     0.007 A 
HETATM   12  C   UNK N   1      31.809  16.446   7.641  0.00  0.00    -0.062 A 
HETATM   13  C   UNK N   1      32.154  15.381   8.480  0.00  0.00     0.007 A 
HETATM   14  C   UNK N   1      30.602  16.359   6.781  0.00  0.00     0.048 C 
HETATM   15  C   UNK N   1      33.292  15.467   9.288  0.00  0.00     0.016 A 
ENDBRANCH   7   9
ENDBRANCH   1   7
BRANCH   4  16
HETATM   16  N   UNK N   1      35.920  13.735  14.026  0.00  0.00    -0.113 N 
HETATM   17  O   UNK N   1      36.845  13.800  14.960  0.00  0.00    -0.532 OA
HETATM   18  O   UNK N   1      34.808  13.424  14.329  0.00  0.00    -0.532 OA
ENDBRANCH   4  16
BRANCH   5  19
HETATM   19  O   UNK N   1      38.313  12.841   9.878  0.00  0.00    -0.358 OA
HETATM   20  H   UNK N   1      39.217  12.802  10.122  0.00  0.00     0.217 HD
ENDBRANCH   5  19
BRANCH   6  21
HETATM   21  O   UNK N   1      37.749  12.161  12.470  0.00  0.00    -0.356 OA
HETATM   22  H   UNK N   1      37.654  11.321  12.065  0.00  0.00     0.218 HD
ENDBRANCH   6  21
TORSDOF 5
ENDMDL
MODEL 9
REMARK VINA RESULT:      -6.4      8.042     11.708
REMARK  5 active torsions:
REMARK  status: ('A' for Active; 'I' for Inactive)
REMARK    1  A    between atoms: O_2  and  C_13 
REMARK    2  A    between atoms: O_3  and  C_17 
REMARK    3  A    between atoms: N_6  and  C_12 
REMARK    4  A    between atoms: C_7  and  C_9 
REMARK    5  A    between atoms: C_8  and  C_9 
ROOT
HETATM    1  C   UNK N   1      35.491  12.208  15.382  0.00  0.00     0.020 A 
HETATM    2  C   UNK N   1      34.971  12.327  14.089  0.00  0.00     0.054 A 
HETATM    3  C   UNK N   1      36.396  13.176  15.834  0.00  0.00     0.055 A 
HETATM    4  C   UNK N   1      35.338  13.388  13.249  0.00  0.00     0.139 A 
HETATM    5  C   UNK N   1      36.777  14.240  15.020  0.00  0.00     0.102 A 
HETATM    6  C   UNK N   1      36.255  14.357  13.727  0.00  0.00     0.132 A 
ENDROOT
BRANCH   1   7
HETATM    7  C   UNK N   1      35.067  11.059  16.237  0.00  0.00     0.192 C 
HETATM    8  O   UNK N   1      34.239  10.275  15.790  0.00  0.00    -0.287 OA
BRANCH   7   9
HETATM    9  C   UNK N   1      35.603  10.819  17.609  0.00  0.00     0.015 A 
HETATM   10  C   UNK N   1      35.257  11.646  18.688  0.00  0.00     0.016 A 
HETATM   11  C   UNK N   1      35.765  11.411  19.964  0.00  0.00     0.007 A 
HETATM   12  C   UNK N   1      36.629  10.341  20.181  0.00  0.00    -0.062 A 
HETATM   13  C   UNK N   1      36.987   9.504  19.119  0.00  0.00     0.007 A 
HETATM   14  C   UNK N   1      37.168  10.094  21.542  0.00  0.00     0.048 C 
HETATM   15  C   UNK N   1      36.476   9.741  17.839  0.00  0.00     0.016 A 
ENDBRANCH   7   9
ENDBRANCH   1   7
BRANCH   4  16
HETATM   16  N   UNK N   1      34.773  13.457  11.939  0.00  0.00    -0.113 N 
HETATM   17  O   UNK N   1      34.867  12.421  11.132  0.00  0.00    -0.532 OA
HETATM   18  O   UNK N   1      34.215  14.441  11.562  0.00  0.00    -0.532 OA
ENDBRANCH   4  16
BRANCH   5  19
HETATM   19  O   UNK N   1      37.649  15.151  15.488  0.00  0.00    -0.358 OA
HETATM   20  H   UNK N   1      38.463  15.290  15.046  0.00  0.00     0.217 HD
ENDBRANCH   5  19
BRANCH   6  21
HETATM   21  O   UNK N   1      36.636  15.391  12.956  0.00  0.00    -0.356 OA
HETATM   22  H   UNK N   1      37.461  15.367  12.512  0.00  0.00     0.218 HD
ENDBRANCH   6  21
TORSDOF 5
ENDMDL
