MODEL 1
REMARK VINA RESULT:      -7.9      0.000      0.000
REMARK  11 active torsions:
REMARK  status: ('A' for Active; 'I' for Inactive)
REMARK    1  A    between atoms: O_1  and  C_7 
REMARK    2  A    between atoms: O_2  and  C_19 
REMARK    3  A    between atoms: N_3  and  C_10 
REMARK    4  A    between atoms: C_4  and  C_7 
REMARK    5  A    between atoms: C_7  and  C_11 
REMARK    6  A    between atoms: C_7  and  C_12 
REMARK    7  A    between atoms: C_10  and  C_13 
REMARK    8  A    between atoms: C_13  and  C_14 
REMARK    9  A    between atoms: C_14  and  C_19 
REMARK   10  A    between atoms: C_19  and  C_24 
REMARK   11  A    between atoms: C_27  and  C_28 
ROOT
HETATM    1  N   UNK N   1      31.720  15.960   5.033  0.00  0.00     0.088 N 
HETATM    2  C   UNK N   1      28.885  16.312   4.402  0.00  0.00     0.033 C 
HETATM    3  C   UNK N   1      29.336  15.226   5.364  0.00  0.00     0.038 C 
HETATM    4  C   UNK N   1      29.886  16.263   3.257  0.00  0.00     0.038 C 
HETATM    5  C   UNK N   1      30.661  15.607   5.987  0.00  0.00     0.273 C 
HETATM    6  C   UNK N   1      31.300  16.595   3.762  0.00  0.00     0.273 C 
ENDROOT
BRANCH   1   7
HETATM    7  C   UNK N   1      32.429  17.002   5.765  0.00  0.00     0.272 C 
BRANCH   7   8
HETATM    8  C   UNK N   1      32.233  16.904   7.260  0.00  0.00     0.033 C 
BRANCH   8   9
HETATM    9  C   UNK N   1      32.958  18.029   7.981  0.00  0.00     0.038 C 
BRANCH   9  10
HETATM   10  C   UNK N   1      34.473  17.830   8.004  0.00  0.00     0.151 C 
BRANCH  10  11
HETATM   11  O   UNK N   1      35.065  19.043   8.366  0.00  0.00    -0.391 OA
HETATM   12  H   UNK N   1      35.384  19.669   7.698  0.00  0.00     0.210 HD
ENDBRANCH  10  11
BRANCH  10  13
HETATM   13  C   UNK N   1      34.851  16.731   8.961  0.00  0.00    -0.030 A 
HETATM   14  C   UNK N   1      35.018  17.024  10.320  0.00  0.00     0.010 A 
HETATM   15  C   UNK N   1      35.418  16.034  11.215  0.00  0.00     0.008 A 
HETATM   16  C   UNK N   1      35.660  14.726  10.765  0.00  0.00    -0.051 A 
HETATM   17  C   UNK N   1      35.472  14.428   9.404  0.00  0.00     0.008 A 
HETATM   18  C   UNK N   1      35.066  15.422   8.510  0.00  0.00     0.010 A 
BRANCH  16  19
HETATM   19  C   UNK N   1      36.130  13.672  11.748  0.00  0.00    -0.024 C 
HETATM   20  C   UNK N   1      35.124  12.536  11.800  0.00  0.00     0.019 C 
HETATM   21  C   UNK N   1      36.291  14.215  13.161  0.00  0.00     0.019 C 
HETATM   22  C   UNK N   1      37.472  13.117  11.304  0.00  0.00     0.019 C 
ENDBRANCH  16  19
ENDBRANCH  10  13
ENDBRANCH   9  10
ENDBRANCH   8   9
ENDBRANCH   7   8
ENDBRANCH   1   7
BRANCH   2  23
HETATM   23  C   UNK N   1      28.648  17.763   4.994  0.00  0.00     0.116 C 
BRANCH  23  24
HETATM   24  O   UNK N   1      29.760  18.574   4.741  0.00  0.00    -0.380 OA
HETATM   25  H   UNK N   1      30.207  19.069   4.037  0.00  0.00     0.211 HD
ENDBRANCH  23  24
BRANCH  23  26
HETATM   26  C   UNK N   1      28.431  17.696   6.499  0.00  0.00    -0.019 A 
HETATM   27  C   UNK N   1      27.554  16.760   7.064  0.00  0.00     0.010 A 
HETATM   28  C   UNK N   1      27.404  16.682   8.452  0.00  0.00     0.001 A 
HETATM   29  C   UNK N   1      28.132  17.537   9.286  0.00  0.00     0.000 A 
HETATM   30  C   UNK N   1      29.005  18.475   8.735  0.00  0.00     0.001 A 
HETATM   31  C   UNK N   1      29.155  18.556   7.351  0.00  0.00     0.010 A 
ENDBRANCH  23  26
BRANCH  23  32
HETATM   32  C   UNK N   1      27.452  18.439   4.341  0.00  0.00    -0.019 A 
HETATM   33  C   UNK N   1      26.320  17.714   3.935  0.00  0.00     0.010 A 
HETATM   34  C   UNK N   1      25.237  18.366   3.339  0.00  0.00     0.001 A 
HETATM   35  C   UNK N   1      25.275  19.749   3.140  0.00  0.00     0.000 A 
HETATM   36  C   UNK N   1      26.397  20.480   3.536  0.00  0.00     0.001 A 
HETATM   37  C   UNK N   1      27.480  19.831   4.134  0.00  0.00     0.010 A 
ENDBRANCH  23  32
ENDBRANCH   2  23
TORSDOF 11
ENDMDL
MODEL 2
REMARK VINA RESULT:      -7.8     12.754     16.225
REMARK  11 active torsions:
REMARK  status: ('A' for Active; 'I' for Inactive)
REMARK    1  A    between atoms: O_1  and  C_7 
REMARK    2  A    between atoms: O_2  and  C_19 
REMARK    3  A    between atoms: N_3  and  C_10 
REMARK    4  A    between atoms: C_4  and  C_7 
REMARK    5  A    between atoms: C_7  and  C_11 
REMARK    6  A    between atoms: C_7  and  C_12 
REMARK    7  A    between atoms: C_10  and  C_13 
REMARK    8  A    between atoms: C_13  and  C_14 
REMARK    9  A    between atoms: C_14  and  C_19 
REMARK   10  A    between atoms: C_19  and  C_24 
REMARK   11  A    between atoms: C_27  and  C_28 
ROOT
HETATM    1  N   UNK N   1      32.257  21.481  -6.515  0.00  0.00     0.088 N 
HETATM    2  C   UNK N   1      29.767  21.123  -8.010  0.00  0.00     0.033 C 
HETATM    3  C   UNK N   1      30.234  20.070  -7.019  0.00  0.00     0.038 C 
HETATM    4  C   UNK N   1      31.021  21.530  -8.770  0.00  0.00     0.038 C 
HETATM    5  C   UNK N   1      31.132  20.704  -5.978  0.00  0.00     0.273 C 
HETATM    6  C   UNK N   1      32.049  22.161  -7.815  0.00  0.00     0.273 C 
ENDROOT
BRANCH   1   7
HETATM    7  C   UNK N   1      32.359  22.553  -5.534  0.00  0.00     0.272 C 
BRANCH   7   8
HETATM    8  C   UNK N   1      31.998  22.104  -4.137  0.00  0.00     0.033 C 
BRANCH   8   9
HETATM    9  C   UNK N   1      31.509  23.273  -3.298  0.00  0.00     0.038 C 
BRANCH   9  10
HETATM   10  C   UNK N   1      30.107  23.044  -2.734  0.00  0.00     0.151 C 
BRANCH  10  11
HETATM   11  O   UNK N   1      30.187  23.084  -1.339  0.00  0.00    -0.391 OA
HETATM   12  H   UNK N   1      29.726  23.764  -0.825  0.00  0.00     0.210 HD
ENDBRANCH  10  11
BRANCH  10  13
HETATM   13  C   UNK N   1      29.148  24.081  -3.256  0.00  0.00    -0.030 A 
HETATM   14  C   UNK N   1      27.768  23.874  -3.127  0.00  0.00     0.010 A 
HETATM   15  C   UNK N   1      26.862  24.795  -3.648  0.00  0.00     0.008 A 
HETATM   16  C   UNK N   1      27.319  25.943  -4.312  0.00  0.00    -0.051 A 
HETATM   17  C   UNK N   1      28.704  26.160  -4.423  0.00  0.00     0.008 A 
HETATM   18  C   UNK N   1      29.611  25.238  -3.895  0.00  0.00     0.010 A 
BRANCH  16  19
HETATM   19  C   UNK N   1      26.316  26.914  -4.905  0.00  0.00    -0.024 C 
HETATM   20  C   UNK N   1      25.220  26.143  -5.620  0.00  0.00     0.019 C 
HETATM   21  C   UNK N   1      26.945  27.869  -5.910  0.00  0.00     0.019 C 
HETATM   22  C   UNK N   1      25.688  27.744  -3.799  0.00  0.00     0.019 C 
ENDBRANCH  16  19
ENDBRANCH  10  13
ENDBRANCH   9  10
ENDBRANCH   8   9
ENDBRANCH   7   8
ENDBRANCH   1   7
BRANCH   2  23
HETATM   23  C   UNK N   1      28.927  22.341  -7.444  0.00  0.00     0.116 C 
BRANCH  23  24
HETATM   24  O   UNK N   1      29.296  22.606  -6.120  0.00  0.00    -0.380 OA
HETATM   25  H   UNK N   1      29.331  23.314  -5.457  0.00  0.00     0.211 HD
ENDBRANCH  23  24
BRANCH  23  26
HETATM   26  C   UNK N   1      27.438  22.023  -7.476  0.00  0.00    -0.019 A 
HETATM   27  C   UNK N   1      26.940  20.965  -8.247  0.00  0.00     0.010 A 
HETATM   28  C   UNK N   1      25.576  20.658  -8.227  0.00  0.00     0.001 A 
HETATM   29  C   UNK N   1      24.700  21.407  -7.433  0.00  0.00     0.000 A 
HETATM   30  C   UNK N   1      25.185  22.465  -6.664  0.00  0.00     0.001 A 
HETATM   31  C   UNK N   1      26.545  22.773  -6.684  0.00  0.00     0.010 A 
ENDBRANCH  23  26
BRANCH  23  32
HETATM   32  C   UNK N   1      29.190  23.611  -8.237  0.00  0.00    -0.019 A 
HETATM   33  C   UNK N   1      28.923  23.695  -9.613  0.00  0.00     0.010 A 
HETATM   34  C   UNK N   1      29.175  24.879 -10.314  0.00  0.00     0.001 A 
HETATM   35  C   UNK N   1      29.698  25.990  -9.646  0.00  0.00     0.000 A 
HETATM   36  C   UNK N   1      29.970  25.917  -8.278  0.00  0.00     0.001 A 
HETATM   37  C   UNK N   1      29.718  24.736  -7.576  0.00  0.00     0.010 A 
ENDBRANCH  23  32
ENDBRANCH   2  23
TORSDOF 11
ENDMDL
MODEL 3
REMARK VINA RESULT:      -7.8      6.924     10.473
REMARK  11 active torsions:
REMARK  status: ('A' for Active; 'I' for Inactive)
REMARK    1  A    between atoms: O_1  and  C_7 
REMARK    2  A    between atoms: O_2  and  C_19 
REMARK    3  A    between atoms: N_3  and  C_10 
REMARK    4  A    between atoms: C_4  and  C_7 
REMARK    5  A    between atoms: C_7  and  C_11 
REMARK    6  A    between atoms: C_7  and  C_12 
REMARK    7  A    between atoms: C_10  and  C_13 
REMARK    8  A    between atoms: C_13  and  C_14 
REMARK    9  A    between atoms: C_14  and  C_19 
REMARK   10  A    between atoms: C_19  and  C_24 
REMARK   11  A    between atoms: C_27  and  C_28 
ROOT
HETATM    1  N   UNK N   1      19.919  16.055   3.421  0.00  0.00     0.088 N 
HETATM    2  C   UNK N   1      21.784  14.064   4.479  0.00  0.00     0.033 C 
HETATM    3  C   UNK N   1      21.940  14.598   3.065  0.00  0.00     0.038 C 
HETATM    4  C   UNK N   1      20.291  13.825   4.647  0.00  0.00     0.038 C 
HETATM    5  C   UNK N   1      21.311  15.970   2.959  0.00  0.00     0.273 C 
HETATM    6  C   UNK N   1      19.516  15.147   4.521  0.00  0.00     0.273 C 
ENDROOT
BRANCH   1   7
HETATM    7  C   UNK N   1      19.890  17.392   3.999  0.00  0.00     0.272 C 
BRANCH   7   8
HETATM    8  C   UNK N   1      20.233  18.470   2.996  0.00  0.00     0.033 C 
BRANCH   8   9
HETATM    9  C   UNK N   1      20.950  19.631   3.667  0.00  0.00     0.038 C 
BRANCH   9  10
HETATM   10  C   UNK N   1      21.998  20.275   2.761  0.00  0.00     0.151 C 
BRANCH  10  11
HETATM   11  O   UNK N   1      21.818  21.659   2.802  0.00  0.00    -0.391 OA
HETATM   12  H   UNK N   1      21.598  22.165   2.005  0.00  0.00     0.210 HD
ENDBRANCH  10  11
BRANCH  10  13
HETATM   13  C   UNK N   1      23.387  19.891   3.198  0.00  0.00    -0.030 A 
HETATM   14  C   UNK N   1      23.561  18.839   4.106  0.00  0.00     0.010 A 
HETATM   15  C   UNK N   1      24.833  18.501   4.564  0.00  0.00     0.008 A 
HETATM   16  C   UNK N   1      25.959  19.211   4.121  0.00  0.00    -0.051 A 
HETATM   17  C   UNK N   1      25.785  20.254   3.194  0.00  0.00     0.008 A 
HETATM   18  C   UNK N   1      24.510  20.588   2.733  0.00  0.00     0.010 A 
BRANCH  16  19
HETATM   19  C   UNK N   1      27.330  18.852   4.660  0.00  0.00    -0.024 C 
HETATM   20  C   UNK N   1      27.866  17.637   3.923  0.00  0.00     0.019 C 
HETATM   21  C   UNK N   1      27.310  18.522   6.146  0.00  0.00     0.019 C 
HETATM   22  C   UNK N   1      28.286  20.012   4.450  0.00  0.00     0.019 C 
ENDBRANCH  16  19
ENDBRANCH  10  13
ENDBRANCH   9  10
ENDBRANCH   8   9
ENDBRANCH   7   8
ENDBRANCH   1   7
BRANCH   2  23
HETATM   23  C   UNK N   1      22.443  14.900   5.654  0.00  0.00     0.116 C 
BRANCH  23  24
HETATM   24  O   UNK N   1      22.122  16.255   5.519  0.00  0.00    -0.380 OA
HETATM   25  H   UNK N   1      22.442  17.146   5.729  0.00  0.00     0.211 HD
ENDBRANCH  23  24
BRANCH  23  26
HETATM   26  C   UNK N   1      23.959  14.757   5.626  0.00  0.00    -0.019 A 
HETATM   27  C   UNK N   1      24.767  15.424   6.556  0.00  0.00     0.010 A 
HETATM   28  C   UNK N   1      26.153  15.243   6.543  0.00  0.00     0.001 A 
HETATM   29  C   UNK N   1      26.742  14.391   5.603  0.00  0.00     0.000 A 
HETATM   30  C   UNK N   1      25.947  13.724   4.670  0.00  0.00     0.001 A 
HETATM   31  C   UNK N   1      24.564  13.905   4.680  0.00  0.00     0.010 A 
ENDBRANCH  23  26
BRANCH  23  32
HETATM   32  C   UNK N   1      21.919  14.455   7.011  0.00  0.00    -0.019 A 
HETATM   33  C   UNK N   1      22.071  13.137   7.470  0.00  0.00     0.010 A 
HETATM   34  C   UNK N   1      21.579  12.761   8.723  0.00  0.00     0.001 A 
HETATM   35  C   UNK N   1      20.928  13.699   9.529  0.00  0.00     0.000 A 
HETATM   36  C   UNK N   1      20.768  15.012   9.082  0.00  0.00     0.001 A 
HETATM   37  C   UNK N   1      21.260  15.391   7.831  0.00  0.00     0.010 A 
ENDBRANCH  23  32
ENDBRANCH   2  23
TORSDOF 11
ENDMDL
MODEL 4
REMARK VINA RESULT:      -7.7      2.230     10.270
REMARK  11 active torsions:
REMARK  status: ('A' for Active; 'I' for Inactive)
REMARK    1  A    between atoms: O_1  and  C_7 
REMARK    2  A    between atoms: O_2  and  C_19 
REMARK    3  A    between atoms: N_3  and  C_10 
REMARK    4  A    between atoms: C_4  and  C_7 
REMARK    5  A    between atoms: C_7  and  C_11 
REMARK    6  A    between atoms: C_7  and  C_12 
REMARK    7  A    between atoms: C_10  and  C_13 
REMARK    8  A    between atoms: C_13  and  C_14 
REMARK    9  A    between atoms: C_14  and  C_19 
REMARK   10  A    between atoms: C_19  and  C_24 
REMARK   11  A    between atoms: C_27  and  C_28 
ROOT
HETATM    1  N   UNK N   1      34.686  15.649   8.805  0.00  0.00     0.088 N 
HETATM    2  C   UNK N   1      36.228  14.892  11.173  0.00  0.00     0.033 C 
HETATM    3  C   UNK N   1      35.646  16.289  11.042  0.00  0.00     0.038 C 
HETATM    4  C   UNK N   1      36.799  14.573   9.799  0.00  0.00     0.038 C 
HETATM    5  C   UNK N   1      34.448  16.264  10.118  0.00  0.00     0.273 C 
HETATM    6  C   UNK N   1      35.682  14.554   8.742  0.00  0.00     0.273 C 
ENDROOT
BRANCH   1   7
HETATM    7  C   UNK N   1      33.400  15.012   8.550  0.00  0.00     0.272 C 
BRANCH   7   8
HETATM    8  C   UNK N   1      32.770  15.465   7.252  0.00  0.00     0.033 C 
BRANCH   8   9
HETATM    9  C   UNK N   1      32.152  16.846   7.399  0.00  0.00     0.038 C 
BRANCH   9  10
HETATM   10  C   UNK N   1      30.845  16.822   8.190  0.00  0.00     0.151 C 
BRANCH  10  11
HETATM   11  O   UNK N   1      31.087  17.381   9.448  0.00  0.00    -0.391 OA
HETATM   12  H   UNK N   1      31.770  17.026  10.036  0.00  0.00     0.210 HD
ENDBRANCH  10  11
BRANCH  10  13
HETATM   13  C   UNK N   1      29.765  17.572   7.457  0.00  0.00    -0.030 A 
HETATM   14  C   UNK N   1      29.548  17.318   6.097  0.00  0.00     0.010 A 
HETATM   15  C   UNK N   1      28.589  18.037   5.385  0.00  0.00     0.008 A 
HETATM   16  C   UNK N   1      27.828  19.029   6.023  0.00  0.00    -0.051 A 
HETATM   17  C   UNK N   1      28.033  19.269   7.393  0.00  0.00     0.008 A 
HETATM   18  C   UNK N   1      28.991  18.544   8.105  0.00  0.00     0.010 A 
BRANCH  16  19
HETATM   19  C   UNK N   1      26.817  19.825   5.223  0.00  0.00    -0.024 C 
HETATM   20  C   UNK N   1      26.476  21.108   5.961  0.00  0.00     0.019 C 
HETATM   21  C   UNK N   1      25.519  19.064   4.991  0.00  0.00     0.019 C 
HETATM   22  C   UNK N   1      27.399  20.182   3.867  0.00  0.00     0.019 C 
ENDBRANCH  16  19
ENDBRANCH  10  13
ENDBRANCH   9  10
ENDBRANCH   8   9
ENDBRANCH   7   8
ENDBRANCH   1   7
BRANCH   2  23
HETATM   23  C   UNK N   1      35.290  13.759  11.764  0.00  0.00     0.116 C 
BRANCH  23  24
HETATM   24  O   UNK N   1      33.946  14.111  11.594  0.00  0.00    -0.380 OA
HETATM   25  H   UNK N   1      33.051  13.907  11.908  0.00  0.00     0.211 HD
ENDBRANCH  23  24
BRANCH  23  26
HETATM   26  C   UNK N   1      35.555  13.568  13.251  0.00  0.00    -0.019 A 
HETATM   27  C   UNK N   1      36.512  14.342  13.921  0.00  0.00     0.010 A 
HETATM   28  C   UNK N   1      36.708  14.185  15.297  0.00  0.00     0.001 A 
HETATM   29  C   UNK N   1      35.948  13.255  16.012  0.00  0.00     0.000 A 
HETATM   30  C   UNK N   1      34.995  12.476  15.355  0.00  0.00     0.001 A 
HETATM   31  C   UNK N   1      34.799  12.630  13.983  0.00  0.00     0.010 A 
ENDBRANCH  23  26
BRANCH  23  32
HETATM   32  C   UNK N   1      35.494  12.438  11.040  0.00  0.00    -0.019 A 
HETATM   33  C   UNK N   1      34.473  11.842  10.282  0.00  0.00     0.010 A 
HETATM   34  C   UNK N   1      34.694  10.626   9.627  0.00  0.00     0.001 A 
HETATM   35  C   UNK N   1      35.936   9.994   9.725  0.00  0.00     0.000 A 
HETATM   36  C   UNK N   1      36.958  10.575  10.478  0.00  0.00     0.001 A 
HETATM   37  C   UNK N   1      36.740  11.791  11.132  0.00  0.00     0.010 A 
ENDBRANCH  23  32
ENDBRANCH   2  23
TORSDOF 11
ENDMDL
MODEL 5
REMARK VINA RESULT:      -7.7     12.637     16.707
REMARK  11 active torsions:
REMARK  status: ('A' for Active; 'I' for Inactive)
REMARK    1  A    between atoms: O_1  and  C_7 
REMARK    2  A    between atoms: O_2  and  C_19 
REMARK    3  A    between atoms: N_3  and  C_10 
REMARK    4  A    between atoms: C_4  and  C_7 
REMARK    5  A    between atoms: C_7  and  C_11 
REMARK    6  A    between atoms: C_7  and  C_12 
REMARK    7  A    between atoms: C_10  and  C_13 
REMARK    8  A    between atoms: C_13  and  C_14 
REMARK    9  A    between atoms: C_14  and  C_19 
REMARK   10  A    between atoms: C_19  and  C_24 
REMARK   11  A    between atoms: C_27  and  C_28 
ROOT
HETATM    1  N   UNK N   1      31.125  20.348  -6.815  0.00  0.00     0.088 N 
HETATM    2  C   UNK N   1      29.427  20.402  -9.198  0.00  0.00     0.033 C 
HETATM    3  C   UNK N   1      29.094  19.489  -8.030  0.00  0.00     0.038 C 
HETATM    4  C   UNK N   1      30.933  20.276  -9.379  0.00  0.00     0.038 C 
HETATM    5  C   UNK N   1      29.689  20.046  -6.755  0.00  0.00     0.273 C 
HETATM    6  C   UNK N   1      31.670  20.776  -8.125  0.00  0.00     0.273 C 
ENDROOT
BRANCH   1   7
HETATM    7  C   UNK N   1      31.207  21.527  -5.963  0.00  0.00     0.272 C 
BRANCH   7   8
HETATM    8  C   UNK N   1      30.300  21.441  -4.756  0.00  0.00     0.033 C 
BRANCH   8   9
HETATM    9  C   UNK N   1      30.762  22.386  -3.659  0.00  0.00     0.038 C 
BRANCH   9  10
HETATM   10  C   UNK N   1      29.641  22.745  -2.685  0.00  0.00     0.151 C 
BRANCH  10  11
HETATM   11  O   UNK N   1      30.222  23.080  -1.459  0.00  0.00    -0.391 OA
HETATM   12  H   UNK N   1      30.950  23.717  -1.401  0.00  0.00     0.210 HD
ENDBRANCH  10  11
BRANCH  10  13
HETATM   13  C   UNK N   1      28.810  23.879  -3.224  0.00  0.00    -0.030 A 
HETATM   14  C   UNK N   1      27.438  23.925  -2.943  0.00  0.00     0.010 A 
HETATM   15  C   UNK N   1      26.640  24.936  -3.474  0.00  0.00     0.008 A 
HETATM   16  C   UNK N   1      27.200  25.923  -4.300  0.00  0.00    -0.051 A 
HETATM   17  C   UNK N   1      28.581  25.888  -4.564  0.00  0.00     0.008 A 
HETATM   18  C   UNK N   1      29.380  24.876  -4.026  0.00  0.00     0.010 A 
BRANCH  16  19
HETATM   19  C   UNK N   1      26.307  26.993  -4.897  0.00  0.00    -0.024 C 
HETATM   20  C   UNK N   1      27.129  27.902  -5.794  0.00  0.00     0.019 C 
HETATM   21  C   UNK N   1      25.641  27.862  -3.840  0.00  0.00     0.019 C 
HETATM   22  C   UNK N   1      25.214  26.345  -5.729  0.00  0.00     0.019 C 
ENDBRANCH  16  19
ENDBRANCH  10  13
ENDBRANCH   9  10
ENDBRANCH   8   9
ENDBRANCH   7   8
ENDBRANCH   1   7
BRANCH   2  23
HETATM   23  C   UNK N   1      28.905  21.897  -9.131  0.00  0.00     0.116 C 
BRANCH  23  24
HETATM   24  O   UNK N   1      29.881  22.723  -8.562  0.00  0.00    -0.380 OA
HETATM   25  H   UNK N   1      30.474  22.800  -7.799  0.00  0.00     0.211 HD
ENDBRANCH  23  24
BRANCH  23  26
HETATM   26  C   UNK N   1      27.644  21.985  -8.283  0.00  0.00    -0.019 A 
HETATM   27  C   UNK N   1      27.579  22.826  -7.164  0.00  0.00     0.010 A 
HETATM   28  C   UNK N   1      26.397  22.928  -6.426  0.00  0.00     0.001 A 
HETATM   29  C   UNK N   1      25.269  22.192  -6.802  0.00  0.00     0.000 A 
HETATM   30  C   UNK N   1      25.322  21.348  -7.911  0.00  0.00     0.001 A 
HETATM   31  C   UNK N   1      26.501  21.244  -8.649  0.00  0.00     0.010 A 
ENDBRANCH  23  26
BRANCH  23  32
HETATM   32  C   UNK N   1      28.619  22.446 -10.521  0.00  0.00    -0.019 A 
HETATM   33  C   UNK N   1      28.510  21.608 -11.642  0.00  0.00     0.010 A 
HETATM   34  C   UNK N   1      28.245  22.144 -12.905  0.00  0.00     0.001 A 
HETATM   35  C   UNK N   1      28.088  23.524 -13.061  0.00  0.00     0.000 A 
HETATM   36  C   UNK N   1      28.197  24.368 -11.954  0.00  0.00     0.001 A 
HETATM   37  C   UNK N   1      28.460  23.834 -10.690  0.00  0.00     0.010 A 
ENDBRANCH  23  32
ENDBRANCH   2  23
TORSDOF 11
ENDMDL
MODEL 6
REMARK VINA RESULT:      -7.5      2.533      5.097
REMARK  11 active torsions:
REMARK  status: ('A' for Active; 'I' for Inactive)
REMARK    1  A    between atoms: O_1  and  C_7 
REMARK    2  A    between atoms: O_2  and  C_19 
REMARK    3  A    between atoms: N_3  and  C_10 
REMARK    4  A    between atoms: C_4  and  C_7 
REMARK    5  A    between atoms: C_7  and  C_11 
REMARK    6  A    between atoms: C_7  and  C_12 
REMARK    7  A    between atoms: C_10  and  C_13 
REMARK    8  A    between atoms: C_13  and  C_14 
REMARK    9  A    between atoms: C_14  and  C_19 
REMARK   10  A    between atoms: C_19  and  C_24 
REMARK   11  A    between atoms: C_27  and  C_28 
ROOT
HETATM    1  N   UNK N   1      34.968  15.791   7.646  0.00  0.00     0.088 N 
HETATM    2  C   UNK N   1      32.795  17.582   6.853  0.00  0.00     0.033 C 
HETATM    3  C   UNK N   1      33.864  17.171   5.854  0.00  0.00     0.038 C 
HETATM    4  C   UNK N   1      33.552  17.880   8.139  0.00  0.00     0.038 C 
HETATM    5  C   UNK N   1      34.471  15.847   6.265  0.00  0.00     0.273 C 
HETATM    6  C   UNK N   1      34.259  16.615   8.653  0.00  0.00     0.273 C 
ENDROOT
BRANCH   1   7
HETATM    7  C   UNK N   1      34.668  14.410   8.003  0.00  0.00     0.272 C 
BRANCH   7   8
HETATM    8  C   UNK N   1      35.137  14.051   9.395  0.00  0.00     0.033 C 
BRANCH   8   9
HETATM    9  C   UNK N   1      36.619  13.716   9.402  0.00  0.00     0.038 C 
BRANCH   9  10
HETATM   10  C   UNK N   1      37.347  14.301  10.611  0.00  0.00     0.151 C 
BRANCH  10  11
HETATM   11  O   UNK N   1      37.141  15.683  10.617  0.00  0.00    -0.391 OA
HETATM   12  H   UNK N   1      36.709  16.127  11.363  0.00  0.00     0.210 HD
ENDBRANCH  10  11
BRANCH  10  13
HETATM   13  C   UNK N   1      36.853  13.669  11.886  0.00  0.00    -0.030 A 
HETATM   14  C   UNK N   1      37.023  12.293  12.087  0.00  0.00     0.010 A 
HETATM   15  C   UNK N   1      36.528  11.679  13.235  0.00  0.00     0.008 A 
HETATM   16  C   UNK N   1      35.851  12.431  14.208  0.00  0.00    -0.051 A 
HETATM   17  C   UNK N   1      35.700  13.815  14.014  0.00  0.00     0.008 A 
HETATM   18  C   UNK N   1      36.200  14.430  12.865  0.00  0.00     0.010 A 
BRANCH  16  19
HETATM   19  C   UNK N   1      35.288  11.737  15.432  0.00  0.00    -0.024 C 
HETATM   20  C   UNK N   1      34.783  12.773  16.421  0.00  0.00     0.019 C 
HETATM   21  C   UNK N   1      36.320  10.876  16.147  0.00  0.00     0.019 C 
HETATM   22  C   UNK N   1      34.130  10.841  15.029  0.00  0.00     0.019 C 
ENDBRANCH  16  19
ENDBRANCH  10  13
ENDBRANCH   9  10
ENDBRANCH   8   9
ENDBRANCH   7   8
ENDBRANCH   1   7
BRANCH   2  23
HETATM   23  C   UNK N   1      31.555  16.612   7.040  0.00  0.00     0.116 C 
BRANCH  23  24
HETATM   24  O   UNK N   1      31.889  15.567   7.907  0.00  0.00    -0.380 OA
HETATM   25  H   UNK N   1      32.368  15.370   8.728  0.00  0.00     0.211 HD
ENDBRANCH  23  24
BRANCH  23  26
HETATM   26  C   UNK N   1      31.137  16.017   5.703  0.00  0.00    -0.019 A 
HETATM   27  C   UNK N   1      31.057  16.810   4.550  0.00  0.00     0.010 A 
HETATM   28  C   UNK N   1      30.717  16.236   3.322  0.00  0.00     0.001 A 
HETATM   29  C   UNK N   1      30.456  14.864   3.236  0.00  0.00     0.000 A 
HETATM   30  C   UNK N   1      30.529  14.066   4.378  0.00  0.00     0.001 A 
HETATM   31  C   UNK N   1      30.867  14.637   5.604  0.00  0.00     0.010 A 
ENDBRANCH  23  26
BRANCH  23  32
HETATM   32  C   UNK N   1      30.373  17.340   7.662  0.00  0.00    -0.019 A 
HETATM   33  C   UNK N   1      30.320  17.631   9.035  0.00  0.00     0.010 A 
HETATM   34  C   UNK N   1      29.219  18.303   9.575  0.00  0.00     0.001 A 
HETATM   35  C   UNK N   1      28.159  18.688   8.749  0.00  0.00     0.000 A 
HETATM   36  C   UNK N   1      28.200  18.401   7.383  0.00  0.00     0.001 A 
HETATM   37  C   UNK N   1      29.299  17.731   6.840  0.00  0.00     0.010 A 
ENDBRANCH  23  32
ENDBRANCH   2  23
TORSDOF 11
ENDMDL
MODEL 7
REMARK VINA RESULT:      -7.4     13.784     16.333
REMARK  11 active torsions:
REMARK  status: ('A' for Active; 'I' for Inactive)
REMARK    1  A    between atoms: O_1  and  C_7 
REMARK    2  A    between atoms: O_2  and  C_19 
REMARK    3  A    between atoms: N_3  and  C_10 
REMARK    4  A    between atoms: C_4  and  C_7 
REMARK    5  A    between atoms: C_7  and  C_11 
REMARK    6  A    between atoms: C_7  and  C_12 
REMARK    7  A    between atoms: C_10  and  C_13 
REMARK    8  A    between atoms: C_13  and  C_14 
REMARK    9  A    between atoms: C_14  and  C_19 
REMARK   10  A    between atoms: C_19  and  C_24 
REMARK   11  A    between atoms: C_27  and  C_28 
ROOT
HETATM    1  N   UNK N   1      27.868  26.548  -4.089  0.00  0.00     0.088 N 
HETATM    2  C   UNK N   1      25.959  24.892  -5.564  0.00  0.00     0.033 C 
HETATM    3  C   UNK N   1      25.831  26.407  -5.561  0.00  0.00     0.038 C 
HETATM    4  C   UNK N   1      26.284  24.523  -4.124  0.00  0.00     0.038 C 
HETATM    5  C   UNK N   1      27.180  27.037  -5.291  0.00  0.00     0.273 C 
HETATM    6  C   UNK N   1      27.628  25.138  -3.700  0.00  0.00     0.273 C 
ENDROOT
BRANCH   1   7
HETATM    7  C   UNK N   1      29.261  26.594  -4.517  0.00  0.00     0.272 C 
BRANCH   7   8
HETATM    8  C   UNK N   1      30.169  25.758  -3.644  0.00  0.00     0.033 C 
BRANCH   8   9
HETATM    9  C   UNK N   1      31.191  25.008  -4.482  0.00  0.00     0.038 C 
BRANCH   9  10
HETATM   10  C   UNK N   1      31.479  23.608  -3.942  0.00  0.00     0.151 C 
BRANCH  10  11
HETATM   11  O   UNK N   1      30.635  23.379  -2.852  0.00  0.00    -0.391 OA
HETATM   12  H   UNK N   1      30.984  23.112  -1.989  0.00  0.00     0.210 HD
ENDBRANCH  10  11
BRANCH  10  13
HETATM   13  C   UNK N   1      31.278  22.571  -5.015  0.00  0.00    -0.030 A 
HETATM   14  C   UNK N   1      32.057  22.621  -6.179  0.00  0.00     0.010 A 
HETATM   15  C   UNK N   1      31.853  21.703  -7.207  0.00  0.00     0.008 A 
HETATM   16  C   UNK N   1      30.862  20.716  -7.092  0.00  0.00    -0.051 A 
HETATM   17  C   UNK N   1      30.095  20.655  -5.915  0.00  0.00     0.008 A 
HETATM   18  C   UNK N   1      30.304  21.573  -4.884  0.00  0.00     0.010 A 
BRANCH  16  19
HETATM   19  C   UNK N   1      30.631  19.751  -8.238  0.00  0.00    -0.024 C 
HETATM   20  C   UNK N   1      31.910  18.983  -8.526  0.00  0.00     0.019 C 
HETATM   21  C   UNK N   1      30.212  20.452  -9.523  0.00  0.00     0.019 C 
HETATM   22  C   UNK N   1      29.540  18.762  -7.867  0.00  0.00     0.019 C 
ENDBRANCH  16  19
ENDBRANCH  10  13
ENDBRANCH   9  10
ENDBRANCH   8   9
ENDBRANCH   7   8
ENDBRANCH   1   7
BRANCH   2  23
HETATM   23  C   UNK N   1      26.927  24.241  -6.636  0.00  0.00     0.116 C 
BRANCH  23  24
HETATM   24  O   UNK N   1      28.187  24.015  -6.071  0.00  0.00    -0.380 OA
HETATM   25  H   UNK N   1      28.656  23.984  -5.222  0.00  0.00     0.211 HD
ENDBRANCH  23  24
BRANCH  23  26
HETATM   26  C   UNK N   1      27.094  25.164  -7.835  0.00  0.00    -0.019 A 
HETATM   27  C   UNK N   1      28.338  25.725  -8.150  0.00  0.00     0.010 A 
HETATM   28  C   UNK N   1      28.482  26.532  -9.283  0.00  0.00     0.001 A 
HETATM   29  C   UNK N   1      27.382  26.782 -10.110  0.00  0.00     0.000 A 
HETATM   30  C   UNK N   1      26.137  26.231  -9.804  0.00  0.00     0.001 A 
HETATM   31  C   UNK N   1      25.992  25.427  -8.674  0.00  0.00     0.010 A 
ENDBRANCH  23  26
BRANCH  23  32
HETATM   32  C   UNK N   1      26.406  22.891  -7.104  0.00  0.00    -0.019 A 
HETATM   33  C   UNK N   1      25.135  22.419  -6.738  0.00  0.00     0.010 A 
HETATM   34  C   UNK N   1      24.685  21.174  -7.188  0.00  0.00     0.001 A 
HETATM   35  C   UNK N   1      25.501  20.388  -8.006  0.00  0.00     0.000 A 
HETATM   36  C   UNK N   1      26.768  20.846  -8.374  0.00  0.00     0.001 A 
HETATM   37  C   UNK N   1      27.220  22.090  -7.928  0.00  0.00     0.010 A 
ENDBRANCH  23  32
ENDBRANCH   2  23
TORSDOF 11
ENDMDL
MODEL 8
REMARK VINA RESULT:      -7.3     12.202     15.194
REMARK  11 active torsions:
REMARK  status: ('A' for Active; 'I' for Inactive)
REMARK    1  A    between atoms: O_1  and  C_7 
REMARK    2  A    between atoms: O_2  and  C_19 
REMARK    3  A    between atoms: N_3  and  C_10 
REMARK    4  A    between atoms: C_4  and  C_7 
REMARK    5  A    between atoms: C_7  and  C_11 
REMARK    6  A    between atoms: C_7  and  C_12 
REMARK    7  A    between atoms: C_10  and  C_13 
REMARK    8  A    between atoms: C_13  and  C_14 
REMARK    9  A    between atoms: C_14  and  C_19 
REMARK   10  A    between atoms: C_19  and  C_24 
REMARK   11  A    between atoms: C_27  and  C_28 
ROOT
HETATM    1  N   UNK N   1      26.067  24.075  -7.768  0.00  0.00     0.088 N 
HETATM    2  C   UNK N   1      26.068  25.289  -5.106  0.00  0.00     0.033 C 
HETATM    3  C   UNK N   1      25.693  23.828  -5.291  0.00  0.00     0.038 C 
HETATM    4  C   UNK N   1      25.367  26.022  -6.240  0.00  0.00     0.038 C 
HETATM    5  C   UNK N   1      26.327  23.290  -6.555  0.00  0.00     0.273 C 
HETATM    6  C   UNK N   1      25.894  25.538  -7.602  0.00  0.00     0.273 C 
ENDROOT
BRANCH   1   7
HETATM    7  C   UNK N   1      27.324  23.918  -8.488  0.00  0.00     0.272 C 
BRANCH   7   8
HETATM    8  C   UNK N   1      27.982  22.581  -8.230  0.00  0.00     0.033 C 
BRANCH   8   9
HETATM    9  C   UNK N   1      29.468  22.636  -8.542  0.00  0.00     0.038 C 
BRANCH   9  10
HETATM   10  C   UNK N   1      30.116  21.253  -8.561  0.00  0.00     0.151 C 
BRANCH  10  11
HETATM   11  O   UNK N   1      30.807  21.112  -9.767  0.00  0.00    -0.391 OA
HETATM   12  H   UNK N   1      30.376  20.758 -10.559  0.00  0.00     0.210 HD
ENDBRANCH  10  11
BRANCH  10  13
HETATM   13  C   UNK N   1      31.034  21.078  -7.380  0.00  0.00    -0.030 A 
HETATM   14  C   UNK N   1      32.131  21.935  -7.225  0.00  0.00     0.010 A 
HETATM   15  C   UNK N   1      33.023  21.760  -6.169  0.00  0.00     0.008 A 
HETATM   16  C   UNK N   1      32.835  20.720  -5.246  0.00  0.00    -0.051 A 
HETATM   17  C   UNK N   1      31.722  19.873  -5.391  0.00  0.00     0.008 A 
HETATM   18  C   UNK N   1      30.827  20.054  -6.447  0.00  0.00     0.010 A 
BRANCH  16  19
HETATM   19  C   UNK N   1      33.838  20.524  -4.126  0.00  0.00    -0.024 C 
HETATM   20  C   UNK N   1      34.219  19.057  -4.032  0.00  0.00     0.019 C 
HETATM   21  C   UNK N   1      33.295  20.950  -2.769  0.00  0.00     0.019 C 
HETATM   22  C   UNK N   1      35.089  21.338  -4.406  0.00  0.00     0.019 C 
ENDBRANCH  16  19
ENDBRANCH  10  13
ENDBRANCH   9  10
ENDBRANCH   8   9
ENDBRANCH   7   8
ENDBRANCH   1   7
BRANCH   2  23
HETATM   23  C   UNK N   1      27.608  25.637  -4.962  0.00  0.00     0.116 C 
BRANCH  23  24
HETATM   24  O   UNK N   1      28.178  25.827  -6.225  0.00  0.00    -0.380 OA
HETATM   25  H   UNK N   1      29.031  25.917  -6.679  0.00  0.00     0.211 HD
ENDBRANCH  23  24
BRANCH  23  26
HETATM   26  C   UNK N   1      28.347  24.506  -4.262  0.00  0.00    -0.019 A 
HETATM   27  C   UNK N   1      29.426  23.856  -4.876  0.00  0.00     0.010 A 
HETATM   28  C   UNK N   1      30.123  22.851  -4.198  0.00  0.00     0.001 A 
HETATM   29  C   UNK N   1      29.747  22.490  -2.900  0.00  0.00     0.000 A 
HETATM   30  C   UNK N   1      28.673  23.127  -2.280  0.00  0.00     0.001 A 
HETATM   31  C   UNK N   1      27.976  24.129  -2.955  0.00  0.00     0.010 A 
ENDBRANCH  23  26
BRANCH  23  32
HETATM   32  C   UNK N   1      27.812  26.930  -4.187  0.00  0.00    -0.019 A 
HETATM   33  C   UNK N   1      26.750  27.587  -3.545  0.00  0.00     0.010 A 
HETATM   34  C   UNK N   1      26.972  28.773  -2.840  0.00  0.00     0.001 A 
HETATM   35  C   UNK N   1      28.258  29.317  -2.772  0.00  0.00     0.000 A 
HETATM   36  C   UNK N   1      29.322  28.674  -3.409  0.00  0.00     0.001 A 
HETATM   37  C   UNK N   1      29.103  27.488  -4.113  0.00  0.00     0.010 A 
ENDBRANCH  23  32
ENDBRANCH   2  23
TORSDOF 11
ENDMDL
MODEL 9
REMARK VINA RESULT:      -7.3      7.122     10.533
REMARK  11 active torsions:
REMARK  status: ('A' for Active; 'I' for Inactive)
REMARK    1  A    between atoms: O_1  and  C_7 
REMARK    2  A    between atoms: O_2  and  C_19 
REMARK    3  A    between atoms: N_3  and  C_10 
REMARK    4  A    between atoms: C_4  and  C_7 
REMARK    5  A    between atoms: C_7  and  C_11 
REMARK    6  A    between atoms: C_7  and  C_12 
REMARK    7  A    between atoms: C_10  and  C_13 
REMARK    8  A    between atoms: C_13  and  C_14 
REMARK    9  A    between atoms: C_14  and  C_19 
REMARK   10  A    between atoms: C_19  and  C_24 
REMARK   11  A    between atoms: C_27  and  C_28 
ROOT
HETATM    1  N   UNK N   1      19.900  15.851   3.023  0.00  0.00     0.088 N 
HETATM    2  C   UNK N   1      21.959  13.778   3.171  0.00  0.00     0.033 C 
HETATM    3  C   UNK N   1      21.605  14.426   1.843  0.00  0.00     0.038 C 
HETATM    4  C   UNK N   1      20.622  13.527   3.854  0.00  0.00     0.038 C 
HETATM    5  C   UNK N   1      21.024  15.803   2.080  0.00  0.00     0.273 C 
HETATM    6  C   UNK N   1      19.897  14.856   4.122  0.00  0.00     0.273 C 
ENDROOT
BRANCH   1   7
HETATM    7  C   UNK N   1      20.125  17.137   3.672  0.00  0.00     0.272 C 
BRANCH   7   8
HETATM    8  C   UNK N   1      20.346  18.260   2.685  0.00  0.00     0.033 C 
BRANCH   8   9
HETATM    9  C   UNK N   1      20.823  19.519   3.390  0.00  0.00     0.038 C 
BRANCH   9  10
HETATM   10  C   UNK N   1      21.937  20.233   2.626  0.00  0.00     0.151 C 
BRANCH  10  11
HETATM   11  O   UNK N   1      21.655  21.601   2.621  0.00  0.00    -0.391 OA
HETATM   12  H   UNK N   1      21.301  22.042   1.833  0.00  0.00     0.210 HD
ENDBRANCH  10  11
BRANCH  10  13
HETATM   13  C   UNK N   1      23.277  19.954   3.254  0.00  0.00    -0.030 A 
HETATM   14  C   UNK N   1      23.355  19.106   4.366  0.00  0.00     0.010 A 
HETATM   15  C   UNK N   1      24.577  18.874   4.996  0.00  0.00     0.008 A 
HETATM   16  C   UNK N   1      25.747  19.490   4.524  0.00  0.00    -0.051 A 
HETATM   17  C   UNK N   1      25.669  20.325   3.396  0.00  0.00     0.008 A 
HETATM   18  C   UNK N   1      24.445  20.552   2.764  0.00  0.00     0.010 A 
BRANCH  16  19
HETATM   19  C   UNK N   1      27.059  19.254   5.246  0.00  0.00    -0.024 C 
HETATM   20  C   UNK N   1      27.106  17.829   5.769  0.00  0.00     0.019 C 
HETATM   21  C   UNK N   1      27.255  20.190   6.430  0.00  0.00     0.019 C 
HETATM   22  C   UNK N   1      28.218  19.462   4.287  0.00  0.00     0.019 C 
ENDBRANCH  16  19
ENDBRANCH  10  13
ENDBRANCH   9  10
ENDBRANCH   8   9
ENDBRANCH   7   8
ENDBRANCH   1   7
BRANCH   2  23
HETATM   23  C   UNK N   1      23.026  14.512   4.083  0.00  0.00     0.116 C 
BRANCH  23  24
HETATM   24  O   UNK N   1      22.523  15.744   4.515  0.00  0.00    -0.380 OA
HETATM   25  H   UNK N   1      21.839  16.406   4.326  0.00  0.00     0.211 HD
ENDBRANCH  23  24
BRANCH  23  26
HETATM   26  C   UNK N   1      24.312  14.761   3.306  0.00  0.00    -0.019 A 
HETATM   27  C   UNK N   1      24.871  16.043   3.221  0.00  0.00     0.010 A 
HETATM   28  C   UNK N   1      26.077  16.243   2.543  0.00  0.00     0.001 A 
HETATM   29  C   UNK N   1      26.734  15.162   1.946  0.00  0.00     0.000 A 
HETATM   30  C   UNK N   1      26.185  13.882   2.022  0.00  0.00     0.001 A 
HETATM   31  C   UNK N   1      24.982  13.680   2.696  0.00  0.00     0.010 A 
ENDBRANCH  23  26
BRANCH  23  32
HETATM   32  C   UNK N   1      23.339  13.702   5.331  0.00  0.00    -0.019 A 
HETATM   33  C   UNK N   1      23.492  12.306   5.291  0.00  0.00     0.010 A 
HETATM   34  C   UNK N   1      23.781  11.591   6.457  0.00  0.00     0.001 A 
HETATM   35  C   UNK N   1      23.917  12.262   7.675  0.00  0.00     0.000 A 
HETATM   36  C   UNK N   1      23.764  13.649   7.728  0.00  0.00     0.001 A 
HETATM   37  C   UNK N   1      23.477  14.367   6.564  0.00  0.00     0.010 A 
ENDBRANCH  23  32
ENDBRANCH   2  23
TORSDOF 11
ENDMDL
