REMARK  11 active torsions:
REMARK  status: ('A' for Active; 'I' for Inactive)
REMARK    1  A    between atoms: O_1  and  C_7 
REMARK    2  A    between atoms: O_2  and  C_19 
REMARK    3  A    between atoms: N_3  and  C_10 
REMARK    4  A    between atoms: C_4  and  C_7 
REMARK    5  A    between atoms: C_7  and  C_11 
REMARK    6  A    between atoms: C_7  and  C_12 
REMARK    7  A    between atoms: C_10  and  C_13 
REMARK    8  A    between atoms: C_13  and  C_14 
REMARK    9  A    between atoms: C_14  and  C_19 
REMARK   10  A    between atoms: C_19  and  C_24 
REMARK   11  A    between atoms: C_27  and  C_28 
ROOT
HETATM    1  N   UNK N   1       4.041   0.331   0.407  0.00  0.00     0.088 N 
HETATM    2  C   UNK N   1       4.120   3.060   1.459  0.00  0.00     0.033 C 
HETATM    3  C   UNK N   1       5.160   2.036   1.882  0.00  0.00     0.038 C 
HETATM    4  C   UNK N   1       2.797   2.309   1.481  0.00  0.00     0.038 C 
HETATM    5  C   UNK N   1       5.298   0.971   0.816  0.00  0.00     0.273 C 
HETATM    6  C   UNK N   1       2.813   1.159   0.460  0.00  0.00     0.273 C 
ENDROOT
BRANCH   1   7
HETATM    7  C   UNK N   1       4.285   0.099  -1.011  0.00  0.00     0.272 C 
BRANCH   7   8
HETATM    8  C   UNK N   1       3.712  -1.213  -1.496  0.00  0.00     0.033 C 
BRANCH   8   9
HETATM    9  C   UNK N   1       2.218  -1.095  -1.749  0.00  0.00     0.038 C 
BRANCH   9  10
HETATM   10  C   UNK N   1       1.383  -1.539  -0.549  0.00  0.00     0.151 C 
BRANCH  10  11
HETATM   11  O   UNK N   1       0.038  -1.300  -0.842  0.00  0.00    -0.391 OA
HETATM   12  H   UNK N   1      -0.285  -0.409  -1.045  0.00  0.00     0.210 HD
ENDBRANCH  10  11
BRANCH  10  13
HETATM   13  C   UNK N   1       1.625  -2.993  -0.241  0.00  0.00    -0.030 A 
HETATM   14  C   UNK N   1       2.855  -3.390   0.299  0.00  0.00     0.010 A 
HETATM   15  C   UNK N   1       3.120  -4.736   0.544  0.00  0.00     0.008 A 
HETATM   16  C   UNK N   1       2.157  -5.714   0.251  0.00  0.00    -0.051 A 
HETATM   17  C   UNK N   1       0.915  -5.312  -0.272  0.00  0.00     0.008 A 
HETATM   18  C   UNK N   1       0.650  -3.962  -0.512  0.00  0.00     0.010 A 
BRANCH  16  19
HETATM   19  C   UNK N   1       2.479  -7.176   0.490  0.00  0.00    -0.024 C 
HETATM   20  C   UNK N   1       3.698  -7.571  -0.325  0.00  0.00     0.019 C 
HETATM   21  C   UNK N   1       1.337  -8.102   0.096  0.00  0.00     0.019 C 
HETATM   22  C   UNK N   1       2.780  -7.403   1.961  0.00  0.00     0.019 C 
ENDBRANCH  16  19
ENDBRANCH  10  13
ENDBRANCH   9  10
ENDBRANCH   8   9
ENDBRANCH   7   8
ENDBRANCH   1   7
BRANCH   2  23
HETATM   23  C   UNK N   1       4.387   3.865   0.120  0.00  0.00     0.116 C 
BRANCH  23  24
HETATM   24  O   UNK N   1       3.737   3.244  -0.952  0.00  0.00    -0.380 OA
HETATM   25  H   UNK N   1       3.139   3.419  -1.696  0.00  0.00     0.211 HD
ENDBRANCH  23  24
BRANCH  23  26
HETATM   26  C   UNK N   1       5.878   3.917  -0.183  0.00  0.00    -0.019 A 
HETATM   27  C   UNK N   1       6.778   4.517   0.708  0.00  0.00     0.010 A 
HETATM   28  C   UNK N   1       8.149   4.513   0.435  0.00  0.00     0.001 A 
HETATM   29  C   UNK N   1       8.631   3.907  -0.730  0.00  0.00     0.000 A 
HETATM   30  C   UNK N   1       7.744   3.310  -1.626  0.00  0.00     0.001 A 
HETATM   31  C   UNK N   1       6.376   3.314  -1.356  0.00  0.00     0.010 A 
ENDBRANCH  23  26
BRANCH  23  32
HETATM   32  C   UNK N   1       3.839   5.281   0.207  0.00  0.00    -0.019 A 
HETATM   33  C   UNK N   1       3.223   5.768   1.371  0.00  0.00     0.010 A 
HETATM   34  C   UNK N   1       2.731   7.076   1.419  0.00  0.00     0.001 A 
HETATM   35  C   UNK N   1       2.848   7.909   0.303  0.00  0.00     0.000 A 
HETATM   36  C   UNK N   1       3.456   7.435  -0.861  0.00  0.00     0.001 A 
HETATM   37  C   UNK N   1       3.950   6.129  -0.911  0.00  0.00     0.010 A 
ENDBRANCH  23  32
ENDBRANCH   2  23
TORSDOF 11
