MODEL 1
REMARK VINA RESULT:      -6.7      0.000      0.000
REMARK  6 active torsions:
REMARK  status: ('A' for Active; 'I' for Inactive)
REMARK    1  A    between atoms: O_3  and  C_23 
REMARK    2  A    between atoms: N_4  and  C_12 
REMARK    3  A    between atoms: N_5  and  C_13 
REMARK    4  A    between atoms: C_6  and  C_7 
REMARK    5  A    between atoms: C_7  and  C_10 
REMARK    6  A    between atoms: C_10  and  C_11 
ROOT
HETATM    1  O   UNK N   1      21.016  18.829   7.075  0.00  0.00    -0.270 OA
HETATM    2  O   UNK N   1      19.683  14.583   5.824  0.00  0.00    -0.270 OA
HETATM    3  N   UNK N   1      21.369  17.485   5.273  0.00  0.00    -0.214 N 
HETATM    4  N   UNK N   1      20.974  16.218   4.892  0.00  0.00    -0.214 N 
HETATM    5  C   UNK N   1      19.976  16.655   7.015  0.00  0.00     0.174 A 
HETATM    6  C   UNK N   1      20.830  17.777   6.482  0.00  0.00     0.257 A 
HETATM    7  C   UNK N   1      20.210  15.683   5.882  0.00  0.00     0.257 A 
ENDROOT
BRANCH   3   8
HETATM    8  C   UNK N   1      22.221  18.400   4.551  0.00  0.00     0.060 A 
HETATM    9  C   UNK N   1      23.618  18.404   4.711  0.00  0.00     0.034 A 
HETATM   10  C   UNK N   1      24.421  19.275   3.967  0.00  0.00     0.039 A 
HETATM   11  C   UNK N   1      23.837  20.167   3.065  0.00  0.00     0.065 A 
HETATM   12  C   UNK N   1      22.450  20.211   2.932  0.00  0.00     0.039 A 
HETATM   13  C   UNK N   1      21.649  19.343   3.677  0.00  0.00     0.034 A 
BRANCH  11  14
HETATM   14  O   UNK N   1      24.608  20.980   2.326  0.00  0.00    -0.361 OA
HETATM   15  H   UNK N   1      25.535  20.852   2.297  0.00  0.00     0.217 HD
ENDBRANCH  11  14
ENDBRANCH   3   8
BRANCH   4  16
HETATM   16  C   UNK N   1      21.117  15.604   3.585  0.00  0.00     0.060 A 
HETATM   17  C   UNK N   1      20.209  15.905   2.549  0.00  0.00     0.031 A 
HETATM   18  C   UNK N   1      20.391  15.407   1.256  0.00  0.00     0.002 A 
HETATM   19  C   UNK N   1      21.493  14.602   0.968  0.00  0.00     0.000 A 
HETATM   20  C   UNK N   1      22.411  14.301   1.972  0.00  0.00     0.002 A 
HETATM   21  C   UNK N   1      22.228  14.813   3.259  0.00  0.00     0.031 A 
ENDBRANCH   4  16
BRANCH   5  22
HETATM   22  C   UNK N   1      20.428  16.102   8.351  0.00  0.00     0.024 C 
BRANCH  22  23
HETATM   23  C   UNK N   1      19.203  16.063   9.253  0.00  0.00     0.001 C 
BRANCH  23  24
HETATM   24  C   UNK N   1      18.427  17.362   9.194  0.00  0.00    -0.005 C 
HETATM   25  C   UNK N   1      16.939  17.074   9.135  0.00  0.00     0.005 C 
ENDBRANCH  23  24
ENDBRANCH  22  23
ENDBRANCH   5  22
TORSDOF 6
ENDMDL
MODEL 2
REMARK VINA RESULT:      -6.5      9.602     12.556
REMARK  6 active torsions:
REMARK  status: ('A' for Active; 'I' for Inactive)
REMARK    1  A    between atoms: O_3  and  C_23 
REMARK    2  A    between atoms: N_4  and  C_12 
REMARK    3  A    between atoms: N_5  and  C_13 
REMARK    4  A    between atoms: C_6  and  C_7 
REMARK    5  A    between atoms: C_7  and  C_10 
REMARK    6  A    between atoms: C_10  and  C_11 
ROOT
HETATM    1  O   UNK N   1      31.206  17.896   4.538  0.00  0.00    -0.270 OA
HETATM    2  O   UNK N   1      35.164  15.889   5.832  0.00  0.00    -0.270 OA
HETATM    3  N   UNK N   1      32.037  17.059   6.484  0.00  0.00    -0.214 N 
HETATM    4  N   UNK N   1      33.217  16.460   6.878  0.00  0.00    -0.214 N 
HETATM    5  C   UNK N   1      33.433  16.976   4.559  0.00  0.00     0.174 A 
HETATM    6  C   UNK N   1      32.110  17.365   5.166  0.00  0.00     0.257 A 
HETATM    7  C   UNK N   1      34.033  16.348   5.796  0.00  0.00     0.257 A 
ENDROOT
BRANCH   3   8
HETATM    8  C   UNK N   1      30.874  17.338   7.293  0.00  0.00     0.060 A 
HETATM    9  C   UNK N   1      30.948  18.114   8.463  0.00  0.00     0.034 A 
HETATM   10  C   UNK N   1      29.797  18.403   9.203  0.00  0.00     0.039 A 
HETATM   11  C   UNK N   1      28.558  17.905   8.794  0.00  0.00     0.065 A 
HETATM   12  C   UNK N   1      28.476  17.091   7.665  0.00  0.00     0.039 A 
HETATM   13  C   UNK N   1      29.626  16.802   6.928  0.00  0.00     0.034 A 
BRANCH  11  14
HETATM   14  O   UNK N   1      27.447  18.208   9.485  0.00  0.00    -0.361 OA
HETATM   15  H   UNK N   1      27.049  19.051   9.389  0.00  0.00     0.217 HD
ENDBRANCH  11  14
ENDBRANCH   3   8
BRANCH   4  16
HETATM   16  C   UNK N   1      33.662  16.192   8.233  0.00  0.00     0.060 A 
HETATM   17  C   UNK N   1      33.360  14.963   8.856  0.00  0.00     0.031 A 
HETATM   18  C   UNK N   1      33.868  14.645  10.118  0.00  0.00     0.002 A 
HETATM   19  C   UNK N   1      34.700  15.545  10.783  0.00  0.00     0.000 A 
HETATM   20  C   UNK N   1      35.024  16.760  10.181  0.00  0.00     0.002 A 
HETATM   21  C   UNK N   1      34.522  17.066   8.915  0.00  0.00     0.031 A 
ENDBRANCH   4  16
BRANCH   5  22
HETATM   22  C   UNK N   1      33.331  15.995   3.407  0.00  0.00     0.024 C 
BRANCH  22  23
HETATM   23  C   UNK N   1      32.646  14.747   3.946  0.00  0.00     0.001 C 
BRANCH  23  24
HETATM   24  C   UNK N   1      31.389  14.423   3.165  0.00  0.00    -0.005 C 
HETATM   25  C   UNK N   1      30.203  14.345   4.107  0.00  0.00     0.005 C 
ENDBRANCH  23  24
ENDBRANCH  22  23
ENDBRANCH   5  22
TORSDOF 6
ENDMDL
MODEL 3
REMARK VINA RESULT:      -6.4      8.379     10.986
REMARK  6 active torsions:
REMARK  status: ('A' for Active; 'I' for Inactive)
REMARK    1  A    between atoms: O_3  and  C_23 
REMARK    2  A    between atoms: N_4  and  C_12 
REMARK    3  A    between atoms: N_5  and  C_13 
REMARK    4  A    between atoms: C_6  and  C_7 
REMARK    5  A    between atoms: C_7  and  C_10 
REMARK    6  A    between atoms: C_10  and  C_11 
ROOT
HETATM    1  O   UNK N   1      28.518  17.104   5.074  0.00  0.00    -0.270 OA
HETATM    2  O   UNK N   1      29.799  18.328   9.343  0.00  0.00    -0.270 OA
HETATM    3  N   UNK N   1      30.483  17.170   6.219  0.00  0.00    -0.214 N 
HETATM    4  N   UNK N   1      30.873  17.532   7.493  0.00  0.00    -0.214 N 
HETATM    5  C   UNK N   1      28.511  17.842   7.368  0.00  0.00     0.174 A 
HETATM    6  C   UNK N   1      29.144  17.336   6.097  0.00  0.00     0.257 A 
HETATM    7  C   UNK N   1      29.781  17.970   8.176  0.00  0.00     0.257 A 
ENDROOT
BRANCH   3   8
HETATM    8  C   UNK N   1      31.316  16.688   5.143  0.00  0.00     0.060 A 
HETATM    9  C   UNK N   1      31.886  17.556   4.195  0.00  0.00     0.034 A 
HETATM   10  C   UNK N   1      32.723  17.065   3.187  0.00  0.00     0.039 A 
HETATM   11  C   UNK N   1      32.988  15.696   3.102  0.00  0.00     0.065 A 
HETATM   12  C   UNK N   1      32.389  14.817   4.003  0.00  0.00     0.039 A 
HETATM   13  C   UNK N   1      31.552  15.308   5.007  0.00  0.00     0.034 A 
BRANCH  11  14
HETATM   14  O   UNK N   1      33.817  15.227   2.156  0.00  0.00    -0.361 OA
HETATM   15  H   UNK N   1      34.155  15.803   1.499  0.00  0.00     0.217 HD
ENDBRANCH  11  14
ENDBRANCH   3   8
BRANCH   4  16
HETATM   16  C   UNK N   1      32.156  17.291   8.127  0.00  0.00     0.060 A 
HETATM   17  C   UNK N   1      32.418  16.063   8.769  0.00  0.00     0.031 A 
HETATM   18  C   UNK N   1      33.681  15.771   9.291  0.00  0.00     0.002 A 
HETATM   19  C   UNK N   1      34.715  16.700   9.175  0.00  0.00     0.000 A 
HETATM   20  C   UNK N   1      34.484  17.915   8.532  0.00  0.00     0.002 A 
HETATM   21  C   UNK N   1      33.222  18.194   8.002  0.00  0.00     0.031 A 
ENDBRANCH   4  16
BRANCH   5  22
HETATM   22  C   UNK N   1      27.784  19.165   7.223  0.00  0.00     0.024 C 
BRANCH  22  23
HETATM   23  C   UNK N   1      28.164  19.734   5.864  0.00  0.00     0.001 C 
BRANCH  23  24
HETATM   24  C   UNK N   1      27.125  20.716   5.363  0.00  0.00    -0.005 C 
HETATM   25  C   UNK N   1      26.669  21.610   6.499  0.00  0.00     0.005 C 
ENDBRANCH  23  24
ENDBRANCH  22  23
ENDBRANCH   5  22
TORSDOF 6
ENDMDL
MODEL 4
REMARK VINA RESULT:      -6.2      6.891      9.691
REMARK  6 active torsions:
REMARK  status: ('A' for Active; 'I' for Inactive)
REMARK    1  A    between atoms: O_3  and  C_23 
REMARK    2  A    between atoms: N_4  and  C_12 
REMARK    3  A    between atoms: N_5  and  C_13 
REMARK    4  A    between atoms: C_6  and  C_7 
REMARK    5  A    between atoms: C_7  and  C_10 
REMARK    6  A    between atoms: C_10  and  C_11 
ROOT
HETATM    1  O   UNK N   1      30.017  13.902   5.448  0.00  0.00    -0.270 OA
HETATM    2  O   UNK N   1      26.139  16.261   4.571  0.00  0.00    -0.270 OA
HETATM    3  N   UNK N   1      29.433  16.101   5.406  0.00  0.00    -0.214 N 
HETATM    4  N   UNK N   1      28.279  16.812   5.146  0.00  0.00    -0.214 N 
HETATM    5  C   UNK N   1      27.741  14.498   4.926  0.00  0.00     0.174 A 
HETATM    6  C   UNK N   1      29.178  14.775   5.286  0.00  0.00     0.257 A 
HETATM    7  C   UNK N   1      27.290  15.936   4.820  0.00  0.00     0.257 A 
ENDROOT
BRANCH   3   8
HETATM    8  C   UNK N   1      30.734  16.622   5.750  0.00  0.00     0.060 A 
HETATM    9  C   UNK N   1      31.122  16.842   7.083  0.00  0.00     0.034 A 
HETATM   10  C   UNK N   1      32.404  17.309   7.388  0.00  0.00     0.039 A 
HETATM   11  C   UNK N   1      33.313  17.580   6.362  0.00  0.00     0.065 A 
HETATM   12  C   UNK N   1      32.927  17.417   5.033  0.00  0.00     0.039 A 
HETATM   13  C   UNK N   1      31.645  16.953   4.730  0.00  0.00     0.034 A 
BRANCH  11  14
HETATM   14  O   UNK N   1      34.555  17.997   6.654  0.00  0.00    -0.361 OA
HETATM   15  H   UNK N   1      35.141  18.248   5.967  0.00  0.00     0.217 HD
ENDBRANCH  11  14
ENDBRANCH   3   8
BRANCH   4  16
HETATM   16  C   UNK N   1      28.035  18.222   5.391  0.00  0.00     0.060 A 
HETATM   17  C   UNK N   1      27.817  19.108   4.316  0.00  0.00     0.031 A 
HETATM   18  C   UNK N   1      27.477  20.446   4.535  0.00  0.00     0.002 A 
HETATM   19  C   UNK N   1      27.339  20.925   5.837  0.00  0.00     0.000 A 
HETATM   20  C   UNK N   1      27.536  20.065   6.916  0.00  0.00     0.002 A 
HETATM   21  C   UNK N   1      27.864  18.727   6.688  0.00  0.00     0.031 A 
ENDBRANCH   4  16
BRANCH   5  22
HETATM   22  C   UNK N   1      27.553  13.738   3.628  0.00  0.00     0.024 C 
BRANCH  22  23
HETATM   23  C   UNK N   1      28.364  14.468   2.566  0.00  0.00     0.001 C 
BRANCH  23  24
HETATM   24  C   UNK N   1      28.937  13.505   1.546  0.00  0.00    -0.005 C 
HETATM   25  C   UNK N   1      30.280  12.987   2.022  0.00  0.00     0.005 C 
ENDBRANCH  23  24
ENDBRANCH  22  23
ENDBRANCH   5  22
TORSDOF 6
ENDMDL
MODEL 5
REMARK VINA RESULT:      -6.2     13.280     14.873
REMARK  6 active torsions:
REMARK  status: ('A' for Active; 'I' for Inactive)
REMARK    1  A    between atoms: O_3  and  C_23 
REMARK    2  A    between atoms: N_4  and  C_12 
REMARK    3  A    between atoms: N_5  and  C_13 
REMARK    4  A    between atoms: C_6  and  C_7 
REMARK    5  A    between atoms: C_7  and  C_10 
REMARK    6  A    between atoms: C_10  and  C_11 
ROOT
HETATM    1  O   UNK N   1      29.325  26.556  -5.339  0.00  0.00    -0.270 OA
HETATM    2  O   UNK N   1      25.725  25.627  -8.087  0.00  0.00    -0.270 OA
HETATM    3  N   UNK N   1      28.154  24.686  -5.900  0.00  0.00    -0.214 N 
HETATM    4  N   UNK N   1      27.081  24.402  -6.720  0.00  0.00    -0.214 N 
HETATM    5  C   UNK N   1      27.504  26.742  -6.907  0.00  0.00     0.174 A 
HETATM    6  C   UNK N   1      28.430  26.012  -5.968  0.00  0.00     0.257 A 
HETATM    7  C   UNK N   1      26.643  25.559  -7.284  0.00  0.00     0.257 A 
ENDROOT
BRANCH   3   8
HETATM    8  C   UNK N   1      28.904  23.770  -5.074  0.00  0.00     0.060 A 
HETATM    9  C   UNK N   1      29.837  22.868  -5.617  0.00  0.00     0.034 A 
HETATM   10  C   UNK N   1      30.579  22.021  -4.788  0.00  0.00     0.039 A 
HETATM   11  C   UNK N   1      30.386  22.050  -3.405  0.00  0.00     0.065 A 
HETATM   12  C   UNK N   1      29.428  22.901  -2.856  0.00  0.00     0.039 A 
HETATM   13  C   UNK N   1      28.687  23.745  -3.685  0.00  0.00     0.034 A 
BRANCH  11  14
HETATM   14  O   UNK N   1      31.121  21.261  -2.604  0.00  0.00    -0.361 OA
HETATM   15  H   UNK N   1      31.314  20.381  -2.860  0.00  0.00     0.217 HD
ENDBRANCH  11  14
ENDBRANCH   3   8
BRANCH   4  16
HETATM   16  C   UNK N   1      26.607  23.093  -7.133  0.00  0.00     0.060 A 
HETATM   17  C   UNK N   1      25.396  22.578  -6.626  0.00  0.00     0.031 A 
HETATM   18  C   UNK N   1      24.870  21.369  -7.090  0.00  0.00     0.002 A 
HETATM   19  C   UNK N   1      25.541  20.652  -8.080  0.00  0.00     0.000 A 
HETATM   20  C   UNK N   1      26.732  21.148  -8.607  0.00  0.00     0.002 A 
HETATM   21  C   UNK N   1      27.245  22.363  -8.146  0.00  0.00     0.031 A 
ENDBRANCH   4  16
BRANCH   5  22
HETATM   22  C   UNK N   1      26.704  27.854  -6.261  0.00  0.00     0.024 C 
BRANCH  22  23
HETATM   23  C   UNK N   1      25.647  27.192  -5.389  0.00  0.00     0.001 C 
BRANCH  23  24
HETATM   24  C   UNK N   1      25.575  27.834  -4.019  0.00  0.00    -0.005 C 
HETATM   25  C   UNK N   1      26.320  26.982  -3.010  0.00  0.00     0.005 C 
ENDBRANCH  23  24
ENDBRANCH  22  23
ENDBRANCH   5  22
TORSDOF 6
ENDMDL
MODEL 6
REMARK VINA RESULT:      -6.2      2.390      3.610
REMARK  6 active torsions:
REMARK  status: ('A' for Active; 'I' for Inactive)
REMARK    1  A    between atoms: O_3  and  C_23 
REMARK    2  A    between atoms: N_4  and  C_12 
REMARK    3  A    between atoms: N_5  and  C_13 
REMARK    4  A    between atoms: C_6  and  C_7 
REMARK    5  A    between atoms: C_7  and  C_10 
REMARK    6  A    between atoms: C_10  and  C_11 
ROOT
HETATM    1  O   UNK N   1      19.292  16.457   5.998  0.00  0.00    -0.270 OA
HETATM    2  O   UNK N   1      23.478  14.843   7.114  0.00  0.00    -0.270 OA
HETATM    3  N   UNK N   1      21.404  16.742   5.200  0.00  0.00    -0.214 N 
HETATM    4  N   UNK N   1      22.657  16.263   5.527  0.00  0.00    -0.214 N 
HETATM    5  C   UNK N   1      21.108  15.265   7.042  0.00  0.00     0.174 A 
HETATM    6  C   UNK N   1      20.487  16.206   6.042  0.00  0.00     0.257 A 
HETATM    7  C   UNK N   1      22.544  15.447   6.609  0.00  0.00     0.257 A 
ENDROOT
BRANCH   3   8
HETATM    8  C   UNK N   1      21.058  17.669   4.148  0.00  0.00     0.060 A 
HETATM    9  C   UNK N   1      21.131  19.061   4.327  0.00  0.00     0.034 A 
HETATM   10  C   UNK N   1      20.829  19.934   3.276  0.00  0.00     0.039 A 
HETATM   11  C   UNK N   1      20.432  19.427   2.037  0.00  0.00     0.065 A 
HETATM   12  C   UNK N   1      20.304  18.050   1.860  0.00  0.00     0.039 A 
HETATM   13  C   UNK N   1      20.604  17.180   2.910  0.00  0.00     0.034 A 
BRANCH  11  14
HETATM   14  O   UNK N   1      20.174  20.262   1.018  0.00  0.00    -0.361 OA
HETATM   15  H   UNK N   1      20.698  21.028   0.892  0.00  0.00     0.217 HD
ENDBRANCH  11  14
ENDBRANCH   3   8
BRANCH   4  16
HETATM   16  C   UNK N   1      23.878  16.383   4.752  0.00  0.00     0.060 A 
HETATM   17  C   UNK N   1      24.155  15.478   3.707  0.00  0.00     0.031 A 
HETATM   18  C   UNK N   1      25.271  15.639   2.882  0.00  0.00     0.002 A 
HETATM   19  C   UNK N   1      26.133  16.718   3.079  0.00  0.00     0.000 A 
HETATM   20  C   UNK N   1      25.873  17.634   4.097  0.00  0.00     0.002 A 
HETATM   21  C   UNK N   1      24.748  17.472   4.909  0.00  0.00     0.031 A 
ENDBRANCH   4  16
BRANCH   5  22
HETATM   22  C   UNK N   1      20.889  15.655   8.490  0.00  0.00     0.024 C 
BRANCH  22  23
HETATM   23  C   UNK N   1      20.444  14.399   9.226  0.00  0.00     0.001 C 
BRANCH  23  24
HETATM   24  C   UNK N   1      21.611  13.705   9.897  0.00  0.00    -0.005 C 
HETATM   25  C   UNK N   1      21.108  12.559  10.753  0.00  0.00     0.005 C 
ENDBRANCH  23  24
ENDBRANCH  22  23
ENDBRANCH   5  22
TORSDOF 6
ENDMDL
MODEL 7
REMARK VINA RESULT:      -6.0      5.335      8.168
REMARK  6 active torsions:
REMARK  status: ('A' for Active; 'I' for Inactive)
REMARK    1  A    between atoms: O_3  and  C_23 
REMARK    2  A    between atoms: N_4  and  C_12 
REMARK    3  A    between atoms: N_5  and  C_13 
REMARK    4  A    between atoms: C_6  and  C_7 
REMARK    5  A    between atoms: C_7  and  C_10 
REMARK    6  A    between atoms: C_10  and  C_11 
ROOT
HETATM    1  O   UNK N   1      29.175  15.754   6.007  0.00  0.00    -0.270 OA
HETATM    2  O   UNK N   1      27.703  20.067   6.781  0.00  0.00    -0.270 OA
HETATM    3  N   UNK N   1      27.533  17.083   5.159  0.00  0.00    -0.214 N 
HETATM    4  N   UNK N   1      27.089  18.370   5.384  0.00  0.00    -0.214 N 
HETATM    5  C   UNK N   1      28.936  18.000   6.848  0.00  0.00     0.174 A 
HETATM    6  C   UNK N   1      28.582  16.822   5.977  0.00  0.00     0.257 A 
HETATM    7  C   UNK N   1      27.834  18.921   6.379  0.00  0.00     0.257 A 
ENDROOT
BRANCH   3   8
HETATM    8  C   UNK N   1      27.007  16.116   4.224  0.00  0.00     0.060 A 
HETATM    9  C   UNK N   1      27.500  16.003   2.912  0.00  0.00     0.034 A 
HETATM   10  C   UNK N   1      27.000  15.029   2.042  0.00  0.00     0.039 A 
HETATM   11  C   UNK N   1      25.986  14.166   2.465  0.00  0.00     0.065 A 
HETATM   12  C   UNK N   1      25.451  14.300   3.745  0.00  0.00     0.039 A 
HETATM   13  C   UNK N   1      25.950  15.274   4.612  0.00  0.00     0.034 A 
BRANCH  11  14
HETATM   14  O   UNK N   1      25.527  13.210   1.642  0.00  0.00    -0.361 OA
HETATM   15  H   UNK N   1      24.786  13.376   1.094  0.00  0.00     0.217 HD
ENDBRANCH  11  14
ENDBRANCH   3   8
BRANCH   4  16
HETATM   16  C   UNK N   1      26.157  19.137   4.577  0.00  0.00     0.060 A 
HETATM   17  C   UNK N   1      26.628  20.007   3.573  0.00  0.00     0.031 A 
HETATM   18  C   UNK N   1      25.746  20.673   2.717  0.00  0.00     0.002 A 
HETATM   19  C   UNK N   1      24.371  20.474   2.841  0.00  0.00     0.000 A 
HETATM   20  C   UNK N   1      23.883  19.608   3.817  0.00  0.00     0.002 A 
HETATM   21  C   UNK N   1      24.771  18.938   4.661  0.00  0.00     0.031 A 
ENDBRANCH   4  16
BRANCH   5  22
HETATM   22  C   UNK N   1      28.861  17.724   8.337  0.00  0.00     0.024 C 
BRANCH  22  23
HETATM   23  C   UNK N   1      30.182  18.180   8.940  0.00  0.00     0.001 C 
BRANCH  23  24
HETATM   24  C   UNK N   1      31.302  17.209   8.625  0.00  0.00    -0.005 C 
HETATM   25  C   UNK N   1      32.544  17.972   8.206  0.00  0.00     0.005 C 
ENDBRANCH  23  24
ENDBRANCH  22  23
ENDBRANCH   5  22
TORSDOF 6
ENDMDL
MODEL 8
REMARK VINA RESULT:      -6.0      9.982     12.134
REMARK  6 active torsions:
REMARK  status: ('A' for Active; 'I' for Inactive)
REMARK    1  A    between atoms: O_3  and  C_23 
REMARK    2  A    between atoms: N_4  and  C_12 
REMARK    3  A    between atoms: N_5  and  C_13 
REMARK    4  A    between atoms: C_6  and  C_7 
REMARK    5  A    between atoms: C_7  and  C_10 
REMARK    6  A    between atoms: C_10  and  C_11 
ROOT
HETATM    1  O   UNK N   1      31.840  15.041  10.021  0.00  0.00    -0.270 OA
HETATM    2  O   UNK N   1      34.681  14.350   6.440  0.00  0.00    -0.270 OA
HETATM    3  N   UNK N   1      31.998  15.848   7.899  0.00  0.00    -0.214 N 
HETATM    4  N   UNK N   1      32.842  15.646   6.825  0.00  0.00    -0.214 N 
HETATM    5  C   UNK N   1      33.599  14.228   8.588  0.00  0.00     0.174 A 
HETATM    6  C   UNK N   1      32.394  15.065   8.932  0.00  0.00     0.257 A 
HETATM    7  C   UNK N   1      33.806  14.758   7.188  0.00  0.00     0.257 A 
ENDROOT
BRANCH   3   8
HETATM    8  C   UNK N   1      30.863  16.737   7.977  0.00  0.00     0.060 A 
HETATM    9  C   UNK N   1      29.690  16.516   7.235  0.00  0.00     0.034 A 
HETATM   10  C   UNK N   1      28.591  17.372   7.363  0.00  0.00     0.039 A 
HETATM   11  C   UNK N   1      28.656  18.472   8.221  0.00  0.00     0.065 A 
HETATM   12  C   UNK N   1      29.831  18.734   8.924  0.00  0.00     0.039 A 
HETATM   13  C   UNK N   1      30.928  17.880   8.794  0.00  0.00     0.034 A 
BRANCH  11  14
HETATM   14  O   UNK N   1      27.591  19.276   8.370  0.00  0.00    -0.361 OA
HETATM   15  H   UNK N   1      26.728  18.945   8.219  0.00  0.00     0.217 HD
ENDBRANCH  11  14
ENDBRANCH   3   8
BRANCH   4  16
HETATM   16  C   UNK N   1      32.651  16.088   5.456  0.00  0.00     0.060 A 
HETATM   17  C   UNK N   1      31.984  15.266   4.524  0.00  0.00     0.031 A 
HETATM   18  C   UNK N   1      31.697  15.717   3.233  0.00  0.00     0.002 A 
HETATM   19  C   UNK N   1      32.064  17.006   2.847  0.00  0.00     0.000 A 
HETATM   20  C   UNK N   1      32.711  17.842   3.755  0.00  0.00     0.002 A 
HETATM   21  C   UNK N   1      32.984  17.388   5.047  0.00  0.00     0.031 A 
ENDBRANCH   4  16
BRANCH   5  22
HETATM   22  C   UNK N   1      34.803  14.464   9.477  0.00  0.00     0.024 C 
BRANCH  22  23
HETATM   23  C   UNK N   1      35.088  15.959   9.450  0.00  0.00     0.001 C 
BRANCH  23  24
HETATM   24  C   UNK N   1      35.227  16.524  10.849  0.00  0.00    -0.005 C 
HETATM   25  C   UNK N   1      35.847  15.487  11.766  0.00  0.00     0.005 C 
ENDBRANCH  23  24
ENDBRANCH  22  23
ENDBRANCH   5  22
TORSDOF 6
ENDMDL
MODEL 9
REMARK VINA RESULT:      -6.0     13.587     14.881
REMARK  6 active torsions:
REMARK  status: ('A' for Active; 'I' for Inactive)
REMARK    1  A    between atoms: O_3  and  C_23 
REMARK    2  A    between atoms: N_4  and  C_12 
REMARK    3  A    between atoms: N_5  and  C_13 
REMARK    4  A    between atoms: C_6  and  C_7 
REMARK    5  A    between atoms: C_7  and  C_10 
REMARK    6  A    between atoms: C_10  and  C_11 
ROOT
HETATM    1  O   UNK N   1      30.052  23.893  -2.391  0.00  0.00    -0.270 OA
HETATM    2  O   UNK N   1      29.802  21.396  -6.273  0.00  0.00    -0.270 OA
HETATM    3  N   UNK N   1      28.925  24.068  -4.360  0.00  0.00    -0.214 N 
HETATM    4  N   UNK N   1      28.845  23.327  -5.521  0.00  0.00    -0.214 N 
HETATM    5  C   UNK N   1      30.345  22.182  -4.062  0.00  0.00     0.174 A 
HETATM    6  C   UNK N   1      29.776  23.458  -3.498  0.00  0.00     0.257 A 
HETATM    7  C   UNK N   1      29.679  22.258  -5.417  0.00  0.00     0.257 A 
ENDROOT
BRANCH   3   8
HETATM    8  C   UNK N   1      28.246  25.304  -4.050  0.00  0.00     0.060 A 
HETATM    9  C   UNK N   1      26.919  25.329  -3.584  0.00  0.00     0.034 A 
HETATM   10  C   UNK N   1      26.300  26.539  -3.252  0.00  0.00     0.039 A 
HETATM   11  C   UNK N   1      26.993  27.743  -3.399  0.00  0.00     0.065 A 
HETATM   12  C   UNK N   1      28.291  27.739  -3.909  0.00  0.00     0.039 A 
HETATM   13  C   UNK N   1      28.906  26.530  -4.242  0.00  0.00     0.034 A 
BRANCH  11  14
HETATM   14  O   UNK N   1      26.413  28.902  -3.050  0.00  0.00    -0.361 OA
HETATM   15  H   UNK N   1      26.761  29.715  -3.359  0.00  0.00     0.217 HD
ENDBRANCH  11  14
ENDBRANCH   3   8
BRANCH   4  16
HETATM   16  C   UNK N   1      27.886  23.477  -6.601  0.00  0.00     0.060 A 
HETATM   17  C   UNK N   1      26.622  22.855  -6.528  0.00  0.00     0.031 A 
HETATM   18  C   UNK N   1      25.648  23.073  -7.505  0.00  0.00     0.002 A 
HETATM   19  C   UNK N   1      25.912  23.929  -8.575  0.00  0.00     0.000 A 
HETATM   20  C   UNK N   1      27.148  24.567  -8.660  0.00  0.00     0.002 A 
HETATM   21  C   UNK N   1      28.113  24.352  -7.673  0.00  0.00     0.031 A 
ENDBRANCH   4  16
BRANCH   5  22
HETATM   22  C   UNK N   1      31.857  22.160  -4.165  0.00  0.00     0.024 C 
BRANCH  22  23
HETATM   23  C   UNK N   1      32.370  21.333  -2.995  0.00  0.00     0.001 C 
BRANCH  23  24
HETATM   24  C   UNK N   1      33.816  20.926  -3.193  0.00  0.00    -0.005 C 
HETATM   25  C   UNK N   1      33.883  19.601  -3.928  0.00  0.00     0.005 C 
ENDBRANCH  23  24
ENDBRANCH  22  23
ENDBRANCH   5  22
TORSDOF 6
ENDMDL
