MODEL 1
REMARK VINA RESULT:      -8.3      0.000      0.000
REMARK  4 active torsions:
REMARK  status: ('A' for Active; 'I' for Inactive)
REMARK    1  A    between atoms: O_3  and  C_26 
REMARK    2  A    between atoms: N_5  and  C_8 
REMARK    3  A    between atoms: N_6  and  C_14 
REMARK    4  A    between atoms: C_21  and  C_26 
ROOT
HETATM    1  F   UNK N   1      30.497  16.744   2.448  0.00  0.00    -0.203 F 
HETATM    2  O   UNK N   1      34.194  17.562   5.844  0.00  0.00    -0.286 OA
HETATM    3  N   UNK N   1      30.780  17.452   7.951  0.00  0.00    -0.350 N 
HETATM    4  C   UNK N   1      30.727  17.269   6.588  0.00  0.00     0.051 A 
HETATM    5  C   UNK N   1      31.968  17.675   8.573  0.00  0.00     0.114 A 
HETATM    6  C   UNK N   1      31.914  17.285   5.809  0.00  0.00     0.051 A 
HETATM    7  C   UNK N   1      29.377  16.936   4.573  0.00  0.00     0.072 A 
HETATM    8  C   UNK N   1      29.496  17.087   5.955  0.00  0.00     0.063 A 
HETATM    9  C   UNK N   1      31.814  17.076   4.400  0.00  0.00    -0.005 A 
HETATM   10  C   UNK N   1      33.167  17.737   7.864  0.00  0.00     0.104 A 
HETATM   11  C   UNK N   1      33.148  17.522   6.472  0.00  0.00     0.203 A 
HETATM   12  C   UNK N   1      30.555  16.909   3.795  0.00  0.00     0.149 A 
HETATM   13  C   UNK N   1      33.019  17.054   3.510  0.00  0.00     0.052 C 
ENDROOT
BRANCH   7  14
HETATM   14  N   UNK N   1      28.063  16.875   3.996  0.00  0.00    -0.375 N 
HETATM   15  C   UNK N   1      27.183  18.029   4.115  0.00  0.00     0.147 C 
HETATM   16  C   UNK N   1      25.912  17.836   3.305  0.00  0.00     0.090 C 
HETATM   17  N   UNK N   1      25.314  16.551   3.657  0.00  0.00    -0.414 N 
HETATM   18  C   UNK N   1      24.945  18.959   3.616  0.00  0.00     0.033 C 
HETATM   19  C   UNK N   1      26.187  15.420   3.299  0.00  0.00     0.134 C 
HETATM   20  H   UNK N   1      24.400  16.449   4.101  0.00  0.00     0.153 HD
HETATM   21  C   UNK N   1      27.669  15.788   3.117  0.00  0.00     0.142 C 
ENDBRANCH   7  14
BRANCH   3  22
HETATM   22  C   UNK N   1      29.570  17.378   8.793  0.00  0.00     0.090 A 
HETATM   23  C   UNK N   1      28.785  18.685   8.764  0.00  0.00     0.028 A 
HETATM   24  C   UNK N   1      29.653  18.366   9.952  0.00  0.00     0.028 A 
ENDBRANCH   3  22
BRANCH  10  25
HETATM   25  C   UNK N   1      34.412  18.051   8.615  0.00  0.00     0.181 C 
HETATM   26  O   UNK N   1      34.787  17.341   9.534  0.00  0.00    -0.646 OA
BRANCH  25  27
HETATM   27  O   UNK N   1      35.160  19.114   8.260  0.00  0.00    -0.772 OA
HETATM   28  H   UNK N   1      36.095  19.060   8.264  0.00  0.00     0.167 HD
ENDBRANCH  25  27
ENDBRANCH  10  25
TORSDOF 4
ENDMDL
MODEL 2
REMARK VINA RESULT:      -8.0      0.480      1.421
REMARK  4 active torsions:
REMARK  status: ('A' for Active; 'I' for Inactive)
REMARK    1  A    between atoms: O_3  and  C_26 
REMARK    2  A    between atoms: N_5  and  C_8 
REMARK    3  A    between atoms: N_6  and  C_14 
REMARK    4  A    between atoms: C_21  and  C_26 
ROOT
HETATM    1  F   UNK N   1      30.323  16.585   2.683  0.00  0.00    -0.203 F 
HETATM    2  O   UNK N   1      34.172  17.625   5.841  0.00  0.00    -0.286 OA
HETATM    3  N   UNK N   1      30.894  17.410   8.147  0.00  0.00    -0.350 N 
HETATM    4  C   UNK N   1      30.770  17.199   6.793  0.00  0.00     0.051 A 
HETATM    5  C   UNK N   1      32.106  17.695   8.694  0.00  0.00     0.114 A 
HETATM    6  C   UNK N   1      31.909  17.250   5.945  0.00  0.00     0.051 A 
HETATM    7  C   UNK N   1      29.321  16.770   4.866  0.00  0.00     0.072 A 
HETATM    8  C   UNK N   1      29.514  16.952   6.236  0.00  0.00     0.063 A 
HETATM    9  C   UNK N   1      31.736  17.011   4.548  0.00  0.00    -0.005 A 
HETATM   10  C   UNK N   1      33.258  17.795   7.915  0.00  0.00     0.104 A 
HETATM   11  C   UNK N   1      33.167  17.553   6.530  0.00  0.00     0.203 A 
HETATM   12  C   UNK N   1      30.452  16.778   4.021  0.00  0.00     0.149 A 
HETATM   13  C   UNK N   1      32.886  17.022   3.589  0.00  0.00     0.052 C 
ENDROOT
BRANCH   7  14
HETATM   14  N   UNK N   1      27.980  16.641   4.369  0.00  0.00    -0.375 N 
HETATM   15  C   UNK N   1      27.558  15.372   3.793  0.00  0.00     0.147 C 
HETATM   16  C   UNK N   1      26.070  15.381   3.478  0.00  0.00     0.090 C 
HETATM   17  N   UNK N   1      25.759  16.566   2.684  0.00  0.00    -0.414 N 
HETATM   18  C   UNK N   1      25.716  14.130   2.702  0.00  0.00     0.033 C 
HETATM   19  C   UNK N   1      26.013  17.812   3.429  0.00  0.00     0.134 C 
HETATM   20  H   UNK N   1      25.408  16.535   1.726  0.00  0.00     0.153 HD
HETATM   21  C   UNK N   1      26.976  17.661   4.619  0.00  0.00     0.142 C 
ENDBRANCH   7  14
BRANCH   3  22
HETATM   22  C   UNK N   1      29.741  17.300   9.060  0.00  0.00     0.090 A 
HETATM   23  C   UNK N   1      28.794  18.487   8.914  0.00  0.00     0.028 A 
HETATM   24  C   UNK N   1      29.745  18.433  10.081  0.00  0.00     0.028 A 
ENDBRANCH   3  22
BRANCH  10  25
HETATM   25  C   UNK N   1      34.529  18.176   8.585  0.00  0.00     0.181 C 
HETATM   26  O   UNK N   1      35.036  17.453   9.429  0.00  0.00    -0.646 OA
BRANCH  25  27
HETATM   27  O   UNK N   1      35.155  19.319   8.239  0.00  0.00    -0.772 OA
HETATM   28  H   UNK N   1      34.780  19.891   7.599  0.00  0.00     0.167 HD
ENDBRANCH  25  27
ENDBRANCH  10  25
TORSDOF 4
ENDMDL
MODEL 3
REMARK VINA RESULT:      -7.2      5.344      8.745
REMARK  4 active torsions:
REMARK  status: ('A' for Active; 'I' for Inactive)
REMARK    1  A    between atoms: O_3  and  C_26 
REMARK    2  A    between atoms: N_5  and  C_8 
REMARK    3  A    between atoms: N_6  and  C_14 
REMARK    4  A    between atoms: C_21  and  C_26 
ROOT
HETATM    1  F   UNK N   1      28.023  19.533   3.902  0.00  0.00    -0.203 F 
HETATM    2  O   UNK N   1      23.333  20.880   2.470  0.00  0.00    -0.286 OA
HETATM    3  N   UNK N   1      22.859  17.816   5.018  0.00  0.00    -0.350 N 
HETATM    4  C   UNK N   1      24.131  18.258   4.739  0.00  0.00     0.051 A 
HETATM    5  C   UNK N   1      21.780  18.401   4.434  0.00  0.00     0.114 A 
HETATM    6  C   UNK N   1      24.341  19.351   3.855  0.00  0.00     0.051 A 
HETATM    7  C   UNK N   1      26.548  17.999   5.033  0.00  0.00     0.072 A 
HETATM    8  C   UNK N   1      25.234  17.620   5.309  0.00  0.00     0.063 A 
HETATM    9  C   UNK N   1      25.677  19.785   3.606  0.00  0.00    -0.005 A 
HETATM   10  C   UNK N   1      21.915  19.454   3.531  0.00  0.00     0.104 A 
HETATM   11  C   UNK N   1      23.204  19.950   3.250  0.00  0.00     0.203 A 
HETATM   12  C   UNK N   1      26.765  19.110   4.189  0.00  0.00     0.149 A 
HETATM   13  C   UNK N   1      25.984  20.944   2.706  0.00  0.00     0.052 C 
ENDROOT
BRANCH   7  14
HETATM   14  N   UNK N   1      27.622  17.210   5.569  0.00  0.00    -0.375 N 
HETATM   15  C   UNK N   1      28.531  17.814   6.533  0.00  0.00     0.147 C 
HETATM   16  C   UNK N   1      29.489  16.781   7.104  0.00  0.00     0.090 C 
HETATM   17  N   UNK N   1      30.127  16.064   6.004  0.00  0.00    -0.414 N 
HETATM   18  C   UNK N   1      30.539  17.483   7.941  0.00  0.00     0.033 C 
HETATM   19  C   UNK N   1      29.152  15.300   5.206  0.00  0.00     0.134 C 
HETATM   20  H   UNK N   1      31.129  16.090   5.810  0.00  0.00     0.153 HD
HETATM   21  C   UNK N   1      27.697  15.777   5.345  0.00  0.00     0.142 C 
ENDBRANCH   7  14
BRANCH   3  22
HETATM   22  C   UNK N   1      22.608  16.726   5.981  0.00  0.00     0.090 A 
HETATM   23  C   UNK N   1      22.267  15.419   5.272  0.00  0.00     0.028 A 
HETATM   24  C   UNK N   1      21.166  16.239   5.888  0.00  0.00     0.028 A 
ENDBRANCH   3  22
BRANCH  10  25
HETATM   25  C   UNK N   1      20.687  19.992   2.888  0.00  0.00     0.181 C 
HETATM   26  O   UNK N   1      19.690  19.298   2.760  0.00  0.00    -0.646 OA
BRANCH  25  27
HETATM   27  O   UNK N   1      20.654  21.272   2.468  0.00  0.00    -0.772 OA
HETATM   28  H   UNK N   1      19.836  21.693   2.291  0.00  0.00     0.167 HD
ENDBRANCH  25  27
ENDBRANCH  10  25
TORSDOF 4
ENDMDL
MODEL 4
REMARK VINA RESULT:      -6.9      5.008      8.794
REMARK  4 active torsions:
REMARK  status: ('A' for Active; 'I' for Inactive)
REMARK    1  A    between atoms: O_3  and  C_26 
REMARK    2  A    between atoms: N_5  and  C_8 
REMARK    3  A    between atoms: N_6  and  C_14 
REMARK    4  A    between atoms: C_21  and  C_26 
ROOT
HETATM    1  F   UNK N   1      35.447  16.904  10.307  0.00  0.00    -0.203 F 
HETATM    2  O   UNK N   1      33.653  17.992   5.674  0.00  0.00    -0.286 OA
HETATM    3  N   UNK N   1      33.857  13.988   5.854  0.00  0.00    -0.350 N 
HETATM    4  C   UNK N   1      34.239  14.724   6.952  0.00  0.00     0.051 A 
HETATM    5  C   UNK N   1      33.427  14.607   4.723  0.00  0.00     0.114 A 
HETATM    6  C   UNK N   1      34.166  16.142   6.934  0.00  0.00     0.051 A 
HETATM    7  C   UNK N   1      35.161  14.773   9.220  0.00  0.00     0.072 A 
HETATM    8  C   UNK N   1      34.723  14.079   8.092  0.00  0.00     0.063 A 
HETATM    9  C   UNK N   1      34.558  16.865   8.101  0.00  0.00    -0.005 A 
HETATM   10  C   UNK N   1      33.363  15.997   4.625  0.00  0.00     0.104 A 
HETATM   11  C   UNK N   1      33.717  16.775   5.745  0.00  0.00     0.203 A 
HETATM   12  C   UNK N   1      35.053  16.181   9.227  0.00  0.00     0.149 A 
HETATM   13  C   UNK N   1      34.490  18.360   8.175  0.00  0.00     0.052 C 
ENDROOT
BRANCH   7  14
HETATM   14  N   UNK N   1      35.755  14.033  10.298  0.00  0.00    -0.375 N 
HETATM   15  C   UNK N   1      35.205  14.173  11.639  0.00  0.00     0.147 C 
HETATM   16  C   UNK N   1      35.855  13.194  12.603  0.00  0.00     0.090 C 
HETATM   17  N   UNK N   1      37.307  13.321  12.504  0.00  0.00    -0.414 N 
HETATM   18  C   UNK N   1      35.404  13.507  14.014  0.00  0.00     0.033 C 
HETATM   19  C   UNK N   1      37.802  12.949  11.167  0.00  0.00     0.134 C 
HETATM   20  H   UNK N   1      37.906  13.633  13.269  0.00  0.00     0.153 HD
HETATM   21  C   UNK N   1      36.741  12.995  10.055  0.00  0.00     0.142 C 
ENDBRANCH   7  14
BRANCH   3  22
HETATM   22  C   UNK N   1      33.862  12.513   5.866  0.00  0.00     0.090 A 
HETATM   23  C   UNK N   1      35.075  11.949   5.132  0.00  0.00     0.028 A 
HETATM   24  C   UNK N   1      33.732  11.956   4.452  0.00  0.00     0.028 A 
ENDBRANCH   3  22
BRANCH  10  25
HETATM   25  C   UNK N   1      32.943  16.592   3.329  0.00  0.00     0.181 C 
HETATM   26  O   UNK N   1      33.381  16.167   2.271  0.00  0.00    -0.646 OA
BRANCH  25  27
HETATM   27  O   UNK N   1      32.042  17.594   3.310  0.00  0.00    -0.772 OA
HETATM   28  H   UNK N   1      32.084  18.282   3.945  0.00  0.00     0.167 HD
ENDBRANCH  25  27
ENDBRANCH  10  25
TORSDOF 4
ENDMDL
MODEL 5
REMARK VINA RESULT:      -6.9      3.424      7.114
REMARK  4 active torsions:
REMARK  status: ('A' for Active; 'I' for Inactive)
REMARK    1  A    between atoms: O_3  and  C_26 
REMARK    2  A    between atoms: N_5  and  C_8 
REMARK    3  A    between atoms: N_6  and  C_14 
REMARK    4  A    between atoms: C_21  and  C_26 
ROOT
HETATM    1  F   UNK N   1      35.160  15.895   6.201  0.00  0.00    -0.203 F 
HETATM    2  O   UNK N   1      30.838  17.181   3.847  0.00  0.00    -0.286 OA
HETATM    3  N   UNK N   1      29.996  17.214   7.771  0.00  0.00    -0.350 N 
HETATM    4  C   UNK N   1      31.273  16.898   7.367  0.00  0.00     0.051 A 
HETATM    5  C   UNK N   1      29.033  17.501   6.856  0.00  0.00     0.114 A 
HETATM    6  C   UNK N   1      31.616  16.891   5.989  0.00  0.00     0.051 A 
HETATM    7  C   UNK N   1      33.541  16.193   7.962  0.00  0.00     0.072 A 
HETATM    8  C   UNK N   1      32.242  16.559   8.313  0.00  0.00     0.063 A 
HETATM    9  C   UNK N   1      32.956  16.572   5.616  0.00  0.00    -0.005 A 
HETATM   10  C   UNK N   1      29.292  17.479   5.486  0.00  0.00     0.104 A 
HETATM   11  C   UNK N   1      30.598  17.191   5.044  0.00  0.00     0.203 A 
HETATM   12  C   UNK N   1      33.903  16.224   6.597  0.00  0.00     0.149 A 
HETATM   13  C   UNK N   1      33.406  16.566   4.187  0.00  0.00     0.052 C 
ENDROOT
BRANCH   7  14
HETATM   14  N   UNK N   1      34.436  15.744   8.992  0.00  0.00    -0.375 N 
HETATM   15  C   UNK N   1      34.808  14.337   9.042  0.00  0.00     0.147 C 
HETATM   16  C   UNK N   1      35.882  14.092  10.090  0.00  0.00     0.090 C 
HETATM   17  N   UNK N   1      35.451  14.673  11.359  0.00  0.00    -0.414 N 
HETATM   18  C   UNK N   1      36.093  12.601  10.250  0.00  0.00     0.033 C 
HETATM   19  C   UNK N   1      35.309  16.137  11.273  0.00  0.00     0.134 C 
HETATM   20  H   UNK N   1      35.269  14.130  12.203  0.00  0.00     0.153 HD
HETATM   21  C   UNK N   1      35.144  16.683   9.845  0.00  0.00     0.142 C 
ENDBRANCH   7  14
BRANCH   3  22
HETATM   22  C   UNK N   1      29.628  17.291   9.198  0.00  0.00     0.090 A 
HETATM   23  C   UNK N   1      28.350  18.097   9.406  0.00  0.00     0.028 A 
HETATM   24  C   UNK N   1      29.685  18.730   9.698  0.00  0.00     0.028 A 
ENDBRANCH   3  22
BRANCH  10  25
HETATM   25  C   UNK N   1      28.164  17.742   4.553  0.00  0.00     0.181 C 
HETATM   26  O   UNK N   1      27.179  17.020   4.540  0.00  0.00    -0.646 OA
BRANCH  25  27
HETATM   27  O   UNK N   1      28.207  18.809   3.730  0.00  0.00    -0.772 OA
HETATM   28  H   UNK N   1      29.023  19.097   3.369  0.00  0.00     0.167 HD
ENDBRANCH  25  27
ENDBRANCH  10  25
TORSDOF 4
ENDMDL
MODEL 6
REMARK VINA RESULT:      -6.8      2.076      3.788
REMARK  4 active torsions:
REMARK  status: ('A' for Active; 'I' for Inactive)
REMARK    1  A    between atoms: O_3  and  C_26 
REMARK    2  A    between atoms: N_5  and  C_8 
REMARK    3  A    between atoms: N_6  and  C_14 
REMARK    4  A    between atoms: C_21  and  C_26 
ROOT
HETATM    1  F   UNK N   1      27.531  18.578   7.877  0.00  0.00    -0.203 F 
HETATM    2  O   UNK N   1      32.305  17.207   8.969  0.00  0.00    -0.286 OA
HETATM    3  N   UNK N   1      31.941  16.822   4.991  0.00  0.00    -0.350 N 
HETATM    4  C   UNK N   1      30.860  17.264   5.718  0.00  0.00     0.051 A 
HETATM    5  C   UNK N   1      33.110  16.511   5.611  0.00  0.00     0.114 A 
HETATM    6  C   UNK N   1      30.953  17.430   7.126  0.00  0.00     0.051 A 
HETATM    7  C   UNK N   1      28.510  17.950   5.767  0.00  0.00     0.072 A 
HETATM    8  C   UNK N   1      29.650  17.536   5.077  0.00  0.00     0.063 A 
HETATM    9  C   UNK N   1      29.812  17.905   7.839  0.00  0.00    -0.005 A 
HETATM   10  C   UNK N   1      33.260  16.617   6.993  0.00  0.00     0.104 A 
HETATM   11  C   UNK N   1      32.181  17.098   7.760  0.00  0.00     0.203 A 
HETATM   12  C   UNK N   1      28.605  18.157   7.160  0.00  0.00     0.149 A 
HETATM   13  C   UNK N   1      29.832  18.130   9.320  0.00  0.00     0.052 C 
ENDROOT
BRANCH   7  14
HETATM   14  N   UNK N   1      27.278  18.090   5.042  0.00  0.00    -0.375 N 
HETATM   15  C   UNK N   1      27.078  19.265   4.206  0.00  0.00     0.147 C 
HETATM   16  C   UNK N   1      25.795  19.152   3.398  0.00  0.00     0.090 C 
HETATM   17  N   UNK N   1      24.693  18.828   4.299  0.00  0.00    -0.414 N 
HETATM   18  C   UNK N   1      25.525  20.470   2.703  0.00  0.00     0.033 C 
HETATM   19  C   UNK N   1      24.874  17.514   4.941  0.00  0.00     0.134 C 
HETATM   20  H   UNK N   1      23.893  19.439   4.466  0.00  0.00     0.153 HD
HETATM   21  C   UNK N   1      26.323  16.999   4.949  0.00  0.00     0.142 C 
ENDBRANCH   7  14
BRANCH   3  22
HETATM   22  C   UNK N   1      31.893  16.701   3.521  0.00  0.00     0.090 A 
HETATM   23  C   UNK N   1      31.814  15.243   3.080  0.00  0.00     0.028 A 
HETATM   24  C   UNK N   1      33.126  15.976   2.994  0.00  0.00     0.028 A 
ENDBRANCH   3  22
BRANCH  10  25
HETATM   25  C   UNK N   1      34.552  16.194   7.595  0.00  0.00     0.181 C 
HETATM   26  O   UNK N   1      35.268  15.378   7.036  0.00  0.00    -0.646 OA
BRANCH  25  27
HETATM   27  O   UNK N   1      34.962  16.739   8.758  0.00  0.00    -0.772 OA
HETATM   28  H   UNK N   1      34.554  16.496   9.566  0.00  0.00     0.167 HD
ENDBRANCH  25  27
ENDBRANCH  10  25
TORSDOF 4
ENDMDL
MODEL 7
REMARK VINA RESULT:      -6.8      2.027      3.784
REMARK  4 active torsions:
REMARK  status: ('A' for Active; 'I' for Inactive)
REMARK    1  A    between atoms: O_3  and  C_26 
REMARK    2  A    between atoms: N_5  and  C_8 
REMARK    3  A    between atoms: N_6  and  C_14 
REMARK    4  A    between atoms: C_21  and  C_26 
ROOT
HETATM    1  F   UNK N   1      27.059  16.813   7.261  0.00  0.00    -0.203 F 
HETATM    2  O   UNK N   1      31.591  18.301   9.027  0.00  0.00    -0.286 OA
HETATM    3  N   UNK N   1      32.334  16.410   5.566  0.00  0.00    -0.350 N 
HETATM    4  C   UNK N   1      31.032  16.526   5.994  0.00  0.00     0.051 A 
HETATM    5  C   UNK N   1      33.353  16.919   6.307  0.00  0.00     0.114 A 
HETATM    6  C   UNK N   1      30.725  17.202   7.206  0.00  0.00     0.051 A 
HETATM    7  C   UNK N   1      28.663  16.009   5.652  0.00  0.00     0.072 A 
HETATM    8  C   UNK N   1      29.997  15.958   5.248  0.00  0.00     0.063 A 
HETATM    9  C   UNK N   1      29.359  17.311   7.604  0.00  0.00    -0.005 A 
HETATM   10  C   UNK N   1      33.127  17.565   7.522  0.00  0.00     0.104 A 
HETATM   11  C   UNK N   1      31.801  17.726   7.971  0.00  0.00     0.203 A 
HETATM   12  C   UNK N   1      28.344  16.715   6.833  0.00  0.00     0.149 A 
HETATM   13  C   UNK N   1      28.948  18.028   8.854  0.00  0.00     0.052 C 
ENDROOT
BRANCH   7  14
HETATM   14  N   UNK N   1      27.681  15.295   4.885  0.00  0.00    -0.375 N 
HETATM   15  C   UNK N   1      27.338  15.775   3.554  0.00  0.00     0.147 C 
HETATM   16  C   UNK N   1      26.413  14.801   2.842  0.00  0.00     0.090 C 
HETATM   17  N   UNK N   1      25.279  14.499   3.712  0.00  0.00    -0.414 N 
HETATM   18  C   UNK N   1      25.923  15.428   1.553  0.00  0.00     0.033 C 
HETATM   19  C   UNK N   1      25.700  13.815   4.947  0.00  0.00     0.134 C 
HETATM   20  H   UNK N   1      24.311  14.736   3.491  0.00  0.00     0.153 HD
HETATM   21  C   UNK N   1      27.184  13.998   5.307  0.00  0.00     0.142 C 
ENDBRANCH   7  14
BRANCH   3  22
HETATM   22  C   UNK N   1      32.676  15.769   4.281  0.00  0.00     0.090 A 
HETATM   23  C   UNK N   1      32.880  14.266   4.441  0.00  0.00     0.028 A 
HETATM   24  C   UNK N   1      34.078  15.171   4.328  0.00  0.00     0.028 A 
ENDBRANCH   3  22
BRANCH  10  25
HETATM   25  C   UNK N   1      34.304  18.033   8.300  0.00  0.00     0.181 C 
HETATM   26  O   UNK N   1      35.007  18.943   7.888  0.00  0.00    -0.646 OA
BRANCH  25  27
HETATM   27  O   UNK N   1      34.588  17.473   9.493  0.00  0.00    -0.772 OA
HETATM   28  H   UNK N   1      35.124  17.925  10.114  0.00  0.00     0.167 HD
ENDBRANCH  25  27
ENDBRANCH  10  25
TORSDOF 4
ENDMDL
MODEL 8
REMARK VINA RESULT:      -6.8      7.580     10.294
REMARK  4 active torsions:
REMARK  status: ('A' for Active; 'I' for Inactive)
REMARK    1  A    between atoms: O_3  and  C_26 
REMARK    2  A    between atoms: N_5  and  C_8 
REMARK    3  A    between atoms: N_6  and  C_14 
REMARK    4  A    between atoms: C_21  and  C_26 
ROOT
HETATM    1  F   UNK N   1      20.162  14.146   6.610  0.00  0.00    -0.203 F 
HETATM    2  O   UNK N   1      19.700  18.117   3.467  0.00  0.00    -0.286 OA
HETATM    3  N   UNK N   1      23.558  18.040   4.569  0.00  0.00    -0.350 N 
HETATM    4  C   UNK N   1      22.706  17.077   5.059  0.00  0.00     0.051 A 
HETATM    5  C   UNK N   1      23.098  19.007   3.733  0.00  0.00     0.114 A 
HETATM    6  C   UNK N   1      21.337  17.059   4.680  0.00  0.00     0.051 A 
HETATM    7  C   UNK N   1      22.355  15.139   6.515  0.00  0.00     0.072 A 
HETATM    8  C   UNK N   1      23.179  16.115   5.955  0.00  0.00     0.063 A 
HETATM    9  C   UNK N   1      20.494  16.033   5.201  0.00  0.00    -0.005 A 
HETATM   10  C   UNK N   1      21.760  19.070   3.348  0.00  0.00     0.104 A 
HETATM   11  C   UNK N   1      20.871  18.079   3.808  0.00  0.00     0.203 A 
HETATM   12  C   UNK N   1      21.003  15.088   6.111  0.00  0.00     0.149 A 
HETATM   13  C   UNK N   1      19.045  15.928   4.834  0.00  0.00     0.052 C 
ENDROOT
BRANCH   7  14
HETATM   14  N   UNK N   1      22.900  14.267   7.517  0.00  0.00    -0.375 N 
HETATM   15  C   UNK N   1      22.077  13.905   8.663  0.00  0.00     0.147 C 
HETATM   16  C   UNK N   1      22.763  12.852   9.519  0.00  0.00     0.090 C 
HETATM   17  N   UNK N   1      24.116  13.303   9.835  0.00  0.00    -0.414 N 
HETATM   18  C   UNK N   1      21.973  12.655  10.796  0.00  0.00     0.033 C 
HETATM   19  C   UNK N   1      24.949  13.434   8.627  0.00  0.00     0.134 C 
HETATM   20  H   UNK N   1      24.444  13.504  10.780  0.00  0.00     0.153 HD
HETATM   21  C   UNK N   1      24.157  13.569   7.314  0.00  0.00     0.142 C 
ENDBRANCH   7  14
BRANCH   3  22
HETATM   22  C   UNK N   1      24.997  18.045   4.895  0.00  0.00     0.090 A 
HETATM   23  C   UNK N   1      25.513  19.460   5.137  0.00  0.00     0.028 A 
HETATM   24  C   UNK N   1      25.795  18.780   3.824  0.00  0.00     0.028 A 
ENDBRANCH   3  22
BRANCH  10  25
HETATM   25  C   UNK N   1      21.329  20.200   2.482  0.00  0.00     0.181 C 
HETATM   26  O   UNK N   1      21.813  21.313   2.616  0.00  0.00    -0.646 OA
BRANCH  25  27
HETATM   27  O   UNK N   1      20.416  19.994   1.513  0.00  0.00    -0.772 OA
HETATM   28  H   UNK N   1      19.509  19.896   1.728  0.00  0.00     0.167 HD
ENDBRANCH  25  27
ENDBRANCH  10  25
TORSDOF 4
ENDMDL
MODEL 9
REMARK VINA RESULT:      -6.7      3.589      5.445
REMARK  4 active torsions:
REMARK  status: ('A' for Active; 'I' for Inactive)
REMARK    1  A    between atoms: O_3  and  C_26 
REMARK    2  A    between atoms: N_5  and  C_8 
REMARK    3  A    between atoms: N_6  and  C_14 
REMARK    4  A    between atoms: C_21  and  C_26 
ROOT
HETATM    1  F   UNK N   1      29.784  15.668   2.340  0.00  0.00    -0.203 F 
HETATM    2  O   UNK N   1      28.182  18.017   6.557  0.00  0.00    -0.286 OA
HETATM    3  N   UNK N   1      31.530  16.063   7.599  0.00  0.00    -0.350 N 
HETATM    4  C   UNK N   1      31.089  15.983   6.298  0.00  0.00     0.051 A 
HETATM    5  C   UNK N   1      30.837  16.786   8.519  0.00  0.00     0.114 A 
HETATM    6  C   UNK N   1      29.918  16.672   5.885  0.00  0.00     0.051 A 
HETATM    7  C   UNK N   1      31.363  15.048   4.051  0.00  0.00     0.072 A 
HETATM    8  C   UNK N   1      31.783  15.200   5.373  0.00  0.00     0.063 A 
HETATM    9  C   UNK N   1      29.507  16.572   4.522  0.00  0.00    -0.005 A 
HETATM   10  C   UNK N   1      29.661  17.459   8.190  0.00  0.00     0.104 A 
HETATM   11  C   UNK N   1      29.204  17.421   6.858  0.00  0.00     0.203 A 
HETATM   12  C   UNK N   1      30.224  15.764   3.621  0.00  0.00     0.149 A 
HETATM   13  C   UNK N   1      28.298  17.287   3.999  0.00  0.00     0.052 C 
ENDROOT
BRANCH   7  14
HETATM   14  N   UNK N   1      32.070  14.129   3.203  0.00  0.00    -0.375 N 
HETATM   15  C   UNK N   1      33.424  14.456   2.780  0.00  0.00     0.147 C 
HETATM   16  C   UNK N   1      34.059  13.295   2.031  0.00  0.00     0.090 C 
HETATM   17  N   UNK N   1      33.156  12.862   0.969  0.00  0.00    -0.414 N 
HETATM   18  C   UNK N   1      35.378  13.744   1.438  0.00  0.00     0.033 C 
HETATM   19  C   UNK N   1      31.886  12.341   1.503  0.00  0.00     0.134 C 
HETATM   20  H   UNK N   1      33.378  12.916  -0.026  0.00  0.00     0.153 HD
HETATM   21  C   UNK N   1      31.558  12.797   2.935  0.00  0.00     0.142 C 
ENDBRANCH   7  14
BRANCH   3  22
HETATM   22  C   UNK N   1      32.776  15.410   8.041  0.00  0.00     0.090 A 
HETATM   23  C   UNK N   1      32.495  14.103   8.775  0.00  0.00     0.028 A 
HETATM   24  C   UNK N   1      32.844  15.338   9.563  0.00  0.00     0.028 A 
ENDBRANCH   3  22
BRANCH  10  25
HETATM   25  C   UNK N   1      28.932  18.171   9.273  0.00  0.00     0.181 C 
HETATM   26  O   UNK N   1      29.525  18.614  10.244  0.00  0.00    -0.646 OA
BRANCH  25  27
HETATM   27  O   UNK N   1      27.602  18.363   9.174  0.00  0.00    -0.772 OA
HETATM   28  H   UNK N   1      27.261  19.184   8.876  0.00  0.00     0.167 HD
ENDBRANCH  25  27
ENDBRANCH  10  25
TORSDOF 4
ENDMDL
