MODEL 1
REMARK VINA RESULT:      -6.4      0.000      0.000
REMARK  6 active torsions:
REMARK  status: ('A' for Active; 'I' for Inactive)
REMARK    1  A    between atoms: S_2  and  C_21 
REMARK    2  A    between atoms: S_2  and  C_26 
REMARK    3  A    between atoms: N_3  and  C_8 
REMARK    4  A    between atoms: N_5  and  C_12 
REMARK    5  A    between atoms: C_8  and  C_11 
REMARK    6  A    between atoms: C_11  and  C_12 
ROOT
HETATM    1  S   UNK N   1      20.689  14.268   9.365  0.00  0.00    -0.086 SA
HETATM    2  N   UNK N   1      23.408  14.165   7.667  0.00  0.00    -0.345 N 
HETATM    3  C   UNK N   1      22.322  14.948   7.153  0.00  0.00     0.053 A 
HETATM    4  C   UNK N   1      23.359  13.448   8.909  0.00  0.00     0.052 A 
HETATM    5  C   UNK N   1      21.079  15.061   7.816  0.00  0.00     0.032 A 
HETATM    6  C   UNK N   1      22.216  13.428   9.740  0.00  0.00     0.032 A 
HETATM    7  C   UNK N   1      22.483  15.617   5.919  0.00  0.00     0.049 A 
HETATM    8  C   UNK N   1      24.498  12.730   9.329  0.00  0.00     0.031 A 
HETATM    9  C   UNK N   1      20.053  15.816   7.238  0.00  0.00     0.022 A 
HETATM   10  C   UNK N   1      21.455  16.372   5.356  0.00  0.00     0.002 A 
HETATM   11  C   UNK N   1      22.242  12.703  10.939  0.00  0.00     0.021 A 
HETATM   12  C   UNK N   1      20.231  16.459   6.016  0.00  0.00     0.020 A 
HETATM   13  C   UNK N   1      24.513  12.017  10.527  0.00  0.00     0.002 A 
HETATM   14  C   UNK N   1      23.380  12.002  11.333  0.00  0.00     0.002 A 
ENDROOT
BRANCH   2  15
HETATM   15  C   UNK N   1      24.591  14.001   6.839  0.00  0.00     0.131 C 
BRANCH  15  16
HETATM   16  C   UNK N   1      25.669  15.019   7.175  0.00  0.00     0.050 C 
BRANCH  16  17
HETATM   17  C   UNK N   1      26.379  15.411   5.881  0.00  0.00     0.274 C 
BRANCH  17  18
HETATM   18  N   UNK N   1      26.130  16.805   5.514  0.00  0.00     0.091 N 
HETATM   19  C   UNK N   1      27.368  17.581   5.639  0.00  0.00     0.302 C 
HETATM   20  C   UNK N   1      27.125  19.017   5.196  0.00  0.00     0.302 C 
HETATM   21  N   UNK N   1      26.739  19.021   3.788  0.00  0.00     0.087 N 
HETATM   22  C   UNK N   1      25.509  18.245   3.626  0.00  0.00     0.302 C 
HETATM   23  C   UNK N   1      26.438  20.395   3.431  0.00  0.00     0.310 C 
HETATM   24  C   UNK N   1      25.727  16.807   4.107  0.00  0.00     0.302 C 
ENDBRANCH  17  18
ENDBRANCH  16  17
ENDBRANCH  15  16
ENDBRANCH   2  15
BRANCH  10  25
HETATM   25  S   UNK N   1      21.696  17.130   3.741  0.00  0.00    -0.130 SA
BRANCH  25  26
HETATM   26  C   UNK N   1      19.933  17.390   3.373  0.00  0.00     0.075 C 
HETATM   27  C   UNK N   1      19.732  18.770   2.781  0.00  0.00     0.016 C 
ENDBRANCH  25  26
ENDBRANCH  10  25
TORSDOF 6
ENDMDL
MODEL 2
REMARK VINA RESULT:      -6.4      7.558     11.687
REMARK  6 active torsions:
REMARK  status: ('A' for Active; 'I' for Inactive)
REMARK    1  A    between atoms: S_2  and  C_21 
REMARK    2  A    between atoms: S_2  and  C_26 
REMARK    3  A    between atoms: N_3  and  C_8 
REMARK    4  A    between atoms: N_5  and  C_12 
REMARK    5  A    between atoms: C_8  and  C_11 
REMARK    6  A    between atoms: C_11  and  C_12 
ROOT
HETATM    1  S   UNK N   1      35.193  14.607   5.362  0.00  0.00    -0.086 SA
HETATM    2  N   UNK N   1      33.461  16.666   7.108  0.00  0.00    -0.345 N 
HETATM    3  C   UNK N   1      34.462  15.889   7.780  0.00  0.00     0.053 A 
HETATM    4  C   UNK N   1      33.207  16.596   5.697  0.00  0.00     0.052 A 
HETATM    5  C   UNK N   1      35.279  14.951   7.110  0.00  0.00     0.032 A 
HETATM    6  C   UNK N   1      33.913  15.730   4.832  0.00  0.00     0.032 A 
HETATM    7  C   UNK N   1      34.628  16.043   9.174  0.00  0.00     0.049 A 
HETATM    8  C   UNK N   1      32.213  17.427   5.140  0.00  0.00     0.031 A 
HETATM    9  C   UNK N   1      36.214  14.204   7.836  0.00  0.00     0.022 A 
HETATM   10  C   UNK N   1      35.566  15.298   9.886  0.00  0.00     0.002 A 
HETATM   11  C   UNK N   1      33.608  15.715   3.464  0.00  0.00     0.021 A 
HETATM   12  C   UNK N   1      36.353  14.365   9.211  0.00  0.00     0.020 A 
HETATM   13  C   UNK N   1      31.924  17.406   3.776  0.00  0.00     0.002 A 
HETATM   14  C   UNK N   1      32.622  16.547   2.937  0.00  0.00     0.002 A 
ENDROOT
BRANCH   2  15
HETATM   15  C   UNK N   1      32.581  17.498   7.912  0.00  0.00     0.131 C 
BRANCH  15  16
HETATM   16  C   UNK N   1      31.422  16.705   8.497  0.00  0.00     0.050 C 
BRANCH  16  17
HETATM   17  C   UNK N   1      30.245  17.656   8.702  0.00  0.00     0.274 C 
BRANCH  17  18
HETATM   18  N   UNK N   1      29.588  18.002   7.442  0.00  0.00     0.091 N 
HETATM   19  C   UNK N   1      29.030  16.796   6.824  0.00  0.00     0.302 C 
HETATM   20  C   UNK N   1      28.290  17.166   5.546  0.00  0.00     0.302 C 
HETATM   21  N   UNK N   1      27.177  18.049   5.879  0.00  0.00     0.087 N 
HETATM   22  C   UNK N   1      27.699  19.262   6.509  0.00  0.00     0.302 C 
HETATM   23  C   UNK N   1      26.552  18.440   4.630  0.00  0.00     0.310 C 
HETATM   24  C   UNK N   1      28.482  18.902   7.775  0.00  0.00     0.302 C 
ENDBRANCH  17  18
ENDBRANCH  16  17
ENDBRANCH  15  16
ENDBRANCH   2  15
BRANCH  10  25
HETATM   25  S   UNK N   1      35.670  15.481  11.674  0.00  0.00    -0.130 SA
BRANCH  25  26
HETATM   26  C   UNK N   1      35.363  13.732  12.076  0.00  0.00     0.075 C 
HETATM   27  C   UNK N   1      35.549  13.509  13.562  0.00  0.00     0.016 C 
ENDBRANCH  25  26
ENDBRANCH  10  25
TORSDOF 6
ENDMDL
MODEL 3
REMARK VINA RESULT:      -6.3      2.467      8.037
REMARK  6 active torsions:
REMARK  status: ('A' for Active; 'I' for Inactive)
REMARK    1  A    between atoms: S_2  and  C_21 
REMARK    2  A    between atoms: S_2  and  C_26 
REMARK    3  A    between atoms: N_3  and  C_8 
REMARK    4  A    between atoms: N_5  and  C_12 
REMARK    5  A    between atoms: C_8  and  C_11 
REMARK    6  A    between atoms: C_11  and  C_12 
ROOT
HETATM    1  S   UNK N   1      24.280  20.537   3.029  0.00  0.00    -0.086 SA
HETATM    2  N   UNK N   1      23.474  17.689   4.263  0.00  0.00    -0.345 N 
HETATM    3  C   UNK N   1      24.852  18.083   4.322  0.00  0.00     0.053 A 
HETATM    4  C   UNK N   1      22.432  18.505   3.710  0.00  0.00     0.052 A 
HETATM    5  C   UNK N   1      25.319  19.313   3.806  0.00  0.00     0.032 A 
HETATM    6  C   UNK N   1      22.671  19.778   3.145  0.00  0.00     0.032 A 
HETATM    7  C   UNK N   1      25.794  17.199   4.894  0.00  0.00     0.049 A 
HETATM    8  C   UNK N   1      21.105  18.026   3.729  0.00  0.00     0.031 A 
HETATM    9  C   UNK N   1      26.683  19.617   3.868  0.00  0.00     0.022 A 
HETATM   10  C   UNK N   1      27.150  17.515   4.956  0.00  0.00     0.002 A 
HETATM   11  C   UNK N   1      21.602  20.518   2.621  0.00  0.00     0.021 A 
HETATM   12  C   UNK N   1      27.595  18.726   4.427  0.00  0.00     0.020 A 
HETATM   13  C   UNK N   1      20.050  18.774   3.210  0.00  0.00     0.002 A 
HETATM   14  C   UNK N   1      20.300  20.023   2.653  0.00  0.00     0.002 A 
ENDROOT
BRANCH   2  15
HETATM   15  C   UNK N   1      23.123  16.345   4.694  0.00  0.00     0.131 C 
BRANCH  15  16
HETATM   16  C   UNK N   1      22.880  16.271   6.193  0.00  0.00     0.050 C 
BRANCH  16  17
HETATM   17  C   UNK N   1      21.497  15.668   6.426  0.00  0.00     0.274 C 
BRANCH  17  18
HETATM   18  N   UNK N   1      21.526  14.578   7.401  0.00  0.00     0.091 N 
HETATM   19  C   UNK N   1      22.910  14.148   7.626  0.00  0.00     0.302 C 
HETATM   20  C   UNK N   1      22.945  13.058   8.688  0.00  0.00     0.302 C 
HETATM   21  N   UNK N   1      22.439  13.602   9.944  0.00  0.00     0.087 N 
HETATM   22  C   UNK N   1      21.060  14.051   9.752  0.00  0.00     0.302 C 
HETATM   23  C   UNK N   1      22.414  12.513  10.903  0.00  0.00     0.310 C 
HETATM   24  C   UNK N   1      21.003  15.119   8.656  0.00  0.00     0.302 C 
ENDBRANCH  17  18
ENDBRANCH  16  17
ENDBRANCH  15  16
ENDBRANCH   2  15
BRANCH  10  25
HETATM   25  S   UNK N   1      28.310  16.310   5.621  0.00  0.00    -0.130 SA
BRANCH  25  26
HETATM   26  C   UNK N   1      29.145  17.445   6.773  0.00  0.00     0.075 C 
HETATM   27  C   UNK N   1      28.279  17.660   7.996  0.00  0.00     0.016 C 
ENDBRANCH  25  26
ENDBRANCH  10  25
TORSDOF 6
ENDMDL
MODEL 4
REMARK VINA RESULT:      -6.2     12.335     14.952
REMARK  6 active torsions:
REMARK  status: ('A' for Active; 'I' for Inactive)
REMARK    1  A    between atoms: S_2  and  C_21 
REMARK    2  A    between atoms: S_2  and  C_26 
REMARK    3  A    between atoms: N_3  and  C_8 
REMARK    4  A    between atoms: N_5  and  C_12 
REMARK    5  A    between atoms: C_8  and  C_11 
REMARK    6  A    between atoms: C_11  and  C_12 
ROOT
HETATM    1  S   UNK N   1      35.686   9.044  17.294  0.00  0.00    -0.086 SA
HETATM    2  N   UNK N   1      35.202  11.621  15.447  0.00  0.00    -0.345 N 
HETATM    3  C   UNK N   1      35.326  10.345  14.804  0.00  0.00     0.053 A 
HETATM    4  C   UNK N   1      35.253  11.809  16.869  0.00  0.00     0.052 A 
HETATM    5  C   UNK N   1      35.545   9.146  15.519  0.00  0.00     0.032 A 
HETATM    6  C   UNK N   1      35.457  10.745  17.777  0.00  0.00     0.032 A 
HETATM    7  C   UNK N   1      35.255  10.278  13.395  0.00  0.00     0.049 A 
HETATM    8  C   UNK N   1      35.093  13.109  17.393  0.00  0.00     0.031 A 
HETATM    9  C   UNK N   1      35.690   7.941  14.823  0.00  0.00     0.022 A 
HETATM   10  C   UNK N   1      35.395   9.071  12.712  0.00  0.00     0.002 A 
HETATM   11  C   UNK N   1      35.498  11.006  19.153  0.00  0.00     0.021 A 
HETATM   12  C   UNK N   1      35.626   7.900  13.433  0.00  0.00     0.020 A 
HETATM   13  C   UNK N   1      35.130  13.353  18.764  0.00  0.00     0.002 A 
HETATM   14  C   UNK N   1      35.335  12.299  19.647  0.00  0.00     0.002 A 
ENDROOT
BRANCH   2  15
HETATM   15  C   UNK N   1      35.121  12.808  14.611  0.00  0.00     0.131 C 
BRANCH  15  16
HETATM   16  C   UNK N   1      36.496  13.355  14.260  0.00  0.00     0.050 C 
BRANCH  16  17
HETATM   17  C   UNK N   1      36.311  14.675  13.516  0.00  0.00     0.274 C 
BRANCH  17  18
HETATM   18  N   UNK N   1      35.780  14.480  12.167  0.00  0.00     0.091 N 
HETATM   19  C   UNK N   1      35.706  15.768  11.470  0.00  0.00     0.302 C 
HETATM   20  C   UNK N   1      35.215  15.556  10.045  0.00  0.00     0.302 C 
HETATM   21  N   UNK N   1      36.174  14.720   9.331  0.00  0.00     0.087 N 
HETATM   22  C   UNK N   1      36.281  13.427  10.007  0.00  0.00     0.302 C 
HETATM   23  C   UNK N   1      35.629  14.477   8.008  0.00  0.00     0.310 C 
HETATM   24  C   UNK N   1      36.734  13.627  11.456  0.00  0.00     0.302 C 
ENDBRANCH  17  18
ENDBRANCH  16  17
ENDBRANCH  15  16
ENDBRANCH   2  15
BRANCH  10  25
HETATM   25  S   UNK N   1      35.378   9.065  10.911  0.00  0.00    -0.130 SA
BRANCH  25  26
HETATM   26  C   UNK N   1      34.096  10.342  10.716  0.00  0.00     0.075 C 
HETATM   27  C   UNK N   1      32.814   9.707  10.218  0.00  0.00     0.016 C 
ENDBRANCH  25  26
ENDBRANCH  10  25
TORSDOF 6
ENDMDL
MODEL 5
REMARK VINA RESULT:      -6.2     14.466     17.184
REMARK  6 active torsions:
REMARK  status: ('A' for Active; 'I' for Inactive)
REMARK    1  A    between atoms: S_2  and  C_21 
REMARK    2  A    between atoms: S_2  and  C_26 
REMARK    3  A    between atoms: N_3  and  C_8 
REMARK    4  A    between atoms: N_5  and  C_12 
REMARK    5  A    between atoms: C_8  and  C_11 
REMARK    6  A    between atoms: C_11  and  C_12 
ROOT
HETATM    1  S   UNK N   1      30.087  27.454  -4.398  0.00  0.00    -0.086 SA
HETATM    2  N   UNK N   1      27.756  25.317  -3.862  0.00  0.00    -0.345 N 
HETATM    3  C   UNK N   1      29.105  24.837  -3.938  0.00  0.00     0.053 A 
HETATM    4  C   UNK N   1      27.390  26.699  -3.984  0.00  0.00     0.052 A 
HETATM    5  C   UNK N   1      30.208  25.688  -4.173  0.00  0.00     0.032 A 
HETATM    6  C   UNK N   1      28.334  27.726  -4.215  0.00  0.00     0.032 A 
HETATM    7  C   UNK N   1      29.349  23.452  -3.799  0.00  0.00     0.049 A 
HETATM    8  C   UNK N   1      26.032  27.060  -3.867  0.00  0.00     0.031 A 
HETATM    9  C   UNK N   1      31.494  25.145  -4.268  0.00  0.00     0.022 A 
HETATM   10  C   UNK N   1      30.635  22.923  -3.889  0.00  0.00     0.002 A 
HETATM   11  C   UNK N   1      27.902  29.054  -4.326  0.00  0.00     0.021 A 
HETATM   12  C   UNK N   1      31.709  23.777  -4.138  0.00  0.00     0.020 A 
HETATM   13  C   UNK N   1      25.616  28.386  -3.973  0.00  0.00     0.002 A 
HETATM   14  C   UNK N   1      26.554  29.386  -4.205  0.00  0.00     0.002 A 
ENDROOT
BRANCH   2  15
HETATM   15  C   UNK N   1      26.683  24.342  -3.758  0.00  0.00     0.131 C 
BRANCH  15  16
HETATM   16  C   UNK N   1      25.805  24.322  -5.000  0.00  0.00     0.050 C 
BRANCH  16  17
HETATM   17  C   UNK N   1      26.451  23.398  -6.029  0.00  0.00     0.274 C 
BRANCH  17  18
HETATM   18  N   UNK N   1      26.564  24.027  -7.344  0.00  0.00     0.091 N 
HETATM   19  C   UNK N   1      25.855  23.221  -8.343  0.00  0.00     0.302 C 
HETATM   20  C   UNK N   1      25.918  23.909  -9.700  0.00  0.00     0.302 C 
HETATM   21  N   UNK N   1      25.242  25.200  -9.610  0.00  0.00     0.087 N 
HETATM   22  C   UNK N   1      25.919  26.028  -8.612  0.00  0.00     0.302 C 
HETATM   23  C   UNK N   1      25.396  25.854 -10.896  0.00  0.00     0.310 C 
HETATM   24  C   UNK N   1      25.901  25.328  -7.249  0.00  0.00     0.302 C 
ENDBRANCH  17  18
ENDBRANCH  16  17
ENDBRANCH  15  16
ENDBRANCH   2  15
BRANCH  10  25
HETATM   25  S   UNK N   1      30.869  21.141  -3.786  0.00  0.00    -0.130 SA
BRANCH  25  26
HETATM   26  C   UNK N   1      32.640  21.143  -4.204  0.00  0.00     0.075 C 
HETATM   27  C   UNK N   1      33.458  20.846  -2.965  0.00  0.00     0.016 C 
ENDBRANCH  25  26
ENDBRANCH  10  25
TORSDOF 6
ENDMDL
MODEL 6
REMARK VINA RESULT:      -6.2      7.472     10.681
REMARK  6 active torsions:
REMARK  status: ('A' for Active; 'I' for Inactive)
REMARK    1  A    between atoms: S_2  and  C_21 
REMARK    2  A    between atoms: S_2  and  C_26 
REMARK    3  A    between atoms: N_3  and  C_8 
REMARK    4  A    between atoms: N_5  and  C_12 
REMARK    5  A    between atoms: C_8  and  C_11 
REMARK    6  A    between atoms: C_11  and  C_12 
ROOT
HETATM    1  S   UNK N   1      28.615  16.159   5.884  0.00  0.00    -0.086 SA
HETATM    2  N   UNK N   1      31.593  17.012   6.714  0.00  0.00    -0.345 N 
HETATM    3  C   UNK N   1      31.420  16.260   5.505  0.00  0.00     0.053 A 
HETATM    4  C   UNK N   1      30.510  17.429   7.559  0.00  0.00     0.052 A 
HETATM    5  C   UNK N   1      30.155  15.829   5.047  0.00  0.00     0.032 A 
HETATM    6  C   UNK N   1      29.159  17.114   7.287  0.00  0.00     0.032 A 
HETATM    7  C   UNK N   1      32.559  15.908   4.748  0.00  0.00     0.049 A 
HETATM    8  C   UNK N   1      30.796  18.189   8.713  0.00  0.00     0.031 A 
HETATM    9  C   UNK N   1      30.065  15.070   3.875  0.00  0.00     0.022 A 
HETATM   10  C   UNK N   1      32.458  15.156   3.579  0.00  0.00     0.002 A 
HETATM   11  C   UNK N   1      28.155  17.554   8.160  0.00  0.00     0.021 A 
HETATM   12  C   UNK N   1      31.203  14.726   3.150  0.00  0.00     0.020 A 
HETATM   13  C   UNK N   1      29.787  18.624   9.569  0.00  0.00     0.002 A 
HETATM   14  C   UNK N   1      28.462  18.305   9.293  0.00  0.00     0.002 A 
ENDROOT
BRANCH   2  15
HETATM   15  C   UNK N   1      32.947  17.284   7.169  0.00  0.00     0.131 C 
BRANCH  15  16
HETATM   16  C   UNK N   1      33.463  16.201   8.104  0.00  0.00     0.050 C 
BRANCH  16  17
HETATM   17  C   UNK N   1      34.580  16.797   8.957  0.00  0.00     0.274 C 
BRANCH  17  18
HETATM   18  N   UNK N   1      35.209  15.798   9.821  0.00  0.00     0.091 N 
HETATM   19  C   UNK N   1      35.370  16.340  11.173  0.00  0.00     0.302 C 
HETATM   20  C   UNK N   1      35.967  15.278  12.087  0.00  0.00     0.302 C 
HETATM   21  N   UNK N   1      35.046  14.149  12.168  0.00  0.00     0.087 N 
HETATM   22  C   UNK N   1      34.854  13.589  10.830  0.00  0.00     0.302 C 
HETATM   23  C   UNK N   1      35.687  13.130  12.979  0.00  0.00     0.310 C 
HETATM   24  C   UNK N   1      34.293  14.658   9.887  0.00  0.00     0.302 C 
ENDBRANCH  17  18
ENDBRANCH  16  17
ENDBRANCH  15  16
ENDBRANCH   2  15
BRANCH  10  25
HETATM   25  S   UNK N   1      33.955  14.670   2.706  0.00  0.00    -0.130 SA
BRANCH  25  26
HETATM   26  C   UNK N   1      34.723  13.782   4.097  0.00  0.00     0.075 C 
HETATM   27  C   UNK N   1      34.010  12.464   4.317  0.00  0.00     0.016 C 
ENDBRANCH  25  26
ENDBRANCH  10  25
TORSDOF 6
ENDMDL
MODEL 7
REMARK VINA RESULT:      -6.1     12.245     14.731
REMARK  6 active torsions:
REMARK  status: ('A' for Active; 'I' for Inactive)
REMARK    1  A    between atoms: S_2  and  C_21 
REMARK    2  A    between atoms: S_2  and  C_26 
REMARK    3  A    between atoms: N_3  and  C_8 
REMARK    4  A    between atoms: N_5  and  C_12 
REMARK    5  A    between atoms: C_8  and  C_11 
REMARK    6  A    between atoms: C_11  and  C_12 
ROOT
HETATM    1  S   UNK N   1      36.704   9.551  15.470  0.00  0.00    -0.086 SA
HETATM    2  N   UNK N   1      36.534  12.520  14.268  0.00  0.00    -0.345 N 
HETATM    3  C   UNK N   1      36.973  11.466  13.400  0.00  0.00     0.053 A 
HETATM    4  C   UNK N   1      36.140  12.320  15.633  0.00  0.00     0.052 A 
HETATM    5  C   UNK N   1      37.088  10.123  13.825  0.00  0.00     0.032 A 
HETATM    6  C   UNK N   1      36.170  11.056  16.264  0.00  0.00     0.032 A 
HETATM    7  C   UNK N   1      37.332  11.778  12.070  0.00  0.00     0.049 A 
HETATM    8  C   UNK N   1      35.701  13.429  16.387  0.00  0.00     0.031 A 
HETATM    9  C   UNK N   1      37.555   9.152  12.932  0.00  0.00     0.022 A 
HETATM   10  C   UNK N   1      37.791  10.801  11.187  0.00  0.00     0.002 A 
HETATM   11  C   UNK N   1      35.773  10.939  17.603  0.00  0.00     0.021 A 
HETATM   12  C   UNK N   1      37.913   9.484  11.629  0.00  0.00     0.020 A 
HETATM   13  C   UNK N   1      35.303  13.297  17.716  0.00  0.00     0.002 A 
HETATM   14  C   UNK N   1      35.341  12.048  18.326  0.00  0.00     0.002 A 
ENDROOT
BRANCH   2  15
HETATM   15  C   UNK N   1      36.586  13.886  13.773  0.00  0.00     0.131 C 
BRANCH  15  16
HETATM   16  C   UNK N   1      35.442  14.192  12.820  0.00  0.00     0.050 C 
BRANCH  16  17
HETATM   17  C   UNK N   1      35.845  15.384  11.954  0.00  0.00     0.274 C 
BRANCH  17  18
HETATM   18  N   UNK N   1      34.757  15.827  11.083  0.00  0.00     0.091 N 
HETATM   19  C   UNK N   1      35.294  16.657  10.000  0.00  0.00     0.302 C 
HETATM   20  C   UNK N   1      34.171  17.065   9.057  0.00  0.00     0.302 C 
HETATM   21  N   UNK N   1      33.597  15.866   8.454  0.00  0.00     0.087 N 
HETATM   22  C   UNK N   1      33.059  15.009   9.510  0.00  0.00     0.302 C 
HETATM   23  C   UNK N   1      32.482  16.293   7.629  0.00  0.00     0.310 C 
HETATM   24  C   UNK N   1      34.170  14.623  10.492  0.00  0.00     0.302 C 
ENDBRANCH  17  18
ENDBRANCH  16  17
ENDBRANCH  15  16
ENDBRANCH   2  15
BRANCH  10  25
HETATM   25  S   UNK N   1      38.312  11.278   9.531  0.00  0.00    -0.130 SA
BRANCH  25  26
HETATM   26  C   UNK N   1      36.918  12.400   9.195  0.00  0.00     0.075 C 
HETATM   27  C   UNK N   1      37.441  13.795   8.917  0.00  0.00     0.016 C 
ENDBRANCH  25  26
ENDBRANCH  10  25
TORSDOF 6
ENDMDL
MODEL 8
REMARK VINA RESULT:      -6.0      2.828      7.200
REMARK  6 active torsions:
REMARK  status: ('A' for Active; 'I' for Inactive)
REMARK    1  A    between atoms: S_2  and  C_21 
REMARK    2  A    between atoms: S_2  and  C_26 
REMARK    3  A    between atoms: N_3  and  C_8 
REMARK    4  A    between atoms: N_5  and  C_12 
REMARK    5  A    between atoms: C_8  and  C_11 
REMARK    6  A    between atoms: C_11  and  C_12 
ROOT
HETATM    1  S   UNK N   1      26.589  16.208   5.627  0.00  0.00    -0.086 SA
HETATM    2  N   UNK N   1      23.772  17.672   5.169  0.00  0.00    -0.345 N 
HETATM    3  C   UNK N   1      23.772  16.406   5.843  0.00  0.00     0.053 A 
HETATM    4  C   UNK N   1      24.961  18.335   4.714  0.00  0.00     0.052 A 
HETATM    5  C   UNK N   1      24.953  15.673   6.094  0.00  0.00     0.032 A 
HETATM    6  C   UNK N   1      26.254  17.786   4.867  0.00  0.00     0.032 A 
HETATM    7  C   UNK N   1      22.541  15.848   6.252  0.00  0.00     0.049 A 
HETATM    8  C   UNK N   1      24.844  19.593   4.085  0.00  0.00     0.031 A 
HETATM    9  C   UNK N   1      24.874  14.427   6.727  0.00  0.00     0.022 A 
HETATM   10  C   UNK N   1      22.474  14.609   6.887  0.00  0.00     0.002 A 
HETATM   11  C   UNK N   1      27.369  18.491   4.394  0.00  0.00     0.021 A 
HETATM   12  C   UNK N   1      23.648  13.892   7.112  0.00  0.00     0.020 A 
HETATM   13  C   UNK N   1      25.961  20.287   3.624  0.00  0.00     0.002 A 
HETATM   14  C   UNK N   1      27.227  19.733   3.778  0.00  0.00     0.002 A 
ENDROOT
BRANCH   2  15
HETATM   15  C   UNK N   1      22.493  18.276   4.836  0.00  0.00     0.131 C 
BRANCH  15  16
HETATM   16  C   UNK N   1      21.956  17.777   3.503  0.00  0.00     0.050 C 
BRANCH  16  17
HETATM   17  C   UNK N   1      20.434  17.899   3.524  0.00  0.00     0.274 C 
BRANCH  17  18
HETATM   18  N   UNK N   1      19.784  16.836   2.759  0.00  0.00     0.091 N 
HETATM   19  C   UNK N   1      20.308  16.815   1.390  0.00  0.00     0.302 C 
HETATM   20  C   UNK N   1      19.677  15.668   0.613  0.00  0.00     0.302 C 
HETATM   21  N   UNK N   1      20.045  14.406   1.247  0.00  0.00     0.087 N 
HETATM   22  C   UNK N   1      19.545  14.396   2.622  0.00  0.00     0.302 C 
HETATM   23  C   UNK N   1      19.360  13.349   0.527  0.00  0.00     0.310 C 
HETATM   24  C   UNK N   1      20.138  15.572   3.406  0.00  0.00     0.302 C 
ENDBRANCH  17  18
ENDBRANCH  16  17
ENDBRANCH  15  16
ENDBRANCH   2  15
BRANCH  10  25
HETATM   25  S   UNK N   1      20.867  13.916   7.309  0.00  0.00    -0.130 SA
BRANCH  25  26
HETATM   26  C   UNK N   1      20.762  14.643   8.974  0.00  0.00     0.075 C 
HETATM   27  C   UNK N   1      21.107  13.595  10.012  0.00  0.00     0.016 C 
ENDBRANCH  25  26
ENDBRANCH  10  25
TORSDOF 6
ENDMDL
MODEL 9
REMARK VINA RESULT:      -6.0      9.136     12.506
REMARK  6 active torsions:
REMARK  status: ('A' for Active; 'I' for Inactive)
REMARK    1  A    between atoms: S_2  and  C_21 
REMARK    2  A    between atoms: S_2  and  C_26 
REMARK    3  A    between atoms: N_3  and  C_8 
REMARK    4  A    between atoms: N_5  and  C_12 
REMARK    5  A    between atoms: C_8  and  C_11 
REMARK    6  A    between atoms: C_11  and  C_12 
ROOT
HETATM    1  S   UNK N   1      30.934  15.606   5.505  0.00  0.00    -0.086 SA
HETATM    2  N   UNK N   1      33.219  16.728   7.456  0.00  0.00    -0.345 N 
HETATM    3  C   UNK N   1      33.610  15.830   6.408  0.00  0.00     0.053 A 
HETATM    4  C   UNK N   1      31.872  17.176   7.665  0.00  0.00     0.052 A 
HETATM    5  C   UNK N   1      32.687  15.273   5.495  0.00  0.00     0.032 A 
HETATM    6  C   UNK N   1      30.788  16.751   6.864  0.00  0.00     0.032 A 
HETATM    7  C   UNK N   1      34.968  15.460   6.293  0.00  0.00     0.049 A 
HETATM    8  C   UNK N   1      31.608  18.082   8.714  0.00  0.00     0.031 A 
HETATM    9  C   UNK N   1      33.134  14.377   4.517  0.00  0.00     0.022 A 
HETATM   10  C   UNK N   1      35.404  14.571   5.312  0.00  0.00     0.002 A 
HETATM   11  C   UNK N   1      29.498  17.229   7.131  0.00  0.00     0.021 A 
HETATM   12  C   UNK N   1      34.477  14.019   4.429  0.00  0.00     0.020 A 
HETATM   13  C   UNK N   1      30.321  18.554   8.964  0.00  0.00     0.002 A 
HETATM   14  C   UNK N   1      29.262  18.125   8.171  0.00  0.00     0.002 A 
ENDROOT
BRANCH   2  15
HETATM   15  C   UNK N   1      34.223  17.132   8.427  0.00  0.00     0.131 C 
BRANCH  15  16
HETATM   16  C   UNK N   1      34.386  16.109   9.540  0.00  0.00     0.050 C 
BRANCH  16  17
HETATM   17  C   UNK N   1      35.333  16.687  10.588  0.00  0.00     0.274 C 
BRANCH  17  18
HETATM   18  N   UNK N   1      36.215  15.669  11.158  0.00  0.00     0.091 N 
HETATM   19  C   UNK N   1      35.517  14.948  12.227  0.00  0.00     0.302 C 
HETATM   20  C   UNK N   1      36.413  13.846  12.777  0.00  0.00     0.302 C 
HETATM   21  N   UNK N   1      36.699  12.891  11.711  0.00  0.00     0.087 N 
HETATM   22  C   UNK N   1      37.388  13.581  10.621  0.00  0.00     0.302 C 
HETATM   23  C   UNK N   1      37.617  11.907  12.254  0.00  0.00     0.310 C 
HETATM   24  C   UNK N   1      36.516  14.720  10.085  0.00  0.00     0.302 C 
ENDBRANCH  17  18
ENDBRANCH  16  17
ENDBRANCH  15  16
ENDBRANCH   2  15
BRANCH  10  25
HETATM   25  S   UNK N   1      37.135  14.076   5.271  0.00  0.00    -0.130 SA
BRANCH  25  26
HETATM   26  C   UNK N   1      37.119  13.154   6.840  0.00  0.00     0.075 C 
HETATM   27  C   UNK N   1      36.444  11.813   6.637  0.00  0.00     0.016 C 
ENDBRANCH  25  26
ENDBRANCH  10  25
TORSDOF 6
ENDMDL
