REMARK  6 active torsions:
REMARK  status: ('A' for Active; 'I' for Inactive)
REMARK    1  A    between atoms: S_2  and  C_21 
REMARK    2  A    between atoms: S_2  and  C_26 
REMARK    3  A    between atoms: N_3  and  C_8 
REMARK    4  A    between atoms: N_5  and  C_12 
REMARK    5  A    between atoms: C_8  and  C_11 
REMARK    6  A    between atoms: C_11  and  C_12 
ROOT
HETATM    1  S   UNK N   1       5.250  -4.594  -0.162  0.00  0.00    -0.086 SA
HETATM    2  N   UNK N   1       5.047  -1.421   0.261  0.00  0.00    -0.345 N 
HETATM    3  C   UNK N   1       6.352  -2.015   0.237  0.00  0.00     0.053 A 
HETATM    4  C   UNK N   1       3.829  -2.158   0.079  0.00  0.00     0.052 A 
HETATM    5  C   UNK N   1       6.558  -3.402   0.061  0.00  0.00     0.032 A 
HETATM    6  C   UNK N   1       3.800  -3.557  -0.120  0.00  0.00     0.032 A 
HETATM    7  C   UNK N   1       7.484  -1.191   0.423  0.00  0.00     0.049 A 
HETATM    8  C   UNK N   1       2.601  -1.464   0.096  0.00  0.00     0.031 A 
HETATM    9  C   UNK N   1       7.859  -3.917   0.082  0.00  0.00     0.022 A 
HETATM   10  C   UNK N   1       8.776  -1.714   0.436  0.00  0.00     0.002 A 
HETATM   11  C   UNK N   1       2.571  -4.209  -0.288  0.00  0.00     0.021 A 
HETATM   12  C   UNK N   1       8.959  -3.087   0.277  0.00  0.00     0.020 A 
HETATM   13  C   UNK N   1       1.386  -2.124  -0.078  0.00  0.00     0.002 A 
HETATM   14  C   UNK N   1       1.371  -3.501  -0.269  0.00  0.00     0.002 A 
ENDROOT
BRANCH   2  15
HETATM   15  C   UNK N   1       4.939  -0.009   0.589  0.00  0.00     0.131 C 
BRANCH  15  16
HETATM   16  C   UNK N   1       5.238   0.880  -0.608  0.00  0.00     0.050 C 
BRANCH  16  17
HETATM   17  C   UNK N   1       4.896   2.320  -0.233  0.00  0.00     0.274 C 
BRANCH  17  18
HETATM   18  N   UNK N   1       3.496   2.645  -0.505  0.00  0.00     0.091 N 
HETATM   19  C   UNK N   1       2.622   1.831   0.345  0.00  0.00     0.302 C 
HETATM   20  C   UNK N   1       1.168   2.215   0.108  0.00  0.00     0.302 C 
HETATM   21  N   UNK N   1       0.978   3.612   0.485  0.00  0.00     0.087 N 
HETATM   22  C   UNK N   1       1.845   4.454  -0.339  0.00  0.00     0.302 C 
HETATM   23  C   UNK N   1      -0.395   3.958   0.168  0.00  0.00     0.310 C 
HETATM   24  C   UNK N   1       3.310   4.051  -0.143  0.00  0.00     0.302 C 
ENDBRANCH  17  18
ENDBRANCH  16  17
ENDBRANCH  15  16
ENDBRANCH   2  15
BRANCH  10  25
HETATM   25  S   UNK N   1      10.170  -0.622   0.761  0.00  0.00    -0.130 SA
BRANCH  25  26
HETATM   26  C   UNK N   1      11.365  -1.497  -0.297  0.00  0.00     0.075 C 
HETATM   27  C   UNK N   1      12.428  -0.530  -0.775  0.00  0.00     0.016 C 
ENDBRANCH  25  26
ENDBRANCH  10  25
TORSDOF 6
