MODEL 1
REMARK VINA RESULT:      -5.0      0.000      0.000
REMARK  3 active torsions:
REMARK  status: ('A' for Active; 'I' for Inactive)
REMARK    1  A    between atoms: O_1  and  C_5 
REMARK    2  A    between atoms: O_1  and  C_10 
REMARK    3  A    between atoms: N_3  and  C_4 
REMARK       I    between atoms: N_3  and  C_12 
ROOT
HETATM    1  C   UNK N   1      25.600  25.221  -5.249  0.00  0.00     0.034 A 
HETATM    2  C   UNK N   1      25.894  27.613  -3.798  0.00  0.00     0.068 A 
HETATM    3  C   UNK N   1      26.306  25.244  -4.037  0.00  0.00     0.032 A 
HETATM    4  C   UNK N   1      25.039  26.410  -5.733  0.00  0.00     0.032 A 
HETATM    5  C   UNK N   1      26.451  26.428  -3.320  0.00  0.00     0.039 A 
HETATM    6  C   UNK N   1      25.183  27.602  -5.013  0.00  0.00     0.039 A 
ENDROOT
BRANCH   1   7
HETATM    7  N   UNK N   1      25.440  24.018  -5.997  0.00  0.00    -0.328 N 
HETATM    8  C   UNK N   1      26.318  23.537  -6.919  0.00  0.00     0.218 C 
HETATM    9  O   UNK N   1      27.352  24.134  -7.185  0.00  0.00    -0.274 OA
HETATM   10  C   UNK N   1      26.020  22.260  -7.620  0.00  0.00     0.117 C 
HETATM   11  H   UNK N   1      24.625  23.491  -5.832  0.00  0.00     0.169 HD
ENDBRANCH   1   7
BRANCH   2  12
HETATM   12  O   UNK N   1      26.057  28.741  -3.071  0.00  0.00    -0.352 OA
BRANCH  12  13
HETATM   13  C   UNK N   1      27.064  29.650  -3.289  0.00  0.00     0.171 C 
HETATM   14  C   UNK N   1      26.458  30.948  -3.777  0.00  0.00     0.034 C 
ENDBRANCH  12  13
ENDBRANCH   2  12
TORSDOF 3
ENDMDL
MODEL 2
REMARK VINA RESULT:      -5.0      3.609      4.439
REMARK  3 active torsions:
REMARK  status: ('A' for Active; 'I' for Inactive)
REMARK    1  A    between atoms: O_1  and  C_5 
REMARK    2  A    between atoms: O_1  and  C_10 
REMARK    3  A    between atoms: N_3  and  C_4 
REMARK       I    between atoms: N_3  and  C_12 
ROOT
HETATM    1  C   UNK N   1      29.019  24.289  -3.748  0.00  0.00     0.034 A 
HETATM    2  C   UNK N   1      26.915  26.153  -3.640  0.00  0.00     0.068 A 
HETATM    3  C   UNK N   1      29.241  25.640  -4.054  0.00  0.00     0.032 A 
HETATM    4  C   UNK N   1      27.731  23.875  -3.385  0.00  0.00     0.032 A 
HETATM    5  C   UNK N   1      28.198  26.561  -4.001  0.00  0.00     0.039 A 
HETATM    6  C   UNK N   1      26.682  24.800  -3.330  0.00  0.00     0.039 A 
ENDROOT
BRANCH   1   7
HETATM    7  N   UNK N   1      30.073  23.330  -3.796  0.00  0.00    -0.328 N 
HETATM    8  C   UNK N   1      30.730  22.824  -2.717  0.00  0.00     0.218 C 
HETATM    9  O   UNK N   1      30.452  23.177  -1.578  0.00  0.00    -0.274 OA
HETATM   10  C   UNK N   1      31.810  21.822  -2.918  0.00  0.00     0.117 C 
HETATM   11  H   UNK N   1      30.349  23.007  -4.684  0.00  0.00     0.169 HD
ENDBRANCH   1   7
BRANCH   2  12
HETATM   12  O   UNK N   1      25.932  27.080  -3.599  0.00  0.00    -0.352 OA
BRANCH  12  13
HETATM   13  C   UNK N   1      25.599  27.886  -4.661  0.00  0.00     0.171 C 
HETATM   14  C   UNK N   1      24.786  27.081  -5.653  0.00  0.00     0.034 C 
ENDBRANCH  12  13
ENDBRANCH   2  12
TORSDOF 3
ENDMDL
MODEL 3
REMARK VINA RESULT:      -4.9      1.967      5.830
REMARK  3 active torsions:
REMARK  status: ('A' for Active; 'I' for Inactive)
REMARK    1  A    between atoms: O_1  and  C_5 
REMARK    2  A    between atoms: O_1  and  C_10 
REMARK    3  A    between atoms: N_3  and  C_4 
REMARK       I    between atoms: N_3  and  C_12 
ROOT
HETATM    1  C   UNK N   1      26.130  27.339  -3.725  0.00  0.00     0.034 A 
HETATM    2  C   UNK N   1      25.505  25.186  -5.424  0.00  0.00     0.068 A 
HETATM    3  C   UNK N   1      25.365  27.538  -4.884  0.00  0.00     0.032 A 
HETATM    4  C   UNK N   1      26.582  26.049  -3.420  0.00  0.00     0.032 A 
HETATM    5  C   UNK N   1      25.057  26.472  -5.724  0.00  0.00     0.039 A 
HETATM    6  C   UNK N   1      26.273  24.976  -4.263  0.00  0.00     0.039 A 
ENDROOT
BRANCH   1   7
HETATM    7  N   UNK N   1      26.454  28.418  -2.851  0.00  0.00    -0.328 N 
HETATM    8  C   UNK N   1      27.602  29.148  -2.889  0.00  0.00     0.218 C 
HETATM    9  O   UNK N   1      28.478  28.916  -3.711  0.00  0.00    -0.274 OA
HETATM   10  C   UNK N   1      27.802  30.253  -1.913  0.00  0.00     0.117 C 
HETATM   11  H   UNK N   1      25.792  28.654  -2.162  0.00  0.00     0.169 HD
ENDBRANCH   1   7
BRANCH   2  12
HETATM   12  O   UNK N   1      25.183  24.178  -6.266  0.00  0.00    -0.352 OA
BRANCH  12  13
HETATM   13  C   UNK N   1      25.974  23.073  -6.468  0.00  0.00     0.171 C 
HETATM   14  C   UNK N   1      25.149  21.994  -7.136  0.00  0.00     0.034 C 
ENDBRANCH  12  13
ENDBRANCH   2  12
TORSDOF 3
ENDMDL
MODEL 4
REMARK VINA RESULT:      -4.8     14.879     16.131
REMARK  3 active torsions:
REMARK  status: ('A' for Active; 'I' for Inactive)
REMARK    1  A    between atoms: O_1  and  C_5 
REMARK    2  A    between atoms: O_1  and  C_10 
REMARK    3  A    between atoms: N_3  and  C_4 
REMARK       I    between atoms: N_3  and  C_12 
ROOT
HETATM    1  C   UNK N   1      31.065  17.446   8.335  0.00  0.00     0.034 A 
HETATM    2  C   UNK N   1      28.661  18.389   7.218  0.00  0.00     0.068 A 
HETATM    3  C   UNK N   1      30.678  17.069   7.039  0.00  0.00     0.032 A 
HETATM    4  C   UNK N   1      30.236  18.302   9.072  0.00  0.00     0.032 A 
HETATM    5  C   UNK N   1      29.488  17.536   6.489  0.00  0.00     0.039 A 
HETATM    6  C   UNK N   1      29.040  18.773   8.518  0.00  0.00     0.039 A 
ENDROOT
BRANCH   1   7
HETATM    7  N   UNK N   1      32.280  16.980   8.916  0.00  0.00    -0.328 N 
HETATM    8  C   UNK N   1      33.513  17.513   8.703  0.00  0.00     0.218 C 
HETATM    9  O   UNK N   1      33.673  18.472   7.960  0.00  0.00    -0.274 OA
HETATM   10  C   UNK N   1      34.697  16.924   9.384  0.00  0.00     0.117 C 
HETATM   11  H   UNK N   1      32.222  16.206   9.523  0.00  0.00     0.169 HD
ENDBRANCH   1   7
BRANCH   2  12
HETATM   12  O   UNK N   1      27.515  18.820   6.646  0.00  0.00    -0.352 OA
BRANCH  12  13
HETATM   13  C   UNK N   1      27.475  19.655   5.555  0.00  0.00     0.171 C 
HETATM   14  C   UNK N   1      27.499  21.091   6.033  0.00  0.00     0.034 C 
ENDBRANCH  12  13
ENDBRANCH   2  12
TORSDOF 3
ENDMDL
MODEL 5
REMARK VINA RESULT:      -4.7     17.560     18.878
REMARK  3 active torsions:
REMARK  status: ('A' for Active; 'I' for Inactive)
REMARK    1  A    between atoms: O_1  and  C_5 
REMARK    2  A    between atoms: O_1  and  C_10 
REMARK    3  A    between atoms: N_3  and  C_4 
REMARK       I    between atoms: N_3  and  C_12 
ROOT
HETATM    1  C   UNK N   1      34.442  16.107   9.061  0.00  0.00     0.034 A 
HETATM    2  C   UNK N   1      34.034  17.294   6.543  0.00  0.00     0.068 A 
HETATM    3  C   UNK N   1      34.020  17.441   8.955  0.00  0.00     0.032 A 
HETATM    4  C   UNK N   1      34.658  15.366   7.891  0.00  0.00     0.032 A 
HETATM    5  C   UNK N   1      33.819  18.027   7.709  0.00  0.00     0.039 A 
HETATM    6  C   UNK N   1      34.456  15.954   6.637  0.00  0.00     0.039 A 
ENDROOT
BRANCH   1   7
HETATM    7  N   UNK N   1      34.651  15.488  10.328  0.00  0.00    -0.328 N 
HETATM    8  C   UNK N   1      35.765  15.621  11.098  0.00  0.00     0.218 C 
HETATM    9  O   UNK N   1      36.710  16.309  10.737  0.00  0.00    -0.274 OA
HETATM   10  C   UNK N   1      35.842  14.918  12.406  0.00  0.00     0.117 C 
HETATM   11  H   UNK N   1      33.928  14.917  10.675  0.00  0.00     0.169 HD
ENDBRANCH   1   7
BRANCH   2  12
HETATM   12  O   UNK N   1      33.826  17.900   5.352  0.00  0.00    -0.352 OA
BRANCH  12  13
HETATM   13  C   UNK N   1      33.118  17.331   4.321  0.00  0.00     0.171 C 
HETATM   14  C   UNK N   1      31.638  17.525   4.576  0.00  0.00     0.034 C 
ENDBRANCH  12  13
ENDBRANCH   2  12
TORSDOF 3
ENDMDL
MODEL 6
REMARK VINA RESULT:      -4.7     27.348     28.587
REMARK  3 active torsions:
REMARK  status: ('A' for Active; 'I' for Inactive)
REMARK    1  A    between atoms: O_1  and  C_5 
REMARK    2  A    between atoms: O_1  and  C_10 
REMARK    3  A    between atoms: N_3  and  C_4 
REMARK       I    between atoms: N_3  and  C_12 
ROOT
HETATM    1  C   UNK N   1      35.426  12.680  16.713  0.00  0.00     0.034 A 
HETATM    2  C   UNK N   1      35.416  11.572  19.299  0.00  0.00     0.068 A 
HETATM    3  C   UNK N   1      35.708  11.320  16.913  0.00  0.00     0.032 A 
HETATM    4  C   UNK N   1      35.137  13.486  17.822  0.00  0.00     0.032 A 
HETATM    5  C   UNK N   1      35.703  10.773  18.193  0.00  0.00     0.039 A 
HETATM    6  C   UNK N   1      35.130  12.937  19.110  0.00  0.00     0.039 A 
ENDROOT
BRANCH   1   7
HETATM    7  N   UNK N   1      35.425  13.258  15.410  0.00  0.00    -0.328 N 
HETATM    8  C   UNK N   1      36.437  13.989  14.868  0.00  0.00     0.218 C 
HETATM    9  O   UNK N   1      37.464  14.215  15.493  0.00  0.00    -0.274 OA
HETATM   10  C   UNK N   1      36.298  14.528  13.489  0.00  0.00     0.117 C 
HETATM   11  H   UNK N   1      34.624  13.117  14.855  0.00  0.00     0.169 HD
ENDBRANCH   1   7
BRANCH   2  12
HETATM   12  O   UNK N   1      35.420  11.002  20.525  0.00  0.00    -0.352 OA
BRANCH  12  13
HETATM   13  C   UNK N   1      34.626   9.935  20.872  0.00  0.00     0.171 C 
HETATM   14  C   UNK N   1      33.426  10.446  21.640  0.00  0.00     0.034 C 
ENDBRANCH  12  13
ENDBRANCH   2  12
TORSDOF 3
ENDMDL
MODEL 7
REMARK VINA RESULT:      -4.7     20.166     21.426
REMARK  3 active torsions:
REMARK  status: ('A' for Active; 'I' for Inactive)
REMARK    1  A    between atoms: O_1  and  C_5 
REMARK    2  A    between atoms: O_1  and  C_10 
REMARK    3  A    between atoms: N_3  and  C_4 
REMARK       I    between atoms: N_3  and  C_12 
ROOT
HETATM    1  C   UNK N   1      36.028  15.259  11.286  0.00  0.00     0.034 A 
HETATM    2  C   UNK N   1      35.013  15.880   8.736  0.00  0.00     0.068 A 
HETATM    3  C   UNK N   1      35.363  16.473  11.053  0.00  0.00     0.032 A 
HETATM    4  C   UNK N   1      36.182  14.353  10.229  0.00  0.00     0.032 A 
HETATM    5  C   UNK N   1      34.862  16.779   9.791  0.00  0.00     0.039 A 
HETATM    6  C   UNK N   1      35.678  14.659   8.959  0.00  0.00     0.039 A 
ENDROOT
BRANCH   1   7
HETATM    7  N   UNK N   1      36.546  14.927  12.572  0.00  0.00    -0.328 N 
HETATM    8  C   UNK N   1      35.932  14.133  13.490  0.00  0.00     0.218 C 
HETATM    9  O   UNK N   1      34.839  13.629  13.268  0.00  0.00    -0.274 OA
HETATM   10  C   UNK N   1      36.597  13.868  14.794  0.00  0.00     0.117 C 
HETATM   11  H   UNK N   1      37.422  15.304  12.815  0.00  0.00     0.169 HD
ENDBRANCH   1   7
BRANCH   2  12
HETATM   12  O   UNK N   1      34.512  16.214   7.527  0.00  0.00    -0.352 OA
BRANCH  12  13
HETATM   13  C   UNK N   1      34.095  17.482   7.198  0.00  0.00     0.171 C 
HETATM   14  C   UNK N   1      33.409  17.440   5.850  0.00  0.00     0.034 C 
ENDBRANCH  12  13
ENDBRANCH   2  12
TORSDOF 3
ENDMDL
MODEL 8
REMARK VINA RESULT:      -4.5     10.686     12.016
REMARK  3 active torsions:
REMARK  status: ('A' for Active; 'I' for Inactive)
REMARK    1  A    between atoms: O_1  and  C_5 
REMARK    2  A    between atoms: O_1  and  C_10 
REMARK    3  A    between atoms: N_3  and  C_4 
REMARK       I    between atoms: N_3  and  C_12 
ROOT
HETATM    1  C   UNK N   1      25.857  18.757   3.996  0.00  0.00     0.034 A 
HETATM    2  C   UNK N   1      23.692  20.323   3.118  0.00  0.00     0.068 A 
HETATM    3  C   UNK N   1      24.537  18.389   4.297  0.00  0.00     0.032 A 
HETATM    4  C   UNK N   1      26.088  19.920   3.249  0.00  0.00     0.032 A 
HETATM    5  C   UNK N   1      23.466  19.166   3.862  0.00  0.00     0.039 A 
HETATM    6  C   UNK N   1      25.012  20.700   2.811  0.00  0.00     0.039 A 
ENDROOT
BRANCH   1   7
HETATM    7  N   UNK N   1      26.967  17.975   4.431  0.00  0.00    -0.328 N 
HETATM    8  C   UNK N   1      27.683  18.182   5.569  0.00  0.00     0.218 C 
HETATM    9  O   UNK N   1      27.415  19.101   6.332  0.00  0.00    -0.274 OA
HETATM   10  C   UNK N   1      28.817  17.278   5.899  0.00  0.00     0.117 C 
HETATM   11  H   UNK N   1      27.237  17.220   3.859  0.00  0.00     0.169 HD
ENDBRANCH   1   7
BRANCH   2  12
HETATM   12  O   UNK N   1      22.625  21.048   2.714  0.00  0.00    -0.352 OA
BRANCH  12  13
HETATM   13  C   UNK N   1      21.348  20.546   2.634  0.00  0.00     0.171 C 
HETATM   14  C   UNK N   1      20.957  20.426   1.177  0.00  0.00     0.034 C 
ENDBRANCH  12  13
ENDBRANCH   2  12
TORSDOF 3
ENDMDL
MODEL 9
REMARK VINA RESULT:      -4.5     26.286     27.541
REMARK  3 active torsions:
REMARK  status: ('A' for Active; 'I' for Inactive)
REMARK    1  A    between atoms: O_1  and  C_5 
REMARK    2  A    between atoms: O_1  and  C_10 
REMARK    3  A    between atoms: N_3  and  C_4 
REMARK       I    between atoms: N_3  and  C_12 
ROOT
HETATM    1  C   UNK N   1      36.211  12.781  15.488  0.00  0.00     0.034 A 
HETATM    2  C   UNK N   1      35.382  11.440  17.818  0.00  0.00     0.068 A 
HETATM    3  C   UNK N   1      35.599  13.480  16.540  0.00  0.00     0.032 A 
HETATM    4  C   UNK N   1      36.406  11.399  15.611  0.00  0.00     0.032 A 
HETATM    5  C   UNK N   1      35.190  12.815  17.692  0.00  0.00     0.039 A 
HETATM    6  C   UNK N   1      35.996  10.730  16.769  0.00  0.00     0.039 A 
ENDROOT
BRANCH   1   7
HETATM    7  N   UNK N   1      36.639  13.444  14.301  0.00  0.00    -0.328 N 
HETATM    8  C   UNK N   1      35.854  13.726  13.226  0.00  0.00     0.218 C 
HETATM    9  O   UNK N   1      34.672  13.410  13.200  0.00  0.00    -0.274 OA
HETATM   10  C   UNK N   1      36.438  14.431  12.054  0.00  0.00     0.117 C 
HETATM   11  H   UNK N   1      37.582  13.723  14.256  0.00  0.00     0.169 HD
ENDBRANCH   1   7
BRANCH   2  12
HETATM   12  O   UNK N   1      34.971  10.833  18.954  0.00  0.00    -0.352 OA
BRANCH  12  13
HETATM   13  C   UNK N   1      35.019   9.474  19.151  0.00  0.00     0.171 C 
HETATM   14  C   UNK N   1      33.605   8.936  19.210  0.00  0.00     0.034 C 
ENDBRANCH  12  13
ENDBRANCH   2  12
TORSDOF 3
ENDMDL
