MODEL 1
REMARK VINA RESULT:      -7.7      0.000      0.000
REMARK  1 active torsions:
REMARK  status: ('A' for Active; 'I' for Inactive)
REMARK    1  A    between atoms: C_7  and  C_17 
ROOT
HETATM    1  O   UNK N   1      34.725   9.663  21.945  0.00  0.00    -0.293 OA
HETATM    2  C   UNK N   1      35.369  11.692  13.744  0.00  0.00    -0.029 C 
HETATM    3  C   UNK N   1      35.230  12.753  14.832  0.00  0.00     0.002 C 
HETATM    4  C   UNK N   1      35.669  12.223  16.208  0.00  0.00     0.018 C 
HETATM    5  C   UNK N   1      34.790  10.985  16.554  0.00  0.00     0.006 C 
HETATM    6  C   UNK N   1      34.950  12.534  12.545  0.00  0.00     0.063 C 
HETATM    7  C   UNK N   1      34.471  10.498  14.074  0.00  0.00     0.011 C 
HETATM    8  C   UNK N   1      35.977  13.949  14.254  0.00  0.00     0.007 C 
HETATM    9  C   UNK N   1      34.870   9.913  15.442  0.00  0.00     0.007 C 
HETATM   10  C   UNK N   1      35.165  10.425  17.951  0.00  0.00    -0.012 C 
HETATM   11  C   UNK N   1      35.714  13.854  12.740  0.00  0.00     0.013 C 
HETATM   12  C   UNK N   1      36.821  11.205  13.573  0.00  0.00     0.016 C 
HETATM   13  C   UNK N   1      35.505  13.285  17.271  0.00  0.00    -0.021 C 
HETATM   14  C   UNK N   1      35.100  11.554  18.976  0.00  0.00    -0.046 C 
HETATM   15  C   UNK N   1      34.178   9.317  18.352  0.00  0.00     0.022 C 
HETATM   16  C   UNK N   1      36.583   9.848  17.946  0.00  0.00     0.021 C 
HETATM   17  C   UNK N   1      35.260  12.964  18.552  0.00  0.00     0.004 C 
HETATM   18  C   UNK N   1      34.434   8.790  19.772  0.00  0.00     0.084 C 
HETATM   19  C   UNK N   1      34.927  11.287  20.280  0.00  0.00     0.058 C 
HETATM   20  C   UNK N   1      34.702   9.904  20.749  0.00  0.00     0.149 C 
ENDROOT
BRANCH   6  21
HETATM   21  C   UNK N   1      35.090  11.871  11.198  0.00  0.00     0.128 C 
HETATM   22  O   UNK N   1      34.288  11.012  10.866  0.00  0.00    -0.298 OA
HETATM   23  C   UNK N   1      36.179  12.255  10.252  0.00  0.00     0.091 C 
ENDBRANCH   6  21
TORSDOF 1
ENDMDL
MODEL 2
REMARK VINA RESULT:      -7.3     22.676     25.799
REMARK  1 active torsions:
REMARK  status: ('A' for Active; 'I' for Inactive)
REMARK    1  A    between atoms: C_7  and  C_17 
ROOT
HETATM    1  O   UNK N   1      33.130  19.552  -4.537  0.00  0.00    -0.293 OA
HETATM    2  C   UNK N   1      27.445  25.824  -4.897  0.00  0.00    -0.029 C 
HETATM    3  C   UNK N   1      27.540  24.755  -5.980  0.00  0.00     0.002 C 
HETATM    4  C   UNK N   1      28.219  23.475  -5.464  0.00  0.00     0.018 C 
HETATM    5  C   UNK N   1      29.644  23.851  -4.959  0.00  0.00     0.006 C 
HETATM    6  C   UNK N   1      26.678  26.882  -5.682  0.00  0.00     0.063 C 
HETATM    7  C   UNK N   1      28.850  26.215  -4.437  0.00  0.00     0.011 C 
HETATM    8  C   UNK N   1      26.109  24.647  -6.495  0.00  0.00     0.007 C 
HETATM    9  C   UNK N   1      29.583  24.972  -3.896  0.00  0.00     0.007 C 
HETATM   10  C   UNK N   1      30.394  22.591  -4.455  0.00  0.00    -0.012 C 
HETATM   11  C   UNK N   1      25.566  26.083  -6.381  0.00  0.00     0.013 C 
HETATM   12  C   UNK N   1      26.621  25.362  -3.678  0.00  0.00     0.016 C 
HETATM   13  C   UNK N   1      28.318  22.437  -6.559  0.00  0.00    -0.021 C 
HETATM   14  C   UNK N   1      30.370  21.524  -5.548  0.00  0.00    -0.046 C 
HETATM   15  C   UNK N   1      31.851  22.947  -4.124  0.00  0.00     0.022 C 
HETATM   16  C   UNK N   1      29.724  22.022  -3.201  0.00  0.00     0.021 C 
HETATM   17  C   UNK N   1      29.306  21.529  -6.579  0.00  0.00     0.004 C 
HETATM   18  C   UNK N   1      32.677  21.718  -3.715  0.00  0.00     0.084 C 
HETATM   19  C   UNK N   1      31.293  20.551  -5.575  0.00  0.00     0.058 C 
HETATM   20  C   UNK N   1      32.409  20.534  -4.608  0.00  0.00     0.149 C 
ENDROOT
BRANCH   6  21
HETATM   21  C   UNK N   1      26.243  28.093  -4.897  0.00  0.00     0.128 C 
HETATM   22  O   UNK N   1      25.187  28.063  -4.284  0.00  0.00    -0.298 OA
HETATM   23  C   UNK N   1      27.085  29.324  -4.836  0.00  0.00     0.091 C 
ENDBRANCH   6  21
TORSDOF 1
ENDMDL
MODEL 3
REMARK VINA RESULT:      -7.3      1.940      3.510
REMARK  1 active torsions:
REMARK  status: ('A' for Active; 'I' for Inactive)
REMARK    1  A    between atoms: C_7  and  C_17 
ROOT
HETATM    1  O   UNK N   1      35.748   9.433  19.701  0.00  0.00    -0.293 OA
HETATM    2  C   UNK N   1      36.395  13.283  12.181  0.00  0.00    -0.029 C 
HETATM    3  C   UNK N   1      37.353  12.177  12.609  0.00  0.00     0.002 C 
HETATM    4  C   UNK N   1      36.747  11.285  13.706  0.00  0.00     0.018 C 
HETATM    5  C   UNK N   1      36.396  12.189  14.926  0.00  0.00     0.006 C 
HETATM    6  C   UNK N   1      37.236  13.902  11.071  0.00  0.00     0.063 C 
HETATM    7  C   UNK N   1      36.090  14.187  13.376  0.00  0.00     0.011 C 
HETATM    8  C   UNK N   1      37.744  11.520  11.289  0.00  0.00     0.007 C 
HETATM    9  C   UNK N   1      35.466  13.353  14.511  0.00  0.00     0.007 C 
HETATM   10  C   UNK N   1      35.809  11.338  16.083  0.00  0.00    -0.012 C 
HETATM   11  C   UNK N   1      37.754  12.686  10.285  0.00  0.00     0.013 C 
HETATM   12  C   UNK N   1      35.073  12.735  11.607  0.00  0.00     0.016 C 
HETATM   13  C   UNK N   1      37.720  10.209  14.126  0.00  0.00    -0.021 C 
HETATM   14  C   UNK N   1      36.768  10.193  16.398  0.00  0.00    -0.046 C 
HETATM   15  C   UNK N   1      35.631  12.211  17.335  0.00  0.00     0.022 C 
HETATM   16  C   UNK N   1      34.452  10.748  15.692  0.00  0.00     0.021 C 
HETATM   17  C   UNK N   1      37.710   9.697  15.367  0.00  0.00     0.004 C 
HETATM   18  C   UNK N   1      35.148  11.404  18.548  0.00  0.00     0.084 C 
HETATM   19  C   UNK N   1      36.753   9.598  17.600  0.00  0.00     0.058 C 
HETATM   20  C   UNK N   1      35.877  10.092  18.682  0.00  0.00     0.149 C 
ENDROOT
BRANCH   6  21
HETATM   21  C   UNK N   1      36.564  14.985  10.266  0.00  0.00     0.128 C 
HETATM   22  O   UNK N   1      36.575  16.133  10.678  0.00  0.00    -0.298 OA
HETATM   23  C   UNK N   1      35.899  14.686   8.963  0.00  0.00     0.091 C 
ENDBRANCH   6  21
TORSDOF 1
ENDMDL
MODEL 4
REMARK VINA RESULT:      -7.2     21.858     24.869
REMARK  1 active torsions:
REMARK  status: ('A' for Active; 'I' for Inactive)
REMARK    1  A    between atoms: C_7  and  C_17 
ROOT
HETATM    1  O   UNK N   1      35.058  19.428  -4.063  0.00  0.00    -0.293 OA
HETATM    2  C   UNK N   1      28.005  23.813  -5.739  0.00  0.00    -0.029 C 
HETATM    3  C   UNK N   1      28.479  23.558  -4.312  0.00  0.00     0.002 C 
HETATM    4  C   UNK N   1      29.985  23.248  -4.256  0.00  0.00     0.018 C 
HETATM    5  C   UNK N   1      30.255  21.994  -5.140  0.00  0.00     0.006 C 
HETATM    6  C   UNK N   1      26.551  24.159  -5.441  0.00  0.00     0.063 C 
HETATM    7  C   UNK N   1      28.238  22.562  -6.588  0.00  0.00     0.011 C 
HETATM    8  C   UNK N   1      27.972  24.777  -3.550  0.00  0.00     0.007 C 
HETATM    9  C   UNK N   1      29.736  22.203  -6.581  0.00  0.00     0.007 C 
HETATM   10  C   UNK N   1      31.757  21.610  -5.096  0.00  0.00    -0.012 C 
HETATM   11  C   UNK N   1      26.642  25.121  -4.245  0.00  0.00     0.013 C 
HETATM   12  C   UNK N   1      28.716  25.013  -6.396  0.00  0.00     0.016 C 
HETATM   13  C   UNK N   1      30.428  22.981  -2.836  0.00  0.00    -0.021 C 
HETATM   14  C   UNK N   1      32.194  21.464  -3.640  0.00  0.00    -0.046 C 
HETATM   15  C   UNK N   1      31.978  20.277  -5.829  0.00  0.00     0.022 C 
HETATM   16  C   UNK N   1      32.616  22.690  -5.760  0.00  0.00     0.021 C 
HETATM   17  C   UNK N   1      31.462  22.169  -2.563  0.00  0.00     0.004 C 
HETATM   18  C   UNK N   1      33.431  19.790  -5.734  0.00  0.00     0.084 C 
HETATM   19  C   UNK N   1      33.263  20.721  -3.317  0.00  0.00     0.058 C 
HETATM   20  C   UNK N   1      33.992  19.950  -4.345  0.00  0.00     0.149 C 
ENDROOT
BRANCH   6  21
HETATM   21  C   UNK N   1      25.735  24.629  -6.619  0.00  0.00     0.128 C 
HETATM   22  O   UNK N   1      25.190  23.806  -7.337  0.00  0.00    -0.298 OA
HETATM   23  C   UNK N   1      25.562  26.082  -6.915  0.00  0.00     0.091 C 
ENDBRANCH   6  21
TORSDOF 1
ENDMDL
MODEL 5
REMARK VINA RESULT:      -7.1     26.078     28.418
REMARK  1 active torsions:
REMARK  status: ('A' for Active; 'I' for Inactive)
REMARK    1  A    between atoms: C_7  and  C_17 
ROOT
HETATM    1  O   UNK N   1      26.686  29.538  -2.570  0.00  0.00    -0.293 OA
HETATM    2  C   UNK N   1      26.281  23.729  -8.725  0.00  0.00    -0.029 C 
HETATM    3  C   UNK N   1      26.490  23.346  -7.263  0.00  0.00     0.002 C 
HETATM    4  C   UNK N   1      25.998  24.446  -6.307  0.00  0.00     0.018 C 
HETATM    5  C   UNK N   1      26.776  25.756  -6.632  0.00  0.00     0.006 C 
HETATM    6  C   UNK N   1      26.775  22.442  -9.374  0.00  0.00     0.063 C 
HETATM    7  C   UNK N   1      27.082  24.993  -9.043  0.00  0.00     0.011 C 
HETATM    8  C   UNK N   1      25.841  21.970  -7.164  0.00  0.00     0.007 C 
HETATM    9  C   UNK N   1      26.626  26.141  -8.122  0.00  0.00     0.007 C 
HETATM   10  C   UNK N   1      26.346  26.897  -5.674  0.00  0.00    -0.012 C 
HETATM   11  C   UNK N   1      26.112  21.334  -8.540  0.00  0.00     0.013 C 
HETATM   12  C   UNK N   1      24.798  23.967  -9.070  0.00  0.00     0.016 C 
HETATM   13  C   UNK N   1      26.231  24.053  -4.867  0.00  0.00    -0.021 C 
HETATM   14  C   UNK N   1      26.486  26.419  -4.231  0.00  0.00    -0.046 C 
HETATM   15  C   UNK N   1      27.241  28.127  -5.891  0.00  0.00     0.022 C 
HETATM   16  C   UNK N   1      24.887  27.295  -5.920  0.00  0.00     0.021 C 
HETATM   17  C   UNK N   1      26.438  24.973  -3.911  0.00  0.00     0.004 C 
HETATM   18  C   UNK N   1      26.932  29.260  -4.901  0.00  0.00     0.084 C 
HETATM   19  C   UNK N   1      26.625  27.299  -3.228  0.00  0.00     0.058 C 
HETATM   20  C   UNK N   1      26.739  28.747  -3.498  0.00  0.00     0.149 C 
ENDROOT
BRANCH   6  21
HETATM   21  C   UNK N   1      26.599  22.353 -10.869  0.00  0.00     0.128 C 
HETATM   22  O   UNK N   1      25.666  21.712 -11.325  0.00  0.00    -0.298 OA
HETATM   23  C   UNK N   1      27.533  23.047 -11.805  0.00  0.00     0.091 C 
ENDBRANCH   6  21
TORSDOF 1
ENDMDL
MODEL 6
REMARK VINA RESULT:      -6.7     26.204     27.581
REMARK  1 active torsions:
REMARK  status: ('A' for Active; 'I' for Inactive)
REMARK    1  A    between atoms: C_7  and  C_17 
ROOT
HETATM    1  O   UNK N   1      28.303  31.050  -2.426  0.00  0.00    -0.293 OA
HETATM    2  C   UNK N   1      26.439  24.049  -6.818  0.00  0.00    -0.029 C 
HETATM    3  C   UNK N   1      27.850  24.339  -6.318  0.00  0.00     0.002 C 
HETATM    4  C   UNK N   1      27.849  25.322  -5.135  0.00  0.00     0.018 C 
HETATM    5  C   UNK N   1      27.166  26.642  -5.601  0.00  0.00     0.006 C 
HETATM    6  C   UNK N   1      26.780  23.021  -7.890  0.00  0.00     0.063 C 
HETATM    7  C   UNK N   1      25.793  25.345  -7.311  0.00  0.00     0.011 C 
HETATM    8  C   UNK N   1      28.436  22.950  -6.093  0.00  0.00     0.007 C 
HETATM    9  C   UNK N   1      25.751  26.372  -6.164  0.00  0.00     0.007 C 
HETATM   10  C   UNK N   1      27.164  27.688  -4.457  0.00  0.00    -0.012 C 
HETATM   11  C   UNK N   1      27.791  22.093  -7.198  0.00  0.00     0.013 C 
HETATM   12  C   UNK N   1      25.544  23.415  -5.735  0.00  0.00     0.016 C 
HETATM   13  C   UNK N   1      29.258  25.608  -4.669  0.00  0.00    -0.021 C 
HETATM   14  C   UNK N   1      28.589  27.862  -3.935  0.00  0.00    -0.046 C 
HETATM   15  C   UNK N   1      26.647  29.037  -4.982  0.00  0.00     0.022 C 
HETATM   16  C   UNK N   1      26.271  27.231  -3.300  0.00  0.00     0.021 C 
HETATM   17  C   UNK N   1      29.586  26.778  -4.099  0.00  0.00     0.004 C 
HETATM   18  C   UNK N   1      26.717  30.145  -3.920  0.00  0.00     0.084 C 
HETATM   19  C   UNK N   1      28.952  28.984  -3.296  0.00  0.00     0.058 C 
HETATM   20  C   UNK N   1      28.016  30.118  -3.159  0.00  0.00     0.149 C 
ENDROOT
BRANCH   6  21
HETATM   21  C   UNK N   1      25.602  22.353  -8.555  0.00  0.00     0.128 C 
HETATM   22  O   UNK N   1      24.502  22.879  -8.495  0.00  0.00    -0.298 OA
HETATM   23  C   UNK N   1      25.757  21.070  -9.303  0.00  0.00     0.091 C 
ENDBRANCH   6  21
TORSDOF 1
ENDMDL
MODEL 7
REMARK VINA RESULT:      -6.7      1.750      7.167
REMARK  1 active torsions:
REMARK  status: ('A' for Active; 'I' for Inactive)
REMARK    1  A    between atoms: C_7  and  C_17 
ROOT
HETATM    1  O   UNK N   1      37.566  13.050   8.197  0.00  0.00    -0.293 OA
HETATM    2  C   UNK N   1      35.854  10.991  16.236  0.00  0.00    -0.029 C 
HETATM    3  C   UNK N   1      36.015  12.440  15.788  0.00  0.00     0.002 C 
HETATM    4  C   UNK N   1      35.777  12.603  14.277  0.00  0.00     0.018 C 
HETATM    5  C   UNK N   1      36.796  11.696  13.525  0.00  0.00     0.006 C 
HETATM    6  C   UNK N   1      36.063  11.187  17.732  0.00  0.00     0.063 C 
HETATM    7  C   UNK N   1      36.887  10.117  15.521  0.00  0.00     0.011 C 
HETATM    8  C   UNK N   1      35.103  13.206  16.741  0.00  0.00     0.007 C 
HETATM    9  C   UNK N   1      36.694  10.227  13.997  0.00  0.00     0.007 C 
HETATM   10  C   UNK N   1      36.628  11.843  11.990  0.00  0.00    -0.012 C 
HETATM   11  C   UNK N   1      35.208  12.422  18.061  0.00  0.00     0.013 C 
HETATM   12  C   UNK N   1      34.442  10.437  15.961  0.00  0.00     0.016 C 
HETATM   13  C   UNK N   1      35.959  14.042  13.853  0.00  0.00    -0.021 C 
HETATM   14  C   UNK N   1      36.701  13.322  11.618  0.00  0.00    -0.046 C 
HETATM   15  C   UNK N   1      37.748  11.080  11.266  0.00  0.00     0.022 C 
HETATM   16  C   UNK N   1      35.275  11.289  11.534  0.00  0.00     0.021 C 
HETATM   17  C   UNK N   1      36.369  14.365  12.617  0.00  0.00     0.004 C 
HETATM   18  C   UNK N   1      37.697  11.271   9.743  0.00  0.00     0.084 C 
HETATM   19  C   UNK N   1      37.038  13.700  10.376  0.00  0.00     0.058 C 
HETATM   20  C   UNK N   1      37.437  12.704   9.360  0.00  0.00     0.149 C 
ENDROOT
BRANCH   6  21
HETATM   21  C   UNK N   1      35.839   9.967  18.590  0.00  0.00     0.128 C 
HETATM   22  O   UNK N   1      36.731   9.143  18.706  0.00  0.00    -0.298 OA
HETATM   23  C   UNK N   1      34.552   9.754  19.317  0.00  0.00     0.091 C 
ENDBRANCH   6  21
TORSDOF 1
ENDMDL
MODEL 8
REMARK VINA RESULT:      -6.7     25.621     27.606
REMARK  1 active torsions:
REMARK  status: ('A' for Active; 'I' for Inactive)
REMARK    1  A    between atoms: C_7  and  C_17 
ROOT
HETATM    1  O   UNK N   1      26.861  31.052  -2.913  0.00  0.00    -0.293 OA
HETATM    2  C   UNK N   1      27.894  23.633  -6.872  0.00  0.00    -0.029 C 
HETATM    3  C   UNK N   1      26.514  24.171  -6.509  0.00  0.00     0.002 C 
HETATM    4  C   UNK N   1      26.527  25.697  -6.315  0.00  0.00     0.018 C 
HETATM    5  C   UNK N   1      27.545  26.035  -5.186  0.00  0.00     0.006 C 
HETATM    6  C   UNK N   1      27.527  22.167  -7.068  0.00  0.00     0.063 C 
HETATM    7  C   UNK N   1      28.876  23.934  -5.739  0.00  0.00     0.011 C 
HETATM    8  C   UNK N   1      25.615  23.596  -7.597  0.00  0.00     0.007 C 
HETATM    9  C   UNK N   1      28.944  25.455  -5.502  0.00  0.00     0.007 C 
HETATM   10  C   UNK N   1      27.578  27.562  -4.920  0.00  0.00    -0.012 C 
HETATM   11  C   UNK N   1      26.238  22.222  -7.904  0.00  0.00     0.013 C 
HETATM   12  C   UNK N   1      28.436  24.228  -8.186  0.00  0.00     0.016 C 
HETATM   13  C   UNK N   1      25.154  26.205  -5.938  0.00  0.00    -0.021 C 
HETATM   14  C   UNK N   1      26.157  28.055  -4.659  0.00  0.00    -0.046 C 
HETATM   15  C   UNK N   1      28.453  27.861  -3.693  0.00  0.00     0.022 C 
HETATM   16  C   UNK N   1      28.144  28.314  -6.128  0.00  0.00     0.021 C 
HETATM   17  C   UNK N   1      24.993  27.306  -5.188  0.00  0.00     0.004 C 
HETATM   18  C   UNK N   1      28.445  29.350  -3.316  0.00  0.00     0.084 C 
HETATM   19  C   UNK N   1      25.940  29.188  -3.974  0.00  0.00     0.058 C 
HETATM   20  C   UNK N   1      27.061  29.941  -3.375  0.00  0.00     0.149 C 
ENDROOT
BRANCH   6  21
HETATM   21  C   UNK N   1      28.628  21.280  -7.591  0.00  0.00     0.128 C 
HETATM   22  O   UNK N   1      28.665  21.008  -8.780  0.00  0.00    -0.298 OA
HETATM   23  C   UNK N   1      29.688  20.741  -6.687  0.00  0.00     0.091 C 
ENDBRANCH   6  21
TORSDOF 1
ENDMDL
MODEL 9
REMARK VINA RESULT:      -6.5      1.874      3.659
REMARK  1 active torsions:
REMARK  status: ('A' for Active; 'I' for Inactive)
REMARK    1  A    between atoms: C_7  and  C_17 
ROOT
HETATM    1  O   UNK N   1      34.686  12.447  20.029  0.00  0.00    -0.293 OA
HETATM    2  C   UNK N   1      36.887  12.084  11.855  0.00  0.00    -0.029 C 
HETATM    3  C   UNK N   1      37.324  11.022  12.858  0.00  0.00     0.002 C 
HETATM    4  C   UNK N   1      36.402  10.983  14.089  0.00  0.00     0.018 C 
HETATM    5  C   UNK N   1      36.424  12.390  14.758  0.00  0.00     0.006 C 
HETATM    6  C   UNK N   1      37.916  11.810  10.765  0.00  0.00     0.063 C 
HETATM    7  C   UNK N   1      36.952  13.465  12.509  0.00  0.00     0.011 C 
HETATM    8  C   UNK N   1      37.436   9.761  12.009  0.00  0.00     0.007 C 
HETATM    9  C   UNK N   1      36.037  13.495  13.748  0.00  0.00     0.007 C 
HETATM   10  C   UNK N   1      35.536  12.404  16.029  0.00  0.00    -0.012 C 
HETATM   11  C   UNK N   1      37.919  10.278  10.642  0.00  0.00     0.013 C 
HETATM   12  C   UNK N   1      35.462  11.842  11.317  0.00  0.00     0.016 C 
HETATM   13  C   UNK N   1      36.864   9.937  15.077  0.00  0.00    -0.021 C 
HETATM   14  C   UNK N   1      35.959  11.260  16.947  0.00  0.00    -0.046 C 
HETATM   15  C   UNK N   1      35.704  13.739  16.770  0.00  0.00     0.022 C 
HETATM   16  C   UNK N   1      34.060  12.220  15.665  0.00  0.00     0.021 C 
HETATM   17  C   UNK N   1      36.639  10.065  16.394  0.00  0.00     0.004 C 
HETATM   18  C   UNK N   1      34.928  13.777  18.094  0.00  0.00     0.084 C 
HETATM   19  C   UNK N   1      35.696  11.304  18.262  0.00  0.00     0.058 C 
HETATM   20  C   UNK N   1      35.076  12.496  18.874  0.00  0.00     0.149 C 
ENDROOT
BRANCH   6  21
HETATM   21  C   UNK N   1      37.737  12.586   9.485  0.00  0.00     0.128 C 
HETATM   22  O   UNK N   1      37.280  12.024   8.502  0.00  0.00    -0.298 OA
HETATM   23  C   UNK N   1      38.089  14.034   9.397  0.00  0.00     0.091 C 
ENDBRANCH   6  21
TORSDOF 1
ENDMDL
