MODEL 1
REMARK VINA RESULT:      -6.5      0.000      0.000
REMARK  3 active torsions:
REMARK  status: ('A' for Active; 'I' for Inactive)
REMARK    1  A    between atoms: N_5  and  C_9 
REMARK    2  A    between atoms: N_6  and  C_10 
REMARK    3  A    between atoms: C_9  and  C_10 
ROOT
HETATM    1  C   UNK N   1      31.871  17.114   6.265  0.00  0.00     0.248 C 
HETATM    2  C   UNK N   1      32.794  16.676   5.129  0.00  0.00     0.045 C 
ENDROOT
BRANCH   1   3
HETATM    3  N   UNK N   1      32.638  17.316   7.502  0.00  0.00     0.112 N 
HETATM    4  C   UNK N   1      33.070  16.019   8.043  0.00  0.00     0.376 C 
HETATM    5  C   UNK N   1      33.905  16.229   9.276  0.00  0.00     0.252 C 
HETATM    6  O   UNK N   1      33.900  15.394  10.166  0.00  0.00    -0.271 OA
HETATM    7  N   UNK N   1      34.675  17.338   9.392  0.00  0.00    -0.295 N 
HETATM    8  C   UNK N   1      34.687  18.280   8.416  0.00  0.00     0.252 C 
HETATM    9  H   UNK N   1      35.233  17.462  10.194  0.00  0.00     0.171 HD
HETATM   10  O   UNK N   1      35.396  19.266   8.530  0.00  0.00    -0.271 OA
HETATM   11  C   UNK N   1      33.836  18.107   7.187  0.00  0.00     0.376 C 
ENDBRANCH   1   3
BRANCH   1  12
HETATM   12  C   UNK N   1      30.794  16.040   6.489  0.00  0.00     0.308 C 
BRANCH  12  13
HETATM   13  N   UNK N   1      29.480  16.609   6.762  0.00  0.00     0.108 N 
HETATM   14  C   UNK N   1      29.485  17.097   8.140  0.00  0.00     0.375 C 
HETATM   15  C   UNK N   1      28.198  17.795   8.427  0.00  0.00     0.252 C 
HETATM   16  O   UNK N   1      27.662  17.675   9.517  0.00  0.00    -0.271 OA
HETATM   17  N   UNK N   1      27.649  18.593   7.482  0.00  0.00    -0.295 N 
HETATM   18  C   UNK N   1      28.188  18.660   6.239  0.00  0.00     0.252 C 
HETATM   19  H   UNK N   1      26.853  19.132   7.699  0.00  0.00     0.171 HD
HETATM   20  O   UNK N   1      27.749  19.466   5.432  0.00  0.00    -0.271 OA
HETATM   21  C   UNK N   1      29.326  17.745   5.839  0.00  0.00     0.375 C 
ENDBRANCH  12  13
ENDBRANCH   1  12
TORSDOF 3
ENDMDL
MODEL 2
REMARK VINA RESULT:      -6.2      0.512      5.864
REMARK  3 active torsions:
REMARK  status: ('A' for Active; 'I' for Inactive)
REMARK    1  A    between atoms: N_5  and  C_9 
REMARK    2  A    between atoms: N_6  and  C_10 
REMARK    3  A    between atoms: C_9  and  C_10 
ROOT
HETATM    1  C   UNK N   1      31.032  15.867   6.686  0.00  0.00     0.248 C 
HETATM    2  C   UNK N   1      30.986  14.780   5.613  0.00  0.00     0.045 C 
ENDROOT
BRANCH   1   3
HETATM    3  N   UNK N   1      29.703  16.468   6.869  0.00  0.00     0.112 N 
HETATM    4  C   UNK N   1      29.605  17.075   8.204  0.00  0.00     0.376 C 
HETATM    5  C   UNK N   1      28.268  17.741   8.368  0.00  0.00     0.252 C 
HETATM    6  O   UNK N   1      27.749  17.804   9.471  0.00  0.00    -0.271 OA
HETATM    7  N   UNK N   1      27.644  18.284   7.294  0.00  0.00    -0.295 N 
HETATM    8  C   UNK N   1      28.202  18.215   6.060  0.00  0.00     0.252 C 
HETATM    9  H   UNK N   1      26.776  18.733   7.411  0.00  0.00     0.171 HD
HETATM   10  O   UNK N   1      27.634  18.721   5.106  0.00  0.00    -0.271 OA
HETATM   11  C   UNK N   1      29.526  17.527   5.865  0.00  0.00     0.376 C 
ENDBRANCH   1   3
BRANCH   1  12
HETATM   12  C   UNK N   1      32.041  16.950   6.271  0.00  0.00     0.308 C 
BRANCH  12  13
HETATM   13  N   UNK N   1      33.250  16.934   7.086  0.00  0.00     0.108 N 
HETATM   14  C   UNK N   1      33.465  18.290   7.588  0.00  0.00     0.375 C 
HETATM   15  C   UNK N   1      34.627  18.297   8.524  0.00  0.00     0.252 C 
HETATM   16  O   UNK N   1      35.409  19.234   8.528  0.00  0.00    -0.271 OA
HETATM   17  N   UNK N   1      34.786  17.275   9.396  0.00  0.00    -0.295 N 
HETATM   18  C   UNK N   1      33.976  16.187   9.336  0.00  0.00     0.252 C 
HETATM   19  H   UNK N   1      35.493  17.320  10.080  0.00  0.00     0.171 HD
HETATM   20  O   UNK N   1      34.060  15.324  10.196  0.00  0.00    -0.271 OA
HETATM   21  C   UNK N   1      32.972  16.031   8.214  0.00  0.00     0.375 C 
ENDBRANCH  12  13
ENDBRANCH   1  12
TORSDOF 3
ENDMDL
MODEL 3
REMARK VINA RESULT:      -6.1      3.941      6.232
REMARK  3 active torsions:
REMARK  status: ('A' for Active; 'I' for Inactive)
REMARK    1  A    between atoms: N_5  and  C_9 
REMARK    2  A    between atoms: N_6  and  C_10 
REMARK    3  A    between atoms: C_9  and  C_10 
ROOT
HETATM    1  C   UNK N   1      35.242  14.637  10.766  0.00  0.00     0.248 C 
HETATM    2  C   UNK N   1      35.849  13.549   9.880  0.00  0.00     0.045 C 
ENDROOT
BRANCH   1   3
HETATM    3  N   UNK N   1      35.095  14.154  12.146  0.00  0.00     0.112 N 
HETATM    4  C   UNK N   1      34.892  12.697  12.150  0.00  0.00     0.376 C 
HETATM    5  C   UNK N   1      34.801  12.195  13.564  0.00  0.00     0.252 C 
HETATM    6  O   UNK N   1      34.117  11.219  13.822  0.00  0.00    -0.271 OA
HETATM    7  N   UNK N   1      35.491  12.819  14.550  0.00  0.00    -0.295 N 
HETATM    8  C   UNK N   1      36.251  13.911  14.283  0.00  0.00     0.252 C 
HETATM    9  H   UNK N   1      35.441  12.475  15.472  0.00  0.00     0.171 HD
HETATM   10  O   UNK N   1      36.876  14.451  15.180  0.00  0.00    -0.271 OA
HETATM   11  C   UNK N   1      36.333  14.449  12.881  0.00  0.00     0.376 C 
ENDBRANCH   1   3
BRANCH   1  12
HETATM   12  C   UNK N   1      33.869  15.042  10.206  0.00  0.00     0.308 C 
BRANCH  12  13
HETATM   13  N   UNK N   1      33.971  15.873   9.012  0.00  0.00     0.108 N 
HETATM   14  C   UNK N   1      32.613  16.209   8.588  0.00  0.00     0.375 C 
HETATM   15  C   UNK N   1      32.671  17.157   7.437  0.00  0.00     0.252 C 
HETATM   16  O   UNK N   1      31.873  17.060   6.519  0.00  0.00    -0.271 OA
HETATM   17  N   UNK N   1      33.591  18.149   7.437  0.00  0.00    -0.295 N 
HETATM   18  C   UNK N   1      34.540  18.208   8.406  0.00  0.00     0.252 C 
HETATM   19  H   UNK N   1      33.572  18.834   6.730  0.00  0.00     0.171 HD
HETATM   20  O   UNK N   1      35.293  19.169   8.456  0.00  0.00    -0.271 OA
HETATM   21  C   UNK N   1      34.676  17.097   9.425  0.00  0.00     0.375 C 
ENDBRANCH  12  13
ENDBRANCH   1  12
TORSDOF 3
ENDMDL
MODEL 4
REMARK VINA RESULT:      -6.1      9.532     10.422
REMARK  3 active torsions:
REMARK  status: ('A' for Active; 'I' for Inactive)
REMARK    1  A    between atoms: N_5  and  C_9 
REMARK    2  A    between atoms: N_6  and  C_10 
REMARK    3  A    between atoms: C_9  and  C_10 
ROOT
HETATM    1  C   UNK N   1      23.066  13.558   7.917  0.00  0.00     0.248 C 
HETATM    2  C   UNK N   1      23.391  12.260   7.177  0.00  0.00     0.045 C 
ENDROOT
BRANCH   1   3
HETATM    3  N   UNK N   1      22.854  13.296   9.347  0.00  0.00     0.112 N 
HETATM    4  C   UNK N   1      21.583  12.583   9.545  0.00  0.00     0.376 C 
HETATM    5  C   UNK N   1      21.396  12.263  11.002  0.00  0.00     0.252 C 
HETATM    6  O   UNK N   1      20.273  12.206  11.474  0.00  0.00    -0.271 OA
HETATM    7  N   UNK N   1      22.474  12.023  11.787  0.00  0.00    -0.295 N 
HETATM    8  C   UNK N   1      23.731  12.090  11.281  0.00  0.00     0.252 C 
HETATM    9  H   UNK N   1      22.345  11.798  12.737  0.00  0.00     0.171 HD
HETATM   10  O   UNK N   1      24.690  11.858  11.999  0.00  0.00    -0.271 OA
HETATM   11  C   UNK N   1      23.945  12.439   9.833  0.00  0.00     0.376 C 
ENDBRANCH   1   3
BRANCH   1  12
HETATM   12  C   UNK N   1      21.802  14.187   7.309  0.00  0.00     0.308 C 
BRANCH  12  13
HETATM   13  N   UNK N   1      22.065  15.466   6.662  0.00  0.00     0.108 N 
HETATM   14  C   UNK N   1      21.563  15.382   5.292  0.00  0.00     0.375 C 
HETATM   15  C   UNK N   1      21.705  16.711   4.627  0.00  0.00     0.252 C 
HETATM   16  O   UNK N   1      22.030  16.779   3.452  0.00  0.00    -0.271 OA
HETATM   17  N   UNK N   1      21.434  17.837   5.325  0.00  0.00    -0.295 N 
HETATM   18  C   UNK N   1      21.163  17.776   6.653  0.00  0.00     0.252 C 
HETATM   19  H   UNK N   1      21.432  18.708   4.866  0.00  0.00     0.171 HD
HETATM   20  O   UNK N   1      20.813  18.785   7.246  0.00  0.00    -0.271 OA
HETATM   21  C   UNK N   1      21.292  16.470   7.409  0.00  0.00     0.375 C 
ENDBRANCH  12  13
ENDBRANCH   1  12
TORSDOF 3
ENDMDL
MODEL 5
REMARK VINA RESULT:      -6.1     12.732     15.496
REMARK  3 active torsions:
REMARK  status: ('A' for Active; 'I' for Inactive)
REMARK    1  A    between atoms: N_5  and  C_9 
REMARK    2  A    between atoms: N_6  and  C_10 
REMARK    3  A    between atoms: C_9  and  C_10 
ROOT
HETATM    1  C   UNK N   1      26.788  24.053  -5.194  0.00  0.00     0.248 C 
HETATM    2  C   UNK N   1      26.033  23.291  -6.283  0.00  0.00     0.045 C 
ENDROOT
BRANCH   1   3
HETATM    3  N   UNK N   1      26.404  25.471  -5.197  0.00  0.00     0.112 N 
HETATM    4  C   UNK N   1      26.385  25.989  -3.820  0.00  0.00     0.376 C 
HETATM    5  C   UNK N   1      26.050  27.454  -3.828  0.00  0.00     0.252 C 
HETATM    6  O   UNK N   1      25.450  27.948  -2.888  0.00  0.00    -0.271 OA
HETATM    7  N   UNK N   1      26.427  28.230  -4.874  0.00  0.00    -0.295 N 
HETATM    8  C   UNK N   1      27.088  27.697  -5.932  0.00  0.00     0.252 C 
HETATM    9  H   UNK N   1      26.220  29.193  -4.865  0.00  0.00     0.171 HD
HETATM   10  O   UNK N   1      27.432  28.413  -6.858  0.00  0.00    -0.271 OA
HETATM   11  C   UNK N   1      27.407  26.227  -5.960  0.00  0.00     0.376 C 
ENDBRANCH   1   3
BRANCH   1  12
HETATM   12  C   UNK N   1      28.301  23.921  -5.436  0.00  0.00     0.308 C 
BRANCH  12  13
HETATM   13  N   UNK N   1      28.917  22.897  -4.602  0.00  0.00     0.108 N 
HETATM   14  C   UNK N   1      30.097  22.401  -5.308  0.00  0.00     0.375 C 
HETATM   15  C   UNK N   1      30.827  21.432  -4.438  0.00  0.00     0.252 C 
HETATM   16  O   UNK N   1      31.340  20.436  -4.922  0.00  0.00    -0.271 OA
HETATM   17  N   UNK N   1      30.950  21.687  -3.115  0.00  0.00    -0.295 N 
HETATM   18  C   UNK N   1      30.306  22.742  -2.555  0.00  0.00     0.252 C 
HETATM   19  H   UNK N   1      31.512  21.104  -2.555  0.00  0.00     0.171 HD
HETATM   20  O   UNK N   1      30.514  23.023  -1.384  0.00  0.00    -0.271 OA
HETATM   21  C   UNK N   1      29.332  23.572  -3.363  0.00  0.00     0.375 C 
ENDBRANCH  12  13
ENDBRANCH   1  12
TORSDOF 3
ENDMDL
MODEL 6
REMARK VINA RESULT:      -6.0      3.452      5.744
REMARK  3 active torsions:
REMARK  status: ('A' for Active; 'I' for Inactive)
REMARK    1  A    between atoms: N_5  and  C_9 
REMARK    2  A    between atoms: N_6  and  C_10 
REMARK    3  A    between atoms: C_9  and  C_10 
ROOT
HETATM    1  C   UNK N   1      34.378  13.420   9.205  0.00  0.00     0.248 C 
HETATM    2  C   UNK N   1      33.354  12.289   9.117  0.00  0.00     0.045 C 
ENDROOT
BRANCH   1   3
HETATM    3  N   UNK N   1      35.357  13.147  10.266  0.00  0.00     0.112 N 
HETATM    4  C   UNK N   1      36.700  13.557   9.829  0.00  0.00     0.376 C 
HETATM    5  C   UNK N   1      37.691  13.332  10.936  0.00  0.00     0.252 C 
HETATM    6  O   UNK N   1      38.850  13.061  10.671  0.00  0.00    -0.271 OA
HETATM    7  N   UNK N   1      37.300  13.446  12.229  0.00  0.00    -0.295 N 
HETATM    8  C   UNK N   1      36.013  13.739  12.542  0.00  0.00     0.252 C 
HETATM    9  H   UNK N   1      37.958  13.315  12.950  0.00  0.00     0.171 HD
HETATM   10  O   UNK N   1      35.682  13.851  13.711  0.00  0.00    -0.271 OA
HETATM   11  C   UNK N   1      34.996  13.938  11.451  0.00  0.00     0.376 C 
ENDBRANCH   1   3
BRANCH   1  12
HETATM   12  C   UNK N   1      33.651  14.744   9.493  0.00  0.00     0.308 C 
BRANCH  12  13
HETATM   13  N   UNK N   1      33.859  15.739   8.449  0.00  0.00     0.108 N 
HETATM   14  C   UNK N   1      32.545  16.152   7.960  0.00  0.00     0.375 C 
HETATM   15  C   UNK N   1      32.705  17.257   6.971  0.00  0.00     0.252 C 
HETATM   16  O   UNK N   1      31.992  17.306   5.982  0.00  0.00    -0.271 OA
HETATM   17  N   UNK N   1      33.621  18.227   7.199  0.00  0.00    -0.295 N 
HETATM   18  C   UNK N   1      34.479  18.131   8.246  0.00  0.00     0.252 C 
HETATM   19  H   UNK N   1      33.664  19.008   6.601  0.00  0.00     0.171 HD
HETATM   20  O   UNK N   1      35.224  19.064   8.503  0.00  0.00    -0.271 OA
HETATM   21  C   UNK N   1      34.524  16.881   9.098  0.00  0.00     0.375 C 
ENDBRANCH  12  13
ENDBRANCH   1  12
TORSDOF 3
ENDMDL
MODEL 7
REMARK VINA RESULT:      -6.0      3.958      7.943
REMARK  3 active torsions:
REMARK  status: ('A' for Active; 'I' for Inactive)
REMARK    1  A    between atoms: N_5  and  C_9 
REMARK    2  A    between atoms: N_6  and  C_10 
REMARK    3  A    between atoms: C_9  and  C_10 
ROOT
HETATM    1  C   UNK N   1      34.210  14.800   9.955  0.00  0.00     0.248 C 
HETATM    2  C   UNK N   1      33.924  13.421   9.361  0.00  0.00     0.045 C 
ENDROOT
BRANCH   1   3
HETATM    3  N   UNK N   1      34.068  15.843   8.929  0.00  0.00     0.112 N 
HETATM    4  C   UNK N   1      32.644  16.087   8.655  0.00  0.00     0.376 C 
HETATM    5  C   UNK N   1      32.499  17.195   7.649  0.00  0.00     0.252 C 
HETATM    6  O   UNK N   1      31.551  17.200   6.881  0.00  0.00    -0.271 OA
HETATM    7  N   UNK N   1      33.413  18.195   7.605  0.00  0.00    -0.295 N 
HETATM    8  C   UNK N   1      34.477  18.201   8.445  0.00  0.00     0.252 C 
HETATM    9  H   UNK N   1      33.303  18.927   6.955  0.00  0.00     0.171 HD
HETATM   10  O   UNK N   1      35.283  19.116   8.401  0.00  0.00    -0.271 OA
HETATM   11  C   UNK N   1      34.661  17.087   9.440  0.00  0.00     0.376 C 
ENDBRANCH   1   3
BRANCH   1  12
HETATM   12  C   UNK N   1      35.636  14.822  10.528  0.00  0.00     0.308 C 
BRANCH  12  13
HETATM   13  N   UNK N   1      35.822  13.865  11.611  0.00  0.00     0.108 N 
HETATM   14  C   UNK N   1      37.028  13.091  11.318  0.00  0.00     0.375 C 
HETATM   15  C   UNK N   1      37.324  12.178  12.460  0.00  0.00     0.252 C 
HETATM   16  O   UNK N   1      37.746  11.051  12.254  0.00  0.00    -0.271 OA
HETATM   17  N   UNK N   1      37.157  12.621  13.728  0.00  0.00    -0.295 N 
HETATM   18  C   UNK N   1      36.602  13.836  13.965  0.00  0.00     0.252 C 
HETATM   19  H   UNK N   1      37.442  12.058  14.484  0.00  0.00     0.171 HD
HETATM   20  O   UNK N   1      36.559  14.268  15.107  0.00  0.00    -0.271 OA
HETATM   21  C   UNK N   1      36.034  14.662  12.830  0.00  0.00     0.375 C 
ENDBRANCH  12  13
ENDBRANCH   1  12
TORSDOF 3
ENDMDL
MODEL 8
REMARK VINA RESULT:      -6.0      2.985      4.469
REMARK  3 active torsions:
REMARK  status: ('A' for Active; 'I' for Inactive)
REMARK    1  A    between atoms: N_5  and  C_9 
REMARK    2  A    between atoms: N_6  and  C_10 
REMARK    3  A    between atoms: C_9  and  C_10 
ROOT
HETATM    1  C   UNK N   1      31.433  16.770   7.373  0.00  0.00     0.248 C 
HETATM    2  C   UNK N   1      30.118  17.447   7.757  0.00  0.00     0.045 C 
ENDROOT
BRANCH   1   3
HETATM    3  N   UNK N   1      32.489  17.112   8.336  0.00  0.00     0.112 N 
HETATM    4  C   UNK N   1      33.122  15.886   8.845  0.00  0.00     0.376 C 
HETATM    5  C   UNK N   1      34.241  16.238   9.784  0.00  0.00     0.252 C 
HETATM    6  O   UNK N   1      34.520  15.492  10.708  0.00  0.00    -0.271 OA
HETATM    7  N   UNK N   1      34.951  17.378   9.596  0.00  0.00    -0.295 N 
HETATM    8  C   UNK N   1      34.650  18.223   8.579  0.00  0.00     0.252 C 
HETATM    9  H   UNK N   1      35.694  17.595  10.204  0.00  0.00     0.171 HD
HETATM   10  O   UNK N   1      35.308  19.237   8.416  0.00  0.00    -0.271 OA
HETATM   11  C   UNK N   1      33.514  17.907   7.644  0.00  0.00     0.376 C 
ENDBRANCH   1   3
BRANCH   1  12
HETATM   12  C   UNK N   1      31.846  17.222   5.963  0.00  0.00     0.308 C 
BRANCH  12  13
HETATM   13  N   UNK N   1      31.730  16.158   4.974  0.00  0.00     0.108 N 
HETATM   14  C   UNK N   1      33.028  16.020   4.316  0.00  0.00     0.375 C 
HETATM   15  C   UNK N   1      32.990  14.861   3.376  0.00  0.00     0.252 C 
HETATM   16  O   UNK N   1      33.561  14.923   2.299  0.00  0.00    -0.271 OA
HETATM   17  N   UNK N   1      32.352  13.727   3.744  0.00  0.00    -0.295 N 
HETATM   18  C   UNK N   1      31.639  13.681   4.898  0.00  0.00     0.252 C 
HETATM   19  H   UNK N   1      32.406  12.927   3.172  0.00  0.00     0.171 HD
HETATM   20  O   UNK N   1      31.161  12.621   5.271  0.00  0.00    -0.271 OA
HETATM   21  C   UNK N   1      31.428  14.930   5.727  0.00  0.00     0.375 C 
ENDBRANCH  12  13
ENDBRANCH   1  12
TORSDOF 3
ENDMDL
MODEL 9
REMARK VINA RESULT:      -5.9      3.650      7.840
REMARK  3 active torsions:
REMARK  status: ('A' for Active; 'I' for Inactive)
REMARK    1  A    between atoms: N_5  and  C_9 
REMARK    2  A    between atoms: N_6  and  C_10 
REMARK    3  A    between atoms: C_9  and  C_10 
ROOT
HETATM    1  C   UNK N   1      33.546  15.016   9.984  0.00  0.00     0.248 C 
HETATM    2  C   UNK N   1      33.835  13.748   9.182  0.00  0.00     0.045 C 
ENDROOT
BRANCH   1   3
HETATM    3  N   UNK N   1      33.404  16.172   9.088  0.00  0.00     0.112 N 
HETATM    4  C   UNK N   1      34.628  16.987   9.121  0.00  0.00     0.376 C 
HETATM    5  C   UNK N   1      34.507  18.135   8.160  0.00  0.00     0.252 C 
HETATM    6  O   UNK N   1      35.075  19.189   8.393  0.00  0.00    -0.271 OA
HETATM    7  N   UNK N   1      33.778  17.996   7.025  0.00  0.00    -0.295 N 
HETATM    8  C   UNK N   1      33.132  16.834   6.753  0.00  0.00     0.252 C 
HETATM    9  H   UNK N   1      33.716  18.746   6.391  0.00  0.00     0.171 HD
HETATM   10  O   UNK N   1      32.492  16.721   5.721  0.00  0.00    -0.271 OA
HETATM   11  C   UNK N   1      33.214  15.681   7.716  0.00  0.00     0.376 C 
ENDBRANCH   1   3
BRANCH   1  12
HETATM   12  C   UNK N   1      34.692  15.264  10.977  0.00  0.00     0.308 C 
BRANCH  12  13
HETATM   13  N   UNK N   1      35.501  14.073  11.211  0.00  0.00     0.108 N 
HETATM   14  C   UNK N   1      36.848  14.346  10.713  0.00  0.00     0.375 C 
HETATM   15  C   UNK N   1      37.742  13.196  11.039  0.00  0.00     0.252 C 
HETATM   16  O   UNK N   1      38.590  12.831  10.241  0.00  0.00    -0.271 OA
HETATM   17  N   UNK N   1      37.631  12.586  12.241  0.00  0.00    -0.295 N 
HETATM   18  C   UNK N   1      36.631  12.924  13.095  0.00  0.00     0.252 C 
HETATM   19  H   UNK N   1      38.280  11.893  12.500  0.00  0.00     0.171 HD
HETATM   20  O   UNK N   1      36.609  12.445  14.219  0.00  0.00    -0.271 OA
HETATM   21  C   UNK N   1      35.544  13.888  12.671  0.00  0.00     0.375 C 
ENDBRANCH  12  13
ENDBRANCH   1  12
TORSDOF 3
ENDMDL
