MODEL 1
REMARK VINA RESULT:      -6.2      0.000      0.000
REMARK  1 active torsions:
REMARK  status: ('A' for Active; 'I' for Inactive)
REMARK    1  A    between atoms: N_3  and  C_10 
ROOT
HETATM    1  N   UNK N   1      34.595  12.268  15.760  0.00  0.00    -0.358 N 
ATOM      2  HN  UNK N   1      34.002  11.856  16.480  1.00  0.00     0.166 HD
HETATM    3  C   UNK N   1      37.141  15.613  16.823  0.00  0.00     0.005 A 
HETATM    4  C   UNK N   1      37.126  15.058  15.406  0.00  0.00     0.043 A 
HETATM    5  C   UNK N   1      36.244  14.978  17.882  0.00  0.00     0.006 A 
HETATM    6  C   UNK N   1      36.222  13.902  15.110  0.00  0.00    -0.008 A 
HETATM    7  C   UNK N   1      35.352  13.803  17.499  0.00  0.00     0.057 A 
HETATM    8  C   UNK N   1      35.395  13.317  16.089  0.00  0.00     0.018 A 
HETATM    9  C   UNK N   1      36.205  13.386  13.803  0.00  0.00     0.046 A 
HETATM   10  C   UNK N   1      35.373  12.307  13.495  0.00  0.00     0.017 A 
HETATM   11  C   UNK N   1      34.561  11.753  14.505  0.00  0.00     0.044 A 
HETATM   12  C   UNK N   1      35.332  11.770  12.202  0.00  0.00     0.016 A 
HETATM   13  C   UNK N   1      33.723  10.675  14.216  0.00  0.00     0.030 A 
HETATM   14  C   UNK N   1      34.492  10.691  11.919  0.00  0.00     0.001 A 
HETATM   15  C   UNK N   1      33.689  10.145  12.924  0.00  0.00     0.002 A 
ENDROOT
BRANCH   9  16
HETATM   16  N   UNK N   1      37.028  13.957  12.803  0.00  0.00    -0.398 N 
HETATM   17  H   UNK N   1      37.063  14.935  12.694  0.00  0.00     0.156 HD
HETATM   18  H   UNK N   1      37.566  13.376  12.217  0.00  0.00     0.156 HD
ENDBRANCH   9  16
TORSDOF 1
ENDMDL
MODEL 2
REMARK VINA RESULT:      -6.0      0.129      4.745
REMARK  1 active torsions:
REMARK  status: ('A' for Active; 'I' for Inactive)
REMARK    1  A    between atoms: N_3  and  C_10 
ROOT
HETATM    1  N   UNK N   1      34.690  12.353  15.789  0.00  0.00    -0.358 N 
ATOM      2  HN  UNK N   1      34.112  11.933  16.517  1.00  0.00     0.166 HD
HETATM    3  C   UNK N   1      34.497  10.724  11.776  0.00  0.00     0.005 A 
HETATM    4  C   UNK N   1      35.406  11.901  12.102  0.00  0.00     0.043 A 
HETATM    5  C   UNK N   1      33.643  10.113  12.883  0.00  0.00     0.006 A 
HETATM    6  C   UNK N   1      35.422  12.411  13.509  0.00  0.00    -0.008 A 
HETATM    7  C   UNK N   1      33.717  10.692  14.291  0.00  0.00     0.057 A 
HETATM    8  C   UNK N   1      34.633  11.846  14.529  0.00  0.00     0.018 A 
HETATM    9  C   UNK N   1      36.259  13.497  13.814  0.00  0.00     0.046 A 
HETATM   10  C   UNK N   1      36.297  13.998  15.119  0.00  0.00     0.017 A 
HETATM   11  C   UNK N   1      35.491  13.401  16.108  0.00  0.00     0.044 A 
HETATM   12  C   UNK N   1      37.121  15.079  15.456  0.00  0.00     0.016 A 
HETATM   13  C   UNK N   1      35.515  13.887  17.417  0.00  0.00     0.030 A 
HETATM   14  C   UNK N   1      37.141  15.561  16.766  0.00  0.00     0.001 A 
HETATM   15  C   UNK N   1      36.339  14.966  17.745  0.00  0.00     0.002 A 
ENDROOT
BRANCH   9  16
HETATM   16  N   UNK N   1      37.061  14.082  12.805  0.00  0.00    -0.398 N 
HETATM   17  H   UNK N   1      36.639  14.478  12.009  0.00  0.00     0.156 HD
HETATM   18  H   UNK N   1      38.042  14.093  12.900  0.00  0.00     0.156 HD
ENDBRANCH   9  16
TORSDOF 1
ENDMDL
MODEL 3
REMARK VINA RESULT:      -5.9      2.278      3.874
REMARK  1 active torsions:
REMARK  status: ('A' for Active; 'I' for Inactive)
REMARK    1  A    between atoms: N_3  and  C_10 
ROOT
HETATM    1  N   UNK N   1      34.407  12.304  12.283  0.00  0.00    -0.358 N 
ATOM      2  HN  UNK N   1      33.803  11.669  11.761  1.00  0.00     0.166 HD
HETATM    3  C   UNK N   1      35.319  11.388  16.421  0.00  0.00     0.005 A 
HETATM    4  C   UNK N   1      35.885  12.631  15.750  0.00  0.00     0.043 A 
HETATM    5  C   UNK N   1      34.417  10.453  15.619  0.00  0.00     0.006 A 
HETATM    6  C   UNK N   1      35.528  12.885  14.318  0.00  0.00    -0.008 A 
HETATM    7  C   UNK N   1      34.102  10.783  14.165  0.00  0.00     0.057 A 
HETATM    8  C   UNK N   1      34.696  12.021  13.580  0.00  0.00     0.018 A 
HETATM    9  C   UNK N   1      36.049  14.032  13.695  0.00  0.00     0.046 A 
HETATM   10  C   UNK N   1      35.735  14.297  12.359  0.00  0.00     0.017 A 
HETATM   11  C   UNK N   1      34.898  13.405  11.659  0.00  0.00     0.044 A 
HETATM   12  C   UNK N   1      36.237  15.431  11.709  0.00  0.00     0.016 A 
HETATM   13  C   UNK N   1      34.573  13.654  10.324  0.00  0.00     0.030 A 
HETATM   14  C   UNK N   1      35.909  15.675  10.374  0.00  0.00     0.001 A 
HETATM   15  C   UNK N   1      35.078  14.787   9.683  0.00  0.00     0.002 A 
ENDROOT
BRANCH   9  16
HETATM   16  N   UNK N   1      36.888  14.914  14.417  0.00  0.00    -0.398 N 
HETATM   17  H   UNK N   1      37.636  14.558  14.947  0.00  0.00     0.156 HD
HETATM   18  H   UNK N   1      36.721  15.884  14.388  0.00  0.00     0.156 HD
ENDBRANCH   9  16
TORSDOF 1
ENDMDL
MODEL 4
REMARK VINA RESULT:      -5.8     11.369     12.505
REMARK  1 active torsions:
REMARK  status: ('A' for Active; 'I' for Inactive)
REMARK    1  A    between atoms: N_3  and  C_10 
ROOT
HETATM    1  N   UNK N   1      28.571  19.019   7.661  0.00  0.00    -0.358 N 
ATOM      2  HN  UNK N   1      28.363  19.396   8.586  1.00  0.00     0.166 HD
HETATM    3  C   UNK N   1      31.516  15.857   7.311  0.00  0.00     0.005 A 
HETATM    4  C   UNK N   1      30.800  16.402   6.084  0.00  0.00     0.043 A 
HETATM    5  C   UNK N   1      31.188  16.438   8.684  0.00  0.00     0.006 A 
HETATM    6  C   UNK N   1      29.795  17.494   6.279  0.00  0.00    -0.008 A 
HETATM    7  C   UNK N   1      30.151  17.549   8.797  0.00  0.00     0.057 A 
HETATM    8  C   UNK N   1      29.493  18.028   7.546  0.00  0.00     0.018 A 
HETATM    9  C   UNK N   1      29.132  17.999   5.148  0.00  0.00     0.046 A 
HETATM   10  C   UNK N   1      28.187  19.019   5.297  0.00  0.00     0.017 A 
HETATM   11  C   UNK N   1      27.917  19.524   6.584  0.00  0.00     0.044 A 
HETATM   12  C   UNK N   1      27.509  19.544   4.190  0.00  0.00     0.016 A 
HETATM   13  C   UNK N   1      26.977  20.542   6.752  0.00  0.00     0.030 A 
HETATM   14  C   UNK N   1      26.570  20.563   4.364  0.00  0.00     0.001 A 
HETATM   15  C   UNK N   1      26.305  21.061   5.643  0.00  0.00     0.002 A 
ENDROOT
BRANCH   9  16
HETATM   16  N   UNK N   1      29.418  17.477   3.863  0.00  0.00    -0.398 N 
HETATM   17  H   UNK N   1      28.739  17.521   3.153  0.00  0.00     0.156 HD
HETATM   18  H   UNK N   1      30.297  17.071   3.682  0.00  0.00     0.156 HD
ENDBRANCH   9  16
TORSDOF 1
ENDMDL
MODEL 5
REMARK VINA RESULT:      -5.7     11.519     12.834
REMARK  1 active torsions:
REMARK  status: ('A' for Active; 'I' for Inactive)
REMARK    1  A    between atoms: N_3  and  C_10 
ROOT
HETATM    1  N   UNK N   1      29.259  18.191   4.742  0.00  0.00    -0.358 N 
ATOM      2  HN  UNK N   1      29.605  17.999   3.802  1.00  0.00     0.166 HD
HETATM    3  C   UNK N   1      31.230  16.305   8.112  0.00  0.00     0.005 A 
HETATM    4  C   UNK N   1      30.044  17.236   8.318  0.00  0.00     0.043 A 
HETATM    5  C   UNK N   1      31.729  16.035   6.695  0.00  0.00     0.006 A 
HETATM    6  C   UNK N   1      29.412  17.852   7.108  0.00  0.00    -0.008 A 
HETATM    7  C   UNK N   1      31.029  16.702   5.517  0.00  0.00     0.057 A 
HETATM    8  C   UNK N   1      29.874  17.602   5.802  0.00  0.00     0.018 A 
HETATM    9  C   UNK N   1      28.317  18.713   7.294  0.00  0.00     0.046 A 
HETATM   10  C   UNK N   1      27.705  19.304   6.185  0.00  0.00     0.017 A 
HETATM   11  C   UNK N   1      28.200  19.025   4.896  0.00  0.00     0.044 A 
HETATM   12  C   UNK N   1      26.612  20.166   6.336  0.00  0.00     0.016 A 
HETATM   13  C   UNK N   1      27.602  19.606   3.776  0.00  0.00     0.030 A 
HETATM   14  C   UNK N   1      26.017  20.745   5.213  0.00  0.00     0.001 A 
HETATM   15  C   UNK N   1      26.512  20.465   3.935  0.00  0.00     0.002 A 
ENDROOT
BRANCH   9  16
HETATM   16  N   UNK N   1      27.836  18.980   8.598  0.00  0.00    -0.398 N 
HETATM   17  H   UNK N   1      27.560  18.238   9.182  0.00  0.00     0.156 HD
HETATM   18  H   UNK N   1      27.777  19.909   8.920  0.00  0.00     0.156 HD
ENDBRANCH   9  16
TORSDOF 1
ENDMDL
MODEL 6
REMARK VINA RESULT:      -5.7     11.288     12.527
REMARK  1 active torsions:
REMARK  status: ('A' for Active; 'I' for Inactive)
REMARK    1  A    between atoms: N_3  and  C_10 
ROOT
HETATM    1  N   UNK N   1      28.658  18.895   7.665  0.00  0.00    -0.358 N 
ATOM      2  HN  UNK N   1      28.443  19.276   8.586  1.00  0.00     0.166 HD
HETATM    3  C   UNK N   1      26.560  20.474   4.215  0.00  0.00     0.005 A 
HETATM    4  C   UNK N   1      27.599  19.373   4.064  0.00  0.00     0.043 A 
HETATM    5  C   UNK N   1      26.256  21.028   5.604  0.00  0.00     0.006 A 
HETATM    6  C   UNK N   1      28.284  18.875   5.299  0.00  0.00    -0.008 A 
HETATM    7  C   UNK N   1      26.998  20.466   6.811  0.00  0.00     0.057 A 
HETATM    8  C   UNK N   1      28.003  19.387   6.580  0.00  0.00     0.018 A 
HETATM    9  C   UNK N   1      29.245  17.858   5.164  0.00  0.00     0.046 A 
HETATM   10  C   UNK N   1      29.902  17.372   6.297  0.00  0.00     0.017 A 
HETATM   11  C   UNK N   1      29.589  17.913   7.560  0.00  0.00     0.044 A 
HETATM   12  C   UNK N   1      30.864  16.359   6.197  0.00  0.00     0.016 A 
HETATM   13  C   UNK N   1      30.235  17.441   8.703  0.00  0.00     0.030 A 
HETATM   14  C   UNK N   1      31.508  15.890   7.344  0.00  0.00     0.001 A 
HETATM   15  C   UNK N   1      31.194  16.430   8.595  0.00  0.00     0.002 A 
ENDROOT
BRANCH   9  16
HETATM   16  N   UNK N   1      29.544  17.328   3.886  0.00  0.00    -0.398 N 
HETATM   17  H   UNK N   1      30.458  17.397   3.528  0.00  0.00     0.156 HD
HETATM   18  H   UNK N   1      28.838  16.891   3.357  0.00  0.00     0.156 HD
ENDBRANCH   9  16
TORSDOF 1
ENDMDL
MODEL 7
REMARK VINA RESULT:      -5.6      9.593     11.329
REMARK  1 active torsions:
REMARK  status: ('A' for Active; 'I' for Inactive)
REMARK    1  A    between atoms: N_3  and  C_10 
ROOT
HETATM    1  N   UNK N   1      29.497  17.183   5.787  0.00  0.00    -0.358 N 
ATOM      2  HN  UNK N   1      28.623  17.028   5.283  1.00  0.00     0.166 HD
HETATM    3  C   UNK N   1      33.241  16.782   3.638  0.00  0.00     0.005 A 
HETATM    4  C   UNK N   1      33.220  17.146   5.115  0.00  0.00     0.043 A 
HETATM    5  C   UNK N   1      31.921  16.555   2.907  0.00  0.00     0.006 A 
HETATM    6  C   UNK N   1      31.890  17.268   5.793  0.00  0.00    -0.008 A 
HETATM    7  C   UNK N   1      30.609  16.698   3.671  0.00  0.00     0.057 A 
HETATM    8  C   UNK N   1      30.673  17.058   5.117  0.00  0.00     0.018 A 
HETATM    9  C   UNK N   1      31.866  17.605   7.157  0.00  0.00     0.046 A 
HETATM   10  C   UNK N   1      30.642  17.726   7.819  0.00  0.00     0.017 A 
HETATM   11  C   UNK N   1      29.448  17.507   7.104  0.00  0.00     0.044 A 
HETATM   12  C   UNK N   1      30.583  18.060   9.178  0.00  0.00     0.016 A 
HETATM   13  C   UNK N   1      28.215  17.623   7.748  0.00  0.00     0.030 A 
HETATM   14  C   UNK N   1      29.347  18.175   9.818  0.00  0.00     0.001 A 
HETATM   15  C   UNK N   1      28.165  17.957   9.103  0.00  0.00     0.002 A 
ENDROOT
BRANCH   9  16
HETATM   16  N   UNK N   1      33.077  17.820   7.858  0.00  0.00    -0.398 N 
HETATM   17  H   UNK N   1      33.089  17.786   8.841  0.00  0.00     0.156 HD
HETATM   18  H   UNK N   1      33.907  18.005   7.361  0.00  0.00     0.156 HD
ENDBRANCH   9  16
TORSDOF 1
ENDMDL
MODEL 8
REMARK VINA RESULT:      -5.6      2.226      4.269
REMARK  1 active torsions:
REMARK  status: ('A' for Active; 'I' for Inactive)
REMARK    1  A    between atoms: N_3  and  C_10 
ROOT
HETATM    1  N   UNK N   1      34.427  12.043  12.400  0.00  0.00    -0.358 N 
ATOM      2  HN  UNK N   1      33.841  11.367  11.911  1.00  0.00     0.166 HD
HETATM    3  C   UNK N   1      36.003  15.423  10.191  0.00  0.00     0.005 A 
HETATM    4  C   UNK N   1      36.314  15.239  11.669  0.00  0.00     0.043 A 
HETATM    5  C   UNK N   1      35.123  14.399   9.480  0.00  0.00     0.006 A 
HETATM    6  C   UNK N   1      35.736  14.049  12.369  0.00  0.00    -0.008 A 
HETATM    7  C   UNK N   1      34.574  13.213  10.265  0.00  0.00     0.057 A 
HETATM    8  C   UNK N   1      34.924  13.104  11.712  0.00  0.00     0.018 A 
HETATM    9  C   UNK N   1      36.020  13.875  13.734  0.00  0.00     0.046 A 
HETATM   10  C   UNK N   1      35.496  12.774  14.416  0.00  0.00     0.017 A 
HETATM   11  C   UNK N   1      34.688  11.854  13.719  0.00  0.00     0.044 A 
HETATM   12  C   UNK N   1      35.760  12.572  15.776  0.00  0.00     0.016 A 
HETATM   13  C   UNK N   1      34.155  10.748  14.383  0.00  0.00     0.030 A 
HETATM   14  C   UNK N   1      35.224  11.464  16.436  0.00  0.00     0.001 A 
HETATM   15  C   UNK N   1      34.423  10.553  15.740  0.00  0.00     0.002 A 
ENDROOT
BRANCH   9  16
HETATM   16  N   UNK N   1      36.834  14.812  14.415  0.00  0.00    -0.398 N 
HETATM   17  H   UNK N   1      36.422  15.579  14.874  0.00  0.00     0.156 HD
HETATM   18  H   UNK N   1      37.812  14.694  14.430  0.00  0.00     0.156 HD
ENDBRANCH   9  16
TORSDOF 1
ENDMDL
MODEL 9
REMARK VINA RESULT:      -5.6     23.119     24.708
REMARK  1 active torsions:
REMARK  status: ('A' for Active; 'I' for Inactive)
REMARK    1  A    between atoms: N_3  and  C_10 
ROOT
HETATM    1  N   UNK N   1      27.860  25.040  -3.712  0.00  0.00    -0.358 N 
ATOM      2  HN  UNK N   1      28.135  25.313  -2.768  1.00  0.00     0.166 HD
HETATM    3  C   UNK N   1      29.800  21.620  -5.539  0.00  0.00     0.005 A 
HETATM    4  C   UNK N   1      28.728  22.404  -6.283  0.00  0.00     0.043 A 
HETATM    5  C   UNK N   1      30.193  22.049  -4.128  0.00  0.00     0.006 A 
HETATM    6  C   UNK N   1      28.101  23.574  -5.590  0.00  0.00    -0.008 A 
HETATM    7  C   UNK N   1      29.506  23.252  -3.494  0.00  0.00     0.057 A 
HETATM    8  C   UNK N   1      28.466  23.968  -4.289  0.00  0.00     0.018 A 
HETATM    9  C   UNK N   1      27.112  24.300  -6.274  0.00  0.00     0.046 A 
HETATM   10  C   UNK N   1      26.507  25.398  -5.655  0.00  0.00     0.017 A 
HETATM   11  C   UNK N   1      26.902  25.757  -4.351  0.00  0.00     0.044 A 
HETATM   12  C   UNK N   1      25.517  26.143  -6.309  0.00  0.00     0.016 A 
HETATM   13  C   UNK N   1      26.309  26.850  -3.717  0.00  0.00     0.030 A 
HETATM   14  C   UNK N   1      24.928  27.235  -5.670  0.00  0.00     0.001 A 
HETATM   15  C   UNK N   1      25.323  27.588  -4.376  0.00  0.00     0.002 A 
ENDROOT
BRANCH   9  16
HETATM   16  N   UNK N   1      26.729  23.922  -7.583  0.00  0.00    -0.398 N 
HETATM   17  H   UNK N   1      26.792  24.571  -8.320  0.00  0.00     0.156 HD
HETATM   18  H   UNK N   1      26.400  23.010  -7.756  0.00  0.00     0.156 HD
ENDBRANCH   9  16
TORSDOF 1
ENDMDL
