MODEL 1
REMARK VINA RESULT:      -4.8      0.000      0.000
REMARK  4 active torsions:
REMARK  status: ('A' for Active; 'I' for Inactive)
REMARK    1  A    between atoms: C_3  and  O_1 
REMARK    2  A    between atoms: C_4  and  N_2 
REMARK    3  A    between atoms: C_3  and  C_4 
REMARK    4  A    between atoms: C_3  and  C_5 
ROOT
HETATM    1  C   UNK N   1      35.589  12.250  15.210  0.00  0.00     0.173 C 
ENDROOT
BRANCH   1   2
HETATM    2  O   UNK N   1      34.648  13.092  14.609  0.00  0.00    -0.389 OA
HETATM    3  H   UNK N   1      34.336  13.889  15.066  0.00  0.00     0.210 HD
ENDBRANCH   1   2
BRANCH   1   4
HETATM    4  C   UNK N   1      36.994  12.618  14.707  0.00  0.00     0.103 C 
HETATM    5  C   UNK N   1      37.801  11.379  14.359  0.00  0.00     0.034 C 
BRANCH   4   6
HETATM    6  N   UNK N   1      36.890  13.436  13.508  0.00  0.00    -0.424 N 
HETATM    7  H   UNK N   1      36.810  13.000  12.589  0.00  0.00     0.150 HD
HETATM    8  H   UNK N   1      36.898  14.452  13.587  0.00  0.00     0.150 HD
ENDBRANCH   4   6
ENDBRANCH   1   4
BRANCH   1   9
HETATM    9  C   UNK N   1      35.450  12.297  16.720  0.00  0.00    -0.028 A 
HETATM   10  C   UNK N   1      35.220  13.513  17.376  0.00  0.00     0.010 A 
HETATM   11  C   UNK N   1      35.120  13.562  18.771  0.00  0.00     0.001 A 
HETATM   12  C   UNK N   1      35.266  12.393  19.523  0.00  0.00     0.000 A 
HETATM   13  C   UNK N   1      35.508  11.176  18.881  0.00  0.00     0.001 A 
HETATM   14  C   UNK N   1      35.599  11.126  17.487  0.00  0.00     0.010 A 
ENDBRANCH   1   9
TORSDOF 4
ENDMDL
MODEL 2
REMARK VINA RESULT:      -4.8     27.676     28.547
REMARK  4 active torsions:
REMARK  status: ('A' for Active; 'I' for Inactive)
REMARK    1  A    between atoms: C_3  and  O_1 
REMARK    2  A    between atoms: C_4  and  N_2 
REMARK    3  A    between atoms: C_3  and  C_4 
REMARK    4  A    between atoms: C_3  and  C_5 
ROOT
HETATM    1  C   UNK N   1      25.827  28.698  -3.952  0.00  0.00     0.173 C 
ENDROOT
BRANCH   1   2
HETATM    2  O   UNK N   1      25.515  27.778  -2.946  0.00  0.00    -0.389 OA
HETATM    3  H   UNK N   1      24.599  27.490  -2.807  0.00  0.00     0.210 HD
ENDBRANCH   1   2
BRANCH   1   4
HETATM    4  C   UNK N   1      26.966  29.611  -3.471  0.00  0.00     0.103 C 
HETATM    5  C   UNK N   1      26.521  31.062  -3.399  0.00  0.00     0.034 C 
BRANCH   4   6
HETATM    6  N   UNK N   1      27.391  29.207  -2.139  0.00  0.00    -0.424 N 
HETATM    7  H   UNK N   1      27.740  29.898  -1.474  0.00  0.00     0.150 HD
HETATM    8  H   UNK N   1      27.342  28.226  -1.869  0.00  0.00     0.150 HD
ENDBRANCH   4   6
ENDBRANCH   1   4
BRANCH   1   9
HETATM    9  C   UNK N   1      26.133  27.975  -5.251  0.00  0.00    -0.028 A 
HETATM   10  C   UNK N   1      27.247  28.333  -6.019  0.00  0.00     0.010 A 
HETATM   11  C   UNK N   1      27.515  27.686  -7.230  0.00  0.00     0.001 A 
HETATM   12  C   UNK N   1      26.656  26.684  -7.692  0.00  0.00     0.000 A 
HETATM   13  C   UNK N   1      25.534  26.327  -6.941  0.00  0.00     0.001 A 
HETATM   14  C   UNK N   1      25.272  26.967  -5.726  0.00  0.00     0.010 A 
ENDBRANCH   1   9
TORSDOF 4
ENDMDL
MODEL 3
REMARK VINA RESULT:      -4.7     12.405     13.848
REMARK  4 active torsions:
REMARK  status: ('A' for Active; 'I' for Inactive)
REMARK    1  A    between atoms: C_3  and  O_1 
REMARK    2  A    between atoms: C_4  and  N_2 
REMARK    3  A    between atoms: C_3  and  C_4 
REMARK    4  A    between atoms: C_3  and  C_5 
ROOT
HETATM    1  C   UNK N   1      28.536  18.646   8.709  0.00  0.00     0.173 C 
ENDROOT
BRANCH   1   2
HETATM    2  O   UNK N   1      27.378  18.179   9.340  0.00  0.00    -0.389 OA
HETATM    3  H   UNK N   1      26.674  17.752   8.827  0.00  0.00     0.210 HD
ENDBRANCH   1   2
BRANCH   1   4
HETATM    4  C   UNK N   1      29.666  17.621   8.897  0.00  0.00     0.103 C 
HETATM    5  C   UNK N   1      31.032  18.270   8.763  0.00  0.00     0.034 C 
BRANCH   4   6
HETATM    6  N   UNK N   1      29.579  17.031  10.225  0.00  0.00    -0.424 N 
HETATM    7  H   UNK N   1      30.062  16.158  10.437  0.00  0.00     0.150 HD
HETATM    8  H   UNK N   1      29.030  17.493  10.949  0.00  0.00     0.150 HD
ENDBRANCH   4   6
ENDBRANCH   1   4
BRANCH   1   9
HETATM    9  C   UNK N   1      28.248  18.976   7.257  0.00  0.00    -0.028 A 
HETATM   10  C   UNK N   1      28.583  18.072   6.242  0.00  0.00     0.010 A 
HETATM   11  C   UNK N   1      28.344  18.387   4.900  0.00  0.00     0.001 A 
HETATM   12  C   UNK N   1      27.781  19.621   4.561  0.00  0.00     0.000 A 
HETATM   13  C   UNK N   1      27.454  20.536   5.564  0.00  0.00     0.001 A 
HETATM   14  C   UNK N   1      27.684  20.218   6.906  0.00  0.00     0.010 A 
ENDBRANCH   1   9
TORSDOF 4
ENDMDL
MODEL 4
REMARK VINA RESULT:      -4.7     19.259     20.449
REMARK  4 active torsions:
REMARK  status: ('A' for Active; 'I' for Inactive)
REMARK    1  A    between atoms: C_3  and  O_1 
REMARK    2  A    between atoms: C_4  and  N_2 
REMARK    3  A    between atoms: C_3  and  C_4 
REMARK    4  A    between atoms: C_3  and  C_5 
ROOT
HETATM    1  C   UNK N   1      21.642  20.351   3.053  0.00  0.00     0.173 C 
ENDROOT
BRANCH   1   2
HETATM    2  O   UNK N   1      21.601  21.690   2.649  0.00  0.00    -0.389 OA
HETATM    3  H   UNK N   1      20.765  22.181   2.653  0.00  0.00     0.210 HD
ENDBRANCH   1   2
BRANCH   1   4
HETATM    4  C   UNK N   1      20.869  19.491   2.040  0.00  0.00     0.103 C 
HETATM    5  C   UNK N   1      19.588  18.940   2.642  0.00  0.00     0.034 C 
BRANCH   4   6
HETATM    6  N   UNK N   1      20.509  20.298   0.883  0.00  0.00    -0.424 N 
HETATM    7  H   UNK N   1      21.224  20.799   0.356  0.00  0.00     0.150 HD
HETATM    8  H   UNK N   1      19.532  20.363   0.597  0.00  0.00     0.150 HD
ENDBRANCH   4   6
ENDBRANCH   1   4
BRANCH   1   9
HETATM    9  C   UNK N   1      23.078  19.907   3.260  0.00  0.00    -0.028 A 
HETATM   10  C   UNK N   1      24.138  20.670   2.758  0.00  0.00     0.010 A 
HETATM   11  C   UNK N   1      25.462  20.247   2.924  0.00  0.00     0.001 A 
HETATM   12  C   UNK N   1      25.733  19.043   3.581  0.00  0.00     0.000 A 
HETATM   13  C   UNK N   1      24.682  18.267   4.076  0.00  0.00     0.001 A 
HETATM   14  C   UNK N   1      23.361  18.695   3.918  0.00  0.00     0.010 A 
ENDBRANCH   1   9
TORSDOF 4
ENDMDL
MODEL 5
REMARK VINA RESULT:      -4.6      1.469      2.205
REMARK  4 active torsions:
REMARK  status: ('A' for Active; 'I' for Inactive)
REMARK    1  A    between atoms: C_3  and  O_1 
REMARK    2  A    between atoms: C_4  and  N_2 
REMARK    3  A    between atoms: C_3  and  C_4 
REMARK    4  A    between atoms: C_3  and  C_5 
ROOT
HETATM    1  C   UNK N   1      36.204  13.688  15.115  0.00  0.00     0.173 C 
ENDROOT
BRANCH   1   2
HETATM    2  O   UNK N   1      37.471  14.276  15.188  0.00  0.00    -0.389 OA
HETATM    3  H   UNK N   1      38.269  13.726  15.232  0.00  0.00     0.210 HD
ENDBRANCH   1   2
BRANCH   1   4
HETATM    4  C   UNK N   1      36.131  12.792  13.867  0.00  0.00     0.103 C 
HETATM    5  C   UNK N   1      35.226  13.393  12.805  0.00  0.00     0.034 C 
BRANCH   4   6
HETATM    6  N   UNK N   1      37.459  12.641  13.291  0.00  0.00    -0.424 N 
HETATM    7  H   UNK N   1      37.636  11.936  12.575  0.00  0.00     0.150 HD
HETATM    8  H   UNK N   1      38.219  13.243  13.606  0.00  0.00     0.150 HD
ENDBRANCH   4   6
ENDBRANCH   1   4
BRANCH   1   9
HETATM    9  C   UNK N   1      35.886  12.960  16.407  0.00  0.00    -0.028 A 
HETATM   10  C   UNK N   1      35.986  11.566  16.482  0.00  0.00     0.010 A 
HETATM   11  C   UNK N   1      35.666  10.891  17.665  0.00  0.00     0.001 A 
HETATM   12  C   UNK N   1      35.225  11.608  18.781  0.00  0.00     0.000 A 
HETATM   13  C   UNK N   1      35.110  12.998  18.715  0.00  0.00     0.001 A 
HETATM   14  C   UNK N   1      35.438  13.673  17.536  0.00  0.00     0.010 A 
ENDBRANCH   1   9
TORSDOF 4
ENDMDL
MODEL 6
REMARK VINA RESULT:      -4.6     15.535     16.338
REMARK  4 active torsions:
REMARK  status: ('A' for Active; 'I' for Inactive)
REMARK    1  A    between atoms: C_3  and  O_1 
REMARK    2  A    between atoms: C_4  and  N_2 
REMARK    3  A    between atoms: C_3  and  C_4 
REMARK    4  A    between atoms: C_3  and  C_5 
ROOT
HETATM    1  C   UNK N   1      20.322  14.429   8.944  0.00  0.00     0.173 C 
ENDROOT
BRANCH   1   2
HETATM    2  O   UNK N   1      19.099  14.600   9.598  0.00  0.00    -0.389 OA
HETATM    3  H   UNK N   1      18.868  14.054  10.367  0.00  0.00     0.210 HD
ENDBRANCH   1   2
BRANCH   1   4
HETATM    4  C   UNK N   1      20.926  15.807   8.625  0.00  0.00     0.103 C 
HETATM    5  C   UNK N   1      21.350  15.904   7.170  0.00  0.00     0.034 C 
BRANCH   4   6
HETATM    6  N   UNK N   1      19.938  16.846   8.874  0.00  0.00    -0.424 N 
HETATM    7  H   UNK N   1      19.397  16.852   9.739  0.00  0.00     0.150 HD
HETATM    8  H   UNK N   1      19.784  17.574   8.177  0.00  0.00     0.150 HD
ENDBRANCH   4   6
ENDBRANCH   1   4
BRANCH   1   9
HETATM    9  C   UNK N   1      21.237  13.537   9.762  0.00  0.00    -0.028 A 
HETATM   10  C   UNK N   1      20.728  12.772  10.818  0.00  0.00     0.010 A 
HETATM   11  C   UNK N   1      21.575  11.971  11.591  0.00  0.00     0.001 A 
HETATM   12  C   UNK N   1      22.947  11.943  11.322  0.00  0.00     0.000 A 
HETATM   13  C   UNK N   1      23.469  12.711  10.279  0.00  0.00     0.001 A 
HETATM   14  C   UNK N   1      22.621  13.504   9.501  0.00  0.00     0.010 A 
ENDBRANCH   1   9
TORSDOF 4
ENDMDL
MODEL 7
REMARK VINA RESULT:      -4.5     11.674     12.985
REMARK  4 active torsions:
REMARK  status: ('A' for Active; 'I' for Inactive)
REMARK    1  A    between atoms: C_3  and  O_1 
REMARK    2  A    between atoms: C_4  and  N_2 
REMARK    3  A    between atoms: C_3  and  C_4 
REMARK    4  A    between atoms: C_3  and  C_5 
ROOT
HETATM    1  C   UNK N   1      27.973  18.368   7.813  0.00  0.00     0.173 C 
ENDROOT
BRANCH   1   2
HETATM    2  O   UNK N   1      27.530  18.363   9.139  0.00  0.00    -0.389 OA
HETATM    3  H   UNK N   1      27.459  17.530   9.632  0.00  0.00     0.210 HD
ENDBRANCH   1   2
BRANCH   1   4
HETATM    4  C   UNK N   1      27.740  19.761   7.205  0.00  0.00     0.103 C 
HETATM    5  C   UNK N   1      27.412  19.672   5.724  0.00  0.00     0.034 C 
BRANCH   4   6
HETATM    6  N   UNK N   1      26.621  20.409   7.873  0.00  0.00    -0.424 N 
HETATM    7  H   UNK N   1      25.736  19.916   7.999  0.00  0.00     0.150 HD
HETATM    8  H   UNK N   1      26.721  21.363   8.217  0.00  0.00     0.150 HD
ENDBRANCH   4   6
ENDBRANCH   1   4
BRANCH   1   9
HETATM    9  C   UNK N   1      29.416  17.905   7.737  0.00  0.00    -0.028 A 
HETATM   10  C   UNK N   1      30.346  18.314   8.700  0.00  0.00     0.010 A 
HETATM   11  C   UNK N   1      31.683  17.909   8.616  0.00  0.00     0.001 A 
HETATM   12  C   UNK N   1      32.103  17.103   7.554  0.00  0.00     0.000 A 
HETATM   13  C   UNK N   1      31.187  16.698   6.581  0.00  0.00     0.001 A 
HETATM   14  C   UNK N   1      29.849  17.095   6.670  0.00  0.00     0.010 A 
ENDBRANCH   1   9
TORSDOF 4
ENDMDL
MODEL 8
REMARK VINA RESULT:      -4.5     10.950     12.289
REMARK  4 active torsions:
REMARK  status: ('A' for Active; 'I' for Inactive)
REMARK    1  A    between atoms: C_3  and  O_1 
REMARK    2  A    between atoms: C_4  and  N_2 
REMARK    3  A    between atoms: C_3  and  C_4 
REMARK    4  A    between atoms: C_3  and  C_5 
ROOT
HETATM    1  C   UNK N   1      30.431  17.115   8.292  0.00  0.00     0.173 C 
ENDROOT
BRANCH   1   2
HETATM    2  O   UNK N   1      31.085  16.539   9.385  0.00  0.00    -0.389 OA
HETATM    3  H   UNK N   1      30.586  16.050  10.058  0.00  0.00     0.210 HD
ENDBRANCH   1   2
BRANCH   1   4
HETATM    4  C   UNK N   1      29.826  18.464   8.714  0.00  0.00     0.103 C 
HETATM    5  C   UNK N   1      28.390  18.601   8.241  0.00  0.00     0.034 C 
BRANCH   4   6
HETATM    6  N   UNK N   1      29.832  18.573  10.166  0.00  0.00    -0.424 N 
HETATM    7  H   UNK N   1      29.921  19.484  10.617  0.00  0.00     0.150 HD
HETATM    8  H   UNK N   1      29.748  17.733  10.736  0.00  0.00     0.150 HD
ENDBRANCH   4   6
ENDBRANCH   1   4
BRANCH   1   9
HETATM    9  C   UNK N   1      31.373  17.214   7.106  0.00  0.00    -0.028 A 
HETATM   10  C   UNK N   1      32.744  17.415   7.301  0.00  0.00     0.010 A 
HETATM   11  C   UNK N   1      33.609  17.534   6.208  0.00  0.00     0.001 A 
HETATM   12  C   UNK N   1      33.104  17.469   4.907  0.00  0.00     0.000 A 
HETATM   13  C   UNK N   1      31.735  17.281   4.699  0.00  0.00     0.001 A 
HETATM   14  C   UNK N   1      30.872  17.153   5.791  0.00  0.00     0.010 A 
ENDBRANCH   1   9
TORSDOF 4
ENDMDL
MODEL 9
REMARK VINA RESULT:      -4.4      3.935      5.340
REMARK  4 active torsions:
REMARK  status: ('A' for Active; 'I' for Inactive)
REMARK    1  A    between atoms: C_3  and  O_1 
REMARK    2  A    between atoms: C_4  and  N_2 
REMARK    3  A    between atoms: C_3  and  C_4 
REMARK    4  A    between atoms: C_3  and  C_5 
ROOT
HETATM    1  C   UNK N   1      35.561  10.528  20.270  0.00  0.00     0.173 C 
ENDROOT
BRANCH   1   2
HETATM    2  O   UNK N   1      36.528  10.971  21.177  0.00  0.00    -0.389 OA
HETATM    3  H   UNK N   1      36.330  11.022  22.125  0.00  0.00     0.210 HD
ENDBRANCH   1   2
BRANCH   1   4
HETATM    4  C   UNK N   1      34.232  10.309  21.011  0.00  0.00     0.103 C 
HETATM    5  C   UNK N   1      33.464   9.130  20.438  0.00  0.00     0.034 C 
BRANCH   4   6
HETATM    6  N   UNK N   1      34.491  10.033  22.416  0.00  0.00    -0.424 N 
HETATM    7  H   UNK N   1      34.241   9.132  22.823  0.00  0.00     0.150 HD
HETATM    8  H   UNK N   1      34.926  10.748  23.000  0.00  0.00     0.150 HD
ENDBRANCH   4   6
ENDBRANCH   1   4
BRANCH   1   9
HETATM    9  C   UNK N   1      35.455  11.489  19.100  0.00  0.00    -0.028 A 
HETATM   10  C   UNK N   1      35.260  12.857  19.319  0.00  0.00     0.010 A 
HETATM   11  C   UNK N   1      35.134  13.740  18.241  0.00  0.00     0.001 A 
HETATM   12  C   UNK N   1      35.186  13.255  16.931  0.00  0.00     0.000 A 
HETATM   13  C   UNK N   1      35.369  11.890  16.700  0.00  0.00     0.001 A 
HETATM   14  C   UNK N   1      35.503  11.009  17.777  0.00  0.00     0.010 A 
ENDBRANCH   1   9
TORSDOF 4
ENDMDL
