REMARK  4 active torsions:
REMARK  status: ('A' for Active; 'I' for Inactive)
REMARK    1  A    between atoms: C_3  and  O_1 
REMARK    2  A    between atoms: C_4  and  N_2 
REMARK    3  A    between atoms: C_3  and  C_4 
REMARK    4  A    between atoms: C_3  and  C_5 
ROOT
HETATM    1  C   UNK N   1       2.534   1.143  -0.450  0.00  0.00     0.173 C 
ENDROOT
BRANCH   1   2
HETATM    2  O   UNK N   1       1.372   1.897  -0.260  0.00  0.00    -0.389 OA
HETATM    3  H   UNK N   1       1.422   2.857  -0.128  0.00  0.00     0.210 HD
ENDBRANCH   1   2
BRANCH   1   4
HETATM    4  C   UNK N   1       3.661   1.717   0.424  0.00  0.00     0.103 C 
HETATM    5  C   UNK N   1       5.007   1.114   0.061  0.00  0.00     0.034 C 
BRANCH   4   6
HETATM    6  N   UNK N   1       3.749   3.157   0.231  0.00  0.00    -0.424 N 
HETATM    7  H   UNK N   1       4.654   3.608   0.097  0.00  0.00     0.150 HD
HETATM    8  H   UNK N   1       2.899   3.720   0.231  0.00  0.00     0.150 HD
ENDBRANCH   4   6
ENDBRANCH   1   4
BRANCH   1   9
HETATM    9  C   UNK N   1       2.256  -0.327  -0.198  0.00  0.00    -0.028 A 
HETATM   10  C   UNK N   1       3.269  -1.280  -0.356  0.00  0.00     0.010 A 
HETATM   11  C   UNK N   1       3.007  -2.639  -0.151  0.00  0.00     0.001 A 
HETATM   12  C   UNK N   1       1.720  -3.057   0.199  0.00  0.00     0.000 A 
HETATM   13  C   UNK N   1       0.698  -2.117   0.348  0.00  0.00     0.001 A 
HETATM   14  C   UNK N   1       0.962  -0.758   0.152  0.00  0.00     0.010 A 
ENDBRANCH   1   9
TORSDOF 4
