REMARK  6 active torsions:
REMARK  status: ('A' for Active; 'I' for Inactive)
REMARK    1  A    between atoms: O_3  and  C_16 
REMARK    2  A    between atoms: O_4  and  C_17 
REMARK    3  A    between atoms: N_5  and  C_12 
REMARK    4  A    between atoms: N_6  and  C_11 
REMARK       I    between atoms: N_6  and  C_14 
REMARK    5  A    between atoms: C_7  and  C_11 
REMARK    6  A    between atoms: C_14  and  C_15 
ROOT
HETATM    1  O   UNK N   1       2.606   0.721  -0.631  0.00  0.00    -0.267 OA
HETATM    2  N   UNK N   1       4.612   0.786   0.330  0.00  0.00    -0.355 N 
HETATM    3  C   UNK N   1       3.536   0.104  -0.138  0.00  0.00     0.257 C 
HETATM    4  H   UNK N   1       5.383   0.279   0.673  0.00  0.00     0.162 HD
ENDROOT
BRANCH   3   5
HETATM    5  C   UNK N   1       3.499  -1.402  -0.051  0.00  0.00     0.100 A 
HETATM    6  C   UNK N   1       2.279  -2.157  -0.184  0.00  0.00     0.104 A 
HETATM    7  C   UNK N   1       2.329  -3.563  -0.144  0.00  0.00     0.045 A 
HETATM    8 Br   UNK N   1       0.734  -4.607  -0.296  0.00  0.00    -0.048 Br
HETATM    9  C   UNK N   1       3.529  -4.230   0.045  0.00  0.00     0.025 A 
HETATM   10  C   UNK N   1       4.706  -3.519   0.192  0.00  0.00     0.039 A 
HETATM   11  C   UNK N   1       4.715  -2.119   0.147  0.00  0.00     0.086 A 
BRANCH   6  12
HETATM   12  O   UNK N   1       1.052  -1.593  -0.329  0.00  0.00    -0.353 OA
HETATM   13  C   UNK N   1       0.579  -0.557   0.442  0.00  0.00     0.210 C 
ENDBRANCH   6  12
BRANCH  11  14
HETATM   14  O   UNK N   1       5.894  -1.457   0.267  0.00  0.00    -0.355 OA
HETATM   15  C   UNK N   1       7.102  -2.093   0.448  0.00  0.00     0.210 C 
ENDBRANCH  11  14
ENDBRANCH   3   5
BRANCH   2  16
HETATM   16  C   UNK N   1       4.667   2.229   0.345  0.00  0.00     0.158 C 
BRANCH  16  17
HETATM   17  C   UNK N   1       5.918   2.753  -0.349  0.00  0.00     0.240 C 
HETATM   18  N   UNK N   1       7.134   2.199   0.241  0.00  0.00     0.094 N 
HETATM   19  C   UNK N   1       8.118   3.283   0.247  0.00  0.00     0.273 C 
HETATM   20  C   UNK N   1       7.436   4.564  -0.186  0.00  0.00     0.032 C 
HETATM   21  C   UNK N   1       5.970   4.246  -0.152  0.00  0.00     0.039 C 
BRANCH  18  22
HETATM   22  C   UNK N   1       7.617   1.159  -0.662  0.00  0.00     0.268 C 
HETATM   23  C   UNK N   1       8.827   0.448  -0.077  0.00  0.00     0.037 C 
ENDBRANCH  18  22
ENDBRANCH  16  17
ENDBRANCH   2  16
TORSDOF 6
