MODEL 1
REMARK VINA RESULT:      -5.9      0.000      0.000
REMARK  6 active torsions:
REMARK  status: ('A' for Active; 'I' for Inactive)
REMARK    1  A    between atoms: O_3  and  C_16 
REMARK    2  A    between atoms: O_4  and  C_17 
REMARK    3  A    between atoms: N_5  and  C_12 
REMARK    4  A    between atoms: N_6  and  C_11 
REMARK       I    between atoms: N_6  and  C_14 
REMARK    5  A    between atoms: C_7  and  C_11 
REMARK    6  A    between atoms: C_14  and  C_15 
ROOT
HETATM    1  O   UNK N   1      34.722  18.110   8.857  0.00  0.00    -0.267 OA
HETATM    2  N   UNK N   1      33.939  16.167   9.607  0.00  0.00    -0.355 N 
HETATM    3  C   UNK N   1      33.936  17.188   8.713  0.00  0.00     0.257 C 
HETATM    4  H   UNK N   1      33.343  15.399   9.453  0.00  0.00     0.162 HD
ENDROOT
BRANCH   3   5
HETATM    5  C   UNK N   1      32.971  17.175   7.553  0.00  0.00     0.100 A 
HETATM    6  C   UNK N   1      33.376  16.845   6.211  0.00  0.00     0.104 A 
HETATM    7  C   UNK N   1      32.410  16.802   5.188  0.00  0.00     0.045 A 
HETATM    8 Br   UNK N   1      32.903  16.389   3.387  0.00  0.00    -0.048 Br
HETATM    9  C   UNK N   1      31.080  17.095   5.449  0.00  0.00     0.025 A 
HETATM   10  C   UNK N   1      30.679  17.431   6.729  0.00  0.00     0.039 A 
HETATM   11  C   UNK N   1      31.597  17.476   7.786  0.00  0.00     0.086 A 
BRANCH   6  12
HETATM   12  O   UNK N   1      34.659  16.586   5.850  0.00  0.00    -0.353 OA
HETATM   13  C   UNK N   1      35.278  15.367   6.007  0.00  0.00     0.210 C 
ENDBRANCH   6  12
BRANCH  11  14
HETATM   14  O   UNK N   1      31.160  17.782   9.034  0.00  0.00    -0.355 OA
HETATM   15  C   UNK N   1      30.106  18.634   9.277  0.00  0.00     0.210 C 
ENDBRANCH  11  14
ENDBRANCH   3   5
BRANCH   2  16
HETATM   16  C   UNK N   1      34.784  16.166  10.778  0.00  0.00     0.158 C 
BRANCH  16  17
HETATM   17  C   UNK N   1      34.865  14.784  11.414  0.00  0.00     0.240 C 
HETATM   18  N   UNK N   1      36.208  14.497  11.912  0.00  0.00     0.094 N 
HETATM   19  C   UNK N   1      36.458  13.083  11.629  0.00  0.00     0.273 C 
HETATM   20  C   UNK N   1      35.318  12.544  10.790  0.00  0.00     0.032 C 
HETATM   21  C   UNK N   1      34.560  13.762  10.350  0.00  0.00     0.039 C 
BRANCH  18  22
HETATM   22  C   UNK N   1      36.176  14.666  13.362  0.00  0.00     0.268 C 
HETATM   23  C   UNK N   1      36.583  13.383  14.069  0.00  0.00     0.037 C 
ENDBRANCH  18  22
ENDBRANCH  16  17
ENDBRANCH   2  16
TORSDOF 6
ENDMDL
MODEL 2
REMARK VINA RESULT:      -5.8      1.049      1.615
REMARK  6 active torsions:
REMARK  status: ('A' for Active; 'I' for Inactive)
REMARK    1  A    between atoms: O_3  and  C_16 
REMARK    2  A    between atoms: O_4  and  C_17 
REMARK    3  A    between atoms: N_5  and  C_12 
REMARK    4  A    between atoms: N_6  and  C_11 
REMARK       I    between atoms: N_6  and  C_14 
REMARK    5  A    between atoms: C_7  and  C_11 
REMARK    6  A    between atoms: C_14  and  C_15 
ROOT
HETATM    1  O   UNK N   1      34.850  18.395   8.691  0.00  0.00    -0.267 OA
HETATM    2  N   UNK N   1      34.340  16.417   9.573  0.00  0.00    -0.355 N 
HETATM    3  C   UNK N   1      34.176  17.380   8.631  0.00  0.00     0.257 C 
HETATM    4  H   UNK N   1      33.835  15.576   9.486  0.00  0.00     0.162 HD
ENDROOT
BRANCH   3   5
HETATM    5  C   UNK N   1      33.173  17.188   7.520  0.00  0.00     0.100 A 
HETATM    6  C   UNK N   1      33.544  16.706   6.214  0.00  0.00     0.104 A 
HETATM    7  C   UNK N   1      32.545  16.502   5.244  0.00  0.00     0.045 A 
HETATM    8 Br   UNK N   1      32.992  15.883   3.490  0.00  0.00    -0.048 Br
HETATM    9  C   UNK N   1      31.215  16.780   5.518  0.00  0.00     0.025 A 
HETATM   10  C   UNK N   1      30.846  17.260   6.761  0.00  0.00     0.039 A 
HETATM   11  C   UNK N   1      31.797  17.469   7.767  0.00  0.00     0.086 A 
BRANCH   6  12
HETATM   12  O   UNK N   1      34.823  16.447   5.838  0.00  0.00    -0.353 OA
HETATM   13  C   UNK N   1      35.463  15.247   6.041  0.00  0.00     0.210 C 
ENDBRANCH   6  12
BRANCH  11  14
HETATM   14  O   UNK N   1      31.392  17.914   8.984  0.00  0.00    -0.355 OA
HETATM   15  C   UNK N   1      30.275  18.697   9.168  0.00  0.00     0.210 C 
ENDBRANCH  11  14
ENDBRANCH   3   5
BRANCH   2  16
HETATM   16  C   UNK N   1      35.227  16.581  10.701  0.00  0.00     0.158 C 
BRANCH  16  17
HETATM   17  C   UNK N   1      35.906  15.271  11.080  0.00  0.00     0.240 C 
HETATM   18  N   UNK N   1      35.902  14.321   9.970  0.00  0.00     0.094 N 
HETATM   19  C   UNK N   1      35.670  13.001  10.560  0.00  0.00     0.273 C 
HETATM   20  C   UNK N   1      35.355  13.172  12.031  0.00  0.00     0.032 C 
HETATM   21  C   UNK N   1      35.119  14.644  12.202  0.00  0.00     0.039 C 
BRANCH  18  22
HETATM   22  C   UNK N   1      37.243  14.326   9.393  0.00  0.00     0.268 C 
HETATM   23  C   UNK N   1      37.769  12.909   9.225  0.00  0.00     0.037 C 
ENDBRANCH  18  22
ENDBRANCH  16  17
ENDBRANCH   2  16
TORSDOF 6
ENDMDL
MODEL 3
REMARK VINA RESULT:      -5.7     14.929     17.077
REMARK  6 active torsions:
REMARK  status: ('A' for Active; 'I' for Inactive)
REMARK    1  A    between atoms: O_3  and  C_16 
REMARK    2  A    between atoms: O_4  and  C_17 
REMARK    3  A    between atoms: N_5  and  C_12 
REMARK    4  A    between atoms: N_6  and  C_11 
REMARK       I    between atoms: N_6  and  C_14 
REMARK    5  A    between atoms: C_7  and  C_11 
REMARK    6  A    between atoms: C_14  and  C_15 
ROOT
HETATM    1  O   UNK N   1      26.988  23.858  -2.572  0.00  0.00    -0.267 OA
HETATM    2  N   UNK N   1      28.914  24.100  -3.660  0.00  0.00    -0.355 N 
HETATM    3  C   UNK N   1      27.571  24.272  -3.561  0.00  0.00     0.257 C 
HETATM    4  H   UNK N   1      29.386  24.487  -4.432  0.00  0.00     0.162 HD
ENDROOT
BRANCH   3   5
HETATM    5  C   UNK N   1      26.815  24.973  -4.662  0.00  0.00     0.100 A 
HETATM    6  C   UNK N   1      26.593  24.374  -5.954  0.00  0.00     0.104 A 
HETATM    7  C   UNK N   1      25.833  25.067  -6.915  0.00  0.00     0.045 A 
HETATM    8 Br   UNK N   1      25.528  24.321  -8.649  0.00  0.00    -0.048 Br
HETATM    9  C   UNK N   1      25.317  26.325  -6.646  0.00  0.00     0.025 A 
HETATM   10  C   UNK N   1      25.536  26.921  -5.418  0.00  0.00     0.039 A 
HETATM   11  C   UNK N   1      26.274  26.270  -4.421  0.00  0.00     0.086 A 
BRANCH   6  12
HETATM   12  O   UNK N   1      27.093  23.167  -6.324  0.00  0.00    -0.353 OA
HETATM   13  C   UNK N   1      28.319  22.987  -6.922  0.00  0.00     0.210 C 
ENDBRANCH   6  12
BRANCH  11  14
HETATM   14  O   UNK N   1      26.445  26.875  -3.217  0.00  0.00    -0.355 OA
HETATM   15  C   UNK N   1      26.875  28.176  -3.081  0.00  0.00     0.210 C 
ENDBRANCH  11  14
ENDBRANCH   3   5
BRANCH   2  16
HETATM   16  C   UNK N   1      29.675  23.368  -2.676  0.00  0.00     0.158 C 
BRANCH  16  17
HETATM   17  C   UNK N   1      30.817  22.586  -3.313  0.00  0.00     0.240 C 
HETATM   18  N   UNK N   1      31.154  23.106  -4.636  0.00  0.00     0.094 N 
HETATM   19  C   UNK N   1      31.465  21.942  -5.467  0.00  0.00     0.273 C 
HETATM   20  C   UNK N   1      31.144  20.684  -4.686  0.00  0.00     0.032 C 
HETATM   21  C   UNK N   1      30.362  21.162  -3.499  0.00  0.00     0.039 C 
BRANCH  18  22
HETATM   22  C   UNK N   1      32.374  23.895  -4.493  0.00  0.00     0.268 C 
HETATM   23  C   UNK N   1      32.158  25.323  -4.966  0.00  0.00     0.037 C 
ENDBRANCH  18  22
ENDBRANCH  16  17
ENDBRANCH   2  16
TORSDOF 6
ENDMDL
MODEL 4
REMARK VINA RESULT:      -5.6     10.981     14.033
REMARK  6 active torsions:
REMARK  status: ('A' for Active; 'I' for Inactive)
REMARK    1  A    between atoms: O_3  and  C_16 
REMARK    2  A    between atoms: O_4  and  C_17 
REMARK    3  A    between atoms: N_5  and  C_12 
REMARK    4  A    between atoms: N_6  and  C_11 
REMARK       I    between atoms: N_6  and  C_14 
REMARK    5  A    between atoms: C_7  and  C_11 
REMARK    6  A    between atoms: C_14  and  C_15 
ROOT
HETATM    1  O   UNK N   1      22.531  14.625   5.375  0.00  0.00    -0.267 OA
HETATM    2  N   UNK N   1      22.308  16.626   6.323  0.00  0.00    -0.355 N 
HETATM    3  C   UNK N   1      22.308  15.270   6.386  0.00  0.00     0.257 C 
HETATM    4  H   UNK N   1      22.185  17.140   7.154  0.00  0.00     0.162 HD
ENDROOT
BRANCH   3   5
HETATM    5  C   UNK N   1      22.041  14.574   7.699  0.00  0.00     0.100 A 
HETATM    6  C   UNK N   1      23.044  13.800   8.384  0.00  0.00     0.104 A 
HETATM    7  C   UNK N   1      22.739  13.222   9.631  0.00  0.00     0.045 A 
HETATM    8 Br   UNK N   1      24.031  12.170  10.569  0.00  0.00    -0.048 Br
HETATM    9  C   UNK N   1      21.482  13.368  10.196  0.00  0.00     0.025 A 
HETATM   10  C   UNK N   1      20.503  14.093   9.542  0.00  0.00     0.039 A 
HETATM   11  C   UNK N   1      20.758  14.700   8.306  0.00  0.00     0.086 A 
BRANCH   6  12
HETATM   12  O   UNK N   1      24.288  13.566   7.891  0.00  0.00    -0.353 OA
HETATM   13  C   UNK N   1      24.608  12.517   7.061  0.00  0.00     0.210 C 
ENDBRANCH   6  12
BRANCH  11  14
HETATM   14  O   UNK N   1      19.780  15.427   7.707  0.00  0.00    -0.355 OA
HETATM   15  C   UNK N   1      19.252  16.576   8.254  0.00  0.00     0.210 C 
ENDBRANCH  11  14
ENDBRANCH   3   5
BRANCH   2  16
HETATM   16  C   UNK N   1      22.478  17.343   5.081  0.00  0.00     0.158 C 
BRANCH  16  17
HETATM   17  C   UNK N   1      21.139  17.708   4.453  0.00  0.00     0.240 C 
HETATM   18  N   UNK N   1      20.969  17.083   3.144  0.00  0.00     0.094 N 
HETATM   19  C   UNK N   1      20.294  18.072   2.301  0.00  0.00     0.273 C 
HETATM   20  C   UNK N   1      20.208  19.381   3.057  0.00  0.00     0.032 C 
HETATM   21  C   UNK N   1      21.116  19.200   4.238  0.00  0.00     0.039 C 
BRANCH  18  22
HETATM   22  C   UNK N   1      20.065  15.951   3.320  0.00  0.00     0.268 C 
HETATM   23  C   UNK N   1      19.152  16.164   4.517  0.00  0.00     0.037 C 
ENDBRANCH  18  22
ENDBRANCH  16  17
ENDBRANCH   2  16
TORSDOF 6
ENDMDL
MODEL 5
REMARK VINA RESULT:      -5.6     14.942     18.281
REMARK  6 active torsions:
REMARK  status: ('A' for Active; 'I' for Inactive)
REMARK    1  A    between atoms: O_3  and  C_16 
REMARK    2  A    between atoms: O_4  and  C_17 
REMARK    3  A    between atoms: N_5  and  C_12 
REMARK    4  A    between atoms: N_6  and  C_11 
REMARK       I    between atoms: N_6  and  C_14 
REMARK    5  A    between atoms: C_7  and  C_11 
REMARK    6  A    between atoms: C_14  and  C_15 
ROOT
HETATM    1  O   UNK N   1      26.668  24.744  -2.839  0.00  0.00    -0.267 OA
HETATM    2  N   UNK N   1      27.220  26.403  -4.215  0.00  0.00    -0.355 N 
HETATM    3  C   UNK N   1      27.166  25.084  -3.900  0.00  0.00     0.257 C 
HETATM    4  H   UNK N   1      27.571  26.666  -5.097  0.00  0.00     0.162 HD
ENDROOT
BRANCH   3   5
HETATM    5  C   UNK N   1      27.713  24.054  -4.857  0.00  0.00     0.100 A 
HETATM    6  C   UNK N   1      28.943  23.344  -4.612  0.00  0.00     0.104 A 
HETATM    7  C   UNK N   1      29.365  22.359  -5.525  0.00  0.00     0.045 A 
HETATM    8 Br   UNK N   1      31.000  21.405  -5.254  0.00  0.00    -0.048 Br
HETATM    9  C   UNK N   1      28.629  22.080  -6.665  0.00  0.00     0.025 A 
HETATM   10  C   UNK N   1      27.456  22.765  -6.923  0.00  0.00     0.039 A 
HETATM   11  C   UNK N   1      26.983  23.746  -6.041  0.00  0.00     0.086 A 
BRANCH   6  12
HETATM   12  O   UNK N   1      29.753  23.578  -3.548  0.00  0.00    -0.353 OA
HETATM   13  C   UNK N   1      29.611  22.977  -2.319  0.00  0.00     0.210 C 
ENDBRANCH   6  12
BRANCH  11  14
HETATM   14  O   UNK N   1      25.813  24.378  -6.314  0.00  0.00    -0.355 OA
HETATM   15  C   UNK N   1      25.671  25.300  -7.326  0.00  0.00     0.210 C 
ENDBRANCH  11  14
ENDBRANCH   3   5
BRANCH   2  16
HETATM   16  C   UNK N   1      26.785  27.436  -3.304  0.00  0.00     0.158 C 
BRANCH  16  17
HETATM   17  C   UNK N   1      27.529  28.745  -3.538  0.00  0.00     0.240 C 
HETATM   18  N   UNK N   1      27.397  29.650  -2.400  0.00  0.00     0.094 N 
HETATM   19  C   UNK N   1      27.265  30.997  -2.960  0.00  0.00     0.273 C 
HETATM   20  C   UNK N   1      27.140  30.890  -4.465  0.00  0.00     0.032 C 
HETATM   21  C   UNK N   1      26.904  29.431  -4.725  0.00  0.00     0.039 C 
BRANCH  18  22
HETATM   22  C   UNK N   1      28.652  29.594  -1.656  0.00  0.00     0.268 C 
HETATM   23  C   UNK N   1      28.439  29.969  -0.198  0.00  0.00     0.037 C 
ENDBRANCH  18  22
ENDBRANCH  16  17
ENDBRANCH   2  16
TORSDOF 6
ENDMDL
MODEL 6
REMARK VINA RESULT:      -5.5     16.755     19.257
REMARK  6 active torsions:
REMARK  status: ('A' for Active; 'I' for Inactive)
REMARK    1  A    between atoms: O_3  and  C_16 
REMARK    2  A    between atoms: O_4  and  C_17 
REMARK    3  A    between atoms: N_5  and  C_12 
REMARK    4  A    between atoms: N_6  and  C_11 
REMARK       I    between atoms: N_6  and  C_14 
REMARK    5  A    between atoms: C_7  and  C_11 
REMARK    6  A    between atoms: C_14  and  C_15 
ROOT
HETATM    1  O   UNK N   1      25.512  23.608  -6.658  0.00  0.00    -0.267 OA
HETATM    2  N   UNK N   1      26.932  25.205  -7.280  0.00  0.00    -0.355 N 
HETATM    3  C   UNK N   1      26.671  23.963  -6.798  0.00  0.00     0.257 C 
HETATM    4  H   UNK N   1      27.868  25.463  -7.446  0.00  0.00     0.162 HD
ENDROOT
BRANCH   3   5
HETATM    5  C   UNK N   1      27.808  23.035  -6.446  0.00  0.00     0.100 A 
HETATM    6  C   UNK N   1      28.172  21.908  -7.266  0.00  0.00     0.104 A 
HETATM    7  C   UNK N   1      29.277  21.116  -6.902  0.00  0.00     0.045 A 
HETATM    8 Br   UNK N   1      29.785  19.599  -7.948  0.00  0.00    -0.048 Br
HETATM    9  C   UNK N   1      30.004  21.390  -5.754  0.00  0.00     0.025 A 
HETATM   10  C   UNK N   1      29.656  22.457  -4.946  0.00  0.00     0.039 A 
HETATM   11  C   UNK N   1      28.573  23.285  -5.270  0.00  0.00     0.086 A 
BRANCH   6  12
HETATM   12  O   UNK N   1      27.495  21.535  -8.383  0.00  0.00    -0.353 OA
HETATM   13  C   UNK N   1      26.335  20.796  -8.377  0.00  0.00     0.210 C 
ENDBRANCH   6  12
BRANCH  11  14
HETATM   14  O   UNK N   1      28.280  24.340  -4.467  0.00  0.00    -0.355 OA
HETATM   15  C   UNK N   1      27.441  24.251  -3.379  0.00  0.00     0.210 C 
ENDBRANCH  11  14
ENDBRANCH   3   5
BRANCH   2  16
HETATM   16  C   UNK N   1      25.887  26.162  -7.559  0.00  0.00     0.158 C 
BRANCH  16  17
HETATM   17  C   UNK N   1      25.908  27.322  -6.572  0.00  0.00     0.240 C 
HETATM   18  N   UNK N   1      27.243  27.535  -6.017  0.00  0.00     0.094 N 
HETATM   19  C   UNK N   1      27.051  27.888  -4.609  0.00  0.00     0.273 C 
HETATM   20  C   UNK N   1      25.588  27.718  -4.258  0.00  0.00     0.032 C 
HETATM   21  C   UNK N   1      25.001  26.973  -5.421  0.00  0.00     0.039 C 
BRANCH  18  22
HETATM   22  C   UNK N   1      27.813  28.694  -6.697  0.00  0.00     0.268 C 
HETATM   23  C   UNK N   1      28.196  29.777  -5.700  0.00  0.00     0.037 C 
ENDBRANCH  18  22
ENDBRANCH  16  17
ENDBRANCH   2  16
TORSDOF 6
ENDMDL
MODEL 7
REMARK VINA RESULT:      -5.5     16.213     19.181
REMARK  6 active torsions:
REMARK  status: ('A' for Active; 'I' for Inactive)
REMARK    1  A    between atoms: O_3  and  C_16 
REMARK    2  A    between atoms: O_4  and  C_17 
REMARK    3  A    between atoms: N_5  and  C_12 
REMARK    4  A    between atoms: N_6  and  C_11 
REMARK       I    between atoms: N_6  and  C_14 
REMARK    5  A    between atoms: C_7  and  C_11 
REMARK    6  A    between atoms: C_14  and  C_15 
ROOT
HETATM    1  O   UNK N   1      25.958  23.370  -6.793  0.00  0.00    -0.267 OA
HETATM    2  N   UNK N   1      27.301  25.109  -7.144  0.00  0.00    -0.355 N 
HETATM    3  C   UNK N   1      27.077  23.847  -6.699  0.00  0.00     0.257 C 
HETATM    4  H   UNK N   1      28.218  25.466  -7.118  0.00  0.00     0.162 HD
ENDROOT
BRANCH   3   5
HETATM    5  C   UNK N   1      28.207  23.045  -6.100  0.00  0.00     0.100 A 
HETATM    6  C   UNK N   1      28.783  23.356  -4.816  0.00  0.00     0.104 A 
HETATM    7  C   UNK N   1      29.799  22.532  -4.297  0.00  0.00     0.045 A 
HETATM    8 Br   UNK N   1      30.608  22.916  -2.608  0.00  0.00    -0.048 Br
HETATM    9  C   UNK N   1      30.269  21.441  -5.012  0.00  0.00     0.025 A 
HETATM   10  C   UNK N   1      29.738  21.140  -6.253  0.00  0.00     0.039 A 
HETATM   11  C   UNK N   1      28.716  21.920  -6.811  0.00  0.00     0.086 A 
BRANCH   6  12
HETATM   12  O   UNK N   1      28.419  24.426  -4.063  0.00  0.00    -0.353 OA
HETATM   13  C   UNK N   1      27.255  24.501  -3.334  0.00  0.00     0.210 C 
ENDBRANCH   6  12
BRANCH  11  14
HETATM   14  O   UNK N   1      28.201  21.576  -8.019  0.00  0.00    -0.355 OA
HETATM   15  C   UNK N   1      28.975  21.158  -9.078  0.00  0.00     0.210 C 
ENDBRANCH  11  14
ENDBRANCH   3   5
BRANCH   2  16
HETATM   16  C   UNK N   1      26.242  25.949  -7.652  0.00  0.00     0.158 C 
BRANCH  16  17
HETATM   17  C   UNK N   1      26.031  27.181  -6.780  0.00  0.00     0.240 C 
HETATM   18  N   UNK N   1      27.252  27.555  -6.072  0.00  0.00     0.094 N 
HETATM   19  C   UNK N   1      26.835  27.998  -4.740  0.00  0.00     0.273 C 
HETATM   20  C   UNK N   1      25.355  27.724  -4.576  0.00  0.00     0.032 C 
HETATM   21  C   UNK N   1      24.999  26.841  -5.736  0.00  0.00     0.039 C 
BRANCH  18  22
HETATM   22  C   UNK N   1      27.821  28.705  -6.770  0.00  0.00     0.268 C 
HETATM   23  C   UNK N   1      28.154  29.823  -5.796  0.00  0.00     0.037 C 
ENDBRANCH  18  22
ENDBRANCH  16  17
ENDBRANCH   2  16
TORSDOF 6
ENDMDL
MODEL 8
REMARK VINA RESULT:      -5.5     14.528     18.193
REMARK  6 active torsions:
REMARK  status: ('A' for Active; 'I' for Inactive)
REMARK    1  A    between atoms: O_3  and  C_16 
REMARK    2  A    between atoms: O_4  and  C_17 
REMARK    3  A    between atoms: N_5  and  C_12 
REMARK    4  A    between atoms: N_6  and  C_11 
REMARK       I    between atoms: N_6  and  C_14 
REMARK    5  A    between atoms: C_7  and  C_11 
REMARK    6  A    between atoms: C_14  and  C_15 
ROOT
HETATM    1  O   UNK N   1      28.149  23.974  -3.419  0.00  0.00    -0.267 OA
HETATM    2  N   UNK N   1      28.965  25.251  -5.049  0.00  0.00    -0.355 N 
HETATM    3  C   UNK N   1      28.733  24.037  -4.489  0.00  0.00     0.257 C 
HETATM    4  H   UNK N   1      29.384  25.291  -5.939  0.00  0.00     0.162 HD
ENDROOT
BRANCH   3   5
HETATM    5  C   UNK N   1      29.189  22.781  -5.191  0.00  0.00     0.100 A 
HETATM    6  C   UNK N   1      28.659  22.368  -6.465  0.00  0.00     0.104 A 
HETATM    7  C   UNK N   1      29.170  21.212  -7.084  0.00  0.00     0.045 A 
HETATM    8 Br   UNK N   1      28.484  20.614  -8.766  0.00  0.00    -0.048 Br
HETATM    9  C   UNK N   1      30.157  20.453  -6.476  0.00  0.00     0.025 A 
HETATM   10  C   UNK N   1      30.664  20.827  -5.245  0.00  0.00     0.039 A 
HETATM   11  C   UNK N   1      30.200  21.975  -4.590  0.00  0.00     0.086 A 
BRANCH   6  12
HETATM   12  O   UNK N   1      27.662  23.021  -7.118  0.00  0.00    -0.353 OA
HETATM   13  C   UNK N   1      26.333  22.953  -6.770  0.00  0.00     0.210 C 
ENDBRANCH   6  12
BRANCH  11  14
HETATM   14  O   UNK N   1      30.742  22.325  -3.396  0.00  0.00    -0.355 OA
HETATM   15  C   UNK N   1      31.944  21.833  -2.939  0.00  0.00     0.210 C 
ENDBRANCH  11  14
ENDBRANCH   3   5
BRANCH   2  16
HETATM   16  C   UNK N   1      28.622  26.487  -4.386  0.00  0.00     0.158 C 
BRANCH  16  17
HETATM   17  C   UNK N   1      27.391  27.137  -5.006  0.00  0.00     0.240 C 
HETATM   18  N   UNK N   1      26.159  26.667  -4.377  0.00  0.00     0.094 N 
HETATM   19  C   UNK N   1      25.174  26.537  -5.452  0.00  0.00     0.273 C 
HETATM   20  C   UNK N   1      25.866  26.766  -6.780  0.00  0.00     0.032 C 
HETATM   21  C   UNK N   1      27.331  26.734  -6.456  0.00  0.00     0.039 C 
BRANCH  18  22
HETATM   22  C   UNK N   1      25.705  27.721  -3.476  0.00  0.00     0.268 C 
HETATM   23  C   UNK N   1      26.163  29.087  -3.960  0.00  0.00     0.037 C 
ENDBRANCH  18  22
ENDBRANCH  16  17
ENDBRANCH   2  16
TORSDOF 6
ENDMDL
MODEL 9
REMARK VINA RESULT:      -5.4      4.900      8.852
REMARK  6 active torsions:
REMARK  status: ('A' for Active; 'I' for Inactive)
REMARK    1  A    between atoms: O_3  and  C_16 
REMARK    2  A    between atoms: O_4  and  C_17 
REMARK    3  A    between atoms: N_5  and  C_12 
REMARK    4  A    between atoms: N_6  and  C_11 
REMARK       I    between atoms: N_6  and  C_14 
REMARK    5  A    between atoms: C_7  and  C_11 
REMARK    6  A    between atoms: C_14  and  C_15 
ROOT
HETATM    1  O   UNK N   1      29.127  15.347   5.622  0.00  0.00    -0.267 OA
HETATM    2  N   UNK N   1      28.796  17.547   5.628  0.00  0.00    -0.355 N 
HETATM    3  C   UNK N   1      29.615  16.465   5.626  0.00  0.00     0.257 C 
HETATM    4  H   UNK N   1      29.196  18.445   5.573  0.00  0.00     0.162 HD
ENDROOT
BRANCH   3   5
HETATM    5  C   UNK N   1      31.113  16.650   5.624  0.00  0.00     0.100 A 
HETATM    6  C   UNK N   1      31.824  17.229   6.735  0.00  0.00     0.104 A 
HETATM    7  C   UNK N   1      33.228  17.322   6.683  0.00  0.00     0.045 A 
HETATM    8 Br   UNK N   1      34.214  18.102   8.124  0.00  0.00    -0.048 Br
HETATM    9  C   UNK N   1      33.932  16.887   5.572  0.00  0.00     0.025 A 
HETATM   10  C   UNK N   1      33.262  16.344   4.490  0.00  0.00     0.039 A 
HETATM   11  C   UNK N   1      31.867  16.216   4.495  0.00  0.00     0.086 A 
BRANCH   6  12
HETATM   12  O   UNK N   1      31.220  17.722   7.846  0.00  0.00    -0.353 OA
HETATM   13  C   UNK N   1      30.694  16.946   8.852  0.00  0.00     0.210 C 
ENDBRANCH   6  12
BRANCH  11  14
HETATM   14  O   UNK N   1      31.247  15.653   3.427  0.00  0.00    -0.355 OA
HETATM   15  C   UNK N   1      31.465  14.354   3.026  0.00  0.00     0.210 C 
ENDBRANCH  11  14
ENDBRANCH   3   5
BRANCH   2  16
HETATM   16  C   UNK N   1      27.359  17.431   5.711  0.00  0.00     0.158 C 
BRANCH  16  17
HETATM   17  C   UNK N   1      26.671  18.770   5.482  0.00  0.00     0.240 C 
HETATM   18  N   UNK N   1      26.820  19.225   4.102  0.00  0.00     0.094 N 
HETATM   19  C   UNK N   1      27.013  20.675   4.166  0.00  0.00     0.273 C 
HETATM   20  C   UNK N   1      27.157  21.085   5.617  0.00  0.00     0.032 C 
HETATM   21  C   UNK N   1      27.340  19.795   6.361  0.00  0.00     0.039 C 
BRANCH  18  22
HETATM   22  C   UNK N   1      25.553  18.970   3.424  0.00  0.00     0.268 C 
HETATM   23  C   UNK N   1      24.977  20.253   2.844  0.00  0.00     0.037 C 
ENDBRANCH  18  22
ENDBRANCH  16  17
ENDBRANCH   2  16
TORSDOF 6
ENDMDL
