MODEL 1
REMARK VINA RESULT:      -7.4      0.000      0.000
REMARK  4 active torsions:
REMARK  status: ('A' for Active; 'I' for Inactive)
REMARK    1  A    between atoms: S_1  and  N_7 
REMARK    2  A    between atoms: S_1  and  C_15 
REMARK    3  A    between atoms: N_6  and  C_8 
REMARK       I    between atoms: N_6  and  C_14 
REMARK       I    between atoms: N_7  and  C_14 
REMARK    4  A    between atoms: C_18  and  C_21 
ROOT
HETATM    1  S   UNK N   1      30.280  24.232  -3.561  0.00  0.00     0.266 S 
HETATM    2  O   UNK N   1      30.584  25.658  -3.076  0.00  0.00    -0.200 OA
HETATM    3  O   UNK N   1      30.669  23.848  -2.125  0.00  0.00    -0.200 OA
ENDROOT
BRANCH   1   4
HETATM    4  N   UNK N   1      28.696  23.703  -3.044  0.00  0.00    -0.232 N 
HETATM    5  C   UNK N   1      27.552  24.339  -3.354  0.00  0.00     0.330 C 
HETATM    6  O   UNK N   1      26.494  23.806  -3.057  0.00  0.00    -0.246 OA
HETATM    7  N   UNK N   1      27.565  25.541  -3.990  0.00  0.00    -0.338 N 
HETATM    8  H   UNK N   1      28.437  25.912  -4.257  0.00  0.00     0.164 HD
HETATM    9  H   UNK N   1      28.637  22.891  -2.492  0.00  0.00     0.183 HD
BRANCH   7  10
HETATM   10  C   UNK N   1      26.373  26.314  -4.297  0.00  0.00     0.086 C 
HETATM   11  C   UNK N   1      26.321  26.764  -5.769  0.00  0.00     0.025 C 
HETATM   12  C   UNK N   1      27.146  28.026  -6.046  0.00  0.00     0.002 C 
HETATM   13  C   UNK N   1      27.007  29.108  -4.964  0.00  0.00     0.000 C 
HETATM   14  C   UNK N   1      25.906  28.804  -3.949  0.00  0.00     0.002 C 
HETATM   15  C   UNK N   1      26.146  27.448  -3.283  0.00  0.00     0.025 C 
ENDBRANCH   7  10
ENDBRANCH   1   4
BRANCH   1  16
HETATM   16  C   UNK N   1      31.472  22.943  -3.881  0.00  0.00     0.080 A 
HETATM   17  C   UNK N   1      32.333  22.964  -4.985  0.00  0.00     0.026 A 
HETATM   18  C   UNK N   1      33.342  21.995  -5.091  0.00  0.00     0.017 A 
HETATM   19  C   UNK N   1      33.490  21.014  -4.094  0.00  0.00     0.009 A 
HETATM   20  C   UNK N   1      32.603  20.992  -3.014  0.00  0.00     0.017 A 
HETATM   21  C   UNK N   1      31.605  21.951  -2.909  0.00  0.00     0.026 A 
BRANCH  19  22
HETATM   22  C   UNK N   1      34.588  20.027  -4.145  0.00  0.00     0.155 C 
HETATM   23  O   UNK N   1      35.749  20.406  -4.165  0.00  0.00    -0.293 OA
HETATM   24  C   UNK N   1      34.303  18.563  -4.210  0.00  0.00     0.096 C 
ENDBRANCH  19  22
ENDBRANCH   1  16
TORSDOF 4
ENDMDL
MODEL 2
REMARK VINA RESULT:      -7.2     16.951     19.209
REMARK  4 active torsions:
REMARK  status: ('A' for Active; 'I' for Inactive)
REMARK    1  A    between atoms: S_1  and  N_7 
REMARK    2  A    between atoms: S_1  and  C_15 
REMARK    3  A    between atoms: N_6  and  C_8 
REMARK       I    between atoms: N_6  and  C_14 
REMARK       I    between atoms: N_7  and  C_14 
REMARK    4  A    between atoms: C_18  and  C_21 
ROOT
HETATM    1  S   UNK N   1      34.997  14.314  11.294  0.00  0.00     0.266 S 
HETATM    2  O   UNK N   1      34.646  13.568   9.997  0.00  0.00    -0.200 OA
HETATM    3  O   UNK N   1      36.412  13.786  11.008  0.00  0.00    -0.200 OA
ENDROOT
BRANCH   1   4
HETATM    4  N   UNK N   1      35.740  15.861  10.961  0.00  0.00    -0.232 N 
HETATM    5  C   UNK N   1      35.189  16.810  10.183  0.00  0.00     0.330 C 
HETATM    6  O   UNK N   1      35.729  17.903  10.132  0.00  0.00    -0.246 OA
HETATM    7  N   UNK N   1      34.053  16.566   9.476  0.00  0.00    -0.338 N 
HETATM    8  H   UNK N   1      33.621  15.688   9.586  0.00  0.00     0.164 HD
HETATM    9  H   UNK N   1      36.617  16.050  11.367  0.00  0.00     0.183 HD
BRANCH   7  10
HETATM   10  C   UNK N   1      33.439  17.520   8.567  0.00  0.00     0.086 C 
HETATM   11  C   UNK N   1      31.903  17.412   8.544  0.00  0.00     0.025 C 
HETATM   12  C   UNK N   1      31.388  16.292   7.632  0.00  0.00     0.002 C 
HETATM   13  C   UNK N   1      32.132  16.194   6.290  0.00  0.00     0.000 C 
HETATM   14  C   UNK N   1      33.077  17.368   6.041  0.00  0.00     0.002 C 
HETATM   15  C   UNK N   1      34.094  17.492   7.176  0.00  0.00     0.025 C 
ENDBRANCH   7  10
ENDBRANCH   1   4
BRANCH   1  16
HETATM   16  C   UNK N   1      35.393  13.576  12.869  0.00  0.00     0.080 A 
HETATM   17  C   UNK N   1      36.187  14.218  13.829  0.00  0.00     0.026 A 
HETATM   18  C   UNK N   1      36.334  13.641  15.099  0.00  0.00     0.017 A 
HETATM   19  C   UNK N   1      35.686  12.431  15.408  0.00  0.00     0.009 A 
HETATM   20  C   UNK N   1      34.921  11.790  14.428  0.00  0.00     0.017 A 
HETATM   21  C   UNK N   1      34.776  12.362  13.170  0.00  0.00     0.026 A 
BRANCH  19  22
HETATM   22  C   UNK N   1      35.766  11.840  16.759  0.00  0.00     0.155 C 
HETATM   23  O   UNK N   1      36.272  10.738  16.915  0.00  0.00    -0.293 OA
HETATM   24  C   UNK N   1      35.203  12.552  17.943  0.00  0.00     0.096 C 
ENDBRANCH  19  22
ENDBRANCH   1  16
TORSDOF 4
ENDMDL
MODEL 3
REMARK VINA RESULT:      -7.0     17.188     19.426
REMARK  4 active torsions:
REMARK  status: ('A' for Active; 'I' for Inactive)
REMARK    1  A    between atoms: S_1  and  N_7 
REMARK    2  A    between atoms: S_1  and  C_15 
REMARK    3  A    between atoms: N_6  and  C_8 
REMARK       I    between atoms: N_6  and  C_14 
REMARK       I    between atoms: N_7  and  C_14 
REMARK    4  A    between atoms: C_18  and  C_21 
ROOT
HETATM    1  S   UNK N   1      35.518  13.625  11.194  0.00  0.00     0.266 S 
HETATM    2  O   UNK N   1      36.010  14.892  10.475  0.00  0.00    -0.200 OA
HETATM    3  O   UNK N   1      34.414  14.560  11.713  0.00  0.00    -0.200 OA
ENDROOT
BRANCH   1   4
HETATM    4  N   UNK N   1      34.188  12.880  10.339  0.00  0.00    -0.232 N 
HETATM    5  C   UNK N   1      33.593  13.415   9.258  0.00  0.00     0.330 C 
HETATM    6  O   UNK N   1      32.767  12.744   8.660  0.00  0.00    -0.246 OA
HETATM    7  N   UNK N   1      33.905  14.669   8.833  0.00  0.00    -0.338 N 
HETATM    8  H   UNK N   1      34.612  15.156   9.313  0.00  0.00     0.164 HD
HETATM    9  H   UNK N   1      33.853  12.015  10.670  0.00  0.00     0.183 HD
BRANCH   7  10
HETATM   10  C   UNK N   1      33.257  15.334   7.714  0.00  0.00     0.086 C 
HETATM   11  C   UNK N   1      34.205  16.285   6.961  0.00  0.00     0.025 C 
HETATM   12  C   UNK N   1      34.343  17.658   7.629  0.00  0.00     0.002 C 
HETATM   13  C   UNK N   1      33.014  18.235   8.143  0.00  0.00     0.000 C 
HETATM   14  C   UNK N   1      31.796  17.433   7.687  0.00  0.00     0.002 C 
HETATM   15  C   UNK N   1      31.918  15.972   8.122  0.00  0.00     0.025 C 
ENDBRANCH   7  10
ENDBRANCH   1   4
BRANCH   1  16
HETATM   16  C   UNK N   1      35.608  13.296  12.945  0.00  0.00     0.080 A 
HETATM   17  C   UNK N   1      36.387  14.064  13.822  0.00  0.00     0.026 A 
HETATM   18  C   UNK N   1      36.294  13.839  15.203  0.00  0.00     0.017 A 
HETATM   19  C   UNK N   1      35.423  12.855  15.704  0.00  0.00     0.009 A 
HETATM   20  C   UNK N   1      34.675  12.079  14.813  0.00  0.00     0.017 A 
HETATM   21  C   UNK N   1      34.767  12.302  13.446  0.00  0.00     0.026 A 
BRANCH  19  22
HETATM   22  C   UNK N   1      35.253  12.648  17.157  0.00  0.00     0.155 C 
HETATM   23  O   UNK N   1      35.117  11.517  17.601  0.00  0.00    -0.293 OA
HETATM   24  C   UNK N   1      35.209  13.805  18.098  0.00  0.00     0.096 C 
ENDBRANCH  19  22
ENDBRANCH   1  16
TORSDOF 4
ENDMDL
MODEL 4
REMARK VINA RESULT:      -6.7      3.069      6.824
REMARK  4 active torsions:
REMARK  status: ('A' for Active; 'I' for Inactive)
REMARK    1  A    between atoms: S_1  and  N_7 
REMARK    2  A    between atoms: S_1  and  C_15 
REMARK    3  A    between atoms: N_6  and  C_8 
REMARK       I    between atoms: N_6  and  C_14 
REMARK       I    between atoms: N_7  and  C_14 
REMARK    4  A    between atoms: C_18  and  C_21 
ROOT
HETATM    1  S   UNK N   1      29.838  23.127  -2.898  0.00  0.00     0.266 S 
HETATM    2  O   UNK N   1      30.483  22.899  -1.522  0.00  0.00    -0.200 OA
HETATM    3  O   UNK N   1      30.791  24.331  -2.950  0.00  0.00    -0.200 OA
ENDROOT
BRANCH   1   4
HETATM    4  N   UNK N   1      30.858  22.537  -4.189  0.00  0.00    -0.232 N 
HETATM    5  C   UNK N   1      30.486  22.490  -5.481  0.00  0.00     0.330 C 
HETATM    6  O   UNK N   1      31.326  22.190  -6.314  0.00  0.00    -0.246 OA
HETATM    7  N   UNK N   1      29.210  22.777  -5.857  0.00  0.00    -0.338 N 
HETATM    8  H   UNK N   1      28.578  23.064  -5.159  0.00  0.00     0.164 HD
HETATM    9  H   UNK N   1      31.759  22.218  -3.956  0.00  0.00     0.183 HD
BRANCH   7  10
HETATM   10  C   UNK N   1      28.723  22.684  -7.223  0.00  0.00     0.086 C 
HETATM   11  C   UNK N   1      27.755  23.825  -7.585  0.00  0.00     0.025 C 
HETATM   12  C   UNK N   1      26.318  23.574  -7.112  0.00  0.00     0.002 C 
HETATM   13  C   UNK N   1      25.836  22.130  -7.332  0.00  0.00     0.000 C 
HETATM   14  C   UNK N   1      26.798  21.299  -8.179  0.00  0.00     0.002 C 
HETATM   15  C   UNK N   1      28.192  21.278  -7.549  0.00  0.00     0.025 C 
ENDBRANCH   7  10
ENDBRANCH   1   4
BRANCH   1  16
HETATM   16  C   UNK N   1      28.696  24.427  -3.332  0.00  0.00     0.080 A 
HETATM   17  C   UNK N   1      29.106  25.635  -3.910  0.00  0.00     0.026 A 
HETATM   18  C   UNK N   1      28.140  26.548  -4.359  0.00  0.00     0.017 A 
HETATM   19  C   UNK N   1      26.771  26.250  -4.233  0.00  0.00     0.009 A 
HETATM   20  C   UNK N   1      26.380  25.053  -3.627  0.00  0.00     0.017 A 
HETATM   21  C   UNK N   1      27.336  24.149  -3.183  0.00  0.00     0.026 A 
BRANCH  19  22
HETATM   22  C   UNK N   1      25.735  27.162  -4.761  0.00  0.00     0.155 C 
HETATM   23  O   UNK N   1      25.354  28.109  -4.089  0.00  0.00    -0.293 OA
HETATM   24  C   UNK N   1      25.115  26.926  -6.098  0.00  0.00     0.096 C 
ENDBRANCH  19  22
ENDBRANCH   1  16
TORSDOF 4
ENDMDL
MODEL 5
REMARK VINA RESULT:      -6.7     17.769     21.006
REMARK  4 active torsions:
REMARK  status: ('A' for Active; 'I' for Inactive)
REMARK    1  A    between atoms: S_1  and  N_7 
REMARK    2  A    between atoms: S_1  and  C_15 
REMARK    3  A    between atoms: N_6  and  C_8 
REMARK       I    between atoms: N_6  and  C_14 
REMARK       I    between atoms: N_7  and  C_14 
REMARK    4  A    between atoms: C_18  and  C_21 
ROOT
HETATM    1  S   UNK N   1      35.918  14.229  11.705  0.00  0.00     0.266 S 
HETATM    2  O   UNK N   1      35.890  12.694  11.794  0.00  0.00    -0.200 OA
HETATM    3  O   UNK N   1      34.545  14.118  12.388  0.00  0.00    -0.200 OA
ENDROOT
BRANCH   1   4
HETATM    4  N   UNK N   1      36.378  14.950  13.229  0.00  0.00    -0.232 N 
HETATM    5  C   UNK N   1      36.652  14.247  14.343  0.00  0.00     0.330 C 
HETATM    6  O   UNK N   1      37.097  14.845  15.310  0.00  0.00    -0.246 OA
HETATM    7  N   UNK N   1      36.448  12.903  14.394  0.00  0.00    -0.338 N 
HETATM    8  H   UNK N   1      36.137  12.453  13.576  0.00  0.00     0.164 HD
HETATM    9  H   UNK N   1      36.441  15.931  13.275  0.00  0.00     0.183 HD
BRANCH   7  10
HETATM   10  C   UNK N   1      36.660  12.092  15.581  0.00  0.00     0.086 C 
HETATM   11  C   UNK N   1      37.096  10.654  15.246  0.00  0.00     0.025 C 
HETATM   12  C   UNK N   1      35.924   9.733  14.890  0.00  0.00     0.002 C 
HETATM   13  C   UNK N   1      34.695   9.913  15.796  0.00  0.00     0.000 C 
HETATM   14  C   UNK N   1      34.967  10.808  17.004  0.00  0.00     0.002 C 
HETATM   15  C   UNK N   1      35.473  12.180  16.556  0.00  0.00     0.025 C 
ENDBRANCH   7  10
ENDBRANCH   1   4
BRANCH   1  16
HETATM   16  C   UNK N   1      34.932  15.246  10.621  0.00  0.00     0.080 A 
HETATM   17  C   UNK N   1      35.313  16.540  10.242  0.00  0.00     0.026 A 
HETATM   18  C   UNK N   1      34.563  17.223   9.273  0.00  0.00     0.017 A 
HETATM   19  C   UNK N   1      33.442  16.611   8.682  0.00  0.00     0.009 A 
HETATM   20  C   UNK N   1      33.061  15.331   9.094  0.00  0.00     0.017 A 
HETATM   21  C   UNK N   1      33.803  14.655  10.053  0.00  0.00     0.026 A 
BRANCH  19  22
HETATM   22  C   UNK N   1      32.679  17.280   7.608  0.00  0.00     0.155 C 
HETATM   23  O   UNK N   1      31.500  17.555   7.778  0.00  0.00    -0.293 OA
HETATM   24  C   UNK N   1      33.315  17.597   6.297  0.00  0.00     0.096 C 
ENDBRANCH  19  22
ENDBRANCH   1  16
TORSDOF 4
ENDMDL
MODEL 6
REMARK VINA RESULT:      -6.6     10.654     14.145
REMARK  4 active torsions:
REMARK  status: ('A' for Active; 'I' for Inactive)
REMARK    1  A    between atoms: S_1  and  N_7 
REMARK    2  A    between atoms: S_1  and  C_15 
REMARK    3  A    between atoms: N_6  and  C_8 
REMARK       I    between atoms: N_6  and  C_14 
REMARK       I    between atoms: N_7  and  C_14 
REMARK    4  A    between atoms: C_18  and  C_21 
ROOT
HETATM    1  S   UNK N   1      28.535  18.260   5.556  0.00  0.00     0.266 S 
HETATM    2  O   UNK N   1      29.575  17.245   5.052  0.00  0.00    -0.200 OA
HETATM    3  O   UNK N   1      27.712  16.999   5.862  0.00  0.00    -0.200 OA
ENDROOT
BRANCH   1   4
HETATM    4  N   UNK N   1      28.570  18.400   7.298  0.00  0.00    -0.232 N 
HETATM    5  C   UNK N   1      29.616  18.035   8.062  0.00  0.00     0.330 C 
HETATM    6  O   UNK N   1      29.585  18.305   9.252  0.00  0.00    -0.246 OA
HETATM    7  N   UNK N   1      30.686  17.388   7.527  0.00  0.00    -0.338 N 
HETATM    8  H   UNK N   1      30.693  17.236   6.555  0.00  0.00     0.164 HD
HETATM    9  H   UNK N   1      27.776  18.768   7.748  0.00  0.00     0.183 HD
BRANCH   7  10
HETATM   10  C   UNK N   1      31.818  16.908   8.301  0.00  0.00     0.086 C 
HETATM   11  C   UNK N   1      33.018  17.871   8.257  0.00  0.00     0.025 C 
HETATM   12  C   UNK N   1      33.879  17.709   6.998  0.00  0.00     0.002 C 
HETATM   13  C   UNK N   1      34.123  16.246   6.597  0.00  0.00     0.000 C 
HETATM   14  C   UNK N   1      33.652  15.248   7.654  0.00  0.00     0.002 C 
HETATM   15  C   UNK N   1      32.168  15.449   7.963  0.00  0.00     0.025 C 
ENDBRANCH   7  10
ENDBRANCH   1   4
BRANCH   1  16
HETATM   16  C   UNK N   1      26.992  18.679   4.766  0.00  0.00     0.080 A 
HETATM   17  C   UNK N   1      25.830  17.911   4.915  0.00  0.00     0.026 A 
HETATM   18  C   UNK N   1      24.620  18.381   4.385  0.00  0.00     0.017 A 
HETATM   19  C   UNK N   1      24.572  19.616   3.713  0.00  0.00     0.009 A 
HETATM   20  C   UNK N   1      25.747  20.356   3.549  0.00  0.00     0.017 A 
HETATM   21  C   UNK N   1      26.946  19.890   4.074  0.00  0.00     0.026 A 
BRANCH  19  22
HETATM   22  C   UNK N   1      23.298  20.168   3.209  0.00  0.00     0.155 C 
HETATM   23  O   UNK N   1      23.261  21.300   2.751  0.00  0.00    -0.293 OA
HETATM   24  C   UNK N   1      22.036  19.375   3.281  0.00  0.00     0.096 C 
ENDBRANCH  19  22
ENDBRANCH   1  16
TORSDOF 4
ENDMDL
MODEL 7
REMARK VINA RESULT:      -6.4     18.325     20.993
REMARK  4 active torsions:
REMARK  status: ('A' for Active; 'I' for Inactive)
REMARK    1  A    between atoms: S_1  and  N_7 
REMARK    2  A    between atoms: S_1  and  C_15 
REMARK    3  A    between atoms: N_6  and  C_8 
REMARK       I    between atoms: N_6  and  C_14 
REMARK       I    between atoms: N_7  and  C_14 
REMARK    4  A    between atoms: C_18  and  C_21 
ROOT
HETATM    1  S   UNK N   1      36.177  12.431  12.366  0.00  0.00     0.266 S 
HETATM    2  O   UNK N   1      36.218  11.001  11.803  0.00  0.00    -0.200 OA
HETATM    3  O   UNK N   1      37.452  11.990  13.102  0.00  0.00    -0.200 OA
ENDROOT
BRANCH   1   4
HETATM    4  N   UNK N   1      37.286  13.484  11.520  0.00  0.00    -0.232 N 
HETATM    5  C   UNK N   1      36.916  14.355  10.564  0.00  0.00     0.330 C 
HETATM    6  O   UNK N   1      37.752  15.137  10.139  0.00  0.00    -0.246 OA
HETATM    7  N   UNK N   1      35.644  14.376  10.085  0.00  0.00    -0.338 N 
HETATM    8  H   UNK N   1      34.989  13.763  10.491  0.00  0.00     0.164 HD
HETATM    9  H   UNK N   1      38.240  13.436  11.757  0.00  0.00     0.183 HD
BRANCH   7  10
HETATM   10  C   UNK N   1      35.191  15.243   9.010  0.00  0.00     0.086 C 
HETATM   11  C   UNK N   1      33.847  15.924   9.325  0.00  0.00     0.025 C 
HETATM   12  C   UNK N   1      32.634  15.030   9.042  0.00  0.00     0.002 C 
HETATM   13  C   UNK N   1      32.742  14.234   7.731  0.00  0.00     0.000 C 
HETATM   14  C   UNK N   1      33.926  14.662   6.866  0.00  0.00     0.002 C 
HETATM   15  C   UNK N   1      35.237  14.537   7.645  0.00  0.00     0.025 C 
ENDBRANCH   7  10
ENDBRANCH   1   4
BRANCH   1  16
HETATM   16  C   UNK N   1      35.768  12.902  14.037  0.00  0.00     0.080 A 
HETATM   17  C   UNK N   1      34.717  12.314  14.755  0.00  0.00     0.026 A 
HETATM   18  C   UNK N   1      34.548  12.630  16.111  0.00  0.00     0.017 A 
HETATM   19  C   UNK N   1      35.429  13.524  16.747  0.00  0.00     0.009 A 
HETATM   20  C   UNK N   1      36.454  14.122  16.008  0.00  0.00     0.017 A 
HETATM   21  C   UNK N   1      36.622  13.810  14.665  0.00  0.00     0.026 A 
BRANCH  19  22
HETATM   22  C   UNK N   1      35.317  13.817  18.191  0.00  0.00     0.155 C 
HETATM   23  O   UNK N   1      35.291  14.976  18.578  0.00  0.00    -0.293 OA
HETATM   24  C   UNK N   1      35.270  12.716  19.196  0.00  0.00     0.096 C 
ENDBRANCH  19  22
ENDBRANCH   1  16
TORSDOF 4
ENDMDL
MODEL 8
REMARK VINA RESULT:      -6.4      4.250      5.227
REMARK  4 active torsions:
REMARK  status: ('A' for Active; 'I' for Inactive)
REMARK    1  A    between atoms: S_1  and  N_7 
REMARK    2  A    between atoms: S_1  and  C_15 
REMARK    3  A    between atoms: N_6  and  C_8 
REMARK       I    between atoms: N_6  and  C_14 
REMARK       I    between atoms: N_7  and  C_14 
REMARK    4  A    between atoms: C_18  and  C_21 
ROOT
HETATM    1  S   UNK N   1      25.490  22.790  -7.995  0.00  0.00     0.266 S 
HETATM    2  O   UNK N   1      24.129  22.119  -8.237  0.00  0.00    -0.200 OA
HETATM    3  O   UNK N   1      25.873  22.088  -9.307  0.00  0.00    -0.200 OA
ENDROOT
BRANCH   1   4
HETATM    4  N   UNK N   1      25.674  24.233  -8.964  0.00  0.00    -0.232 N 
HETATM    5  C   UNK N   1      25.891  25.459  -8.454  0.00  0.00     0.330 C 
HETATM    6  O   UNK N   1      26.142  26.371  -9.227  0.00  0.00    -0.246 OA
HETATM    7  N   UNK N   1      25.844  25.683  -7.114  0.00  0.00    -0.338 N 
HETATM    8  H   UNK N   1      25.690  24.910  -6.523  0.00  0.00     0.164 HD
HETATM    9  H   UNK N   1      25.613  24.144  -9.942  0.00  0.00     0.183 HD
BRANCH   7  10
HETATM   10  C   UNK N   1      26.005  26.990  -6.499  0.00  0.00     0.086 C 
HETATM   11  C   UNK N   1      27.431  27.223  -5.967  0.00  0.00     0.025 C 
HETATM   12  C   UNK N   1      27.670  26.604  -4.585  0.00  0.00     0.002 C 
HETATM   13  C   UNK N   1      26.501  26.799  -3.606  0.00  0.00     0.000 C 
HETATM   14  C   UNK N   1      25.436  27.761  -4.129  0.00  0.00     0.002 C 
HETATM   15  C   UNK N   1      24.894  27.285  -5.478  0.00  0.00     0.025 C 
ENDBRANCH   7  10
ENDBRANCH   1   4
BRANCH   1  16
HETATM   16  C   UNK N   1      27.000  21.979  -7.502  0.00  0.00     0.080 A 
HETATM   17  C   UNK N   1      27.431  20.771  -8.066  0.00  0.00     0.026 A 
HETATM   18  C   UNK N   1      28.699  20.269  -7.735  0.00  0.00     0.017 A 
HETATM   19  C   UNK N   1      29.531  20.975  -6.848  0.00  0.00     0.009 A 
HETATM   20  C   UNK N   1      29.073  22.163  -6.272  0.00  0.00     0.017 A 
HETATM   21  C   UNK N   1      27.818  22.660  -6.600  0.00  0.00     0.026 A 
BRANCH  19  22
HETATM   22  C   UNK N   1      30.898  20.505  -6.538  0.00  0.00     0.155 C 
HETATM   23  O   UNK N   1      31.697  20.316  -7.443  0.00  0.00    -0.293 OA
HETATM   24  C   UNK N   1      31.312  20.220  -5.134  0.00  0.00     0.096 C 
ENDBRANCH  19  22
ENDBRANCH   1  16
TORSDOF 4
ENDMDL
MODEL 9
REMARK VINA RESULT:      -6.3     21.865     24.737
REMARK  4 active torsions:
REMARK  status: ('A' for Active; 'I' for Inactive)
REMARK    1  A    between atoms: S_1  and  N_7 
REMARK    2  A    between atoms: S_1  and  C_15 
REMARK    3  A    between atoms: N_6  and  C_8 
REMARK       I    between atoms: N_6  and  C_14 
REMARK       I    between atoms: N_7  and  C_14 
REMARK    4  A    between atoms: C_18  and  C_21 
ROOT
HETATM    1  S   UNK N   1      35.338  12.224  15.757  0.00  0.00     0.266 S 
HETATM    2  O   UNK N   1      34.679  10.855  15.987  0.00  0.00    -0.200 OA
HETATM    3  O   UNK N   1      33.898  12.670  15.453  0.00  0.00    -0.200 OA
ENDROOT
BRANCH   1   4
HETATM    4  N   UNK N   1      35.141  13.271  17.143  0.00  0.00    -0.232 N 
HETATM    5  C   UNK N   1      35.199  12.849  18.419  0.00  0.00     0.330 C 
HETATM    6  O   UNK N   1      35.186  13.687  19.307  0.00  0.00    -0.246 OA
HETATM    7  N   UNK N   1      35.280  11.525  18.719  0.00  0.00    -0.338 N 
HETATM    8  H   UNK N   1      35.339  10.886  17.973  0.00  0.00     0.164 HD
HETATM    9  H   UNK N   1      34.976  14.227  16.980  0.00  0.00     0.183 HD
BRANCH   7  10
HETATM   10  C   UNK N   1      35.281  10.995  20.073  0.00  0.00     0.086 C 
HETATM   11  C   UNK N   1      36.702  10.767  20.618  0.00  0.00     0.025 C 
HETATM   12  C   UNK N   1      37.324   9.444  20.157  0.00  0.00     0.002 C 
HETATM   13  C   UNK N   1      36.348   8.256  20.186  0.00  0.00     0.000 C 
HETATM   14  C   UNK N   1      35.027   8.582  20.881  0.00  0.00     0.002 C 
HETATM   15  C   UNK N   1      34.348   9.780  20.215  0.00  0.00     0.025 C 
ENDBRANCH   7  10
ENDBRANCH   1   4
BRANCH   1  16
HETATM   16  C   UNK N   1      35.573  13.037  14.187  0.00  0.00     0.080 A 
HETATM   17  C   UNK N   1      34.964  12.595  13.005  0.00  0.00     0.026 A 
HETATM   18  C   UNK N   1      35.077  13.368  11.840  0.00  0.00     0.017 A 
HETATM   19  C   UNK N   1      35.791  14.580  11.860  0.00  0.00     0.009 A 
HETATM   20  C   UNK N   1      36.416  14.992  13.041  0.00  0.00     0.017 A 
HETATM   21  C   UNK N   1      36.304  14.226  14.194  0.00  0.00     0.026 A 
BRANCH  19  22
HETATM   22  C   UNK N   1      35.864  15.448  10.666  0.00  0.00     0.155 C 
HETATM   23  O   UNK N   1      36.441  16.524  10.728  0.00  0.00    -0.293 OA
HETATM   24  C   UNK N   1      35.211  15.049   9.385  0.00  0.00     0.096 C 
ENDBRANCH  19  22
ENDBRANCH   1  16
TORSDOF 4
ENDMDL
