MODEL 1
REMARK VINA RESULT:      -0.8      0.000      0.000
REMARK  6 active torsions:
REMARK  status: ('A' for Active; 'I' for Inactive)
REMARK    1  A    between atoms: I_1  and  I_1 
REMARK    2  A    between atoms: I_2  and  I_2 
REMARK    3  A    between atoms: O_5  and  C_33 
REMARK    4  A    between atoms: O_6  and  C_35 
REMARK    5  A    between atoms: O_7  and  C_36 
REMARK    6  A    between atoms: O_8  and  C_46 
ROOT
HETATM    1  I   UNK N   1      22.676  12.187  10.738  0.00  0.00     0.000 I 
ENDROOT
TORSDOF 6
ENDMDL
MODEL 2
REMARK VINA RESULT:      -0.8     13.414     13.414
REMARK  6 active torsions:
REMARK  status: ('A' for Active; 'I' for Inactive)
REMARK    1  A    between atoms: I_1  and  I_1 
REMARK    2  A    between atoms: I_2  and  I_2 
REMARK    3  A    between atoms: O_5  and  C_33 
REMARK    4  A    between atoms: O_6  and  C_35 
REMARK    5  A    between atoms: O_7  and  C_36 
REMARK    6  A    between atoms: O_8  and  C_46 
ROOT
HETATM    1  I   UNK N   1      31.006   7.711  20.252  0.00  0.00     0.000 I 
ENDROOT
TORSDOF 6
ENDMDL
MODEL 3
REMARK VINA RESULT:      -0.8     10.922     10.922
REMARK  6 active torsions:
REMARK  status: ('A' for Active; 'I' for Inactive)
REMARK    1  A    between atoms: I_1  and  I_1 
REMARK    2  A    between atoms: I_2  and  I_2 
REMARK    3  A    between atoms: O_5  and  C_33 
REMARK    4  A    between atoms: O_6  and  C_35 
REMARK    5  A    between atoms: O_7  and  C_36 
REMARK    6  A    between atoms: O_8  and  C_46 
ROOT
HETATM    1  I   UNK N   1      27.116  21.071   6.194  0.00  0.00     0.000 I 
ENDROOT
TORSDOF 6
ENDMDL
MODEL 4
REMARK VINA RESULT:      -0.8     22.198     22.198
REMARK  6 active torsions:
REMARK  status: ('A' for Active; 'I' for Inactive)
REMARK    1  A    between atoms: I_1  and  I_1 
REMARK    2  A    between atoms: I_2  and  I_2 
REMARK    3  A    between atoms: O_5  and  C_33 
REMARK    4  A    between atoms: O_6  and  C_35 
REMARK    5  A    between atoms: O_7  and  C_36 
REMARK    6  A    between atoms: O_8  and  C_46 
ROOT
HETATM    1  I   UNK N   1      25.316  26.922  -5.653  0.00  0.00     0.000 I 
ENDROOT
TORSDOF 6
ENDMDL
MODEL 5
REMARK VINA RESULT:      -0.8     12.124     12.124
REMARK  6 active torsions:
REMARK  status: ('A' for Active; 'I' for Inactive)
REMARK    1  A    between atoms: I_1  and  I_1 
REMARK    2  A    between atoms: I_2  and  I_2 
REMARK    3  A    between atoms: O_5  and  C_33 
REMARK    4  A    between atoms: O_6  and  C_35 
REMARK    5  A    between atoms: O_7  and  C_36 
REMARK    6  A    between atoms: O_8  and  C_46 
ROOT
HETATM    1  I   UNK N   1      34.098  10.839  14.574  0.00  0.00     0.000 I 
ENDROOT
TORSDOF 6
ENDMDL
MODEL 6
REMARK VINA RESULT:      -0.8     21.886     21.886
REMARK  6 active torsions:
REMARK  status: ('A' for Active; 'I' for Inactive)
REMARK    1  A    between atoms: I_1  and  I_1 
REMARK    2  A    between atoms: I_2  and  I_2 
REMARK    3  A    between atoms: O_5  and  C_33 
REMARK    4  A    between atoms: O_6  and  C_35 
REMARK    5  A    between atoms: O_7  and  C_36 
REMARK    6  A    between atoms: O_8  and  C_46 
ROOT
HETATM    1  I   UNK N   1      25.942  28.010  -4.026  0.00  0.00     0.000 I 
ENDROOT
TORSDOF 6
ENDMDL
MODEL 7
REMARK VINA RESULT:      -0.7     12.972     12.972
REMARK  6 active torsions:
REMARK  status: ('A' for Active; 'I' for Inactive)
REMARK    1  A    between atoms: I_1  and  I_1 
REMARK    2  A    between atoms: I_2  and  I_2 
REMARK    3  A    between atoms: O_5  and  C_33 
REMARK    4  A    between atoms: O_6  and  C_35 
REMARK    5  A    between atoms: O_7  and  C_36 
REMARK    6  A    between atoms: O_8  and  C_46 
ROOT
HETATM    1  I   UNK N   1      34.016  17.857   7.991  0.00  0.00     0.000 I 
ENDROOT
TORSDOF 6
ENDMDL
MODEL 8
REMARK VINA RESULT:      -0.7     13.814     13.814
REMARK  6 active torsions:
REMARK  status: ('A' for Active; 'I' for Inactive)
REMARK    1  A    between atoms: I_1  and  I_1 
REMARK    2  A    between atoms: I_2  and  I_2 
REMARK    3  A    between atoms: O_5  and  C_33 
REMARK    4  A    between atoms: O_6  and  C_35 
REMARK    5  A    between atoms: O_7  and  C_36 
REMARK    6  A    between atoms: O_8  and  C_46 
ROOT
HETATM    1  I   UNK N   1      35.209  12.840  16.510  0.00  0.00     0.000 I 
ENDROOT
TORSDOF 6
ENDMDL
MODEL 9
REMARK VINA RESULT:      -0.7     18.889     18.889
REMARK  6 active torsions:
REMARK  status: ('A' for Active; 'I' for Inactive)
REMARK    1  A    between atoms: I_1  and  I_1 
REMARK    2  A    between atoms: I_2  and  I_2 
REMARK    3  A    between atoms: O_5  and  C_33 
REMARK    4  A    between atoms: O_6  and  C_35 
REMARK    5  A    between atoms: O_7  and  C_36 
REMARK    6  A    between atoms: O_8  and  C_46 
ROOT
HETATM    1  I   UNK N   1      30.371  22.889  -2.792  0.00  0.00     0.000 I 
ENDROOT
TORSDOF 6
ENDMDL
