MODEL 1
REMARK VINA RESULT:      -6.3      0.000      0.000
REMARK  14 active torsions:
REMARK  status: ('A' for Active; 'I' for Inactive)
REMARK    1  A    between atoms: O_2  and  C_16 
REMARK    2  A    between atoms: C_19  and  O_3 
REMARK    3  A    between atoms: C_26  and  O_4 
REMARK    4  A    between atoms: O_5  and  C_34 
REMARK    5  A    between atoms: C_9  and  C_15 
REMARK    6  A    between atoms: C_10  and  C_14 
REMARK    7  A    between atoms: C_11  and  C_16 
REMARK    8  A    between atoms: C_12  and  C_18 
REMARK    9  A    between atoms: C_13  and  C_17 
REMARK   10  A    between atoms: C_19  and  C_24 
REMARK   11  A    between atoms: C_19  and  C_25 
REMARK   12  A    between atoms: C_24  and  C_26 
REMARK   13  A    between atoms: C_26  and  C_29 
REMARK   14  A    between atoms: C_29  and  C_34 
ROOT
HETATM    1  N   UNK N   1      26.293  14.189   2.795  0.00  0.00    -0.361 N 
ATOM      2  HN  UNK N   1      26.078  13.279   2.388  1.00  0.00     0.165 HD
HETATM    3  C   UNK N   1      27.584  14.488   3.051  0.00  0.00     0.022 A 
HETATM    4  C   UNK N   1      25.268  15.039   3.051  0.00  0.00     0.024 A 
HETATM    5  C   UNK N   1      27.927  15.743   3.605  0.00  0.00     0.000 A 
HETATM    6  C   UNK N   1      25.534  16.300   3.624  0.00  0.00    -0.002 A 
HETATM    7  C   UNK N   1      26.886  16.679   3.924  0.00  0.00    -0.003 A 
ENDROOT
BRANCH   6   8
HETATM    8  C   UNK N   1      24.366  17.180   3.852  0.00  0.00     0.013 C 
HETATM    9  C   UNK N   1      23.797  17.396   5.041  0.00  0.00     0.006 C 
BRANCH   9  10
HETATM   10  C   UNK N   1      22.558  18.242   5.172  0.00  0.00     0.143 C 
BRANCH  10  11
HETATM   11  O   UNK N   1      22.091  18.148   6.482  0.00  0.00    -0.392 OA
HETATM   12  H   UNK N   1      22.711  18.017   7.217  0.00  0.00     0.210 HD
ENDBRANCH  10  11
BRANCH  10  13
HETATM   13  C   UNK N   1      21.464  17.808   4.176  0.00  0.00     0.068 C 
BRANCH  13  14
HETATM   14  C   UNK N   1      20.648  18.937   3.557  0.00  0.00     0.130 C 
BRANCH  14  15
HETATM   15  O   UNK N   1      20.536  20.005   4.449  0.00  0.00    -0.395 OA
HETATM   16  H   UNK N   1      20.316  20.892   4.125  0.00  0.00     0.210 HD
ENDBRANCH  14  15
BRANCH  14  17
HETATM   17  C   UNK N   1      21.238  19.397   2.233  0.00  0.00     0.141 C 
BRANCH  17  18
HETATM   18  C   UNK N   1      21.711  20.809   2.334  0.00  0.00     0.141 C 
HETATM   19  O   UNK N   1      22.815  21.047   2.792  0.00  0.00    -0.650 OA
BRANCH  18  20
HETATM   20  O   UNK N   1      20.920  21.819   1.924  0.00  0.00    -0.776 OA
HETATM   21  H   UNK N   1      20.260  22.076   1.311  0.00  0.00     0.167 HD
ENDBRANCH  18  20
ENDBRANCH  17  18
ENDBRANCH  14  17
ENDBRANCH  13  14
ENDBRANCH  10  13
ENDBRANCH   9  10
ENDBRANCH   6   8
BRANCH   4  22
HETATM   22  C   UNK N   1      23.859  14.632   2.657  0.00  0.00     0.028 C 
HETATM   23  C   UNK N   1      23.375  13.417   3.429  0.00  0.00     0.016 C 
HETATM   24  C   UNK N   1      23.707  14.358   1.169  0.00  0.00     0.016 C 
ENDBRANCH   4  22
BRANCH   7  25
HETATM   25  C   UNK N   1      27.206  18.003   4.592  0.00  0.00    -0.024 A 
HETATM   26  C   UNK N   1      27.285  19.188   3.836  0.00  0.00     0.015 A 
HETATM   27  C   UNK N   1      27.533  20.421   4.444  0.00  0.00     0.043 A 
HETATM   28  C   UNK N   1      27.705  20.495   5.825  0.00  0.00     0.116 A 
HETATM   29  F   UNK N   1      27.942  21.690   6.417  0.00  0.00    -0.206 F 
HETATM   30  C   UNK N   1      27.630  19.336   6.596  0.00  0.00     0.043 A 
HETATM   31  C   UNK N   1      27.378  18.104   5.984  0.00  0.00     0.015 A 
ENDBRANCH   7  25
BRANCH   5  32
HETATM   32  C   UNK N   1      29.382  16.028   3.872  0.00  0.00     0.208 C 
BRANCH  32  33
HETATM   33  O   UNK N   1      29.994  16.598   2.755  0.00  0.00    -0.391 OA
HETATM   34  C   UNK N   1      31.357  16.571   3.055  0.00  0.00     0.201 C 
ENDBRANCH  32  33
ENDBRANCH   5  32
BRANCH   3  35
HETATM   35  C   UNK N   1      28.606  13.428   2.746  0.00  0.00     0.028 C 
HETATM   36  C   UNK N   1      29.043  13.205   1.307  0.00  0.00     0.016 C 
HETATM   37  C   UNK N   1      28.699  12.255   3.699  0.00  0.00     0.016 C 
ENDBRANCH   3  35
TORSDOF 14
ENDMDL
MODEL 2
REMARK VINA RESULT:      -6.1      5.829     10.307
REMARK  14 active torsions:
REMARK  status: ('A' for Active; 'I' for Inactive)
REMARK    1  A    between atoms: O_2  and  C_16 
REMARK    2  A    between atoms: C_19  and  O_3 
REMARK    3  A    between atoms: C_26  and  O_4 
REMARK    4  A    between atoms: O_5  and  C_34 
REMARK    5  A    between atoms: C_9  and  C_15 
REMARK    6  A    between atoms: C_10  and  C_14 
REMARK    7  A    between atoms: C_11  and  C_16 
REMARK    8  A    between atoms: C_12  and  C_18 
REMARK    9  A    between atoms: C_13  and  C_17 
REMARK   10  A    between atoms: C_19  and  C_24 
REMARK   11  A    between atoms: C_19  and  C_25 
REMARK   12  A    between atoms: C_24  and  C_26 
REMARK   13  A    between atoms: C_26  and  C_29 
REMARK   14  A    between atoms: C_29  and  C_34 
ROOT
HETATM    1  N   UNK N   1      28.547  17.717   6.626  0.00  0.00    -0.361 N 
ATOM      2  HN  UNK N   1      27.774  18.225   7.056  1.00  0.00     0.165 HD
HETATM    3  C   UNK N   1      28.463  17.412   5.314  0.00  0.00     0.022 A 
HETATM    4  C   UNK N   1      29.607  17.381   7.400  0.00  0.00     0.024 A 
HETATM    5  C   UNK N   1      29.518  16.718   4.675  0.00  0.00     0.000 A 
HETATM    6  C   UNK N   1      30.687  16.668   6.836  0.00  0.00    -0.002 A 
HETATM    7  C   UNK N   1      30.659  16.311   5.446  0.00  0.00    -0.003 A 
ENDROOT
BRANCH   6   8
HETATM    8  C   UNK N   1      31.817  16.360   7.740  0.00  0.00     0.013 C 
HETATM    9  C   UNK N   1      31.924  15.246   8.471  0.00  0.00     0.006 C 
BRANCH   9  10
HETATM   10  C   UNK N   1      33.069  15.048   9.430  0.00  0.00     0.143 C 
BRANCH  10  11
HETATM   11  O   UNK N   1      32.581  15.149  10.731  0.00  0.00    -0.392 OA
HETATM   12  H   UNK N   1      32.761  15.939  11.265  0.00  0.00     0.210 HD
ENDBRANCH  10  11
BRANCH  10  13
HETATM   13  C   UNK N   1      34.193  16.077   9.193  0.00  0.00     0.068 C 
BRANCH  13  14
HETATM   14  C   UNK N   1      35.329  16.059  10.209  0.00  0.00     0.130 C 
BRANCH  14  15
HETATM   15  O   UNK N   1      34.956  16.739  11.370  0.00  0.00    -0.395 OA
HETATM   16  H   UNK N   1      34.078  17.146  11.439  0.00  0.00     0.210 HD
ENDBRANCH  14  15
BRANCH  14  17
HETATM   17  C   UNK N   1      35.775  14.642  10.530  0.00  0.00     0.141 C 
BRANCH  17  18
HETATM   18  C   UNK N   1      35.701  14.390  11.999  0.00  0.00     0.141 C 
HETATM   19  O   UNK N   1      34.673  13.955  12.488  0.00  0.00    -0.650 OA
BRANCH  18  20
HETATM   20  O   UNK N   1      36.764  14.647  12.785  0.00  0.00    -0.776 OA
HETATM   21  H   UNK N   1      37.253  14.361  13.531  0.00  0.00     0.167 HD
ENDBRANCH  18  20
ENDBRANCH  17  18
ENDBRANCH  14  17
ENDBRANCH  13  14
ENDBRANCH  10  13
ENDBRANCH   9  10
ENDBRANCH   6   8
BRANCH   4  22
HETATM   22  C   UNK N   1      29.634  17.836   8.849  0.00  0.00     0.028 C 
HETATM   23  C   UNK N   1      28.240  17.943   9.443  0.00  0.00     0.016 C 
HETATM   24  C   UNK N   1      30.352  19.161   9.049  0.00  0.00     0.016 C 
ENDBRANCH   4  22
BRANCH   7  25
HETATM   25  C   UNK N   1      31.773  15.496   4.817  0.00  0.00    -0.024 A 
HETATM   26  C   UNK N   1      32.855  16.132   4.179  0.00  0.00     0.015 A 
HETATM   27  C   UNK N   1      33.911  15.397   3.636  0.00  0.00     0.043 A 
HETATM   28  C   UNK N   1      33.908  14.005   3.723  0.00  0.00     0.116 A 
HETATM   29  F   UNK N   1      34.934  13.290   3.201  0.00  0.00    -0.206 F 
HETATM   30  C   UNK N   1      32.849  13.352   4.352  0.00  0.00     0.043 A 
HETATM   31  C   UNK N   1      31.796  14.092   4.898  0.00  0.00     0.015 A 
ENDBRANCH   7  25
BRANCH   5  32
HETATM   32  C   UNK N   1      29.375  16.402   3.210  0.00  0.00     0.208 C 
BRANCH  32  33
HETATM   33  O   UNK N   1      28.522  15.316   3.012  0.00  0.00    -0.391 OA
HETATM   34  C   UNK N   1      29.263  14.431   2.227  0.00  0.00     0.201 C 
ENDBRANCH  32  33
ENDBRANCH   5  32
BRANCH   3  35
HETATM   35  C   UNK N   1      27.207  17.820   4.595  0.00  0.00     0.028 C 
HETATM   36  C   UNK N   1      27.073  19.241   4.072  0.00  0.00     0.016 C 
HETATM   37  C   UNK N   1      25.934  17.075   4.939  0.00  0.00     0.016 C 
ENDBRANCH   3  35
TORSDOF 14
ENDMDL
MODEL 3
REMARK VINA RESULT:      -6.1      3.011      7.748
REMARK  14 active torsions:
REMARK  status: ('A' for Active; 'I' for Inactive)
REMARK    1  A    between atoms: O_2  and  C_16 
REMARK    2  A    between atoms: C_19  and  O_3 
REMARK    3  A    between atoms: C_26  and  O_4 
REMARK    4  A    between atoms: O_5  and  C_34 
REMARK    5  A    between atoms: C_9  and  C_15 
REMARK    6  A    between atoms: C_10  and  C_14 
REMARK    7  A    between atoms: C_11  and  C_16 
REMARK    8  A    between atoms: C_12  and  C_18 
REMARK    9  A    between atoms: C_13  and  C_17 
REMARK   10  A    between atoms: C_19  and  C_24 
REMARK   11  A    between atoms: C_19  and  C_25 
REMARK   12  A    between atoms: C_24  and  C_26 
REMARK   13  A    between atoms: C_26  and  C_29 
REMARK   14  A    between atoms: C_29  and  C_34 
ROOT
HETATM    1  N   UNK N   1      26.835  14.448   2.564  0.00  0.00    -0.361 N 
ATOM      2  HN  UNK N   1      26.761  13.542   2.103  1.00  0.00     0.165 HD
HETATM    3  C   UNK N   1      25.698  15.101   2.881  0.00  0.00     0.022 A 
HETATM    4  C   UNK N   1      28.071  14.937   2.830  0.00  0.00     0.024 A 
HETATM    5  C   UNK N   1      25.754  16.356   3.532  0.00  0.00     0.000 A 
HETATM    6  C   UNK N   1      28.205  16.194   3.457  0.00  0.00    -0.002 A 
HETATM    7  C   UNK N   1      27.034  16.941   3.818  0.00  0.00    -0.003 A 
ENDROOT
BRANCH   6   8
HETATM    8  C   UNK N   1      29.586  16.648   3.734  0.00  0.00     0.013 C 
HETATM    9  C   UNK N   1      30.128  16.734   4.952  0.00  0.00     0.006 C 
BRANCH   9  10
HETATM   10  C   UNK N   1      31.515  17.286   5.153  0.00  0.00     0.143 C 
BRANCH  10  11
HETATM   11  O   UNK N   1      32.122  17.427   3.906  0.00  0.00    -0.392 OA
HETATM   12  H   UNK N   1      32.843  16.835   3.640  0.00  0.00     0.210 HD
ENDBRANCH  10  11
BRANCH  10  13
HETATM   13  C   UNK N   1      32.363  16.377   6.066  0.00  0.00     0.068 C 
BRANCH  13  14
HETATM   14  C   UNK N   1      33.599  17.024   6.678  0.00  0.00     0.130 C 
BRANCH  14  15
HETATM   15  O   UNK N   1      34.203  17.887   5.762  0.00  0.00    -0.395 OA
HETATM   16  H   UNK N   1      35.125  18.165   5.885  0.00  0.00     0.210 HD
ENDBRANCH  14  15
BRANCH  14  17
HETATM   17  C   UNK N   1      33.271  17.751   7.972  0.00  0.00     0.141 C 
BRANCH  17  18
HETATM   18  C   UNK N   1      34.523  18.105   8.704  0.00  0.00     0.141 C 
HETATM   19  O   UNK N   1      35.179  19.071   8.352  0.00  0.00    -0.650 OA
BRANCH  18  20
HETATM   20  O   UNK N   1      34.931  17.359   9.749  0.00  0.00    -0.776 OA
HETATM   21  H   UNK N   1      35.624  16.828  10.088  0.00  0.00     0.167 HD
ENDBRANCH  18  20
ENDBRANCH  17  18
ENDBRANCH  14  17
ENDBRANCH  13  14
ENDBRANCH  10  13
ENDBRANCH   9  10
ENDBRANCH   6   8
BRANCH   4  22
HETATM   22  C   UNK N   1      29.286  14.089   2.496  0.00  0.00     0.028 C 
HETATM   23  C   UNK N   1      29.088  13.274   1.230  0.00  0.00     0.016 C 
HETATM   24  C   UNK N   1      29.688  13.149   3.622  0.00  0.00     0.016 C 
ENDBRANCH   4  22
BRANCH   7  25
HETATM   25  C   UNK N   1      27.137  18.320   4.442  0.00  0.00    -0.024 A 
HETATM   26  C   UNK N   1      27.051  19.477   3.645  0.00  0.00     0.015 A 
HETATM   27  C   UNK N   1      27.098  20.753   4.211  0.00  0.00     0.043 A 
HETATM   28  C   UNK N   1      27.229  20.899   5.591  0.00  0.00     0.116 A 
HETATM   29  F   UNK N   1      27.271  22.135   6.143  0.00  0.00    -0.206 F 
HETATM   30  C   UNK N   1      27.315  19.768   6.403  0.00  0.00     0.043 A 
HETATM   31  C   UNK N   1      27.264  18.492   5.833  0.00  0.00     0.015 A 
ENDBRANCH   7  25
BRANCH   5  32
HETATM   32  C   UNK N   1      24.456  17.043   3.863  0.00  0.00     0.208 C 
BRANCH  32  33
HETATM   33  O   UNK N   1      24.042  16.733   5.160  0.00  0.00    -0.391 OA
HETATM   34  C   UNK N   1      22.686  17.063   5.179  0.00  0.00     0.201 C 
ENDBRANCH  32  33
ENDBRANCH   5  32
BRANCH   3  35
HETATM   35  C   UNK N   1      24.401  14.447   2.490  0.00  0.00     0.028 C 
HETATM   36  C   UNK N   1      23.742  13.466   3.445  0.00  0.00     0.016 C 
HETATM   37  C   UNK N   1      24.122  14.284   1.011  0.00  0.00     0.016 C 
ENDBRANCH   3  35
TORSDOF 14
ENDMDL
MODEL 4
REMARK VINA RESULT:      -6.0      2.574      4.921
REMARK  14 active torsions:
REMARK  status: ('A' for Active; 'I' for Inactive)
REMARK    1  A    between atoms: O_2  and  C_16 
REMARK    2  A    between atoms: C_19  and  O_3 
REMARK    3  A    between atoms: C_26  and  O_4 
REMARK    4  A    between atoms: O_5  and  C_34 
REMARK    5  A    between atoms: C_9  and  C_15 
REMARK    6  A    between atoms: C_10  and  C_14 
REMARK    7  A    between atoms: C_11  and  C_16 
REMARK    8  A    between atoms: C_12  and  C_18 
REMARK    9  A    between atoms: C_13  and  C_17 
REMARK   10  A    between atoms: C_19  and  C_24 
REMARK   11  A    between atoms: C_19  and  C_25 
REMARK   12  A    between atoms: C_24  and  C_26 
REMARK   13  A    between atoms: C_26  and  C_29 
REMARK   14  A    between atoms: C_29  and  C_34 
ROOT
HETATM    1  N   UNK N   1      29.451  17.757   5.496  0.00  0.00    -0.361 N 
ATOM      2  HN  UNK N   1      30.112  18.355   5.992  1.00  0.00     0.165 HD
HETATM    3  C   UNK N   1      29.939  16.773   4.712  0.00  0.00     0.022 A 
HETATM    4  C   UNK N   1      28.125  17.990   5.657  0.00  0.00     0.024 A 
HETATM    5  C   UNK N   1      29.057  15.914   4.015  0.00  0.00     0.000 A 
HETATM    6  C   UNK N   1      27.187  17.187   4.975  0.00  0.00    -0.002 A 
HETATM    7  C   UNK N   1      27.640  16.124   4.123  0.00  0.00    -0.003 A 
ENDROOT
BRANCH   6   8
HETATM    8  C   UNK N   1      25.759  17.489   5.221  0.00  0.00     0.013 C 
HETATM    9  C   UNK N   1      24.991  18.233   4.420  0.00  0.00     0.006 C 
BRANCH   9  10
HETATM   10  C   UNK N   1      23.567  18.560   4.788  0.00  0.00     0.143 C 
BRANCH  10  11
HETATM   11  O   UNK N   1      23.125  17.628   5.726  0.00  0.00    -0.392 OA
HETATM   12  H   UNK N   1      23.732  16.958   6.077  0.00  0.00     0.210 HD
ENDBRANCH  10  11
BRANCH  10  13
HETATM   13  C   UNK N   1      22.645  18.560   3.552  0.00  0.00     0.068 C 
BRANCH  13  14
HETATM   14  C   UNK N   1      21.951  19.881   3.245  0.00  0.00     0.130 C 
BRANCH  14  15
HETATM   15  O   UNK N   1      22.878  20.831   2.812  0.00  0.00    -0.395 OA
HETATM   16  H   UNK N   1      22.830  21.185   1.909  0.00  0.00     0.210 HD
ENDBRANCH  14  15
BRANCH  14  17
HETATM   17  C   UNK N   1      20.836  19.708   2.227  0.00  0.00     0.141 C 
BRANCH  17  18
HETATM   18  C   UNK N   1      20.890  20.792   1.202  0.00  0.00     0.141 C 
HETATM   19  O   UNK N   1      21.180  20.523   0.049  0.00  0.00    -0.650 OA
BRANCH  18  20
HETATM   20  O   UNK N   1      20.624  22.066   1.549  0.00  0.00    -0.776 OA
HETATM   21  H   UNK N   1      20.827  22.757   2.149  0.00  0.00     0.167 HD
ENDBRANCH  18  20
ENDBRANCH  17  18
ENDBRANCH  14  17
ENDBRANCH  13  14
ENDBRANCH  10  13
ENDBRANCH   9  10
ENDBRANCH   6   8
BRANCH   4  22
HETATM   22  C   UNK N   1      27.681  19.078   6.619  0.00  0.00     0.028 C 
HETATM   23  C   UNK N   1      27.791  20.465   6.009  0.00  0.00     0.016 C 
HETATM   24  C   UNK N   1      28.442  19.062   7.935  0.00  0.00     0.016 C 
ENDBRANCH   4  22
BRANCH   7  25
HETATM   25  C   UNK N   1      26.665  15.276   3.330  0.00  0.00    -0.024 A 
HETATM   26  C   UNK N   1      26.250  15.672   2.045  0.00  0.00     0.015 A 
HETATM   27  C   UNK N   1      25.388  14.879   1.283  0.00  0.00     0.043 A 
HETATM   28  C   UNK N   1      24.925  13.667   1.793  0.00  0.00     0.116 A 
HETATM   29  F   UNK N   1      24.092  12.894   1.055  0.00  0.00    -0.206 F 
HETATM   30  C   UNK N   1      25.322  13.251   3.063  0.00  0.00     0.043 A 
HETATM   31  C   UNK N   1      26.188  14.047   3.821  0.00  0.00     0.015 A 
ENDBRANCH   7  25
BRANCH   5  32
HETATM   32  C   UNK N   1      29.652  14.832   3.154  0.00  0.00     0.208 C 
BRANCH  32  33
HETATM   33  O   UNK N   1      29.741  13.627   3.854  0.00  0.00    -0.391 OA
HETATM   34  C   UNK N   1      29.542  12.646   2.882  0.00  0.00     0.201 C 
ENDBRANCH  32  33
ENDBRANCH   5  32
BRANCH   3  35
HETATM   35  C   UNK N   1      31.435  16.661   4.605  0.00  0.00     0.028 C 
HETATM   36  C   UNK N   1      32.208  15.924   5.687  0.00  0.00     0.016 C 
HETATM   37  C   UNK N   1      32.161  17.744   3.836  0.00  0.00     0.016 C 
ENDBRANCH   3  35
TORSDOF 14
ENDMDL
MODEL 5
REMARK VINA RESULT:      -6.0     11.932     14.634
REMARK  14 active torsions:
REMARK  status: ('A' for Active; 'I' for Inactive)
REMARK    1  A    between atoms: O_2  and  C_16 
REMARK    2  A    between atoms: C_19  and  O_3 
REMARK    3  A    between atoms: C_26  and  O_4 
REMARK    4  A    between atoms: O_5  and  C_34 
REMARK    5  A    between atoms: C_9  and  C_15 
REMARK    6  A    between atoms: C_10  and  C_14 
REMARK    7  A    between atoms: C_11  and  C_16 
REMARK    8  A    between atoms: C_12  and  C_18 
REMARK    9  A    between atoms: C_13  and  C_17 
REMARK   10  A    between atoms: C_19  and  C_24 
REMARK   11  A    between atoms: C_19  and  C_25 
REMARK   12  A    between atoms: C_24  and  C_26 
REMARK   13  A    between atoms: C_26  and  C_29 
REMARK   14  A    between atoms: C_29  and  C_34 
ROOT
HETATM    1  N   UNK N   1      26.375  26.479  -8.524  0.00  0.00    -0.361 N 
ATOM      2  HN  UNK N   1      25.961  27.407  -8.610  1.00  0.00     0.165 HD
HETATM    3  C   UNK N   1      26.420  25.692  -9.619  0.00  0.00     0.022 A 
HETATM    4  C   UNK N   1      26.855  26.098  -7.315  0.00  0.00     0.024 A 
HETATM    5  C   UNK N   1      26.997  24.403  -9.546  0.00  0.00     0.000 A 
HETATM    6  C   UNK N   1      27.424  24.816  -7.162  0.00  0.00    -0.002 A 
HETATM    7  C   UNK N   1      27.501  23.929  -8.288  0.00  0.00    -0.003 A 
ENDROOT
BRANCH   6   8
HETATM    8  C   UNK N   1      27.947  24.483  -5.818  0.00  0.00     0.013 C 
HETATM    9  C   UNK N   1      27.255  23.843  -4.871  0.00  0.00     0.006 C 
BRANCH   9  10
HETATM   10  C   UNK N   1      27.835  23.617  -3.499  0.00  0.00     0.143 C 
BRANCH  10  11
HETATM   11  O   UNK N   1      26.942  24.115  -2.551  0.00  0.00    -0.392 OA
HETATM   12  H   UNK N   1      26.561  23.529  -1.879  0.00  0.00     0.210 HD
ENDBRANCH  10  11
BRANCH  10  13
HETATM   13  C   UNK N   1      29.215  24.287  -3.346  0.00  0.00     0.068 C 
BRANCH  13  14
HETATM   14  C   UNK N   1      30.330  23.393  -2.819  0.00  0.00     0.130 C 
BRANCH  14  15
HETATM   15  O   UNK N   1      30.186  23.192  -1.445  0.00  0.00    -0.395 OA
HETATM   16  H   UNK N   1      29.362  23.440  -0.997  0.00  0.00     0.210 HD
ENDBRANCH  14  15
BRANCH  14  17
HETATM   17  C   UNK N   1      30.383  22.065  -3.558  0.00  0.00     0.141 C 
BRANCH  17  18
HETATM   18  C   UNK N   1      31.697  21.393  -3.331  0.00  0.00     0.141 C 
HETATM   19  O   UNK N   1      32.278  21.541  -2.270  0.00  0.00    -0.650 OA
BRANCH  18  20
HETATM   20  O   UNK N   1      32.242  20.628  -4.296  0.00  0.00    -0.776 OA
HETATM   21  H   UNK N   1      32.212  19.795  -4.723  0.00  0.00     0.167 HD
ENDBRANCH  18  20
ENDBRANCH  17  18
ENDBRANCH  14  17
ENDBRANCH  13  14
ENDBRANCH  10  13
ENDBRANCH   9  10
ENDBRANCH   6   8
BRANCH   4  22
HETATM   22  C   UNK N   1      26.821  27.088  -6.163  0.00  0.00     0.028 C 
HETATM   23  C   UNK N   1      25.407  27.358  -5.680  0.00  0.00     0.016 C 
HETATM   24  C   UNK N   1      27.484  28.416  -6.495  0.00  0.00     0.016 C 
ENDBRANCH   4  22
BRANCH   7  25
HETATM   25  C   UNK N   1      28.054  22.523  -8.150  0.00  0.00    -0.024 A 
HETATM   26  C   UNK N   1      29.441  22.289  -8.205  0.00  0.00     0.015 A 
HETATM   27  C   UNK N   1      29.968  21.007  -8.033  0.00  0.00     0.043 A 
HETATM   28  C   UNK N   1      29.115  19.929  -7.799  0.00  0.00     0.116 A 
HETATM   29  F   UNK N   1      29.625  18.685  -7.629  0.00  0.00    -0.206 F 
HETATM   30  C   UNK N   1      27.738  20.135  -7.739  0.00  0.00     0.043 A 
HETATM   31  C   UNK N   1      27.215  21.420  -7.907  0.00  0.00     0.015 A 
ENDBRANCH   7  25
BRANCH   5  32
HETATM   32  C   UNK N   1      27.023  23.564 -10.796  0.00  0.00     0.208 C 
BRANCH  32  33
HETATM   33  O   UNK N   1      25.864  22.793 -10.906  0.00  0.00    -0.391 OA
HETATM   34  C   UNK N   1      26.298  21.594 -11.474  0.00  0.00     0.201 C 
ENDBRANCH  32  33
ENDBRANCH   5  32
BRANCH   3  35
HETATM   35  C   UNK N   1      25.815  26.241 -10.882  0.00  0.00     0.028 C 
HETATM   36  C   UNK N   1      26.653  27.128 -11.788  0.00  0.00     0.016 C 
HETATM   37  C   UNK N   1      24.312  26.427 -10.910  0.00  0.00     0.016 C 
ENDBRANCH   3  35
TORSDOF 14
ENDMDL
MODEL 6
REMARK VINA RESULT:      -6.0      2.740      4.948
REMARK  14 active torsions:
REMARK  status: ('A' for Active; 'I' for Inactive)
REMARK    1  A    between atoms: O_2  and  C_16 
REMARK    2  A    between atoms: C_19  and  O_3 
REMARK    3  A    between atoms: C_26  and  O_4 
REMARK    4  A    between atoms: O_5  and  C_34 
REMARK    5  A    between atoms: C_9  and  C_15 
REMARK    6  A    between atoms: C_10  and  C_14 
REMARK    7  A    between atoms: C_11  and  C_16 
REMARK    8  A    between atoms: C_12  and  C_18 
REMARK    9  A    between atoms: C_13  and  C_17 
REMARK   10  A    between atoms: C_19  and  C_24 
REMARK   11  A    between atoms: C_19  and  C_25 
REMARK   12  A    between atoms: C_24  and  C_26 
REMARK   13  A    between atoms: C_26  and  C_29 
REMARK   14  A    between atoms: C_29  and  C_34 
ROOT
HETATM    1  N   UNK N   1      27.821  18.405   5.067  0.00  0.00    -0.361 N 
ATOM      2  HN  UNK N   1      28.479  19.174   5.192  1.00  0.00     0.165 HD
HETATM    3  C   UNK N   1      28.261  17.144   5.263  0.00  0.00     0.022 A 
HETATM    4  C   UNK N   1      26.546  18.699   4.712  0.00  0.00     0.024 A 
HETATM    5  C   UNK N   1      27.379  16.050   5.111  0.00  0.00     0.000 A 
HETATM    6  C   UNK N   1      25.615  17.656   4.521  0.00  0.00    -0.002 A 
HETATM    7  C   UNK N   1      26.021  16.292   4.712  0.00  0.00    -0.003 A 
ENDROOT
BRANCH   6   8
HETATM    8  C   UNK N   1      24.239  18.060   4.158  0.00  0.00     0.013 C 
HETATM    9  C   UNK N   1      23.223  18.155   5.021  0.00  0.00     0.006 C 
BRANCH   9  10
HETATM   10  C   UNK N   1      21.831  18.494   4.553  0.00  0.00     0.143 C 
BRANCH  10  11
HETATM   11  O   UNK N   1      20.938  18.235   5.591  0.00  0.00    -0.392 OA
HETATM   12  H   UNK N   1      21.174  18.450   6.508  0.00  0.00     0.210 HD
ENDBRANCH  10  11
BRANCH  10  13
HETATM   13  C   UNK N   1      21.443  17.693   3.294  0.00  0.00     0.068 C 
BRANCH  13  14
HETATM   14  C   UNK N   1      20.184  18.161   2.575  0.00  0.00     0.130 C 
BRANCH  14  15
HETATM   15  O   UNK N   1      19.046  17.643   3.196  0.00  0.00    -0.395 OA
HETATM   16  H   UNK N   1      18.563  18.172   3.851  0.00  0.00     0.210 HD
ENDBRANCH  14  15
BRANCH  14  17
HETATM   17  C   UNK N   1      20.114  19.677   2.492  0.00  0.00     0.141 C 
BRANCH  17  18
HETATM   18  C   UNK N   1      20.936  20.177   1.351  0.00  0.00     0.141 C 
HETATM   19  O   UNK N   1      21.908  20.881   1.566  0.00  0.00    -0.650 OA
BRANCH  18  20
HETATM   20  O   UNK N   1      20.606  19.855   0.085  0.00  0.00    -0.776 OA
HETATM   21  H   UNK N   1      20.439  20.192  -0.773  0.00  0.00     0.167 HD
ENDBRANCH  18  20
ENDBRANCH  17  18
ENDBRANCH  14  17
ENDBRANCH  13  14
ENDBRANCH  10  13
ENDBRANCH   9  10
ENDBRANCH   6   8
BRANCH   4  22
HETATM   22  C   UNK N   1      26.135  20.156   4.587  0.00  0.00     0.028 C 
HETATM   23  C   UNK N   1      26.335  20.690   3.179  0.00  0.00     0.016 C 
HETATM   24  C   UNK N   1      26.860  21.070   5.562  0.00  0.00     0.016 C 
ENDBRANCH   4  22
BRANCH   7  25
HETATM   25  C   UNK N   1      25.065  15.141   4.462  0.00  0.00    -0.024 A 
HETATM   26  C   UNK N   1      24.266  14.632   5.503  0.00  0.00     0.015 A 
HETATM   27  C   UNK N   1      23.349  13.604   5.277  0.00  0.00     0.043 A 
HETATM   28  C   UNK N   1      23.208  13.064   3.999  0.00  0.00     0.116 A 
HETATM   29  F   UNK N   1      22.316  12.069   3.777  0.00  0.00    -0.206 F 
HETATM   30  C   UNK N   1      23.987  13.552   2.951  0.00  0.00     0.043 A 
HETATM   31  C   UNK N   1      24.902  14.584   3.180  0.00  0.00     0.015 A 
ENDBRANCH   7  25
BRANCH   5  32
HETATM   32  C   UNK N   1      27.920  14.664   5.342  0.00  0.00     0.208 C 
BRANCH  32  33
HETATM   33  O   UNK N   1      28.396  14.108   4.154  0.00  0.00    -0.391 OA
HETATM   34  C   UNK N   1      29.532  13.393   4.536  0.00  0.00     0.201 C 
ENDBRANCH  32  33
ENDBRANCH   5  32
BRANCH   3  35
HETATM   35  C   UNK N   1      29.713  16.974   5.618  0.00  0.00     0.028 C 
HETATM   36  C   UNK N   1      30.164  17.210   7.051  0.00  0.00     0.016 C 
HETATM   37  C   UNK N   1      30.729  17.189   4.517  0.00  0.00     0.016 C 
ENDBRANCH   3  35
TORSDOF 14
ENDMDL
MODEL 7
REMARK VINA RESULT:      -5.9     10.826     14.282
REMARK  14 active torsions:
REMARK  status: ('A' for Active; 'I' for Inactive)
REMARK    1  A    between atoms: O_2  and  C_16 
REMARK    2  A    between atoms: C_19  and  O_3 
REMARK    3  A    between atoms: C_26  and  O_4 
REMARK    4  A    between atoms: O_5  and  C_34 
REMARK    5  A    between atoms: C_9  and  C_15 
REMARK    6  A    between atoms: C_10  and  C_14 
REMARK    7  A    between atoms: C_11  and  C_16 
REMARK    8  A    between atoms: C_12  and  C_18 
REMARK    9  A    between atoms: C_13  and  C_17 
REMARK   10  A    between atoms: C_19  and  C_24 
REMARK   11  A    between atoms: C_19  and  C_25 
REMARK   12  A    between atoms: C_24  and  C_26 
REMARK   13  A    between atoms: C_26  and  C_29 
REMARK   14  A    between atoms: C_29  and  C_34 
ROOT
HETATM    1  N   UNK N   1      28.536  23.764  -4.997  0.00  0.00    -0.361 N 
ATOM      2  HN  UNK N   1      28.278  24.494  -4.333  1.00  0.00     0.165 HD
HETATM    3  C   UNK N   1      27.705  23.514  -6.031  0.00  0.00     0.022 A 
HETATM    4  C   UNK N   1      29.696  23.092  -4.798  0.00  0.00     0.024 A 
HETATM    5  C   UNK N   1      28.029  22.518  -6.980  0.00  0.00     0.000 A 
HETATM    6  C   UNK N   1      30.073  22.068  -5.692  0.00  0.00    -0.002 A 
HETATM    7  C   UNK N   1      29.232  21.751  -6.812  0.00  0.00    -0.003 A 
ENDROOT
BRANCH   6   8
HETATM    8  C   UNK N   1      31.364  21.397  -5.421  0.00  0.00     0.013 C 
HETATM    9  C   UNK N   1      31.500  20.262  -4.731  0.00  0.00     0.006 C 
BRANCH   9  10
HETATM   10  C   UNK N   1      32.860  19.690  -4.429  0.00  0.00     0.143 C 
BRANCH  10  11
HETATM   11  O   UNK N   1      33.309  20.223  -3.222  0.00  0.00    -0.392 OA
HETATM   12  H   UNK N   1      32.686  20.392  -2.497  0.00  0.00     0.210 HD
ENDBRANCH  10  11
BRANCH  10  13
HETATM   13  C   UNK N   1      33.867  19.988  -5.558  0.00  0.00     0.068 C 
BRANCH  13  14
HETATM   14  C   UNK N   1      35.163  19.188  -5.517  0.00  0.00     0.130 C 
BRANCH  14  15
HETATM   15  O   UNK N   1      35.873  19.469  -4.347  0.00  0.00    -0.395 OA
HETATM   16  H   UNK N   1      35.446  19.947  -3.619  0.00  0.00     0.210 HD
ENDBRANCH  14  15
BRANCH  14  17
HETATM   17  C   UNK N   1      34.908  17.695  -5.651  0.00  0.00     0.141 C 
BRANCH  17  18
HETATM   18  C   UNK N   1      35.243  16.991  -4.378  0.00  0.00     0.141 C 
HETATM   19  O   UNK N   1      34.360  16.737  -3.576  0.00  0.00    -0.650 OA
BRANCH  18  20
HETATM   20  O   UNK N   1      36.516  16.641  -4.111  0.00  0.00    -0.776 OA
HETATM   21  H   UNK N   1      37.210  16.051  -4.329  0.00  0.00     0.167 HD
ENDBRANCH  18  20
ENDBRANCH  17  18
ENDBRANCH  14  17
ENDBRANCH  13  14
ENDBRANCH  10  13
ENDBRANCH   9  10
ENDBRANCH   6   8
BRANCH   4  22
HETATM   22  C   UNK N   1      30.594  23.500  -3.643  0.00  0.00     0.028 C 
HETATM   23  C   UNK N   1      30.091  22.975  -2.310  0.00  0.00     0.016 C 
HETATM   24  C   UNK N   1      30.783  25.005  -3.534  0.00  0.00     0.016 C 
ENDBRANCH   4  22
BRANCH   7  25
HETATM   25  C   UNK N   1      29.575  20.621  -7.763  0.00  0.00    -0.024 A 
HETATM   26  C   UNK N   1      30.291  20.873  -8.948  0.00  0.00     0.015 A 
HETATM   27  C   UNK N   1      30.654  19.835  -9.811  0.00  0.00     0.043 A 
HETATM   28  C   UNK N   1      30.310  18.520  -9.503  0.00  0.00     0.116 A 
HETATM   29  F   UNK N   1      30.664  17.513 -10.336  0.00  0.00    -0.206 F 
HETATM   30  C   UNK N   1      29.602  18.245  -8.334  0.00  0.00     0.043 A 
HETATM   31  C   UNK N   1      29.243  19.285  -7.471  0.00  0.00     0.015 A 
ENDBRANCH   7  25
BRANCH   5  32
HETATM   32  C   UNK N   1      27.068  22.278  -8.115  0.00  0.00     0.208 C 
BRANCH  32  33
HETATM   33  O   UNK N   1      26.206  21.219  -7.827  0.00  0.00    -0.391 OA
HETATM   34  C   UNK N   1      24.935  21.718  -8.116  0.00  0.00     0.201 C 
ENDBRANCH  32  33
ENDBRANCH   5  32
BRANCH   3  35
HETATM   35  C   UNK N   1      26.436  24.319  -6.098  0.00  0.00     0.028 C 
HETATM   36  C   UNK N   1      26.351  25.501  -7.050  0.00  0.00     0.016 C 
HETATM   37  C   UNK N   1      25.562  24.347  -4.862  0.00  0.00     0.016 C 
ENDBRANCH   3  35
TORSDOF 14
ENDMDL
MODEL 8
REMARK VINA RESULT:      -5.9      5.277      8.072
REMARK  14 active torsions:
REMARK  status: ('A' for Active; 'I' for Inactive)
REMARK    1  A    between atoms: O_2  and  C_16 
REMARK    2  A    between atoms: C_19  and  O_3 
REMARK    3  A    between atoms: C_26  and  O_4 
REMARK    4  A    between atoms: O_5  and  C_34 
REMARK    5  A    between atoms: C_9  and  C_15 
REMARK    6  A    between atoms: C_10  and  C_14 
REMARK    7  A    between atoms: C_11  and  C_16 
REMARK    8  A    between atoms: C_12  and  C_18 
REMARK    9  A    between atoms: C_13  and  C_17 
REMARK   10  A    between atoms: C_19  and  C_24 
REMARK   11  A    between atoms: C_19  and  C_25 
REMARK   12  A    between atoms: C_24  and  C_26 
REMARK   13  A    between atoms: C_26  and  C_29 
REMARK   14  A    between atoms: C_29  and  C_34 
ROOT
HETATM    1  N   UNK N   1      32.279  16.441   9.311  0.00  0.00    -0.361 N 
ATOM      2  HN  UNK N   1      32.202  16.835  10.249  1.00  0.00     0.165 HD
HETATM    3  C   UNK N   1      33.395  15.751   8.995  0.00  0.00     0.022 A 
HETATM    4  C   UNK N   1      31.255  16.635   8.445  0.00  0.00     0.024 A 
HETATM    5  C   UNK N   1      33.537  15.179   7.709  0.00  0.00     0.000 A 
HETATM    6  C   UNK N   1      31.337  16.111   7.137  0.00  0.00    -0.002 A 
HETATM    7  C   UNK N   1      32.499  15.369   6.736  0.00  0.00    -0.003 A 
ENDROOT
BRANCH   6   8
HETATM    8  C   UNK N   1      30.169  16.345   6.259  0.00  0.00     0.013 C 
HETATM    9  C   UNK N   1      30.104  17.289   5.316  0.00  0.00     0.006 C 
BRANCH   9  10
HETATM   10  C   UNK N   1      28.845  17.513   4.521  0.00  0.00     0.143 C 
BRANCH  10  11
HETATM   11  O   UNK N   1      29.135  17.338   3.169  0.00  0.00    -0.392 OA
HETATM   12  H   UNK N   1      29.558  16.521   2.859  0.00  0.00     0.210 HD
ENDBRANCH  10  11
BRANCH  10  13
HETATM   13  C   UNK N   1      28.256  18.916   4.770  0.00  0.00     0.068 C 
BRANCH  13  14
HETATM   14  C   UNK N   1      27.022  18.967   5.662  0.00  0.00     0.130 C 
BRANCH  14  15
HETATM   15  O   UNK N   1      27.373  18.743   6.994  0.00  0.00    -0.395 OA
HETATM   16  H   UNK N   1      27.412  17.839   7.345  0.00  0.00     0.210 HD
ENDBRANCH  14  15
BRANCH  14  17
HETATM   17  C   UNK N   1      26.273  20.282   5.512  0.00  0.00     0.141 C 
BRANCH  17  18
HETATM   18  C   UNK N   1      26.692  21.246   6.572  0.00  0.00     0.141 C 
HETATM   19  O   UNK N   1      25.987  21.413   7.552  0.00  0.00    -0.650 OA
BRANCH  18  20
HETATM   20  O   UNK N   1      27.844  21.933   6.446  0.00  0.00    -0.776 OA
HETATM   21  H   UNK N   1      28.573  22.299   6.907  0.00  0.00     0.167 HD
ENDBRANCH  18  20
ENDBRANCH  17  18
ENDBRANCH  14  17
ENDBRANCH  13  14
ENDBRANCH  10  13
ENDBRANCH   9  10
ENDBRANCH   6   8
BRANCH   4  22
HETATM   22  C   UNK N   1      30.012  17.365   8.925  0.00  0.00     0.028 C 
HETATM   23  C   UNK N   1      30.266  18.846   9.148  0.00  0.00     0.016 C 
HETATM   24  C   UNK N   1      29.425  16.774  10.198  0.00  0.00     0.016 C 
ENDBRANCH   4  22
BRANCH   7  25
HETATM   25  C   UNK N   1      32.649  14.839   5.323  0.00  0.00    -0.024 A 
HETATM   26  C   UNK N   1      33.301  15.602   4.336  0.00  0.00     0.015 A 
HETATM   27  C   UNK N   1      33.488  15.109   3.042  0.00  0.00     0.043 A 
HETATM   28  C   UNK N   1      33.027  13.835   2.710  0.00  0.00     0.116 A 
HETATM   29  F   UNK N   1      33.211  13.353   1.457  0.00  0.00    -0.206 F 
HETATM   30  C   UNK N   1      32.380  13.059   3.670  0.00  0.00     0.043 A 
HETATM   31  C   UNK N   1      32.198  13.556   4.965  0.00  0.00     0.015 A 
ENDBRANCH   7  25
BRANCH   5  32
HETATM   32  C   UNK N   1      34.802  14.419   7.406  0.00  0.00     0.208 C 
BRANCH  32  33
HETATM   33  O   UNK N   1      34.653  13.062   7.697  0.00  0.00    -0.391 OA
HETATM   34  C   UNK N   1      35.922  12.654   8.109  0.00  0.00     0.201 C 
ENDBRANCH  32  33
ENDBRANCH   5  32
BRANCH   3  35
HETATM   35  C   UNK N   1      34.461  15.651  10.051  0.00  0.00     0.028 C 
HETATM   36  C   UNK N   1      34.332  14.604  11.145  0.00  0.00     0.016 C 
HETATM   37  C   UNK N   1      35.248  16.906  10.368  0.00  0.00     0.016 C 
ENDBRANCH   3  35
TORSDOF 14
ENDMDL
MODEL 9
REMARK VINA RESULT:      -5.9     11.525     13.293
REMARK  14 active torsions:
REMARK  status: ('A' for Active; 'I' for Inactive)
REMARK    1  A    between atoms: O_2  and  C_16 
REMARK    2  A    between atoms: C_19  and  O_3 
REMARK    3  A    between atoms: C_26  and  O_4 
REMARK    4  A    between atoms: O_5  and  C_34 
REMARK    5  A    between atoms: C_9  and  C_15 
REMARK    6  A    between atoms: C_10  and  C_14 
REMARK    7  A    between atoms: C_11  and  C_16 
REMARK    8  A    between atoms: C_12  and  C_18 
REMARK    9  A    between atoms: C_13  and  C_17 
REMARK   10  A    between atoms: C_19  and  C_24 
REMARK   11  A    between atoms: C_19  and  C_25 
REMARK   12  A    between atoms: C_24  and  C_26 
REMARK   13  A    between atoms: C_26  and  C_29 
REMARK   14  A    between atoms: C_29  and  C_34 
ROOT
HETATM    1  N   UNK N   1      30.454  21.289  -6.813  0.00  0.00    -0.361 N 
ATOM      2  HN  UNK N   1      31.188  20.586  -6.905  1.00  0.00     0.165 HD
HETATM    3  C   UNK N   1      29.305  21.110  -7.499  0.00  0.00     0.022 A 
HETATM    4  C   UNK N   1      30.680  22.355  -6.007  0.00  0.00     0.024 A 
HETATM    5  C   UNK N   1      28.257  22.054  -7.391  0.00  0.00     0.000 A 
HETATM    6  C   UNK N   1      29.688  23.348  -5.868  0.00  0.00    -0.002 A 
HETATM    7  C   UNK N   1      28.443  23.220  -6.572  0.00  0.00    -0.003 A 
ENDROOT
BRANCH   6   8
HETATM    8  C   UNK N   1      30.000  24.468  -4.953  0.00  0.00     0.013 C 
HETATM    9  C   UNK N   1      30.454  25.663  -5.341  0.00  0.00     0.006 C 
BRANCH   9  10
HETATM   10  C   UNK N   1      30.826  26.721  -4.335  0.00  0.00     0.143 C 
BRANCH  10  11
HETATM   11  O   UNK N   1      30.828  26.146  -3.065  0.00  0.00    -0.392 OA
HETATM   12  H   UNK N   1      31.572  25.594  -2.777  0.00  0.00     0.210 HD
ENDBRANCH  10  11
BRANCH  10  13
HETATM   13  C   UNK N   1      29.856  27.919  -4.384  0.00  0.00     0.068 C 
BRANCH  13  14
HETATM   14  C   UNK N   1      28.378  27.568  -4.497  0.00  0.00     0.130 C 
BRANCH  14  15
HETATM   15  O   UNK N   1      27.978  26.783  -3.415  0.00  0.00    -0.395 OA
HETATM   16  H   UNK N   1      27.534  27.188  -2.653  0.00  0.00     0.210 HD
ENDBRANCH  14  15
BRANCH  14  17
HETATM   17  C   UNK N   1      27.512  28.812  -4.614  0.00  0.00     0.141 C 
BRANCH  17  18
HETATM   18  C   UNK N   1      26.669  28.978  -3.393  0.00  0.00     0.141 C 
HETATM   19  O   UNK N   1      27.114  29.570  -2.425  0.00  0.00    -0.650 OA
BRANCH  18  20
HETATM   20  O   UNK N   1      25.420  28.473  -3.358  0.00  0.00    -0.776 OA
HETATM   21  H   UNK N   1      24.691  28.193  -3.875  0.00  0.00     0.167 HD
ENDBRANCH  18  20
ENDBRANCH  17  18
ENDBRANCH  14  17
ENDBRANCH  13  14
ENDBRANCH  10  13
ENDBRANCH   9  10
ENDBRANCH   6   8
BRANCH   4  22
HETATM   22  C   UNK N   1      31.979  22.423  -5.224  0.00  0.00     0.028 C 
HETATM   23  C   UNK N   1      33.189  22.573  -6.130  0.00  0.00     0.016 C 
HETATM   24  C   UNK N   1      32.196  21.223  -4.316  0.00  0.00     0.016 C 
ENDBRANCH   4  22
BRANCH   7  25
HETATM   25  C   UNK N   1      27.375  24.294  -6.493  0.00  0.00    -0.024 A 
HETATM   26  C   UNK N   1      26.434  24.294  -5.446  0.00  0.00     0.015 A 
HETATM   27  C   UNK N   1      25.474  25.303  -5.334  0.00  0.00     0.043 A 
HETATM   28  C   UNK N   1      25.438  26.337  -6.268  0.00  0.00     0.116 A 
HETATM   29  F   UNK N   1      24.510  27.317  -6.159  0.00  0.00    -0.206 F 
HETATM   30  C   UNK N   1      26.360  26.360  -7.314  0.00  0.00     0.043 A 
HETATM   31  C   UNK N   1      27.322  25.350  -7.420  0.00  0.00     0.015 A 
ENDBRANCH   7  25
BRANCH   5  32
HETATM   32  C   UNK N   1      26.996  21.808  -8.176  0.00  0.00     0.208 C 
BRANCH  32  33
HETATM   33  O   UNK N   1      25.948  21.432  -7.335  0.00  0.00    -0.391 OA
HETATM   34  C   UNK N   1      24.795  21.749  -8.055  0.00  0.00     0.201 C 
ENDBRANCH  32  33
ENDBRANCH   5  32
BRANCH   3  35
HETATM   35  C   UNK N   1      29.216  19.895  -8.381  0.00  0.00     0.028 C 
HETATM   36  C   UNK N   1      29.253  18.512  -7.752  0.00  0.00     0.016 C 
HETATM   37  C   UNK N   1      29.706  20.033  -9.807  0.00  0.00     0.016 C 
ENDBRANCH   3  35
TORSDOF 14
ENDMDL
