MODEL 1
REMARK VINA RESULT:      -5.2      0.000      0.000
REMARK  2 active torsions:
REMARK  status: ('A' for Active; 'I' for Inactive)
REMARK    1  A    between atoms: C_6  and  C_7 
REMARK    2  A    between atoms: C_6  and  C_8 
ROOT
HETATM    1  O   UNK N   1      34.502  11.686  13.590  0.00  0.00    -0.271 OA
HETATM    2  O   UNK N   1      37.422  14.567  15.890  0.00  0.00    -0.272 OA
HETATM    3  O   UNK N   1      36.136  15.427  11.734  0.00  0.00    -0.246 OA
HETATM    4  N   UNK N   1      35.316  13.537  12.625  0.00  0.00    -0.273 N 
HETATM    5  N   UNK N   1      36.768  14.982  13.814  0.00  0.00    -0.278 N 
HETATM    6  C   UNK N   1      35.910  12.958  15.014  0.00  0.00     0.122 A 
HETATM    7  C   UNK N   1      35.200  12.688  13.692  0.00  0.00     0.245 A 
HETATM    8  C   UNK N   1      36.751  14.219  14.930  0.00  0.00     0.243 A 
HETATM    9  C   UNK N   1      36.073  14.671  12.695  0.00  0.00     0.331 A 
HETATM   10  C   UNK N   1      34.615  13.231  11.395  0.00  0.00     0.164 C 
HETATM   11  H   UNK N   1      37.314  15.802  13.815  0.00  0.00     0.173 HD
ENDROOT
BRANCH   6  12
HETATM   12  C   UNK N   1      34.835  13.140  16.106  0.00  0.00     0.024 C 
HETATM   13  C   UNK N   1      35.143  12.405  17.407  0.00  0.00     0.007 C 
ENDBRANCH   6  12
BRANCH   6  14
HETATM   14  C   UNK N   1      36.839  11.773  15.349  0.00  0.00     0.024 C 
HETATM   15  C   UNK N   1      37.880  11.484  14.271  0.00  0.00     0.007 C 
ENDBRANCH   6  14
TORSDOF 2
ENDMDL
MODEL 2
REMARK VINA RESULT:      -5.1     20.123     21.677
REMARK  2 active torsions:
REMARK  status: ('A' for Active; 'I' for Inactive)
REMARK    1  A    between atoms: C_6  and  C_7 
REMARK    2  A    between atoms: C_6  and  C_8 
ROOT
HETATM    1  O   UNK N   1      29.435  22.943  -5.990  0.00  0.00    -0.271 OA
HETATM    2  O   UNK N   1      30.464  22.905  -1.401  0.00  0.00    -0.272 OA
HETATM    3  O   UNK N   1      26.523  24.313  -2.867  0.00  0.00    -0.246 OA
HETATM    4  N   UNK N   1      27.963  23.654  -4.457  0.00  0.00    -0.273 N 
HETATM    5  N   UNK N   1      28.499  23.604  -2.151  0.00  0.00    -0.278 N 
HETATM    6  C   UNK N   1      30.223  22.760  -3.760  0.00  0.00     0.122 A 
HETATM    7  C   UNK N   1      29.178  23.130  -4.806  0.00  0.00     0.245 A 
HETATM    8  C   UNK N   1      29.735  23.099  -2.363  0.00  0.00     0.243 A 
HETATM    9  C   UNK N   1      27.628  23.869  -3.151  0.00  0.00     0.331 A 
HETATM   10  C   UNK N   1      27.008  23.983  -5.495  0.00  0.00     0.164 C 
HETATM   11  H   UNK N   1      28.220  23.789  -1.224  0.00  0.00     0.173 HD
ENDROOT
BRANCH   6  12
HETATM   12  C   UNK N   1      30.476  21.241  -3.851  0.00  0.00     0.024 C 
HETATM   13  C   UNK N   1      31.927  20.870  -4.143  0.00  0.00     0.007 C 
ENDBRANCH   6  12
BRANCH   6  14
HETATM   14  C   UNK N   1      31.521  23.550  -4.029  0.00  0.00     0.024 C 
HETATM   15  C   UNK N   1      31.328  25.064  -4.036  0.00  0.00     0.007 C 
ENDBRANCH   6  14
TORSDOF 2
ENDMDL
MODEL 3
REMARK VINA RESULT:      -5.0     23.232     25.369
REMARK  2 active torsions:
REMARK  status: ('A' for Active; 'I' for Inactive)
REMARK    1  A    between atoms: C_6  and  C_7 
REMARK    2  A    between atoms: C_6  and  C_8 
ROOT
HETATM    1  O   UNK N   1      28.488  26.621  -4.005  0.00  0.00    -0.271 OA
HETATM    2  O   UNK N   1      24.254  27.394  -5.900  0.00  0.00    -0.272 OA
HETATM    3  O   UNK N   1      25.892  23.292  -5.516  0.00  0.00    -0.246 OA
HETATM    4  N   UNK N   1      27.225  24.935  -4.769  0.00  0.00    -0.273 N 
HETATM    5  N   UNK N   1      25.087  25.351  -5.699  0.00  0.00    -0.278 N 
HETATM    6  C   UNK N   1      26.389  27.320  -4.860  0.00  0.00     0.122 A 
HETATM    7  C   UNK N   1      27.435  26.264  -4.521  0.00  0.00     0.245 A 
HETATM    8  C   UNK N   1      25.178  26.688  -5.523  0.00  0.00     0.243 A 
HETATM    9  C   UNK N   1      26.064  24.490  -5.331  0.00  0.00     0.331 A 
HETATM   10  C   UNK N   1      28.255  23.977  -4.421  0.00  0.00     0.164 C 
HETATM   11  H   UNK N   1      24.273  24.986  -6.115  0.00  0.00     0.173 HD
ENDROOT
BRANCH   6  12
HETATM   12  C   UNK N   1      25.949  27.999  -3.547  0.00  0.00     0.024 C 
HETATM   13  C   UNK N   1      26.378  29.457  -3.428  0.00  0.00     0.007 C 
ENDBRANCH   6  12
BRANCH   6  14
HETATM   14  C   UNK N   1      26.996  28.351  -5.835  0.00  0.00     0.024 C 
HETATM   15  C   UNK N   1      27.510  27.738  -7.135  0.00  0.00     0.007 C 
ENDBRANCH   6  14
TORSDOF 2
ENDMDL
MODEL 4
REMARK VINA RESULT:      -4.9      4.972      7.909
REMARK  2 active torsions:
REMARK  status: ('A' for Active; 'I' for Inactive)
REMARK    1  A    between atoms: C_6  and  C_7 
REMARK    2  A    between atoms: C_6  and  C_8 
ROOT
HETATM    1  O   UNK N   1      32.783  14.295   8.831  0.00  0.00    -0.271 OA
HETATM    2  O   UNK N   1      34.098  18.071   6.354  0.00  0.00    -0.272 OA
HETATM    3  O   UNK N   1      35.581  17.388  10.477  0.00  0.00    -0.246 OA
HETATM    4  N   UNK N   1      34.167  15.833   9.692  0.00  0.00    -0.273 N 
HETATM    5  N   UNK N   1      34.831  17.714   8.414  0.00  0.00    -0.278 N 
HETATM    6  C   UNK N   1      33.298  16.057   7.328  0.00  0.00     0.122 A 
HETATM    7  C   UNK N   1      33.400  15.342   8.670  0.00  0.00     0.245 A 
HETATM    8  C   UNK N   1      34.099  17.347   7.338  0.00  0.00     0.243 A 
HETATM    9  C   UNK N   1      34.882  16.988   9.555  0.00  0.00     0.331 A 
HETATM   10  C   UNK N   1      34.230  15.107  10.944  0.00  0.00     0.164 C 
HETATM   11  H   UNK N   1      35.350  18.549   8.366  0.00  0.00     0.173 HD
ENDROOT
BRANCH   6  12
HETATM   12  C   UNK N   1      33.865  15.120   6.241  0.00  0.00     0.024 C 
HETATM   13  C   UNK N   1      35.351  14.817   6.397  0.00  0.00     0.007 C 
ENDBRANCH   6  12
BRANCH   6  14
HETATM   14  C   UNK N   1      31.822  16.402   7.041  0.00  0.00     0.024 C 
HETATM   15  C   UNK N   1      31.187  17.309   8.092  0.00  0.00     0.007 C 
ENDBRANCH   6  14
TORSDOF 2
ENDMDL
MODEL 5
REMARK VINA RESULT:      -4.9      8.544      9.988
REMARK  2 active torsions:
REMARK  status: ('A' for Active; 'I' for Inactive)
REMARK    1  A    between atoms: C_6  and  C_7 
REMARK    2  A    between atoms: C_6  and  C_8 
ROOT
HETATM    1  O   UNK N   1      30.215  16.242   5.187  0.00  0.00    -0.271 OA
HETATM    2  O   UNK N   1      34.466  17.719   6.552  0.00  0.00    -0.272 OA
HETATM    3  O   UNK N   1      30.899  18.269   9.128  0.00  0.00    -0.246 OA
HETATM    4  N   UNK N   1      30.518  17.270   7.155  0.00  0.00    -0.273 N 
HETATM    5  N   UNK N   1      32.674  17.984   7.827  0.00  0.00    -0.278 N 
HETATM    6  C   UNK N   1      32.474  16.827   5.615  0.00  0.00     0.122 A 
HETATM    7  C   UNK N   1      30.994  16.766   5.975  0.00  0.00     0.245 A 
HETATM    8  C   UNK N   1      33.266  17.543   6.695  0.00  0.00     0.243 A 
HETATM    9  C   UNK N   1      31.349  17.851   8.069  0.00  0.00     0.331 A 
HETATM   10  C   UNK N   1      29.102  17.179   7.446  0.00  0.00     0.164 C 
HETATM   11  H   UNK N   1      33.233  18.424   8.508  0.00  0.00     0.173 HD
ENDROOT
BRANCH   6  12
HETATM   12  C   UNK N   1      32.996  15.381   5.480  0.00  0.00     0.024 C 
HETATM   13  C   UNK N   1      32.849  14.549   6.750  0.00  0.00     0.007 C 
ENDBRANCH   6  12
BRANCH   6  14
HETATM   14  C   UNK N   1      32.648  17.599   4.290  0.00  0.00     0.024 C 
HETATM   15  C   UNK N   1      32.956  16.702   3.093  0.00  0.00     0.007 C 
ENDBRANCH   6  14
TORSDOF 2
ENDMDL
MODEL 6
REMARK VINA RESULT:      -4.7      2.778      4.566
REMARK  2 active torsions:
REMARK  status: ('A' for Active; 'I' for Inactive)
REMARK    1  A    between atoms: C_6  and  C_7 
REMARK    2  A    between atoms: C_6  and  C_8 
ROOT
HETATM    1  O   UNK N   1      35.162   9.278  16.407  0.00  0.00    -0.271 OA
HETATM    2  O   UNK N   1      34.704  13.431  14.248  0.00  0.00    -0.272 OA
HETATM    3  O   UNK N   1      35.239  13.164  18.641  0.00  0.00    -0.246 OA
HETATM    4  N   UNK N   1      35.184  11.201  17.557  0.00  0.00    -0.273 N 
HETATM    5  N   UNK N   1      34.973  13.280  16.442  0.00  0.00    -0.278 N 
HETATM    6  C   UNK N   1      34.956  11.205  15.039  0.00  0.00     0.122 A 
HETATM    7  C   UNK N   1      35.105  10.502  16.383  0.00  0.00     0.245 A 
HETATM    8  C   UNK N   1      34.866  12.710  15.221  0.00  0.00     0.243 A 
HETATM    9  C   UNK N   1      35.137  12.565  17.579  0.00  0.00     0.331 A 
HETATM   10  C   UNK N   1      35.330  10.478  18.804  0.00  0.00     0.164 C 
HETATM   11  H   UNK N   1      34.929  14.261  16.507  0.00  0.00     0.173 HD
ENDROOT
BRANCH   6  12
HETATM   12  C   UNK N   1      36.197  10.874  14.184  0.00  0.00     0.024 C 
HETATM   13  C   UNK N   1      37.506  11.403  14.760  0.00  0.00     0.007 C 
ENDBRANCH   6  12
BRANCH   6  14
HETATM   14  C   UNK N   1      33.666  10.719  14.345  0.00  0.00     0.024 C 
HETATM   15  C   UNK N   1      33.878  10.267  12.902  0.00  0.00     0.007 C 
ENDBRANCH   6  14
TORSDOF 2
ENDMDL
MODEL 7
REMARK VINA RESULT:      -4.5     24.136     25.467
REMARK  2 active torsions:
REMARK  status: ('A' for Active; 'I' for Inactive)
REMARK    1  A    between atoms: C_6  and  C_7 
REMARK    2  A    between atoms: C_6  and  C_8 
ROOT
HETATM    1  O   UNK N   1      28.856  26.609  -4.061  0.00  0.00    -0.271 OA
HETATM    2  O   UNK N   1      24.403  27.140  -5.476  0.00  0.00    -0.272 OA
HETATM    3  O   UNK N   1      26.479  30.303  -3.164  0.00  0.00    -0.246 OA
HETATM    4  N   UNK N   1      27.690  28.460  -3.577  0.00  0.00    -0.273 N 
HETATM    5  N   UNK N   1      25.456  28.711  -4.321  0.00  0.00    -0.278 N 
HETATM    6  C   UNK N   1      26.656  26.604  -4.948  0.00  0.00     0.122 A 
HETATM    7  C   UNK N   1      27.804  27.228  -4.162  0.00  0.00     0.245 A 
HETATM    8  C   UNK N   1      25.433  27.502  -4.927  0.00  0.00     0.243 A 
HETATM    9  C   UNK N   1      26.541  29.192  -3.673  0.00  0.00     0.331 A 
HETATM   10  C   UNK N   1      28.816  29.005  -2.846  0.00  0.00     0.164 C 
HETATM   11  H   UNK N   1      24.643  29.266  -4.352  0.00  0.00     0.173 HD
ENDROOT
BRANCH   6  12
HETATM   12  C   UNK N   1      27.121  26.417  -6.408  0.00  0.00     0.024 C 
HETATM   13  C   UNK N   1      27.497  27.718  -7.110  0.00  0.00     0.007 C 
ENDBRANCH   6  12
BRANCH   6  14
HETATM   14  C   UNK N   1      26.278  25.249  -4.315  0.00  0.00     0.024 C 
HETATM   15  C   UNK N   1      26.210  24.100  -5.318  0.00  0.00     0.007 C 
ENDBRANCH   6  14
TORSDOF 2
ENDMDL
MODEL 8
REMARK VINA RESULT:      -4.5     21.155     23.830
REMARK  2 active torsions:
REMARK  status: ('A' for Active; 'I' for Inactive)
REMARK    1  A    between atoms: C_6  and  C_7 
REMARK    2  A    between atoms: C_6  and  C_8 
ROOT
HETATM    1  O   UNK N   1      26.671  24.333  -2.594  0.00  0.00    -0.271 OA
HETATM    2  O   UNK N   1      27.851  26.337  -6.681  0.00  0.00    -0.272 OA
HETATM    3  O   UNK N   1      30.606  23.555  -4.599  0.00  0.00    -0.246 OA
HETATM    4  N   UNK N   1      28.655  23.938  -3.558  0.00  0.00    -0.273 N 
HETATM    5  N   UNK N   1      29.215  24.943  -5.628  0.00  0.00    -0.278 N 
HETATM    6  C   UNK N   1      26.958  25.449  -4.667  0.00  0.00     0.122 A 
HETATM    7  C   UNK N   1      27.425  24.537  -3.538  0.00  0.00     0.245 A 
HETATM    8  C   UNK N   1      28.040  25.606  -5.720  0.00  0.00     0.243 A 
HETATM    9  C   UNK N   1      29.523  24.126  -4.595  0.00  0.00     0.331 A 
HETATM   10  C   UNK N   1      29.043  23.078  -2.459  0.00  0.00     0.164 C 
HETATM   11  H   UNK N   1      29.878  25.062  -6.347  0.00  0.00     0.173 HD
ENDROOT
BRANCH   6  12
HETATM   12  C   UNK N   1      25.712  24.810  -5.316  0.00  0.00     0.024 C 
HETATM   13  C   UNK N   1      25.972  23.446  -5.947  0.00  0.00     0.007 C 
ENDBRANCH   6  12
BRANCH   6  14
HETATM   14  C   UNK N   1      26.625  26.844  -4.097  0.00  0.00     0.024 C 
HETATM   15  C   UNK N   1      25.361  27.463  -4.688  0.00  0.00     0.007 C 
ENDBRANCH   6  14
TORSDOF 2
ENDMDL
MODEL 9
REMARK VINA RESULT:      -4.5      5.117      7.663
REMARK  2 active torsions:
REMARK  status: ('A' for Active; 'I' for Inactive)
REMARK    1  A    between atoms: C_6  and  C_7 
REMARK    2  A    between atoms: C_6  and  C_8 
ROOT
HETATM    1  O   UNK N   1      34.744  17.848   8.410  0.00  0.00    -0.271 OA
HETATM    2  O   UNK N   1      31.952  14.182   7.474  0.00  0.00    -0.272 OA
HETATM    3  O   UNK N   1      34.063  14.538  11.356  0.00  0.00    -0.246 OA
HETATM    4  N   UNK N   1      34.442  16.200   9.898  0.00  0.00    -0.273 N 
HETATM    5  N   UNK N   1      33.013  14.376   9.409  0.00  0.00    -0.278 N 
HETATM    6  C   UNK N   1      33.247  16.164   7.670  0.00  0.00     0.122 A 
HETATM    7  C   UNK N   1      34.196  16.788   8.687  0.00  0.00     0.245 A 
HETATM    8  C   UNK N   1      32.700  14.842   8.179  0.00  0.00     0.243 A 
HETATM    9  C   UNK N   1      33.846  15.025  10.255  0.00  0.00     0.331 A 
HETATM   10  C   UNK N   1      35.351  16.842  10.826  0.00  0.00     0.164 C 
HETATM   11  H   UNK N   1      32.617  13.524   9.702  0.00  0.00     0.173 HD
ENDROOT
BRANCH   6  12
HETATM   12  C   UNK N   1      32.075  17.141   7.445  0.00  0.00     0.024 C 
HETATM   13  C   UNK N   1      31.249  17.419   8.696  0.00  0.00     0.007 C 
ENDBRANCH   6  12
BRANCH   6  14
HETATM   14  C   UNK N   1      34.006  15.903   6.352  0.00  0.00     0.024 C 
HETATM   15  C   UNK N   1      35.237  15.014   6.517  0.00  0.00     0.007 C 
ENDBRANCH   6  14
TORSDOF 2
ENDMDL
