MODEL 1
REMARK VINA RESULT:      -6.4      0.000      0.000
REMARK  6 active torsions:
REMARK  status: ('A' for Active; 'I' for Inactive)
REMARK    1  A    between atoms: O_1  and  C_11 
REMARK    2  A    between atoms: O_1  and  C_13 
REMARK    3  A    between atoms: N_3  and  C_4 
REMARK    4  A    between atoms: N_3  and  C_10 
REMARK    5  A    between atoms: C_10  and  C_11 
REMARK    6  A    between atoms: C_13  and  C_14 
ROOT
HETATM    1  C   UNK N   1      29.669  24.227  -4.316  0.00  0.00     0.145 C 
HETATM    2  C   UNK N   1      30.337  25.448  -3.714  0.00  0.00     0.042 C 
ENDROOT
BRANCH   1   3
HETATM    3  O   UNK N   1      29.362  23.326  -3.326  0.00  0.00    -0.311 OA
BRANCH   3   4
HETATM    4  C   UNK N   1      30.298  22.706  -2.576  0.00  0.00     0.293 C 
HETATM    5  O   UNK N   1      30.401  22.954  -1.380  0.00  0.00    -0.259 OA
BRANCH   4   6
HETATM    6  C   UNK N   1      31.223  21.757  -3.222  0.00  0.00     0.039 A 
HETATM    7  C   UNK N   1      32.564  21.711  -2.811  0.00  0.00     0.017 A 
HETATM    8  C   UNK N   1      33.441  20.777  -3.366  0.00  0.00     0.001 A 
HETATM    9  C   UNK N   1      32.984  19.883  -4.338  0.00  0.00     0.000 A 
HETATM   10  C   UNK N   1      31.651  19.926  -4.756  0.00  0.00     0.001 A 
HETATM   11  C   UNK N   1      30.770  20.856  -4.196  0.00  0.00     0.017 A 
ENDBRANCH   4   6
ENDBRANCH   3   4
ENDBRANCH   1   3
BRANCH   1  12
HETATM   12  C   UNK N   1      28.348  24.610  -4.961  0.00  0.00     0.146 C 
BRANCH  12  13
HETATM   13  N   UNK N   1      27.201  24.172  -4.181  0.00  0.00    -0.415 N 
HETATM   14  H   UNK N   1      27.094  23.277  -3.703  0.00  0.00     0.153 HD
BRANCH  13  15
HETATM   15  C   UNK N   1      26.234  25.261  -4.215  0.00  0.00     0.076 C 
HETATM   16  C   UNK N   1      25.912  25.671  -5.657  0.00  0.00     0.024 C 
HETATM   17  C   UNK N   1      24.863  26.780  -5.655  0.00  0.00     0.002 C 
HETATM   18  C   UNK N   1      25.378  27.986  -4.874  0.00  0.00     0.000 C 
HETATM   19  C   UNK N   1      25.736  27.582  -3.444  0.00  0.00     0.002 C 
HETATM   20  C   UNK N   1      26.774  26.462  -3.450  0.00  0.00     0.024 C 
ENDBRANCH  13  15
ENDBRANCH  12  13
ENDBRANCH   1  12
TORSDOF 6
ENDMDL
MODEL 2
REMARK VINA RESULT:      -6.2      1.407      7.385
REMARK  6 active torsions:
REMARK  status: ('A' for Active; 'I' for Inactive)
REMARK    1  A    between atoms: O_1  and  C_11 
REMARK    2  A    between atoms: O_1  and  C_13 
REMARK    3  A    between atoms: N_3  and  C_4 
REMARK    4  A    between atoms: N_3  and  C_10 
REMARK    5  A    between atoms: C_10  and  C_11 
REMARK    6  A    between atoms: C_13  and  C_14 
ROOT
HETATM    1  C   UNK N   1      29.701  24.163  -3.053  0.00  0.00     0.145 C 
HETATM    2  C   UNK N   1      30.714  25.025  -3.783  0.00  0.00     0.042 C 
ENDROOT
BRANCH   1   3
HETATM    3  O   UNK N   1      28.560  24.044  -3.807  0.00  0.00    -0.311 OA
BRANCH   3   4
HETATM    4  C   UNK N   1      27.325  24.302  -3.325  0.00  0.00     0.293 C 
HETATM    5  O   UNK N   1      26.866  23.638  -2.402  0.00  0.00    -0.259 OA
BRANCH   4   6
HETATM    6  C   UNK N   1      26.517  25.363  -3.953  0.00  0.00     0.039 A 
HETATM    7  C   UNK N   1      26.424  26.619  -3.332  0.00  0.00     0.017 A 
HETATM    8  C   UNK N   1      25.716  27.657  -3.942  0.00  0.00     0.001 A 
HETATM    9  C   UNK N   1      25.094  27.446  -5.175  0.00  0.00     0.000 A 
HETATM   10  C   UNK N   1      25.178  26.197  -5.797  0.00  0.00     0.001 A 
HETATM   11  C   UNK N   1      25.893  25.159  -5.191  0.00  0.00     0.017 A 
ENDBRANCH   4   6
ENDBRANCH   3   4
ENDBRANCH   1   3
BRANCH   1  12
HETATM   12  C   UNK N   1      30.237  22.752  -2.875  0.00  0.00     0.146 C 
BRANCH  12  13
HETATM   13  N   UNK N   1      30.262  22.005  -4.123  0.00  0.00    -0.415 N 
HETATM   14  H   UNK N   1      29.475  21.839  -4.750  0.00  0.00     0.153 HD
BRANCH  13  15
HETATM   15  C   UNK N   1      31.631  21.540  -4.303  0.00  0.00     0.076 C 
HETATM   16  C   UNK N   1      31.666  20.175  -5.001  0.00  0.00     0.024 C 
HETATM   17  C   UNK N   1      33.113  19.743  -5.213  0.00  0.00     0.002 C 
HETATM   18  C   UNK N   1      33.838  19.660  -3.872  0.00  0.00     0.000 C 
HETATM   19  C   UNK N   1      33.780  21.006  -3.150  0.00  0.00     0.002 C 
HETATM   20  C   UNK N   1      32.330  21.443  -2.952  0.00  0.00     0.024 C 
ENDBRANCH  13  15
ENDBRANCH  12  13
ENDBRANCH   1  12
TORSDOF 6
ENDMDL
MODEL 3
REMARK VINA RESULT:      -6.2     19.537     22.058
REMARK  6 active torsions:
REMARK  status: ('A' for Active; 'I' for Inactive)
REMARK    1  A    between atoms: O_1  and  C_11 
REMARK    2  A    between atoms: O_1  and  C_13 
REMARK    3  A    between atoms: N_3  and  C_4 
REMARK    4  A    between atoms: N_3  and  C_10 
REMARK    5  A    between atoms: C_10  and  C_11 
REMARK    6  A    between atoms: C_13  and  C_14 
ROOT
HETATM    1  C   UNK N   1      36.383  13.586  14.317  0.00  0.00     0.145 C 
HETATM    2  C   UNK N   1      36.936  14.844  14.959  0.00  0.00     0.042 C 
ENDROOT
BRANCH   1   3
HETATM    3  O   UNK N   1      35.068  13.419  14.674  0.00  0.00    -0.311 OA
BRANCH   3   4
HETATM    4  C   UNK N   1      34.610  12.326  15.322  0.00  0.00     0.293 C 
HETATM    5  O   UNK N   1      33.939  11.487  14.729  0.00  0.00    -0.259 OA
BRANCH   4   6
HETATM    6  C   UNK N   1      34.889  12.175  16.761  0.00  0.00     0.039 A 
HETATM    7  C   UNK N   1      35.216  10.909  17.272  0.00  0.00     0.017 A 
HETATM    8  C   UNK N   1      35.546  10.756  18.621  0.00  0.00     0.001 A 
HETATM    9  C   UNK N   1      35.548  11.866  19.468  0.00  0.00     0.000 A 
HETATM   10  C   UNK N   1      35.219  13.129  18.968  0.00  0.00     0.001 A 
HETATM   11  C   UNK N   1      34.895  13.285  17.616  0.00  0.00     0.017 A 
ENDBRANCH   4   6
ENDBRANCH   3   4
ENDBRANCH   1   3
BRANCH   1  12
HETATM   12  C   UNK N   1      36.395  13.714  12.803  0.00  0.00     0.146 C 
BRANCH  12  13
HETATM   13  N   UNK N   1      36.549  15.091  12.363  0.00  0.00    -0.415 N 
HETATM   14  H   UNK N   1      37.031  15.840  12.861  0.00  0.00     0.153 HD
BRANCH  13  15
HETATM   15  C   UNK N   1      35.881  15.193  11.072  0.00  0.00     0.076 C 
HETATM   16  C   UNK N   1      35.367  16.617  10.826  0.00  0.00     0.024 C 
HETATM   17  C   UNK N   1      34.715  16.697   9.448  0.00  0.00     0.002 C 
HETATM   18  C   UNK N   1      33.560  15.703   9.356  0.00  0.00     0.000 C 
HETATM   19  C   UNK N   1      34.054  14.283   9.635  0.00  0.00     0.002 C 
HETATM   20  C   UNK N   1      34.719  14.210  11.008  0.00  0.00     0.024 C 
ENDBRANCH  13  15
ENDBRANCH  12  13
ENDBRANCH   1  12
TORSDOF 6
ENDMDL
MODEL 4
REMARK VINA RESULT:      -6.0     10.629     12.321
REMARK  6 active torsions:
REMARK  status: ('A' for Active; 'I' for Inactive)
REMARK    1  A    between atoms: O_1  and  C_11 
REMARK    2  A    between atoms: O_1  and  C_13 
REMARK    3  A    between atoms: N_3  and  C_4 
REMARK    4  A    between atoms: N_3  and  C_10 
REMARK    5  A    between atoms: C_10  and  C_11 
REMARK    6  A    between atoms: C_13  and  C_14 
ROOT
HETATM    1  C   UNK N   1      29.550  17.580   9.382  0.00  0.00     0.145 C 
HETATM    2  C   UNK N   1      28.275  16.873   9.800  0.00  0.00     0.042 C 
ENDROOT
BRANCH   1   3
HETATM    3  O   UNK N   1      30.182  16.861   8.398  0.00  0.00    -0.311 OA
BRANCH   3   4
HETATM    4  C   UNK N   1      31.454  17.097   8.010  0.00  0.00     0.293 C 
HETATM    5  O   UNK N   1      32.334  17.282   8.843  0.00  0.00    -0.259 OA
BRANCH   4   6
HETATM    6  C   UNK N   1      31.762  17.173   6.570  0.00  0.00     0.039 A 
HETATM    7  C   UNK N   1      30.725  17.036   5.634  0.00  0.00     0.017 A 
HETATM    8  C   UNK N   1      30.986  17.167   4.268  0.00  0.00     0.001 A 
HETATM    9  C   UNK N   1      32.285  17.434   3.829  0.00  0.00     0.000 A 
HETATM   10  C   UNK N   1      33.323  17.568   4.755  0.00  0.00     0.001 A 
HETATM   11  C   UNK N   1      33.062  17.443   6.123  0.00  0.00     0.017 A 
ENDBRANCH   4   6
ENDBRANCH   3   4
ENDBRANCH   1   3
BRANCH   1  12
HETATM   12  C   UNK N   1      29.230  18.935   8.774  0.00  0.00     0.146 C 
BRANCH  12  13
HETATM   13  N   UNK N   1      27.842  19.042   8.354  0.00  0.00    -0.415 N 
HETATM   14  H   UNK N   1      27.022  18.718   8.868  0.00  0.00     0.153 HD
BRANCH  13  15
HETATM   15  C   UNK N   1      27.850  19.702   7.055  0.00  0.00     0.076 C 
HETATM   16  C   UNK N   1      26.778  20.797   6.983  0.00  0.00     0.024 C 
HETATM   17  C   UNK N   1      26.847  21.496   5.628  0.00  0.00     0.002 C 
HETATM   18  C   UNK N   1      26.633  20.484   4.505  0.00  0.00     0.000 C 
HETATM   19  C   UNK N   1      27.674  19.367   4.587  0.00  0.00     0.002 C 
HETATM   20  C   UNK N   1      27.613  18.680   5.950  0.00  0.00     0.024 C 
ENDBRANCH  13  15
ENDBRANCH  12  13
ENDBRANCH   1  12
TORSDOF 6
ENDMDL
MODEL 5
REMARK VINA RESULT:      -5.9      3.600      6.238
REMARK  6 active torsions:
REMARK  status: ('A' for Active; 'I' for Inactive)
REMARK    1  A    between atoms: O_1  and  C_11 
REMARK    2  A    between atoms: O_1  and  C_13 
REMARK    3  A    between atoms: N_3  and  C_4 
REMARK    4  A    between atoms: N_3  and  C_10 
REMARK    5  A    between atoms: C_10  and  C_11 
REMARK    6  A    between atoms: C_13  and  C_14 
ROOT
HETATM    1  C   UNK N   1      28.027  23.251  -6.937  0.00  0.00     0.145 C 
HETATM    2  C   UNK N   1      28.758  21.921  -6.940  0.00  0.00     0.042 C 
ENDROOT
BRANCH   1   3
HETATM    3  O   UNK N   1      27.379  23.424  -5.739  0.00  0.00    -0.311 OA
BRANCH   3   4
HETATM    4  C   UNK N   1      26.138  23.946  -5.638  0.00  0.00     0.293 C 
HETATM    5  O   UNK N   1      25.166  23.326  -6.056  0.00  0.00    -0.259 OA
BRANCH   4   6
HETATM    6  C   UNK N   1      25.970  25.292  -5.060  0.00  0.00     0.039 A 
HETATM    7  C   UNK N   1      25.217  26.253  -5.753  0.00  0.00     0.017 A 
HETATM    8  C   UNK N   1      24.994  27.513  -5.193  0.00  0.00     0.001 A 
HETATM    9  C   UNK N   1      25.524  27.822  -3.938  0.00  0.00     0.000 A 
HETATM   10  C   UNK N   1      26.279  26.872  -3.244  0.00  0.00     0.001 A 
HETATM   11  C   UNK N   1      26.498  25.608  -3.800  0.00  0.00     0.017 A 
ENDBRANCH   4   6
ENDBRANCH   3   4
ENDBRANCH   1   3
BRANCH   1  12
HETATM   12  C   UNK N   1      29.016  24.399  -7.050  0.00  0.00     0.146 C 
BRANCH  12  13
HETATM   13  N   UNK N   1      28.549  25.448  -7.943  0.00  0.00    -0.415 N 
HETATM   14  H   UNK N   1      28.045  25.322  -8.821  0.00  0.00     0.153 HD
BRANCH  13  15
HETATM   15  C   UNK N   1      28.941  26.715  -7.338  0.00  0.00     0.076 C 
HETATM   16  C   UNK N   1      29.208  26.552  -5.837  0.00  0.00     0.024 C 
HETATM   17  C   UNK N   1      29.660  27.885  -5.248  0.00  0.00     0.002 C 
HETATM   18  C   UNK N   1      28.588  28.949  -5.474  0.00  0.00     0.000 C 
HETATM   19  C   UNK N   1      28.288  29.094  -6.966  0.00  0.00     0.002 C 
HETATM   20  C   UNK N   1      27.850  27.755  -7.555  0.00  0.00     0.024 C 
ENDBRANCH  13  15
ENDBRANCH  12  13
ENDBRANCH   1  12
TORSDOF 6
ENDMDL
MODEL 6
REMARK VINA RESULT:      -5.9      4.696      6.449
REMARK  6 active torsions:
REMARK  status: ('A' for Active; 'I' for Inactive)
REMARK    1  A    between atoms: O_1  and  C_11 
REMARK    2  A    between atoms: O_1  and  C_13 
REMARK    3  A    between atoms: N_3  and  C_4 
REMARK    4  A    between atoms: N_3  and  C_10 
REMARK    5  A    between atoms: C_10  and  C_11 
REMARK    6  A    between atoms: C_13  and  C_14 
ROOT
HETATM    1  C   UNK N   1      26.608  29.709  -3.279  0.00  0.00     0.145 C 
HETATM    2  C   UNK N   1      26.389  31.044  -3.965  0.00  0.00     0.042 C 
ENDROOT
BRANCH   1   3
HETATM    3  O   UNK N   1      25.770  28.764  -3.818  0.00  0.00    -0.311 OA
BRANCH   3   4
HETATM    4  C   UNK N   1      25.824  27.455  -3.489  0.00  0.00     0.293 C 
HETATM    5  O   UNK N   1      25.886  27.110  -2.314  0.00  0.00    -0.259 OA
BRANCH   4   6
HETATM    6  C   UNK N   1      25.851  26.446  -4.564  0.00  0.00     0.039 A 
HETATM    7  C   UNK N   1      25.360  26.779  -5.836  0.00  0.00     0.017 A 
HETATM    8  C   UNK N   1      25.434  25.859  -6.884  0.00  0.00     0.001 A 
HETATM    9  C   UNK N   1      25.996  24.599  -6.668  0.00  0.00     0.000 A 
HETATM   10  C   UNK N   1      26.483  24.258  -5.402  0.00  0.00     0.001 A 
HETATM   11  C   UNK N   1      26.416  25.181  -4.353  0.00  0.00     0.017 A 
ENDBRANCH   4   6
ENDBRANCH   3   4
ENDBRANCH   1   3
BRANCH   1  12
HETATM   12  C   UNK N   1      28.022  29.210  -3.531  0.00  0.00     0.146 C 
BRANCH  12  13
HETATM   13  N   UNK N   1      28.711  29.985  -4.550  0.00  0.00    -0.415 N 
HETATM   14  H   UNK N   1      28.851  30.995  -4.558  0.00  0.00     0.153 HD
BRANCH  13  15
HETATM   15  C   UNK N   1      29.164  29.035  -5.559  0.00  0.00     0.076 C 
HETATM   16  C   UNK N   1      28.207  29.002  -6.756  0.00  0.00     0.024 C 
HETATM   17  C   UNK N   1      28.736  28.034  -7.810  0.00  0.00     0.002 C 
HETATM   18  C   UNK N   1      28.875  26.635  -7.215  0.00  0.00     0.000 C 
HETATM   19  C   UNK N   1      29.799  26.662  -5.998  0.00  0.00     0.002 C 
HETATM   20  C   UNK N   1      29.275  27.643  -4.951  0.00  0.00     0.024 C 
ENDBRANCH  13  15
ENDBRANCH  12  13
ENDBRANCH   1  12
TORSDOF 6
ENDMDL
MODEL 7
REMARK VINA RESULT:      -5.9     20.292     22.871
REMARK  6 active torsions:
REMARK  status: ('A' for Active; 'I' for Inactive)
REMARK    1  A    between atoms: O_1  and  C_11 
REMARK    2  A    between atoms: O_1  and  C_13 
REMARK    3  A    between atoms: N_3  and  C_4 
REMARK    4  A    between atoms: N_3  and  C_10 
REMARK    5  A    between atoms: C_10  and  C_11 
REMARK    6  A    between atoms: C_13  and  C_14 
ROOT
HETATM    1  C   UNK N   1      35.658  12.693  16.523  0.00  0.00     0.145 C 
HETATM    2  C   UNK N   1      35.179  13.552  17.678  0.00  0.00     0.042 C 
ENDROOT
BRANCH   1   3
HETATM    3  O   UNK N   1      34.615  11.946  16.033  0.00  0.00    -0.311 OA
BRANCH   3   4
HETATM    4  C   UNK N   1      34.666  10.603  15.899  0.00  0.00     0.293 C 
HETATM    5  O   UNK N   1      34.766   9.883  16.886  0.00  0.00    -0.259 OA
BRANCH   4   6
HETATM    6  C   UNK N   1      34.643  10.016  14.547  0.00  0.00     0.039 A 
HETATM    7  C   UNK N   1      33.760  10.531  13.585  0.00  0.00     0.017 A 
HETATM    8  C   UNK N   1      33.766  10.030  12.281  0.00  0.00     0.001 A 
HETATM    9  C   UNK N   1      34.654   9.011  11.930  0.00  0.00     0.000 A 
HETATM   10  C   UNK N   1      35.534   8.490  12.884  0.00  0.00     0.001 A 
HETATM   11  C   UNK N   1      35.533   8.994  14.188  0.00  0.00     0.017 A 
ENDBRANCH   4   6
ENDBRANCH   3   4
ENDBRANCH   1   3
BRANCH   1  12
HETATM   12  C   UNK N   1      36.127  13.567  15.371  0.00  0.00     0.146 C 
BRANCH  12  13
HETATM   13  N   UNK N   1      37.173  12.935  14.583  0.00  0.00    -0.415 N 
HETATM   14  H   UNK N   1      37.971  12.410  14.940  0.00  0.00     0.153 HD
BRANCH  13  15
HETATM   15  C   UNK N   1      36.857  13.197  13.185  0.00  0.00     0.076 C 
HETATM   16  C   UNK N   1      35.424  13.721  13.030  0.00  0.00     0.024 C 
HETATM   17  C   UNK N   1      35.145  14.028  11.562  0.00  0.00     0.002 C 
HETATM   18  C   UNK N   1      35.334  12.770  10.718  0.00  0.00     0.000 C 
HETATM   19  C   UNK N   1      36.748  12.218  10.892  0.00  0.00     0.002 C 
HETATM   20  C   UNK N   1      37.029  11.926  12.364  0.00  0.00     0.024 C 
ENDBRANCH  13  15
ENDBRANCH  12  13
ENDBRANCH   1  12
TORSDOF 6
ENDMDL
MODEL 8
REMARK VINA RESULT:      -5.8      2.528      5.821
REMARK  6 active torsions:
REMARK  status: ('A' for Active; 'I' for Inactive)
REMARK    1  A    between atoms: O_1  and  C_11 
REMARK    2  A    between atoms: O_1  and  C_13 
REMARK    3  A    between atoms: N_3  and  C_4 
REMARK    4  A    between atoms: N_3  and  C_10 
REMARK    5  A    between atoms: C_10  and  C_11 
REMARK    6  A    between atoms: C_13  and  C_14 
ROOT
HETATM    1  C   UNK N   1      31.774  21.336  -3.178  0.00  0.00     0.145 C 
HETATM    2  C   UNK N   1      33.247  21.134  -3.483  0.00  0.00     0.042 C 
ENDROOT
BRANCH   1   3
HETATM    3  O   UNK N   1      31.476  22.676  -3.181  0.00  0.00    -0.311 OA
BRANCH   3   4
HETATM    4  C   UNK N   1      30.452  23.207  -2.479  0.00  0.00     0.293 C 
HETATM    5  O   UNK N   1      30.384  23.053  -1.265  0.00  0.00    -0.259 OA
BRANCH   4   6
HETATM    6  C   UNK N   1      29.393  23.938  -3.198  0.00  0.00     0.039 A 
HETATM    7  C   UNK N   1      29.746  24.882  -4.175  0.00  0.00     0.017 A 
HETATM    8  C   UNK N   1      28.758  25.540  -4.911  0.00  0.00     0.001 A 
HETATM    9  C   UNK N   1      27.410  25.261  -4.674  0.00  0.00     0.000 A 
HETATM   10  C   UNK N   1      27.050  24.326  -3.699  0.00  0.00     0.001 A 
HETATM   11  C   UNK N   1      28.039  23.661  -2.966  0.00  0.00     0.017 A 
ENDBRANCH   4   6
ENDBRANCH   3   4
ENDBRANCH   1   3
BRANCH   1  12
HETATM   12  C   UNK N   1      30.917  20.712  -4.268  0.00  0.00     0.146 C 
BRANCH  12  13
HETATM   13  N   UNK N   1      31.635  20.564  -5.523  0.00  0.00    -0.415 N 
HETATM   14  H   UNK N   1      32.612  20.292  -5.639  0.00  0.00     0.153 HD
BRANCH  13  15
HETATM   15  C   UNK N   1      30.688  20.881  -6.585  0.00  0.00     0.076 C 
HETATM   16  C   UNK N   1      29.517  21.713  -6.051  0.00  0.00     0.024 C 
HETATM   17  C   UNK N   1      28.571  22.064  -7.196  0.00  0.00     0.002 C 
HETATM   18  C   UNK N   1      28.047  20.789  -7.853  0.00  0.00     0.000 C 
HETATM   19  C   UNK N   1      29.209  19.933  -8.357  0.00  0.00     0.002 C 
HETATM   20  C   UNK N   1      30.161  19.597  -7.212  0.00  0.00     0.024 C 
ENDBRANCH  13  15
ENDBRANCH  12  13
ENDBRANCH   1  12
TORSDOF 6
ENDMDL
MODEL 9
REMARK VINA RESULT:      -5.8     16.327     19.516
REMARK  6 active torsions:
REMARK  status: ('A' for Active; 'I' for Inactive)
REMARK    1  A    between atoms: O_1  and  C_11 
REMARK    2  A    between atoms: O_1  and  C_13 
REMARK    3  A    between atoms: N_3  and  C_4 
REMARK    4  A    between atoms: N_3  and  C_10 
REMARK    5  A    between atoms: C_10  and  C_11 
REMARK    6  A    between atoms: C_13  and  C_14 
ROOT
HETATM    1  C   UNK N   1      36.161  15.328  11.279  0.00  0.00     0.145 C 
HETATM    2  C   UNK N   1      36.634  14.350  10.220  0.00  0.00     0.042 C 
ENDROOT
BRANCH   1   3
HETATM    3  O   UNK N   1      34.995  15.927  10.873  0.00  0.00    -0.311 OA
BRANCH   3   4
HETATM    4  C   UNK N   1      34.950  16.899   9.936  0.00  0.00     0.293 C 
HETATM    5  O   UNK N   1      35.646  17.902  10.045  0.00  0.00    -0.259 OA
BRANCH   4   6
HETATM    6  C   UNK N   1      34.020  16.758   8.801  0.00  0.00     0.039 A 
HETATM    7  C   UNK N   1      33.053  15.740   8.823  0.00  0.00     0.017 A 
HETATM    8  C   UNK N   1      32.122  15.628   7.787  0.00  0.00     0.001 A 
HETATM    9  C   UNK N   1      32.153  16.531   6.722  0.00  0.00     0.000 A 
HETATM   10  C   UNK N   1      33.115  17.544   6.690  0.00  0.00     0.001 A 
HETATM   11  C   UNK N   1      34.044  17.661   7.730  0.00  0.00     0.017 A 
ENDBRANCH   4   6
ENDBRANCH   3   4
ENDBRANCH   1   3
BRANCH   1  12
HETATM   12  C   UNK N   1      35.831  14.594  12.568  0.00  0.00     0.146 C 
BRANCH  12  13
HETATM   13  N   UNK N   1      36.859  13.636  12.942  0.00  0.00    -0.415 N 
HETATM   14  H   UNK N   1      37.855  13.695  12.726  0.00  0.00     0.153 HD
BRANCH  13  15
HETATM   15  C   UNK N   1      36.191  12.576  13.685  0.00  0.00     0.076 C 
HETATM   16  C   UNK N   1      35.316  11.719  12.761  0.00  0.00     0.024 C 
HETATM   17  C   UNK N   1      34.670  10.594  13.564  0.00  0.00     0.002 C 
HETATM   18  C   UNK N   1      33.822  11.175  14.693  0.00  0.00     0.000 C 
HETATM   19  C   UNK N   1      34.676  12.060  15.600  0.00  0.00     0.002 C 
HETATM   20  C   UNK N   1      35.333  13.176  14.791  0.00  0.00     0.024 C 
ENDBRANCH  13  15
ENDBRANCH  12  13
ENDBRANCH   1  12
TORSDOF 6
ENDMDL
