MODEL 1
REMARK VINA RESULT:      -6.7      0.000      0.000
REMARK  5 active torsions:
REMARK  status: ('A' for Active; 'I' for Inactive)
REMARK    1  A    between atoms: O_1  and  C_2 
REMARK    2  A    between atoms: C_4  and  O_1 
REMARK    3  A    between atoms: C_12  and  N_14 
REMARK    4  A    between atoms: C_16  and  N_17 
REMARK    5  A    between atoms: N_17  and  S_18 
ROOT
HETATM    1  C   UNK N   1      26.370  25.514  -3.987  0.00  0.00     0.105 A 
HETATM    2  C   UNK N   1      26.675  26.737  -3.368  0.00  0.00     0.075 A 
HETATM    3  C   UNK N   1      25.432  27.941  -5.049  0.00  0.00     0.038 A 
HETATM    4  C   UNK N   1      25.106  26.732  -5.667  0.00  0.00     0.035 A 
HETATM    5  C   UNK N   1      26.211  27.950  -3.887  0.00  0.00     0.105 A 
HETATM    6  C   UNK N   1      25.566  25.516  -5.139  0.00  0.00     0.076 A 
ENDROOT
BRANCH   1   7
HETATM    7  O   UNK N   1      26.776  24.325  -3.456  0.00  0.00    -0.308 OA
BRANCH   7   8
HETATM    8  C   UNK N   1      28.055  23.889  -3.278  0.00  0.00     0.076 A 
HETATM    9  C   UNK N   1      28.482  23.279  -2.083  0.00  0.00     0.037 A 
HETATM   10  C   UNK N   1      29.799  22.840  -1.940  0.00  0.00     0.003 A 
HETATM   11  C   UNK N   1      30.704  23.003  -2.991  0.00  0.00     0.000 A 
HETATM   12  C   UNK N   1      30.294  23.616  -4.177  0.00  0.00     0.003 A 
HETATM   13  C   UNK N   1      28.976  24.062  -4.317  0.00  0.00     0.037 A 
ENDBRANCH   7   8
ENDBRANCH   1   7
BRANCH   6  14
HETATM   14  N   UNK N   1      25.191  24.285  -5.733  0.00  0.00    -0.282 N 
HETATM   15  H   UNK N   1      24.474  23.753  -5.318  0.00  0.00     0.178 HD
BRANCH  14  16
HETATM   16  S   UNK N   1      25.964  23.682  -7.191  0.00  0.00     0.227 S 
HETATM   17  O   UNK N   1      26.772  22.464  -6.722  0.00  0.00    -0.206 OA
HETATM   18  C   UNK N   1      26.925  24.828  -8.218  0.00  0.00     0.186 C 
HETATM   19  O   UNK N   1      24.817  23.012  -7.963  0.00  0.00    -0.206 OA
ENDBRANCH  14  16
ENDBRANCH   6  14
BRANCH   5  20
HETATM   20  N   UNK N   1      26.504  29.171  -3.220  0.00  0.00    -0.116 N 
HETATM   21  O   UNK N   1      27.235  29.168  -2.123  0.00  0.00    -0.532 OA
HETATM   22  O   UNK N   1      26.120  30.210  -3.666  0.00  0.00    -0.532 OA
ENDBRANCH   5  20
TORSDOF 5
ENDMDL
MODEL 2
REMARK VINA RESULT:      -6.5      2.572      5.205
REMARK  5 active torsions:
REMARK  status: ('A' for Active; 'I' for Inactive)
REMARK    1  A    between atoms: O_1  and  C_2 
REMARK    2  A    between atoms: C_4  and  O_1 
REMARK    3  A    between atoms: C_12  and  N_14 
REMARK    4  A    between atoms: C_16  and  N_17 
REMARK    5  A    between atoms: N_17  and  S_18 
ROOT
HETATM    1  C   UNK N   1      27.608  24.093  -4.685  0.00  0.00     0.105 A 
HETATM    2  C   UNK N   1      28.482  23.906  -3.602  0.00  0.00     0.075 A 
HETATM    3  C   UNK N   1      29.829  22.386  -4.904  0.00  0.00     0.038 A 
HETATM    4  C   UNK N   1      28.979  22.574  -5.995  0.00  0.00     0.035 A 
HETATM    5  C   UNK N   1      29.592  23.061  -3.702  0.00  0.00     0.105 A 
HETATM    6  C   UNK N   1      27.870  23.429  -5.895  0.00  0.00     0.076 A 
ENDROOT
BRANCH   1   7
HETATM    7  O   UNK N   1      26.553  24.955  -4.609  0.00  0.00    -0.308 OA
BRANCH   7   8
HETATM    8  C   UNK N   1      26.589  26.317  -4.643  0.00  0.00     0.076 A 
HETATM    9  C   UNK N   1      27.043  27.029  -5.769  0.00  0.00     0.037 A 
HETATM   10  C   UNK N   1      27.059  28.425  -5.768  0.00  0.00     0.003 A 
HETATM   11  C   UNK N   1      26.620  29.125  -4.642  0.00  0.00     0.000 A 
HETATM   12  C   UNK N   1      26.177  28.427  -3.516  0.00  0.00     0.003 A 
HETATM   13  C   UNK N   1      26.167  27.029  -3.515  0.00  0.00     0.037 A 
ENDBRANCH   7   8
ENDBRANCH   1   7
BRANCH   6  14
HETATM   14  N   UNK N   1      27.038  23.664  -7.018  0.00  0.00    -0.282 N 
HETATM   15  H   UNK N   1      27.169  24.484  -7.547  0.00  0.00     0.178 HD
BRANCH  14  16
HETATM   16  S   UNK N   1      25.781  22.535  -7.495  0.00  0.00     0.227 S 
HETATM   17  O   UNK N   1      24.924  22.356  -6.233  0.00  0.00    -0.206 OA
HETATM   18  C   UNK N   1      26.254  20.963  -8.269  0.00  0.00     0.186 C 
HETATM   19  O   UNK N   1      24.850  23.376  -8.381  0.00  0.00    -0.206 OA
ENDBRANCH  14  16
ENDBRANCH   6  14
BRANCH   5  20
HETATM   20  N   UNK N   1      30.482  22.918  -2.602  0.00  0.00    -0.116 N 
HETATM   21  O   UNK N   1      30.044  23.081  -1.370  0.00  0.00    -0.532 OA
HETATM   22  O   UNK N   1      31.622  22.616  -2.784  0.00  0.00    -0.532 OA
ENDBRANCH   5  20
TORSDOF 5
ENDMDL
MODEL 3
REMARK VINA RESULT:      -6.4     16.426     17.975
REMARK  5 active torsions:
REMARK  status: ('A' for Active; 'I' for Inactive)
REMARK    1  A    between atoms: O_1  and  C_2 
REMARK    2  A    between atoms: C_4  and  O_1 
REMARK    3  A    between atoms: C_12  and  N_14 
REMARK    4  A    between atoms: C_16  and  N_17 
REMARK    5  A    between atoms: N_17  and  S_18 
ROOT
HETATM    1  C   UNK N   1      20.632  14.442   8.144  0.00  0.00     0.105 A 
HETATM    2  C   UNK N   1      20.119  15.517   8.887  0.00  0.00     0.075 A 
HETATM    3  C   UNK N   1      20.287  16.972   6.971  0.00  0.00     0.038 A 
HETATM    4  C   UNK N   1      20.783  15.909   6.213  0.00  0.00     0.035 A 
HETATM    5  C   UNK N   1      19.940  16.778   8.312  0.00  0.00     0.105 A 
HETATM    6  C   UNK N   1      20.953  14.641   6.791  0.00  0.00     0.076 A 
ENDROOT
BRANCH   1   7
HETATM    7  O   UNK N   1      20.760  13.196   8.686  0.00  0.00    -0.308 OA
BRANCH   7   8
HETATM    8  C   UNK N   1      21.678  12.780   9.603  0.00  0.00     0.076 A 
HETATM    9  C   UNK N   1      21.316  12.396  10.908  0.00  0.00     0.037 A 
HETATM   10  C   UNK N   1      22.285  11.969  11.817  0.00  0.00     0.003 A 
HETATM   11  C   UNK N   1      23.626  11.917  11.432  0.00  0.00     0.000 A 
HETATM   12  C   UNK N   1      23.997  12.305  10.142  0.00  0.00     0.003 A 
HETATM   13  C   UNK N   1      23.027  12.740   9.234  0.00  0.00     0.037 A 
ENDBRANCH   7   8
ENDBRANCH   1   7
BRANCH   6  14
HETATM   14  N   UNK N   1      21.405  13.548   6.009  0.00  0.00    -0.282 N 
HETATM   15  H   UNK N   1      22.368  13.349   5.978  0.00  0.00     0.178 HD
BRANCH  14  16
HETATM   16  S   UNK N   1      20.295  12.538   5.097  0.00  0.00     0.227 S 
HETATM   17  O   UNK N   1      20.105  11.289   5.970  0.00  0.00    -0.206 OA
HETATM   18  C   UNK N   1      20.676  12.150   3.365  0.00  0.00     0.186 C 
HETATM   19  O   UNK N   1      18.939  13.239   5.264  0.00  0.00    -0.206 OA
ENDBRANCH  14  16
ENDBRANCH   6  14
BRANCH   5  20
HETATM   20  N   UNK N   1      19.383  17.840   9.078  0.00  0.00    -0.116 N 
HETATM   21  O   UNK N   1      18.175  17.725   9.589  0.00  0.00    -0.532 OA
HETATM   22  O   UNK N   1      20.020  18.827   9.292  0.00  0.00    -0.532 OA
ENDBRANCH   5  20
TORSDOF 5
ENDMDL
MODEL 4
REMARK VINA RESULT:      -6.3     16.084     17.745
REMARK  5 active torsions:
REMARK  status: ('A' for Active; 'I' for Inactive)
REMARK    1  A    between atoms: O_1  and  C_2 
REMARK    2  A    between atoms: C_4  and  O_1 
REMARK    3  A    between atoms: C_12  and  N_14 
REMARK    4  A    between atoms: C_16  and  N_17 
REMARK    5  A    between atoms: N_17  and  S_18 
ROOT
HETATM    1  C   UNK N   1      20.795  14.623   8.230  0.00  0.00     0.105 A 
HETATM    2  C   UNK N   1      20.142  15.647   8.935  0.00  0.00     0.075 A 
HETATM    3  C   UNK N   1      20.630  17.223   7.175  0.00  0.00     0.038 A 
HETATM    4  C   UNK N   1      21.269  16.211   6.454  0.00  0.00     0.035 A 
HETATM    5  C   UNK N   1      20.052  16.942   8.418  0.00  0.00     0.105 A 
HETATM    6  C   UNK N   1      21.350  14.910   6.972  0.00  0.00     0.076 A 
ENDROOT
BRANCH   1   7
HETATM    7  O   UNK N   1      20.841  13.345   8.707  0.00  0.00    -0.308 OA
BRANCH   7   8
HETATM    8  C   UNK N   1      21.606  12.867   9.728  0.00  0.00     0.076 A 
HETATM    9  C   UNK N   1      21.052  12.461  10.956  0.00  0.00     0.037 A 
HETATM   10  C   UNK N   1      21.868  11.969  11.976  0.00  0.00     0.003 A 
HETATM   11  C   UNK N   1      23.247  11.876  11.780  0.00  0.00     0.000 A 
HETATM   12  C   UNK N   1      23.808  12.286  10.568  0.00  0.00     0.003 A 
HETATM   13  C   UNK N   1      22.991  12.784   9.548  0.00  0.00     0.037 A 
ENDBRANCH   7   8
ENDBRANCH   1   7
BRANCH   6  14
HETATM   14  N   UNK N   1      21.949  13.870   6.217  0.00  0.00    -0.282 N 
HETATM   15  H   UNK N   1      21.414  13.077   5.987  0.00  0.00     0.178 HD
BRANCH  14  16
HETATM   16  S   UNK N   1      23.618  13.957   5.677  0.00  0.00     0.227 S 
HETATM   17  O   UNK N   1      24.372  14.590   6.856  0.00  0.00    -0.206 OA
HETATM   18  C   UNK N   1      23.991  14.741   4.084  0.00  0.00     0.186 C 
HETATM   19  O   UNK N   1      24.103  12.501   5.749  0.00  0.00    -0.206 OA
ENDBRANCH  14  16
ENDBRANCH   6  14
BRANCH   5  20
HETATM   20  N   UNK N   1      19.353  17.951   9.136  0.00  0.00    -0.116 N 
HETATM   21  O   UNK N   1      18.117  17.741   9.540  0.00  0.00    -0.532 OA
HETATM   22  O   UNK N   1      19.892  18.981   9.409  0.00  0.00    -0.532 OA
ENDBRANCH   5  20
TORSDOF 5
ENDMDL
MODEL 5
REMARK VINA RESULT:      -6.2      2.011      4.675
REMARK  5 active torsions:
REMARK  status: ('A' for Active; 'I' for Inactive)
REMARK    1  A    between atoms: O_1  and  C_2 
REMARK    2  A    between atoms: C_4  and  O_1 
REMARK    3  A    between atoms: C_12  and  N_14 
REMARK    4  A    between atoms: C_16  and  N_17 
REMARK    5  A    between atoms: N_17  and  S_18 
ROOT
HETATM    1  C   UNK N   1      26.437  25.499  -4.303  0.00  0.00     0.105 A 
HETATM    2  C   UNK N   1      26.308  24.785  -5.505  0.00  0.00     0.075 A 
HETATM    3  C   UNK N   1      25.229  26.670  -6.555  0.00  0.00     0.038 A 
HETATM    4  C   UNK N   1      25.364  27.400  -5.372  0.00  0.00     0.035 A 
HETATM    5  C   UNK N   1      25.712  25.360  -6.632  0.00  0.00     0.105 A 
HETATM    6  C   UNK N   1      25.971  26.824  -4.245  0.00  0.00     0.076 A 
ENDROOT
BRANCH   1   7
HETATM    7  O   UNK N   1      27.063  24.962  -3.217  0.00  0.00    -0.308 OA
BRANCH   7   8
HETATM    8  C   UNK N   1      28.326  24.455  -3.153  0.00  0.00     0.076 A 
HETATM    9  C   UNK N   1      28.617  23.239  -2.509  0.00  0.00     0.037 A 
HETATM   10  C   UNK N   1      29.923  22.748  -2.471  0.00  0.00     0.003 A 
HETATM   11  C   UNK N   1      30.954  23.468  -3.078  0.00  0.00     0.000 A 
HETATM   12  C   UNK N   1      30.678  24.682  -3.712  0.00  0.00     0.003 A 
HETATM   13  C   UNK N   1      29.370  25.176  -3.744  0.00  0.00     0.037 A 
ENDBRANCH   7   8
ENDBRANCH   1   7
BRANCH   6  14
HETATM   14  N   UNK N   1      26.158  27.581  -3.062  0.00  0.00    -0.282 N 
HETATM   15  H   UNK N   1      25.717  27.287  -2.232  0.00  0.00     0.178 HD
BRANCH  14  16
HETATM   16  S   UNK N   1      27.155  29.027  -3.031  0.00  0.00     0.227 S 
HETATM   17  O   UNK N   1      27.569  29.178  -1.561  0.00  0.00    -0.206 OA
HETATM   18  C   UNK N   1      26.509  30.560  -3.756  0.00  0.00     0.186 C 
HETATM   19  O   UNK N   1      28.474  28.575  -3.677  0.00  0.00    -0.206 OA
ENDBRANCH  14  16
ENDBRANCH   6  14
BRANCH   5  20
HETATM   20  N   UNK N   1      25.628  24.626  -7.848  0.00  0.00    -0.116 N 
HETATM   21  O   UNK N   1      26.334  24.998  -8.896  0.00  0.00    -0.532 OA
HETATM   22  O   UNK N   1      24.945  23.649  -7.917  0.00  0.00    -0.532 OA
ENDBRANCH   5  20
TORSDOF 5
ENDMDL
MODEL 6
REMARK VINA RESULT:      -6.1     11.820     13.592
REMARK  5 active torsions:
REMARK  status: ('A' for Active; 'I' for Inactive)
REMARK    1  A    between atoms: O_1  and  C_2 
REMARK    2  A    between atoms: C_4  and  O_1 
REMARK    3  A    between atoms: C_12  and  N_14 
REMARK    4  A    between atoms: C_16  and  N_17 
REMARK    5  A    between atoms: N_17  and  S_18 
ROOT
HETATM    1  C   UNK N   1      30.544  16.925   4.932  0.00  0.00     0.105 A 
HETATM    2  C   UNK N   1      31.677  17.076   5.747  0.00  0.00     0.075 A 
HETATM    3  C   UNK N   1      33.132  16.695   3.861  0.00  0.00     0.038 A 
HETATM    4  C   UNK N   1      32.016  16.558   3.034  0.00  0.00     0.035 A 
HETATM    5  C   UNK N   1      32.969  16.967   5.223  0.00  0.00     0.105 A 
HETATM    6  C   UNK N   1      30.720  16.677   3.560  0.00  0.00     0.076 A 
ENDROOT
BRANCH   1   7
HETATM    7  O   UNK N   1      29.282  17.082   5.427  0.00  0.00    -0.308 OA
BRANCH   7   8
HETATM    8  C   UNK N   1      28.664  18.246   5.772  0.00  0.00     0.076 A 
HETATM    9  C   UNK N   1      28.394  18.585   7.111  0.00  0.00     0.037 A 
HETATM   10  C   UNK N   1      27.765  19.791   7.426  0.00  0.00     0.003 A 
HETATM   11  C   UNK N   1      27.401  20.672   6.406  0.00  0.00     0.000 A 
HETATM   12  C   UNK N   1      27.655  20.341   5.073  0.00  0.00     0.003 A 
HETATM   13  C   UNK N   1      28.280  19.130   4.758  0.00  0.00     0.037 A 
ENDBRANCH   7   8
ENDBRANCH   1   7
BRANCH   6  14
HETATM   14  N   UNK N   1      29.588  16.592   2.712  0.00  0.00    -0.282 N 
HETATM   15  H   UNK N   1      29.406  17.327   2.083  0.00  0.00     0.178 HD
BRANCH  14  16
HETATM   16  S   UNK N   1      28.499  15.214   2.749  0.00  0.00     0.227 S 
HETATM   17  O   UNK N   1      28.534  14.658   1.319  0.00  0.00    -0.206 OA
HETATM   18  C   UNK N   1      26.817  15.436   3.392  0.00  0.00     0.186 C 
HETATM   19  O   UNK N   1      29.291  14.143   3.515  0.00  0.00    -0.206 OA
ENDBRANCH  14  16
ENDBRANCH   6  14
BRANCH   5  20
HETATM   20  N   UNK N   1      34.099  17.162   6.065  0.00  0.00    -0.116 N 
HETATM   21  O   UNK N   1      35.044  16.246   6.126  0.00  0.00    -0.532 OA
HETATM   22  O   UNK N   1      34.217  18.171   6.693  0.00  0.00    -0.532 OA
ENDBRANCH   5  20
TORSDOF 5
ENDMDL
MODEL 7
REMARK VINA RESULT:      -6.1     12.974     15.003
REMARK  5 active torsions:
REMARK  status: ('A' for Active; 'I' for Inactive)
REMARK    1  A    between atoms: O_1  and  C_2 
REMARK    2  A    between atoms: C_4  and  O_1 
REMARK    3  A    between atoms: C_12  and  N_14 
REMARK    4  A    between atoms: C_16  and  N_17 
REMARK    5  A    between atoms: N_17  and  S_18 
ROOT
HETATM    1  C   UNK N   1      31.413  16.815   6.645  0.00  0.00     0.105 A 
HETATM    2  C   UNK N   1      32.231  17.403   7.623  0.00  0.00     0.075 A 
HETATM    3  C   UNK N   1      34.209  16.853   6.358  0.00  0.00     0.038 A 
HETATM    4  C   UNK N   1      33.409  16.278   5.367  0.00  0.00     0.035 A 
HETATM    5  C   UNK N   1      33.622  17.430   7.488  0.00  0.00     0.105 A 
HETATM    6  C   UNK N   1      32.013  16.260   5.501  0.00  0.00     0.076 A 
ENDROOT
BRANCH   1   7
HETATM    7  O   UNK N   1      30.053  16.831   6.747  0.00  0.00    -0.308 OA
BRANCH   7   8
HETATM    8  C   UNK N   1      29.216  17.880   6.513  0.00  0.00     0.076 A 
HETATM    9  C   UNK N   1      28.630  18.621   7.556  0.00  0.00     0.037 A 
HETATM   10  C   UNK N   1      27.782  19.694   7.277  0.00  0.00     0.003 A 
HETATM   11  C   UNK N   1      27.511  20.040   5.951  0.00  0.00     0.000 A 
HETATM   12  C   UNK N   1      28.079  19.304   4.908  0.00  0.00     0.003 A 
HETATM   13  C   UNK N   1      28.924  18.226   5.189  0.00  0.00     0.037 A 
ENDBRANCH   7   8
ENDBRANCH   1   7
BRANCH   6  14
HETATM   14  N   UNK N   1      31.197  15.726   4.472  0.00  0.00    -0.282 N 
HETATM   15  H   UNK N   1      30.947  16.302   3.714  0.00  0.00     0.178 HD
BRANCH  14  16
HETATM   16  S   UNK N   1      30.621  14.068   4.509  0.00  0.00     0.227 S 
HETATM   17  O   UNK N   1      31.279  13.459   5.755  0.00  0.00    -0.206 OA
HETATM   18  C   UNK N   1      30.803  13.037   3.026  0.00  0.00     0.186 C 
HETATM   19  O   UNK N   1      29.160  14.198   4.965  0.00  0.00    -0.206 OA
ENDBRANCH  14  16
ENDBRANCH   6  14
BRANCH   5  20
HETATM   20  N   UNK N   1      34.423  18.066   8.477  0.00  0.00    -0.116 N 
HETATM   21  O   UNK N   1      34.635  17.478   9.636  0.00  0.00    -0.532 OA
HETATM   22  O   UNK N   1      34.939  19.119   8.250  0.00  0.00    -0.532 OA
ENDBRANCH   5  20
TORSDOF 5
ENDMDL
MODEL 8
REMARK VINA RESULT:      -6.1     12.385     14.195
REMARK  5 active torsions:
REMARK  status: ('A' for Active; 'I' for Inactive)
REMARK    1  A    between atoms: O_1  and  C_2 
REMARK    2  A    between atoms: C_4  and  O_1 
REMARK    3  A    between atoms: C_12  and  N_14 
REMARK    4  A    between atoms: C_16  and  N_17 
REMARK    5  A    between atoms: N_17  and  S_18 
ROOT
HETATM    1  C   UNK N   1      20.709  17.022   3.977  0.00  0.00     0.105 A 
HETATM    2  C   UNK N   1      20.050  16.302   4.986  0.00  0.00     0.075 A 
HETATM    3  C   UNK N   1      21.123  17.631   6.689  0.00  0.00     0.038 A 
HETATM    4  C   UNK N   1      21.774  18.368   5.697  0.00  0.00     0.035 A 
HETATM    5  C   UNK N   1      20.246  16.600   6.338  0.00  0.00     0.105 A 
HETATM    6  C   UNK N   1      21.568  18.073   4.341  0.00  0.00     0.076 A 
ENDROOT
BRANCH   1   7
HETATM    7  O   UNK N   1      20.481  16.771   2.655  0.00  0.00    -0.308 OA
BRANCH   7   8
HETATM    8  C   UNK N   1      20.729  15.616   1.975  0.00  0.00     0.076 A 
HETATM    9  C   UNK N   1      22.026  15.088   1.837  0.00  0.00     0.037 A 
HETATM   10  C   UNK N   1      22.238  13.898   1.139  0.00  0.00     0.003 A 
HETATM   11  C   UNK N   1      21.156  13.222   0.572  0.00  0.00     0.000 A 
HETATM   12  C   UNK N   1      19.865  13.743   0.694  0.00  0.00     0.003 A 
HETATM   13  C   UNK N   1      19.654  14.938   1.389  0.00  0.00     0.037 A 
ENDBRANCH   7   8
ENDBRANCH   1   7
BRANCH   6  14
HETATM   14  N   UNK N   1      22.185  18.854   3.332  0.00  0.00    -0.282 N 
HETATM   15  H   UNK N   1      23.052  18.565   2.966  0.00  0.00     0.178 HD
BRANCH  14  16
HETATM   16  S   UNK N   1      21.447  20.323   2.712  0.00  0.00     0.227 S 
HETATM   17  O   UNK N   1      20.419  20.718   3.782  0.00  0.00    -0.206 OA
HETATM   18  C   UNK N   1      20.769  20.328   1.029  0.00  0.00     0.186 C 
HETATM   19  O   UNK N   1      22.531  21.392   2.918  0.00  0.00    -0.206 OA
ENDBRANCH  14  16
ENDBRANCH   6  14
BRANCH   5  20
HETATM   20  N   UNK N   1      19.537  15.879   7.338  0.00  0.00    -0.116 N 
HETATM   21  O   UNK N   1      20.008  14.735   7.789  0.00  0.00    -0.532 OA
HETATM   22  O   UNK N   1      18.530  16.323   7.801  0.00  0.00    -0.532 OA
ENDBRANCH   5  20
TORSDOF 5
ENDMDL
MODEL 9
REMARK VINA RESULT:      -6.0     10.772     12.525
REMARK  5 active torsions:
REMARK  status: ('A' for Active; 'I' for Inactive)
REMARK    1  A    between atoms: O_1  and  C_2 
REMARK    2  A    between atoms: C_4  and  O_1 
REMARK    3  A    between atoms: C_12  and  N_14 
REMARK    4  A    between atoms: C_16  and  N_17 
REMARK    5  A    between atoms: N_17  and  S_18 
ROOT
HETATM    1  C   UNK N   1      22.400  18.765   4.090  0.00  0.00     0.105 A 
HETATM    2  C   UNK N   1      22.192  19.664   3.032  0.00  0.00     0.075 A 
HETATM    3  C   UNK N   1      20.131  18.558   2.444  0.00  0.00     0.038 A 
HETATM    4  C   UNK N   1      20.314  17.665   3.502  0.00  0.00     0.035 A 
HETATM    5  C   UNK N   1      21.066  19.572   2.209  0.00  0.00     0.105 A 
HETATM    6  C   UNK N   1      21.442  17.766   4.331  0.00  0.00     0.076 A 
ENDROOT
BRANCH   1   7
HETATM    7  O   UNK N   1      23.470  18.882   4.927  0.00  0.00    -0.308 OA
BRANCH   7   8
HETATM    8  C   UNK N   1      24.791  18.875   4.592  0.00  0.00     0.076 A 
HETATM    9  C   UNK N   1      25.576  20.043   4.607  0.00  0.00     0.037 A 
HETATM   10  C   UNK N   1      26.928  19.995   4.264  0.00  0.00     0.003 A 
HETATM   11  C   UNK N   1      27.512  18.779   3.904  0.00  0.00     0.000 A 
HETATM   12  C   UNK N   1      26.739  17.615   3.876  0.00  0.00     0.003 A 
HETATM   13  C   UNK N   1      25.383  17.665   4.214  0.00  0.00     0.037 A 
ENDBRANCH   7   8
ENDBRANCH   1   7
BRANCH   6  14
HETATM   14  N   UNK N   1      21.601  16.896   5.439  0.00  0.00    -0.282 N 
HETATM   15  H   UNK N   1      22.273  16.178   5.390  0.00  0.00     0.178 HD
BRANCH  14  16
HETATM   16  S   UNK N   1      20.636  17.062   6.897  0.00  0.00     0.227 S 
HETATM   17  O   UNK N   1      21.467  16.372   7.989  0.00  0.00    -0.206 OA
HETATM   18  C   UNK N   1      18.901  16.530   6.873  0.00  0.00     0.186 C 
HETATM   19  O   UNK N   1      20.798  18.541   7.277  0.00  0.00    -0.206 OA
ENDBRANCH  14  16
ENDBRANCH   6  14
BRANCH   5  20
HETATM   20  N   UNK N   1      20.862  20.519   1.168  0.00  0.00    -0.116 N 
HETATM   21  O   UNK N   1      20.712  21.796   1.454  0.00  0.00    -0.532 OA
HETATM   22  O   UNK N   1      20.861  20.170   0.026  0.00  0.00    -0.532 OA
ENDBRANCH   5  20
TORSDOF 5
ENDMDL
