REMARK  4 active torsions:
REMARK  status: ('A' for Active; 'I' for Inactive)
REMARK    1  A    between atoms: O_3  and  C_17 
REMARK    2  A    between atoms: C_7  and  C_8 
REMARK    3  A    between atoms: C_7  and  C_17 
REMARK    4  A    between atoms: C_15  and  C_16 
ROOT
HETATM    1  O   UNK N   1       6.441  -1.551   0.605  0.00  0.00    -0.291 OA
HETATM    2  N   UNK N   1       6.375   0.506  -0.236  0.00  0.00    -0.334 N 
ATOM      3  HN  UNK N   1       6.661   1.396  -0.644  1.00  0.00     0.168 HD
HETATM    4  C   UNK N   1       2.768   0.169   0.390  0.00  0.00    -0.042 A 
HETATM    5  C   UNK N   1       5.145   0.108   0.108  0.00  0.00     0.069 A 
HETATM    6  C   UNK N   1       3.957   0.809  -0.023  0.00  0.00     0.040 A 
HETATM    7  C   UNK N   1       5.196  -1.150   0.621  0.00  0.00     0.104 A 
HETATM    8  C   UNK N   1       2.827  -1.145   0.930  0.00  0.00     0.011 A 
HETATM    9  C   UNK N   1       4.059  -1.818   1.057  0.00  0.00     0.040 A 
HETATM   10  C   UNK N   1       7.152  -0.560   0.090  0.00  0.00     0.159 A 
ENDROOT
BRANCH  10  11
HETATM   11  C   UNK N   1       8.606  -0.579  -0.088  0.00  0.00     0.015 A 
HETATM   12  C   UNK N   1       9.260   0.554  -0.591  0.00  0.00     0.017 A 
HETATM   13  C   UNK N   1      10.649   0.564  -0.724  0.00  0.00     0.025 A 
HETATM   14  C   UNK N   1      11.392  -0.559  -0.356  0.00  0.00     0.034 A 
HETATM   15 Cl   UNK N   1      13.136  -0.532  -0.497  0.00  0.00    -0.084 Cl
HETATM   16  C   UNK N   1      10.745  -1.698   0.135  0.00  0.00     0.025 A 
HETATM   17  C   UNK N   1       9.353  -1.708   0.271  0.00  0.00     0.017 A 
ENDBRANCH  10  11
BRANCH   4  18
HETATM   18  C   UNK N   1       1.424   0.828   0.192  0.00  0.00     0.112 C 
HETATM   19  C   UNK N   1       1.537   2.318  -0.116  0.00  0.00     0.026 C 
BRANCH  18  20
HETATM   20  C   UNK N   1       0.638   0.158  -0.911  0.00  0.00     0.148 C 
HETATM   21  O   UNK N   1       1.127  -0.749  -1.569  0.00  0.00    -0.649 OA
BRANCH  20  22
HETATM   22  O   UNK N   1      -0.610   0.578  -1.191  0.00  0.00    -0.776 OA
HETATM   23  H   UNK N   1      -0.791   1.477  -1.385  0.00  0.00     0.167 HD
ENDBRANCH  20  22
ENDBRANCH  18  20
ENDBRANCH   4  18
TORSDOF 4
