MODEL 1
REMARK VINA RESULT:      -7.0      0.000      0.000
REMARK  4 active torsions:
REMARK  status: ('A' for Active; 'I' for Inactive)
REMARK    1  A    between atoms: O_3  and  C_17 
REMARK    2  A    between atoms: C_7  and  C_8 
REMARK    3  A    between atoms: C_7  and  C_17 
REMARK    4  A    between atoms: C_15  and  C_16 
ROOT
HETATM    1  O   UNK N   1      35.941  14.975  12.785  0.00  0.00    -0.291 OA
HETATM    2  N   UNK N   1      34.649  13.381  11.930  0.00  0.00    -0.334 N 
ATOM      3  HN  UNK N   1      34.148  12.501  11.807  1.00  0.00     0.168 HD
HETATM    4  C   UNK N   1      34.166  15.834   9.234  0.00  0.00    -0.042 A 
HETATM    5  C   UNK N   1      34.673  14.442  11.116  0.00  0.00     0.069 A 
HETATM    6  C   UNK N   1      34.007  14.605   9.912  0.00  0.00     0.040 A 
HETATM    7  C   UNK N   1      35.465  15.411  11.647  0.00  0.00     0.104 A 
HETATM    8  C   UNK N   1      34.999  16.842   9.792  0.00  0.00     0.011 A 
HETATM    9  C   UNK N   1      35.669  16.630  11.014  0.00  0.00     0.040 A 
HETATM   10  C   UNK N   1      35.452  13.757  12.959  0.00  0.00     0.159 A 
ENDROOT
BRANCH  10  11
HETATM   11  C   UNK N   1      35.753  12.891  14.102  0.00  0.00     0.015 A 
HETATM   12  C   UNK N   1      34.982  12.986  15.268  0.00  0.00     0.017 A 
HETATM   13  C   UNK N   1      35.230  12.137  16.347  0.00  0.00     0.025 A 
HETATM   14  C   UNK N   1      36.251  11.189  16.267  0.00  0.00     0.034 A 
HETATM   15 Cl   UNK N   1      36.540  10.106  17.611  0.00  0.00    -0.084 Cl
HETATM   16  C   UNK N   1      37.033  11.096  15.110  0.00  0.00     0.025 A 
HETATM   17  C   UNK N   1      36.783  11.945  14.027  0.00  0.00     0.017 A 
ENDBRANCH  10  11
BRANCH   4  18
HETATM   18  C   UNK N   1      33.399  16.125   7.966  0.00  0.00     0.112 C 
HETATM   19  C   UNK N   1      32.261  17.119   8.180  0.00  0.00     0.026 C 
BRANCH  18  20
HETATM   20  C   UNK N   1      34.309  16.648   6.879  0.00  0.00     0.148 C 
HETATM   21  O   UNK N   1      35.110  15.912   6.322  0.00  0.00    -0.649 OA
BRANCH  20  22
HETATM   22  O   UNK N   1      34.256  17.948   6.533  0.00  0.00    -0.776 OA
HETATM   23  H   UNK N   1      33.926  18.598   7.122  0.00  0.00     0.167 HD
ENDBRANCH  20  22
ENDBRANCH  18  20
ENDBRANCH   4  18
TORSDOF 4
ENDMDL
MODEL 2
REMARK VINA RESULT:      -6.9      9.190     12.670
REMARK  4 active torsions:
REMARK  status: ('A' for Active; 'I' for Inactive)
REMARK    1  A    between atoms: O_3  and  C_17 
REMARK    2  A    between atoms: C_7  and  C_8 
REMARK    3  A    between atoms: C_7  and  C_17 
REMARK    4  A    between atoms: C_15  and  C_16 
ROOT
HETATM    1  O   UNK N   1      27.293  19.659   4.683  0.00  0.00    -0.291 OA
HETATM    2  N   UNK N   1      26.086  18.036   5.606  0.00  0.00    -0.334 N 
ATOM      3  HN  UNK N   1      25.811  17.240   6.181  1.00  0.00     0.168 HD
HETATM    4  C   UNK N   1      23.435  19.383   3.445  0.00  0.00    -0.042 A 
HETATM    5  C   UNK N   1      25.346  18.718   4.725  0.00  0.00     0.069 A 
HETATM    6  C   UNK N   1      24.016  18.513   4.393  0.00  0.00     0.040 A 
HETATM    7  C   UNK N   1      26.092  19.707   4.166  0.00  0.00     0.104 A 
HETATM    8  C   UNK N   1      24.220  20.414   2.860  0.00  0.00     0.011 A 
HETATM    9  C   UNK N   1      25.574  20.579   3.217  0.00  0.00     0.040 A 
HETATM   10  C   UNK N   1      27.293  18.657   5.549  0.00  0.00     0.159 A 
ENDROOT
BRANCH  10  11
HETATM   11  C   UNK N   1      28.452  18.235   6.338  0.00  0.00     0.015 A 
HETATM   12  C   UNK N   1      29.472  17.488   5.732  0.00  0.00     0.017 A 
HETATM   13  C   UNK N   1      30.602  17.117   6.462  0.00  0.00     0.025 A 
HETATM   14  C   UNK N   1      30.719  17.491   7.802  0.00  0.00     0.034 A 
HETATM   15 Cl   UNK N   1      32.151  17.049   8.706  0.00  0.00    -0.084 Cl
HETATM   16  C   UNK N   1      29.700  18.226   8.417  0.00  0.00     0.025 A 
HETATM   17  C   UNK N   1      28.568  18.600   7.686  0.00  0.00     0.017 A 
ENDBRANCH  10  11
BRANCH   4  18
HETATM   18  C   UNK N   1      21.967  19.286   3.101  0.00  0.00     0.112 C 
HETATM   19  C   UNK N   1      21.082  19.130   4.334  0.00  0.00     0.026 C 
BRANCH  18  20
HETATM   20  C   UNK N   1      21.504  20.490   2.314  0.00  0.00     0.148 C 
HETATM   21  O   UNK N   1      21.547  20.496   1.093  0.00  0.00    -0.649 OA
BRANCH  20  22
HETATM   22  O   UNK N   1      21.059  21.582   2.965  0.00  0.00    -0.776 OA
HETATM   23  H   UNK N   1      20.470  22.187   2.557  0.00  0.00     0.167 HD
ENDBRANCH  20  22
ENDBRANCH  18  20
ENDBRANCH   4  18
TORSDOF 4
ENDMDL
MODEL 3
REMARK VINA RESULT:      -6.8      2.205      3.206
REMARK  4 active torsions:
REMARK  status: ('A' for Active; 'I' for Inactive)
REMARK    1  A    between atoms: O_3  and  C_17 
REMARK    2  A    between atoms: C_7  and  C_8 
REMARK    3  A    between atoms: C_7  and  C_17 
REMARK    4  A    between atoms: C_15  and  C_16 
ROOT
HETATM    1  O   UNK N   1      35.048  11.666  13.860  0.00  0.00    -0.291 OA
HETATM    2  N   UNK N   1      35.644  13.729  14.436  0.00  0.00    -0.334 N 
ATOM      3  HN  UNK N   1      35.909  14.542  14.993  1.00  0.00     0.168 HD
HETATM    4  C   UNK N   1      35.484  14.312  10.810  0.00  0.00    -0.042 A 
HETATM    5  C   UNK N   1      35.494  13.645  13.109  0.00  0.00     0.069 A 
HETATM    6  C   UNK N   1      35.679  14.645  12.168  0.00  0.00     0.040 A 
HETATM    7  C   UNK N   1      35.130  12.381  12.768  0.00  0.00     0.104 A 
HETATM    8  C   UNK N   1      35.099  12.989  10.458  0.00  0.00     0.011 A 
HETATM    9  C   UNK N   1      34.910  12.005  11.449  0.00  0.00     0.040 A 
HETATM   10  C   UNK N   1      35.358  12.472  14.864  0.00  0.00     0.159 A 
ENDROOT
BRANCH  10  11
HETATM   11  C   UNK N   1      35.367  12.082  16.276  0.00  0.00     0.015 A 
HETATM   12  C   UNK N   1      35.207  13.059  17.269  0.00  0.00     0.017 A 
HETATM   13  C   UNK N   1      35.170  12.695  18.615  0.00  0.00     0.025 A 
HETATM   14  C   UNK N   1      35.294  11.353  18.978  0.00  0.00     0.034 A 
HETATM   15 Cl   UNK N   1      35.218  10.897  20.665  0.00  0.00    -0.084 Cl
HETATM   16  C   UNK N   1      35.467  10.374  17.993  0.00  0.00     0.025 A 
HETATM   17  C   UNK N   1      35.502  10.737  16.643  0.00  0.00     0.017 A 
ENDBRANCH  10  11
BRANCH   4  18
HETATM   18  C   UNK N   1      35.758  15.318   9.718  0.00  0.00     0.112 C 
HETATM   19  C   UNK N   1      35.433  14.783   8.327  0.00  0.00     0.026 C 
BRANCH  18  20
HETATM   20  C   UNK N   1      34.988  16.599   9.942  0.00  0.00     0.148 C 
HETATM   21  O   UNK N   1      35.564  17.634  10.246  0.00  0.00    -0.649 OA
BRANCH  20  22
HETATM   22  O   UNK N   1      33.646  16.599   9.830  0.00  0.00    -0.776 OA
HETATM   23  H   UNK N   1      33.166  15.805   9.701  0.00  0.00     0.167 HD
ENDBRANCH  20  22
ENDBRANCH  18  20
ENDBRANCH   4  18
TORSDOF 4
ENDMDL
MODEL 4
REMARK VINA RESULT:      -6.7      7.953     11.730
REMARK  4 active torsions:
REMARK  status: ('A' for Active; 'I' for Inactive)
REMARK    1  A    between atoms: O_3  and  C_17 
REMARK    2  A    between atoms: C_7  and  C_8 
REMARK    3  A    between atoms: C_7  and  C_17 
REMARK    4  A    between atoms: C_15  and  C_16 
ROOT
HETATM    1  O   UNK N   1      28.230  18.317   6.466  0.00  0.00    -0.291 OA
HETATM    2  N   UNK N   1      29.131  17.945   4.468  0.00  0.00    -0.334 N 
ATOM      3  HN  UNK N   1      29.264  17.901   3.458  1.00  0.00     0.168 HD
HETATM    4  C   UNK N   1      31.942  16.670   6.465  0.00  0.00    -0.042 A 
HETATM    5  C   UNK N   1      29.967  17.547   5.434  0.00  0.00     0.069 A 
HETATM    6  C   UNK N   1      31.228  16.991   5.290  0.00  0.00     0.040 A 
HETATM    7  C   UNK N   1      29.407  17.778   6.651  0.00  0.00     0.104 A 
HETATM    8  C   UNK N   1      31.350  16.910   7.736  0.00  0.00     0.011 A 
HETATM    9  C   UNK N   1      30.059  17.466   7.837  0.00  0.00     0.040 A 
HETATM   10  C   UNK N   1      28.060  18.420   5.157  0.00  0.00     0.159 A 
ENDROOT
BRANCH  10  11
HETATM   11  C   UNK N   1      26.859  18.951   4.509  0.00  0.00     0.015 A 
HETATM   12  C   UNK N   1      25.605  18.405   4.814  0.00  0.00     0.017 A 
HETATM   13  C   UNK N   1      24.449  18.931   4.236  0.00  0.00     0.025 A 
HETATM   14  C   UNK N   1      24.540  20.006   3.350  0.00  0.00     0.034 A 
HETATM   15 Cl   UNK N   1      23.085  20.682   2.651  0.00  0.00    -0.084 Cl
HETATM   16  C   UNK N   1      25.789  20.549   3.032  0.00  0.00     0.025 A 
HETATM   17  C   UNK N   1      26.949  20.023   3.612  0.00  0.00     0.017 A 
ENDBRANCH  10  11
BRANCH   4  18
HETATM   18  C   UNK N   1      33.358  16.150   6.395  0.00  0.00     0.112 C 
HETATM   19  C   UNK N   1      33.924  16.171   4.978  0.00  0.00     0.026 C 
BRANCH  18  20
HETATM   20  C   UNK N   1      34.279  16.933   7.302  0.00  0.00     0.148 C 
HETATM   21  O   UNK N   1      34.776  16.414   8.291  0.00  0.00    -0.649 OA
BRANCH  20  22
HETATM   22  O   UNK N   1      34.540  18.226   7.033  0.00  0.00    -0.776 OA
HETATM   23  H   UNK N   1      33.892  18.891   7.156  0.00  0.00     0.167 HD
ENDBRANCH  20  22
ENDBRANCH  18  20
ENDBRANCH   4  18
TORSDOF 4
ENDMDL
MODEL 5
REMARK VINA RESULT:      -6.6      1.711      2.230
REMARK  4 active torsions:
REMARK  status: ('A' for Active; 'I' for Inactive)
REMARK    1  A    between atoms: O_3  and  C_17 
REMARK    2  A    between atoms: C_7  and  C_8 
REMARK    3  A    between atoms: C_7  and  C_17 
REMARK    4  A    between atoms: C_15  and  C_16 
ROOT
HETATM    1  O   UNK N   1      34.891  12.804  11.006  0.00  0.00    -0.291 OA
HETATM    2  N   UNK N   1      34.994  14.866  11.831  0.00  0.00    -0.334 N 
ATOM      3  HN  UNK N   1      35.075  15.646  12.482  1.00  0.00     0.168 HD
HETATM    4  C   UNK N   1      34.582  15.821   8.304  0.00  0.00    -0.042 A 
HETATM    5  C   UNK N   1      34.826  14.907  10.504  0.00  0.00     0.069 A 
HETATM    6  C   UNK N   1      34.735  16.027   9.693  0.00  0.00     0.040 A 
HETATM    7  C   UNK N   1      34.763  13.642  10.010  0.00  0.00     0.104 A 
HETATM    8  C   UNK N   1      34.513  14.496   7.793  0.00  0.00     0.011 A 
HETATM    9  C   UNK N   1      34.597  13.384   8.655  0.00  0.00     0.040 A 
HETATM   10  C   UNK N   1      35.031  13.535  12.101  0.00  0.00     0.159 A 
ENDROOT
BRANCH  10  11
HETATM   11  C   UNK N   1      35.179  12.994  13.454  0.00  0.00     0.015 A 
HETATM   12  C   UNK N   1      36.024  13.634  14.371  0.00  0.00     0.017 A 
HETATM   13  C   UNK N   1      36.140  13.154  15.676  0.00  0.00     0.025 A 
HETATM   14  C   UNK N   1      35.413  12.030  16.071  0.00  0.00     0.034 A 
HETATM   15 Cl   UNK N   1      35.539  11.448  17.717  0.00  0.00    -0.084 Cl
HETATM   16  C   UNK N   1      34.577  11.378  15.158  0.00  0.00     0.025 A 
HETATM   17  C   UNK N   1      34.459  11.860  13.851  0.00  0.00     0.017 A 
ENDBRANCH  10  11
BRANCH   4  18
HETATM   18  C   UNK N   1      34.571  16.986   7.345  0.00  0.00     0.112 C 
HETATM   19  C   UNK N   1      33.669  16.749   6.137  0.00  0.00     0.026 C 
BRANCH  18  20
HETATM   20  C   UNK N   1      34.144  18.263   8.031  0.00  0.00     0.148 C 
HETATM   21  O   UNK N   1      32.962  18.501   8.235  0.00  0.00    -0.649 OA
BRANCH  20  22
HETATM   22  O   UNK N   1      35.073  19.163   8.404  0.00  0.00    -0.776 OA
HETATM   23  H   UNK N   1      35.167  19.982   7.958  0.00  0.00     0.167 HD
ENDBRANCH  20  22
ENDBRANCH  18  20
ENDBRANCH   4  18
TORSDOF 4
ENDMDL
MODEL 6
REMARK VINA RESULT:      -6.6      4.022      8.155
REMARK  4 active torsions:
REMARK  status: ('A' for Active; 'I' for Inactive)
REMARK    1  A    between atoms: O_3  and  C_17 
REMARK    2  A    between atoms: C_7  and  C_8 
REMARK    3  A    between atoms: C_7  and  C_17 
REMARK    4  A    between atoms: C_15  and  C_16 
ROOT
HETATM    1  O   UNK N   1      35.707  14.006   9.648  0.00  0.00    -0.291 OA
HETATM    2  N   UNK N   1      35.253  15.833  10.831  0.00  0.00    -0.334 N 
ATOM      3  HN  UNK N   1      34.950  16.773  11.084  1.00  0.00     0.168 HD
HETATM    4  C   UNK N   1      36.528  13.806  13.621  0.00  0.00    -0.042 A 
HETATM    5  C   UNK N   1      35.766  14.885  11.624  0.00  0.00     0.069 A 
HETATM    6  C   UNK N   1      35.997  14.951  12.988  0.00  0.00     0.040 A 
HETATM    7  C   UNK N   1      36.041  13.773  10.892  0.00  0.00     0.104 A 
HETATM    8  C   UNK N   1      36.818  12.647  12.850  0.00  0.00     0.011 A 
HETATM    9  C   UNK N   1      36.579  12.626  11.461  0.00  0.00     0.040 A 
HETATM   10  C   UNK N   1      35.232  15.241   9.608  0.00  0.00     0.159 A 
ENDROOT
BRANCH  10  11
HETATM   11  C   UNK N   1      34.764  15.918   8.396  0.00  0.00     0.015 A 
HETATM   12  C   UNK N   1      34.887  15.282   7.153  0.00  0.00     0.017 A 
HETATM   13  C   UNK N   1      34.405  15.897   5.997  0.00  0.00     0.025 A 
HETATM   14  C   UNK N   1      33.798  17.151   6.077  0.00  0.00     0.034 A 
HETATM   15 Cl   UNK N   1      33.169  17.906   4.629  0.00  0.00    -0.084 Cl
HETATM   16  C   UNK N   1      33.682  17.797   7.312  0.00  0.00     0.025 A 
HETATM   17  C   UNK N   1      34.163  17.180   8.472  0.00  0.00     0.017 A 
ENDBRANCH  10  11
BRANCH   4  18
HETATM   18  C   UNK N   1      36.719  13.766  15.118  0.00  0.00     0.112 C 
HETATM   19  C   UNK N   1      37.251  15.080  15.681  0.00  0.00     0.026 C 
BRANCH  18  20
HETATM   20  C   UNK N   1      35.433  13.413  15.829  0.00  0.00     0.148 C 
HETATM   21  O   UNK N   1      34.488  12.935  15.217  0.00  0.00    -0.649 OA
BRANCH  20  22
HETATM   22  O   UNK N   1      35.314  13.648  17.149  0.00  0.00    -0.776 OA
HETATM   23  H   UNK N   1      35.877  13.233  17.772  0.00  0.00     0.167 HD
ENDBRANCH  20  22
ENDBRANCH  18  20
ENDBRANCH   4  18
TORSDOF 4
ENDMDL
MODEL 7
REMARK VINA RESULT:      -6.5      6.832     10.761
REMARK  4 active torsions:
REMARK  status: ('A' for Active; 'I' for Inactive)
REMARK    1  A    between atoms: O_3  and  C_17 
REMARK    2  A    between atoms: C_7  and  C_8 
REMARK    3  A    between atoms: C_7  and  C_17 
REMARK    4  A    between atoms: C_15  and  C_16 
ROOT
HETATM    1  O   UNK N   1      28.380  17.398   6.314  0.00  0.00    -0.291 OA
HETATM    2  N   UNK N   1      29.941  16.138   5.354  0.00  0.00    -0.334 N 
ATOM      3  HN  UNK N   1      30.415  15.507   4.708  1.00  0.00     0.168 HD
HETATM    4  C   UNK N   1      32.003  17.340   8.150  0.00  0.00    -0.042 A 
HETATM    5  C   UNK N   1      30.429  16.718   6.457  0.00  0.00     0.069 A 
HETATM    6  C   UNK N   1      31.708  16.610   6.978  0.00  0.00     0.040 A 
HETATM    7  C   UNK N   1      29.468  17.485   7.036  0.00  0.00     0.104 A 
HETATM    8  C   UNK N   1      30.993  18.138   8.755  0.00  0.00     0.011 A 
HETATM    9  C   UNK N   1      29.700  18.210   8.198  0.00  0.00     0.040 A 
HETATM   10  C   UNK N   1      28.661  16.591   5.303  0.00  0.00     0.159 A 
ENDROOT
BRANCH  10  11
HETATM   11  C   UNK N   1      27.710  16.197   4.259  0.00  0.00     0.015 A 
HETATM   12  C   UNK N   1      28.160  15.477   3.145  0.00  0.00     0.017 A 
HETATM   13  C   UNK N   1      27.258  15.058   2.166  0.00  0.00     0.025 A 
HETATM   14  C   UNK N   1      25.901  15.359   2.295  0.00  0.00     0.034 A 
HETATM   15 Cl   UNK N   1      24.769  14.808   1.080  0.00  0.00    -0.084 Cl
HETATM   16  C   UNK N   1      25.447  16.089   3.398  0.00  0.00     0.025 A 
HETATM   17  C   UNK N   1      26.350  16.507   4.381  0.00  0.00     0.017 A 
ENDBRANCH  10  11
BRANCH   4  18
HETATM   18  C   UNK N   1      33.398  17.351   8.726  0.00  0.00     0.112 C 
HETATM   19  C   UNK N   1      34.004  15.955   8.833  0.00  0.00     0.026 C 
BRANCH  18  20
HETATM   20  C   UNK N   1      34.324  18.226   7.913  0.00  0.00     0.148 C 
HETATM   21  O   UNK N   1      34.916  19.163   8.428  0.00  0.00    -0.649 OA
BRANCH  20  22
HETATM   22  O   UNK N   1      34.484  17.987   6.598  0.00  0.00    -0.776 OA
HETATM   23  H   UNK N   1      35.215  18.333   6.124  0.00  0.00     0.167 HD
ENDBRANCH  20  22
ENDBRANCH  18  20
ENDBRANCH   4  18
TORSDOF 4
ENDMDL
MODEL 8
REMARK VINA RESULT:      -6.5      8.956     12.432
REMARK  4 active torsions:
REMARK  status: ('A' for Active; 'I' for Inactive)
REMARK    1  A    between atoms: O_3  and  C_17 
REMARK    2  A    between atoms: C_7  and  C_8 
REMARK    3  A    between atoms: C_7  and  C_17 
REMARK    4  A    between atoms: C_15  and  C_16 
ROOT
HETATM    1  O   UNK N   1      27.278  19.514   4.965  0.00  0.00    -0.291 OA
HETATM    2  N   UNK N   1      26.267  17.686   5.726  0.00  0.00    -0.334 N 
ATOM      3  HN  UNK N   1      26.087  16.812   6.220  1.00  0.00     0.168 HD
HETATM    4  C   UNK N   1      23.453  18.948   3.724  0.00  0.00    -0.042 A 
HETATM    5  C   UNK N   1      25.444  18.369   4.922  0.00  0.00     0.069 A 
HETATM    6  C   UNK N   1      24.139  18.056   4.578  0.00  0.00     0.040 A 
HETATM    7  C   UNK N   1      26.071  19.484   4.462  0.00  0.00     0.104 A 
HETATM    8  C   UNK N   1      24.115  20.110   3.242  0.00  0.00     0.011 A 
HETATM    9  C   UNK N   1      25.448  20.384   3.608  0.00  0.00     0.040 A 
HETATM   10  C   UNK N   1      27.399  18.437   5.726  0.00  0.00     0.159 A 
ENDROOT
BRANCH  10  11
HETATM   11  C   UNK N   1      28.609  18.067   6.464  0.00  0.00     0.015 A 
HETATM   12  C   UNK N   1      29.631  17.361   5.814  0.00  0.00     0.017 A 
HETATM   13  C   UNK N   1      30.807  17.040   6.493  0.00  0.00     0.025 A 
HETATM   14  C   UNK N   1      30.968  17.422   7.826  0.00  0.00     0.034 A 
HETATM   15 Cl   UNK N   1      32.456  17.043   8.665  0.00  0.00    -0.084 Cl
HETATM   16  C   UNK N   1      29.947  18.116   8.485  0.00  0.00     0.025 A 
HETATM   17  C   UNK N   1      28.769  18.440   7.804  0.00  0.00     0.017 A 
ENDBRANCH  10  11
BRANCH   4  18
HETATM   18  C   UNK N   1      21.999  18.727   3.380  0.00  0.00     0.112 C 
HETATM   19  C   UNK N   1      21.590  17.260   3.457  0.00  0.00     0.026 C 
BRANCH  18  20
HETATM   20  C   UNK N   1      21.091  19.537   4.277  0.00  0.00     0.148 C 
HETATM   21  O   UNK N   1      20.408  20.444   3.824  0.00  0.00    -0.649 OA
BRANCH  20  22
HETATM   22  O   UNK N   1      21.048  19.273   5.596  0.00  0.00    -0.776 OA
HETATM   23  H   UNK N   1      20.266  19.404   6.095  0.00  0.00     0.167 HD
ENDBRANCH  20  22
ENDBRANCH  18  20
ENDBRANCH   4  18
TORSDOF 4
ENDMDL
MODEL 9
REMARK VINA RESULT:      -6.3     13.865     15.615
REMARK  4 active torsions:
REMARK  status: ('A' for Active; 'I' for Inactive)
REMARK    1  A    between atoms: O_3  and  C_17 
REMARK    2  A    between atoms: C_7  and  C_8 
REMARK    3  A    between atoms: C_7  and  C_17 
REMARK    4  A    between atoms: C_15  and  C_16 
ROOT
HETATM    1  O   UNK N   1      20.183  15.776   5.609  0.00  0.00    -0.291 OA
HETATM    2  N   UNK N   1      21.787  17.088   6.416  0.00  0.00    -0.334 N 
ATOM      3  HN  UNK N   1      22.532  17.456   7.007  1.00  0.00     0.168 HD
HETATM    4  C   UNK N   1      20.941  19.166   3.504  0.00  0.00    -0.042 A 
HETATM    5  C   UNK N   1      21.264  17.626   5.309  0.00  0.00     0.069 A 
HETATM    6  C   UNK N   1      21.624  18.811   4.688  0.00  0.00     0.040 A 
HETATM    7  C   UNK N   1      20.285  16.817   4.823  0.00  0.00     0.104 A 
HETATM    8  C   UNK N   1      19.915  18.318   3.002  0.00  0.00     0.011 A 
HETATM    9  C   UNK N   1      19.572  17.127   3.673  0.00  0.00     0.040 A 
HETATM   10  C   UNK N   1      21.084  15.935   6.566  0.00  0.00     0.159 A 
ENDROOT
BRANCH  10  11
HETATM   11  C   UNK N   1      21.294  15.005   7.679  0.00  0.00     0.015 A 
HETATM   12  C   UNK N   1      22.427  14.180   7.691  0.00  0.00     0.017 A 
HETATM   13  C   UNK N   1      22.661  13.321   8.766  0.00  0.00     0.025 A 
HETATM   14  C   UNK N   1      21.763  13.282   9.834  0.00  0.00     0.034 A 
HETATM   15 Cl   UNK N   1      22.075  12.226  11.194  0.00  0.00    -0.084 Cl
HETATM   16  C   UNK N   1      20.624  14.093   9.823  0.00  0.00     0.025 A 
HETATM   17  C   UNK N   1      20.390  14.956   8.747  0.00  0.00     0.017 A 
ENDBRANCH  10  11
BRANCH   4  18
HETATM   18  C   UNK N   1      21.339  20.391   2.717  0.00  0.00     0.112 C 
HETATM   19  C   UNK N   1      22.851  20.588   2.655  0.00  0.00     0.026 C 
BRANCH  18  20
HETATM   20  C   UNK N   1      20.794  20.344   1.308  0.00  0.00     0.148 C 
HETATM   21  O   UNK N   1      21.055  19.409   0.565  0.00  0.00    -0.649 OA
BRANCH  20  22
HETATM   22  O   UNK N   1      20.028  21.354   0.854  0.00  0.00    -0.776 OA
HETATM   23  H   UNK N   1      19.998  22.180   1.295  0.00  0.00     0.167 HD
ENDBRANCH  20  22
ENDBRANCH  18  20
ENDBRANCH   4  18
TORSDOF 4
ENDMDL
