REMARK  4 active torsions:
REMARK  status: ('A' for Active; 'I' for Inactive)
REMARK    1  A    between atoms: S_5  and  C_8 
REMARK    2  A    between atoms: S_5  and  C_9 
REMARK    3  A    between atoms: O_6  and  C_10 
REMARK    4  A    between atoms: O_7  and  C_11 
ROOT
HETATM    1  S   UNK N   1       2.745   0.551  -0.000  0.00  0.00    -0.085 SA
ENDROOT
BRANCH   1   2
HETATM    2  C   UNK N   1       4.451   1.179  -0.000  0.00  0.00     0.042 A 
HETATM    3  C   UNK N   1       4.653   2.570  -0.000  0.00  0.00     0.104 A 
HETATM    4  C   UNK N   1       5.958   3.090   0.000  0.00  0.00     0.070 A 
HETATM    5 Cl   UNK N   1       6.228   4.823   0.000  0.00  0.00    -0.081 Cl
HETATM    6  C   UNK N   1       7.057   2.226   0.000  0.00  0.00     0.050 A 
HETATM    7  C   UNK N   1       6.858   0.847   0.000  0.00  0.00     0.037 A 
HETATM    8 Cl   UNK N   1       8.221  -0.250   0.000  0.00  0.00    -0.084 Cl
HETATM    9  C   UNK N   1       5.564   0.335  -0.000  0.00  0.00     0.045 A 
BRANCH   3  10
HETATM   10  O   UNK N   1       3.599   3.405  -0.000  0.00  0.00    -0.358 OA
HETATM   11  H   UNK N   1       3.735   4.332  -0.000  0.00  0.00     0.217 HD
ENDBRANCH   3  10
ENDBRANCH   1   2
BRANCH   1  12
HETATM   12  C   UNK N   1       2.854  -1.265  -0.000  0.00  0.00     0.042 A 
HETATM   13  C   UNK N   1       1.659  -2.004  -0.000  0.00  0.00     0.104 A 
HETATM   14  C   UNK N   1       1.700  -3.408   0.000  0.00  0.00     0.070 A 
HETATM   15 Cl   UNK N   1       0.216  -4.341   0.000  0.00  0.00    -0.081 Cl
HETATM   16  C   UNK N   1       2.928  -4.074   0.000  0.00  0.00     0.050 A 
HETATM   17  C   UNK N   1       4.115  -3.345   0.000  0.00  0.00     0.037 A 
HETATM   18 Cl   UNK N   1       5.661  -4.166   0.000  0.00  0.00    -0.084 Cl
HETATM   19  C   UNK N   1       4.073  -1.953  -0.000  0.00  0.00     0.045 A 
BRANCH  13  20
HETATM   20  O   UNK N   1       0.475  -1.367  -0.000  0.00  0.00    -0.358 OA
HETATM   21  H   UNK N   1       0.446  -0.431  -0.000  0.00  0.00     0.217 HD
ENDBRANCH  13  20
ENDBRANCH   1  12
TORSDOF 4
