MODEL 1
REMARK VINA RESULT:      -6.2      0.000      0.000
REMARK  4 active torsions:
REMARK  status: ('A' for Active; 'I' for Inactive)
REMARK    1  A    between atoms: S_5  and  C_8 
REMARK    2  A    between atoms: S_5  and  C_9 
REMARK    3  A    between atoms: O_6  and  C_10 
REMARK    4  A    between atoms: O_7  and  C_11 
ROOT
HETATM    1  S   UNK N   1      29.200  17.099   7.581  0.00  0.00    -0.085 SA
ENDROOT
BRANCH   1   2
HETATM    2  C   UNK N   1      28.081  18.108   6.564  0.00  0.00     0.042 A 
HETATM    3  C   UNK N   1      27.406  17.491   5.497  0.00  0.00     0.104 A 
HETATM    4  C   UNK N   1      26.534  18.241   4.690  0.00  0.00     0.070 A 
HETATM    5 Cl   UNK N   1      25.685  17.487   3.354  0.00  0.00    -0.081 Cl
HETATM    6  C   UNK N   1      26.336  19.601   4.947  0.00  0.00     0.050 A 
HETATM    7  C   UNK N   1      27.004  20.213   6.005  0.00  0.00     0.037 A 
HETATM    8 Cl   UNK N   1      26.768  21.914   6.343  0.00  0.00    -0.084 Cl
HETATM    9  C   UNK N   1      27.867  19.468   6.803  0.00  0.00     0.045 A 
BRANCH   3  10
HETATM   10  O   UNK N   1      27.594  16.184   5.245  0.00  0.00    -0.358 OA
HETATM   11  H   UNK N   1      27.224  15.539   5.815  0.00  0.00     0.217 HD
ENDBRANCH   3  10
ENDBRANCH   1   2
BRANCH   1  12
HETATM   12  C   UNK N   1      30.861  17.267   6.859  0.00  0.00     0.042 A 
HETATM   13  C   UNK N   1      31.933  17.568   7.716  0.00  0.00     0.104 A 
HETATM   14  C   UNK N   1      33.231  17.706   7.197  0.00  0.00     0.070 A 
HETATM   15 Cl   UNK N   1      34.576  18.081   8.257  0.00  0.00    -0.081 Cl
HETATM   16  C   UNK N   1      33.461  17.544   5.829  0.00  0.00     0.050 A 
HETATM   17  C   UNK N   1      32.401  17.245   4.976  0.00  0.00     0.037 A 
HETATM   18 Cl   UNK N   1      32.673  17.040   3.259  0.00  0.00    -0.084 Cl
HETATM   19  C   UNK N   1      31.114  17.109   5.491  0.00  0.00     0.045 A 
BRANCH  13  20
HETATM   20  O   UNK N   1      31.716  17.724   9.034  0.00  0.00    -0.358 OA
HETATM   21  H   UNK N   1      32.425  17.950   9.602  0.00  0.00     0.217 HD
ENDBRANCH  13  20
ENDBRANCH   1  12
TORSDOF 4
ENDMDL
MODEL 2
REMARK VINA RESULT:      -6.2      0.020      6.513
REMARK  4 active torsions:
REMARK  status: ('A' for Active; 'I' for Inactive)
REMARK    1  A    between atoms: S_5  and  C_8 
REMARK    2  A    between atoms: S_5  and  C_9 
REMARK    3  A    between atoms: O_6  and  C_10 
REMARK    4  A    between atoms: O_7  and  C_11 
ROOT
HETATM    1  S   UNK N   1      29.189  17.109   7.588  0.00  0.00    -0.085 SA
ENDROOT
BRANCH   1   2
HETATM    2  C   UNK N   1      30.851  17.269   6.871  0.00  0.00     0.042 A 
HETATM    3  C   UNK N   1      31.925  17.564   7.729  0.00  0.00     0.104 A 
HETATM    4  C   UNK N   1      33.224  17.694   7.209  0.00  0.00     0.070 A 
HETATM    5 Cl   UNK N   1      34.575  18.062   8.264  0.00  0.00    -0.081 Cl
HETATM    6  C   UNK N   1      33.450  17.531   5.839  0.00  0.00     0.050 A 
HETATM    7  C   UNK N   1      32.386  17.238   4.988  0.00  0.00     0.037 A 
HETATM    8 Cl   UNK N   1      32.650  17.031   3.271  0.00  0.00    -0.084 Cl
HETATM    9  C   UNK N   1      31.101  17.110   5.506  0.00  0.00     0.045 A 
BRANCH   3  10
HETATM   10  O   UNK N   1      31.713  17.721   9.047  0.00  0.00    -0.358 OA
HETATM   11  H   UNK N   1      32.018  18.493   9.483  0.00  0.00     0.217 HD
ENDBRANCH   3  10
ENDBRANCH   1   2
BRANCH   1  12
HETATM   12  C   UNK N   1      28.077  18.125   6.568  0.00  0.00     0.042 A 
HETATM   13  C   UNK N   1      27.403  17.508   5.501  0.00  0.00     0.104 A 
HETATM   14  C   UNK N   1      26.535  18.257   4.689  0.00  0.00     0.070 A 
HETATM   15 Cl   UNK N   1      25.689  17.499   3.355  0.00  0.00    -0.081 Cl
HETATM   16  C   UNK N   1      26.340  19.618   4.940  0.00  0.00     0.050 A 
HETATM   17  C   UNK N   1      27.007  20.233   5.997  0.00  0.00     0.037 A 
HETATM   18 Cl   UNK N   1      26.772  21.937   6.323  0.00  0.00    -0.084 Cl
HETATM   19  C   UNK N   1      27.866  19.489   6.801  0.00  0.00     0.045 A 
BRANCH  13  20
HETATM   20  O   UNK N   1      27.588  16.199   5.256  0.00  0.00    -0.358 OA
HETATM   21  H   UNK N   1      28.453  15.843   5.239  0.00  0.00     0.217 HD
ENDBRANCH  13  20
ENDBRANCH   1  12
TORSDOF 4
ENDMDL
MODEL 3
REMARK VINA RESULT:      -6.1      3.659      7.791
REMARK  4 active torsions:
REMARK  status: ('A' for Active; 'I' for Inactive)
REMARK    1  A    between atoms: S_5  and  C_8 
REMARK    2  A    between atoms: S_5  and  C_9 
REMARK    3  A    between atoms: O_6  and  C_10 
REMARK    4  A    between atoms: O_7  and  C_11 
ROOT
HETATM    1  S   UNK N   1      34.436  17.854   8.362  0.00  0.00    -0.085 SA
ENDROOT
BRANCH   1   2
HETATM    2  C   UNK N   1      34.911  16.225   9.016  0.00  0.00     0.042 A 
HETATM    3  C   UNK N   1      35.149  16.100  10.395  0.00  0.00     0.104 A 
HETATM    4  C   UNK N   1      35.518  14.857  10.934  0.00  0.00     0.070 A 
HETATM    5 Cl   UNK N   1      35.819  14.683  12.653  0.00  0.00    -0.081 Cl
HETATM    6  C   UNK N   1      35.648  13.742  10.101  0.00  0.00     0.050 A 
HETATM    7  C   UNK N   1      35.412  13.864   8.733  0.00  0.00     0.037 A 
HETATM    8 Cl   UNK N   1      35.569  12.480   7.674  0.00  0.00    -0.084 Cl
HETATM    9  C   UNK N   1      35.047  15.098   8.202  0.00  0.00     0.045 A 
BRANCH   3  10
HETATM   10  O   UNK N   1      35.026  17.170  11.201  0.00  0.00    -0.358 OA
HETATM   11  H   UNK N   1      35.548  17.933  11.051  0.00  0.00     0.217 HD
ENDBRANCH   3  10
ENDBRANCH   1   2
BRANCH   1  12
HETATM   12  C   UNK N   1      33.080  17.571   7.183  0.00  0.00     0.042 A 
HETATM   13  C   UNK N   1      31.775  17.444   7.687  0.00  0.00     0.104 A 
HETATM   14  C   UNK N   1      30.700  17.225   6.810  0.00  0.00     0.070 A 
HETATM   15 Cl   UNK N   1      29.067  17.064   7.426  0.00  0.00    -0.081 Cl
HETATM   16  C   UNK N   1      30.924  17.133   5.434  0.00  0.00     0.050 A 
HETATM   17  C   UNK N   1      32.217  17.259   4.930  0.00  0.00     0.037 A 
HETATM   18 Cl   UNK N   1      32.514  17.147   3.208  0.00  0.00    -0.084 Cl
HETATM   19  C   UNK N   1      33.282  17.476   5.801  0.00  0.00     0.045 A 
BRANCH  13  20
HETATM   20  O   UNK N   1      31.554  17.531   9.010  0.00  0.00    -0.358 OA
HETATM   21  H   UNK N   1      31.474  16.753   9.525  0.00  0.00     0.217 HD
ENDBRANCH  13  20
ENDBRANCH   1  12
TORSDOF 4
ENDMDL
MODEL 4
REMARK VINA RESULT:      -6.1      3.658      5.570
REMARK  4 active torsions:
REMARK  status: ('A' for Active; 'I' for Inactive)
REMARK    1  A    between atoms: S_5  and  C_8 
REMARK    2  A    between atoms: S_5  and  C_9 
REMARK    3  A    between atoms: O_6  and  C_10 
REMARK    4  A    between atoms: O_7  and  C_11 
ROOT
HETATM    1  S   UNK N   1      34.437  17.853   8.349  0.00  0.00    -0.085 SA
ENDROOT
BRANCH   1   2
HETATM    2  C   UNK N   1      33.076  17.570   7.177  0.00  0.00     0.042 A 
HETATM    3  C   UNK N   1      31.772  17.438   7.684  0.00  0.00     0.104 A 
HETATM    4  C   UNK N   1      30.696  17.219   6.807  0.00  0.00     0.070 A 
HETATM    5 Cl   UNK N   1      29.063  17.053   7.423  0.00  0.00    -0.081 Cl
HETATM    6  C   UNK N   1      30.921  17.132   5.430  0.00  0.00     0.050 A 
HETATM    7  C   UNK N   1      32.214  17.263   4.926  0.00  0.00     0.037 A 
HETATM    8 Cl   UNK N   1      32.515  17.157   3.206  0.00  0.00    -0.084 Cl
HETATM    9  C   UNK N   1      33.277  17.480   5.798  0.00  0.00     0.045 A 
BRANCH   3  10
HETATM   10  O   UNK N   1      31.551  17.522   9.008  0.00  0.00    -0.358 OA
HETATM   11  H   UNK N   1      30.725  17.258   9.363  0.00  0.00     0.217 HD
ENDBRANCH   3  10
ENDBRANCH   1   2
BRANCH   1  12
HETATM   12  C   UNK N   1      34.924  16.222   8.991  0.00  0.00     0.042 A 
HETATM   13  C   UNK N   1      35.150  16.090  10.372  0.00  0.00     0.104 A 
HETATM   14  C   UNK N   1      35.528  14.847  10.907  0.00  0.00     0.070 A 
HETATM   15 Cl   UNK N   1      35.813  14.670  12.628  0.00  0.00    -0.081 Cl
HETATM   16  C   UNK N   1      35.679  13.739  10.070  0.00  0.00     0.050 A 
HETATM   17  C   UNK N   1      35.456  13.866   8.701  0.00  0.00     0.037 A 
HETATM   18 Cl   UNK N   1      35.641  12.486   7.640  0.00  0.00    -0.084 Cl
HETATM   19  C   UNK N   1      35.081  15.098   8.171  0.00  0.00     0.045 A 
BRANCH  13  20
HETATM   20  O   UNK N   1      35.006  17.154  11.181  0.00  0.00    -0.358 OA
HETATM   21  H   UNK N   1      34.202  17.634  11.185  0.00  0.00     0.217 HD
ENDBRANCH  13  20
ENDBRANCH   1  12
TORSDOF 4
ENDMDL
MODEL 5
REMARK VINA RESULT:      -6.0      9.017      9.999
REMARK  4 active torsions:
REMARK  status: ('A' for Active; 'I' for Inactive)
REMARK    1  A    between atoms: S_5  and  C_8 
REMARK    2  A    between atoms: S_5  and  C_9 
REMARK    3  A    between atoms: O_6  and  C_10 
REMARK    4  A    between atoms: O_7  and  C_11 
ROOT
HETATM    1  S   UNK N   1      22.936  17.094   5.216  0.00  0.00    -0.085 SA
ENDROOT
BRANCH   1   2
HETATM    2  C   UNK N   1      21.846  17.319   3.779  0.00  0.00     0.042 A 
HETATM    3  C   UNK N   1      21.541  18.628   3.368  0.00  0.00     0.104 A 
HETATM    4  C   UNK N   1      20.701  18.839   2.262  0.00  0.00     0.070 A 
HETATM    5 Cl   UNK N   1      20.310  20.465   1.735  0.00  0.00    -0.081 Cl
HETATM    6  C   UNK N   1      20.169  17.748   1.568  0.00  0.00     0.050 A 
HETATM    7  C   UNK N   1      20.471  16.450   1.974  0.00  0.00     0.037 A 
HETATM    8 Cl   UNK N   1      19.813  15.073   1.119  0.00  0.00    -0.084 Cl
HETATM    9  C   UNK N   1      21.302  16.245   3.071  0.00  0.00     0.045 A 
BRANCH   3  10
HETATM   10  O   UNK N   1      22.051  19.680   4.032  0.00  0.00    -0.358 OA
HETATM   11  H   UNK N   1      22.736  20.190   3.648  0.00  0.00     0.217 HD
ENDBRANCH   3  10
ENDBRANCH   1   2
BRANCH   1  12
HETATM   12  C   UNK N   1      21.899  16.456   6.568  0.00  0.00     0.042 A 
HETATM   13  C   UNK N   1      21.044  17.353   7.231  0.00  0.00     0.104 A 
HETATM   14  C   UNK N   1      20.227  16.900   8.280  0.00  0.00     0.070 A 
HETATM   15 Cl   UNK N   1      19.157  18.009   9.116  0.00  0.00    -0.081 Cl
HETATM   16  C   UNK N   1      20.261  15.558   8.667  0.00  0.00     0.050 A 
HETATM   17  C   UNK N   1      21.107  14.666   8.011  0.00  0.00     0.037 A 
HETATM   18 Cl   UNK N   1      21.159  12.982   8.485  0.00  0.00    -0.084 Cl
HETATM   19  C   UNK N   1      21.916  15.116   6.972  0.00  0.00     0.045 A 
BRANCH  13  20
HETATM   20  O   UNK N   1      21.009  18.645   6.862  0.00  0.00    -0.358 OA
HETATM   21  H   UNK N   1      20.650  18.886   6.032  0.00  0.00     0.217 HD
ENDBRANCH  13  20
ENDBRANCH   1  12
TORSDOF 4
ENDMDL
MODEL 6
REMARK VINA RESULT:      -6.0      1.586      2.454
REMARK  4 active torsions:
REMARK  status: ('A' for Active; 'I' for Inactive)
REMARK    1  A    between atoms: S_5  and  C_8 
REMARK    2  A    between atoms: S_5  and  C_9 
REMARK    3  A    between atoms: O_6  and  C_10 
REMARK    4  A    between atoms: O_7  and  C_11 
ROOT
HETATM    1  S   UNK N   1      28.218  16.953   6.323  0.00  0.00    -0.085 SA
ENDROOT
BRANCH   1   2
HETATM    2  C   UNK N   1      27.487  18.573   5.941  0.00  0.00     0.042 A 
HETATM    3  C   UNK N   1      27.215  19.453   7.003  0.00  0.00     0.104 A 
HETATM    4  C   UNK N   1      26.650  20.713   6.744  0.00  0.00     0.070 A 
HETATM    5 Cl   UNK N   1      26.305  21.823   8.057  0.00  0.00    -0.081 Cl
HETATM    6  C   UNK N   1      26.357  21.093   5.431  0.00  0.00     0.050 A 
HETATM    7  C   UNK N   1      26.626  20.222   4.378  0.00  0.00     0.037 A 
HETATM    8 Cl   UNK N   1      26.266  20.681   2.728  0.00  0.00    -0.084 Cl
HETATM    9  C   UNK N   1      27.186  18.975   4.638  0.00  0.00     0.045 A 
BRANCH   3  10
HETATM   10  O   UNK N   1      27.495  19.091   8.268  0.00  0.00    -0.358 OA
HETATM   11  H   UNK N   1      28.190  19.513   8.733  0.00  0.00     0.217 HD
ENDBRANCH   3  10
ENDBRANCH   1   2
BRANCH   1  12
HETATM   12  C   UNK N   1      30.017  17.127   6.116  0.00  0.00     0.042 A 
HETATM   13  C   UNK N   1      30.801  17.351   7.260  0.00  0.00     0.104 A 
HETATM   14  C   UNK N   1      32.193  17.491   7.142  0.00  0.00     0.070 A 
HETATM   15 Cl   UNK N   1      33.182  17.771   8.563  0.00  0.00    -0.081 Cl
HETATM   16  C   UNK N   1      32.804  17.408   5.889  0.00  0.00     0.050 A 
HETATM   17  C   UNK N   1      32.030  17.185   4.752  0.00  0.00     0.037 A 
HETATM   18 Cl   UNK N   1      32.781  17.078   3.174  0.00  0.00    -0.084 Cl
HETATM   19  C   UNK N   1      30.649  17.047   4.870  0.00  0.00     0.045 A 
BRANCH  13  20
HETATM   20  O   UNK N   1      30.218  17.432   8.469  0.00  0.00    -0.358 OA
HETATM   21  H   UNK N   1      29.382  17.844   8.560  0.00  0.00     0.217 HD
ENDBRANCH  13  20
ENDBRANCH   1  12
TORSDOF 4
ENDMDL
MODEL 7
REMARK VINA RESULT:      -5.9      1.086      6.211
REMARK  4 active torsions:
REMARK  status: ('A' for Active; 'I' for Inactive)
REMARK    1  A    between atoms: S_5  and  C_8 
REMARK    2  A    between atoms: S_5  and  C_9 
REMARK    3  A    between atoms: O_6  and  C_10 
REMARK    4  A    between atoms: O_7  and  C_11 
ROOT
HETATM    1  S   UNK N   1      29.298  16.840   7.387  0.00  0.00    -0.085 SA
ENDROOT
BRANCH   1   2
HETATM    2  C   UNK N   1      30.966  17.115   6.721  0.00  0.00     0.042 A 
HETATM    3  C   UNK N   1      31.982  17.522   7.604  0.00  0.00     0.104 A 
HETATM    4  C   UNK N   1      33.283  17.744   7.124  0.00  0.00     0.070 A 
HETATM    5 Cl   UNK N   1      34.561  18.251   8.212  0.00  0.00    -0.081 Cl
HETATM    6  C   UNK N   1      33.570  17.562   5.768  0.00  0.00     0.050 A 
HETATM    7  C   UNK N   1      32.565  17.159   4.891  0.00  0.00     0.037 A 
HETATM    8 Cl   UNK N   1      32.905  16.926   3.191  0.00  0.00    -0.084 Cl
HETATM    9  C   UNK N   1      31.277  16.940   5.371  0.00  0.00     0.045 A 
BRANCH   3  10
HETATM   10  O   UNK N   1      31.710  17.698   8.909  0.00  0.00    -0.358 OA
HETATM   11  H   UNK N   1      32.174  18.346   9.402  0.00  0.00     0.217 HD
ENDBRANCH   3  10
ENDBRANCH   1   2
BRANCH   1  12
HETATM   12  C   UNK N   1      28.135  17.637   6.237  0.00  0.00     0.042 A 
HETATM   13  C   UNK N   1      27.775  18.974   6.475  0.00  0.00     0.104 A 
HETATM   14  C   UNK N   1      26.880  19.626   5.610  0.00  0.00     0.070 A 
HETATM   15 Cl   UNK N   1      26.422  21.294   5.896  0.00  0.00    -0.081 Cl
HETATM   16  C   UNK N   1      26.345  18.947   4.512  0.00  0.00     0.050 A 
HETATM   17  C   UNK N   1      26.700  17.622   4.273  0.00  0.00     0.037 A 
HETATM   18 Cl   UNK N   1      26.039  16.759   2.901  0.00  0.00    -0.084 Cl
HETATM   19  C   UNK N   1      27.588  16.977   5.131  0.00  0.00     0.045 A 
BRANCH  13  20
HETATM   20  O   UNK N   1      28.286  19.630   7.530  0.00  0.00    -0.358 OA
HETATM   21  H   UNK N   1      29.210  19.622   7.685  0.00  0.00     0.217 HD
ENDBRANCH  13  20
ENDBRANCH   1  12
TORSDOF 4
ENDMDL
MODEL 8
REMARK VINA RESULT:      -5.9      4.288      5.926
REMARK  4 active torsions:
REMARK  status: ('A' for Active; 'I' for Inactive)
REMARK    1  A    between atoms: S_5  and  C_8 
REMARK    2  A    between atoms: S_5  and  C_9 
REMARK    3  A    between atoms: O_6  and  C_10 
REMARK    4  A    between atoms: O_7  and  C_11 
ROOT
HETATM    1  S   UNK N   1      34.547  17.150   9.164  0.00  0.00    -0.085 SA
ENDROOT
BRANCH   1   2
HETATM    2  C   UNK N   1      33.129  17.242   8.030  0.00  0.00     0.042 A 
HETATM    3  C   UNK N   1      33.380  17.315   6.649  0.00  0.00     0.104 A 
HETATM    4  C   UNK N   1      32.308  17.388   5.744  0.00  0.00     0.070 A 
HETATM    5 Cl   UNK N   1      32.603  17.480   4.017  0.00  0.00    -0.081 Cl
HETATM    6  C   UNK N   1      30.991  17.389   6.214  0.00  0.00     0.050 A 
HETATM    7  C   UNK N   1      30.742  17.316   7.583  0.00  0.00     0.037 A 
HETATM    8 Cl   UNK N   1      29.101  17.315   8.191  0.00  0.00    -0.084 Cl
HETATM    9  C   UNK N   1      31.806  17.244   8.477  0.00  0.00     0.045 A 
BRANCH   3  10
HETATM   10  O   UNK N   1      34.644  17.315   6.192  0.00  0.00    -0.358 OA
HETATM   11  H   UNK N   1      34.842  16.932   5.360  0.00  0.00     0.217 HD
ENDBRANCH   3  10
ENDBRANCH   1   2
BRANCH   1  12
HETATM   12  C   UNK N   1      34.944  15.386   9.364  0.00  0.00     0.042 A 
HETATM   13  C   UNK N   1      36.069  15.039  10.132  0.00  0.00     0.104 A 
HETATM   14  C   UNK N   1      36.410  13.688  10.311  0.00  0.00     0.070 A 
HETATM   15 Cl   UNK N   1      37.810  13.244  11.267  0.00  0.00    -0.081 Cl
HETATM   16  C   UNK N   1      35.633  12.685   9.726  0.00  0.00     0.050 A 
HETATM   17  C   UNK N   1      34.517  13.025   8.964  0.00  0.00     0.037 A 
HETATM   18 Cl   UNK N   1      33.534  11.779   8.226  0.00  0.00    -0.084 Cl
HETATM   19  C   UNK N   1      34.180  14.364   8.788  0.00  0.00     0.045 A 
BRANCH  13  20
HETATM   20  O   UNK N   1      36.819  16.001  10.697  0.00  0.00    -0.358 OA
HETATM   21  H   UNK N   1      36.941  16.820  10.258  0.00  0.00     0.217 HD
ENDBRANCH  13  20
ENDBRANCH   1  12
TORSDOF 4
ENDMDL
MODEL 9
REMARK VINA RESULT:      -5.8     10.921     11.982
REMARK  4 active torsions:
REMARK  status: ('A' for Active; 'I' for Inactive)
REMARK    1  A    between atoms: S_5  and  C_8 
REMARK    2  A    between atoms: S_5  and  C_9 
REMARK    3  A    between atoms: O_6  and  C_10 
REMARK    4  A    between atoms: O_7  and  C_11 
ROOT
HETATM    1  S   UNK N   1      29.726  22.852  -2.480  0.00  0.00    -0.085 SA
ENDROOT
BRANCH   1   2
HETATM    2  C   UNK N   1      28.952  24.200  -3.423  0.00  0.00     0.042 A 
HETATM    3  C   UNK N   1      29.694  25.373  -3.646  0.00  0.00     0.104 A 
HETATM    4  C   UNK N   1      29.127  26.435  -4.370  0.00  0.00     0.070 A 
HETATM    5 Cl   UNK N   1      30.038  27.905  -4.658  0.00  0.00    -0.081 Cl
HETATM    6  C   UNK N   1      27.825  26.327  -4.870  0.00  0.00     0.050 A 
HETATM    7  C   UNK N   1      27.090  25.164  -4.649  0.00  0.00     0.037 A 
HETATM    8 Cl   UNK N   1      25.460  25.011  -5.266  0.00  0.00    -0.084 Cl
HETATM    9  C   UNK N   1      27.654  24.114  -3.931  0.00  0.00     0.045 A 
BRANCH   3  10
HETATM   10  O   UNK N   1      30.946  25.481  -3.168  0.00  0.00    -0.358 OA
HETATM   11  H   UNK N   1      31.266  24.858  -2.546  0.00  0.00     0.217 HD
ENDBRANCH   3  10
ENDBRANCH   1   2
BRANCH   1  12
HETATM   12  C   UNK N   1      30.565  21.781  -3.688  0.00  0.00     0.042 A 
HETATM   13  C   UNK N   1      31.807  21.226  -3.337  0.00  0.00     0.104 A 
HETATM   14  C   UNK N   1      32.488  20.394  -4.241  0.00  0.00     0.070 A 
HETATM   15 Cl   UNK N   1      34.038  19.696  -3.815  0.00  0.00    -0.081 Cl
HETATM   16  C   UNK N   1      31.932  20.116  -5.493  0.00  0.00     0.050 A 
HETATM   17  C   UNK N   1      30.701  20.664  -5.845  0.00  0.00     0.037 A 
HETATM   18 Cl   UNK N   1      29.992  20.324  -7.409  0.00  0.00    -0.084 Cl
HETATM   19  C   UNK N   1      30.028  21.489  -4.947  0.00  0.00     0.045 A 
BRANCH  13  20
HETATM   20  O   UNK N   1      32.346  21.491  -2.134  0.00  0.00    -0.358 OA
HETATM   21  H   UNK N   1      32.355  22.369  -1.807  0.00  0.00     0.217 HD
ENDBRANCH  13  20
ENDBRANCH   1  12
TORSDOF 4
ENDMDL
