MODEL 1
REMARK VINA RESULT:      -6.1      0.000      0.000
REMARK  7 active torsions:
REMARK  status: ('A' for Active; 'I' for Inactive)
REMARK    1  A    between atoms: O_5  and  C_22 
REMARK    2  A    between atoms: N_7  and  C_9 
REMARK       I    between atoms: N_7  and  C_13 
REMARK    3  A    between atoms: C_8  and  C_11 
REMARK    4  A    between atoms: C_8  and  C_13 
REMARK    5  A    between atoms: C_10  and  C_14 
REMARK    6  A    between atoms: C_15  and  C_18 
REMARK    7  A    between atoms: C_15  and  C_22 
ROOT
HETATM    1  I   UNK N   1      28.498  24.973  -3.852  0.00  0.00    -0.041 I 
HETATM    2  I   UNK N   1      26.436  24.165  -9.617  0.00  0.00    -0.042 I 
HETATM    3  I   UNK N   1      29.876  19.982  -7.405  0.00  0.00    -0.044 I 
HETATM    4  C   UNK N   1      27.582  24.275  -6.698  0.00  0.00     0.069 A 
HETATM    5  C   UNK N   1      29.172  22.629  -5.786  0.00  0.00    -0.000 A 
HETATM    6  C   UNK N   1      28.415  23.823  -5.657  0.00  0.00     0.046 A 
HETATM    7  C   UNK N   1      27.523  23.546  -7.903  0.00  0.00     0.035 A 
HETATM    8  C   UNK N   1      29.050  21.881  -6.991  0.00  0.00     0.019 A 
HETATM    9  C   UNK N   1      28.243  22.364  -8.022  0.00  0.00     0.039 A 
ENDROOT
BRANCH   5  10
HETATM   10  C   UNK N   1      29.993  22.253  -4.593  0.00  0.00     0.028 C 
HETATM   11  C   UNK N   1      31.301  22.303  -4.263  0.00  0.00     0.016 C 
BRANCH  11  12
HETATM   12  C   UNK N   1      32.349  22.902  -5.152  0.00  0.00     0.041 C 
HETATM   13  C   UNK N   1      32.473  24.402  -4.910  0.00  0.00     0.010 C 
ENDBRANCH  11  12
BRANCH  11  14
HETATM   14  C   UNK N   1      31.686  21.883  -2.887  0.00  0.00     0.172 C 
HETATM   15  O   UNK N   1      31.223  22.456  -1.912  0.00  0.00    -0.646 OA
BRANCH  14  16
HETATM   16  O   UNK N   1      32.574  20.886  -2.702  0.00  0.00    -0.773 OA
HETATM   17  H   UNK N   1      32.659  20.424  -1.890  0.00  0.00     0.167 HD
ENDBRANCH  14  16
ENDBRANCH  11  14
ENDBRANCH   5  10
BRANCH   4  18
HETATM   18  N   UNK N   1      26.842  25.480  -6.503  0.00  0.00    -0.325 N 
HETATM   19  C   UNK N   1      25.571  25.532  -6.020  0.00  0.00     0.222 C 
HETATM   20  O   UNK N   1      24.996  24.521  -5.654  0.00  0.00    -0.273 OA
HETATM   21  H   UNK N   1      27.280  26.331  -6.733  0.00  0.00     0.169 HD
BRANCH  19  22
HETATM   22  C   UNK N   1      24.915  26.863  -5.834  0.00  0.00     0.103 C 
BRANCH  22  23
HETATM   23  C   UNK N   1      25.884  27.868  -5.241  0.00  0.00     0.005 C 
HETATM   24  C   UNK N   1      25.673  27.937  -3.742  0.00  0.00     0.005 C 
ENDBRANCH  22  23
ENDBRANCH  19  22
ENDBRANCH   4  18
TORSDOF 7
ENDMDL
MODEL 2
REMARK VINA RESULT:      -6.0      2.690      5.526
REMARK  7 active torsions:
REMARK  status: ('A' for Active; 'I' for Inactive)
REMARK    1  A    between atoms: O_5  and  C_22 
REMARK    2  A    between atoms: N_7  and  C_9 
REMARK       I    between atoms: N_7  and  C_13 
REMARK    3  A    between atoms: C_8  and  C_11 
REMARK    4  A    between atoms: C_8  and  C_13 
REMARK    5  A    between atoms: C_10  and  C_14 
REMARK    6  A    between atoms: C_15  and  C_18 
REMARK    7  A    between atoms: C_15  and  C_22 
ROOT
HETATM    1  I   UNK N   1      26.146  25.014  -7.390  0.00  0.00    -0.041 I 
HETATM    2  I   UNK N   1      30.171  23.487  -2.961  0.00  0.00    -0.042 I 
HETATM    3  I   UNK N   1      29.848  19.947  -7.606  0.00  0.00    -0.044 I 
HETATM    4  C   UNK N   1      28.263  24.041  -5.390  0.00  0.00     0.069 A 
HETATM    5  C   UNK N   1      27.966  22.491  -7.282  0.00  0.00    -0.000 A 
HETATM    6  C   UNK N   1      27.628  23.687  -6.596  0.00  0.00     0.046 A 
HETATM    7  C   UNK N   1      29.229  23.177  -4.838  0.00  0.00     0.035 A 
HETATM    8  C   UNK N   1      28.986  21.664  -6.732  0.00  0.00     0.019 A 
HETATM    9  C   UNK N   1      29.579  22.019  -5.520  0.00  0.00     0.039 A 
ENDROOT
BRANCH   5  10
HETATM   10  C   UNK N   1      27.233  22.253  -8.564  0.00  0.00     0.028 C 
HETATM   11  C   UNK N   1      26.231  21.444  -8.971  0.00  0.00     0.016 C 
BRANCH  11  12
HETATM   12  C   UNK N   1      25.497  20.519  -8.047  0.00  0.00     0.041 C 
HETATM   13  C   UNK N   1      24.538  21.294  -7.152  0.00  0.00     0.010 C 
ENDBRANCH  11  12
BRANCH  11  14
HETATM   14  C   UNK N   1      25.738  21.599 -10.367  0.00  0.00     0.172 C 
HETATM   15  O   UNK N   1      25.872  22.660 -10.957  0.00  0.00    -0.646 OA
BRANCH  14  16
HETATM   16  O   UNK N   1      25.111  20.579 -10.986  0.00  0.00    -0.773 OA
HETATM   17  H   UNK N   1      24.205  20.609 -11.225  0.00  0.00     0.167 HD
ENDBRANCH  14  16
ENDBRANCH  11  14
ENDBRANCH   5  10
BRANCH   4  18
HETATM   18  N   UNK N   1      27.882  25.261  -4.753  0.00  0.00    -0.325 N 
HETATM   19  C   UNK N   1      26.859  25.378  -3.864  0.00  0.00     0.222 C 
HETATM   20  O   UNK N   1      26.228  24.400  -3.499  0.00  0.00    -0.273 OA
HETATM   21  H   UNK N   1      28.394  26.072  -4.972  0.00  0.00     0.169 HD
BRANCH  19  22
HETATM   22  C   UNK N   1      26.580  26.709  -3.243  0.00  0.00     0.103 C 
BRANCH  22  23
HETATM   23  C   UNK N   1      25.628  27.519  -4.102  0.00  0.00     0.005 C 
HETATM   24  C   UNK N   1      26.416  28.557  -4.875  0.00  0.00     0.005 C 
ENDBRANCH  22  23
ENDBRANCH  19  22
ENDBRANCH   4  18
TORSDOF 7
ENDMDL
MODEL 3
REMARK VINA RESULT:      -5.8      1.370      1.748
REMARK  7 active torsions:
REMARK  status: ('A' for Active; 'I' for Inactive)
REMARK    1  A    between atoms: O_5  and  C_22 
REMARK    2  A    between atoms: N_7  and  C_9 
REMARK       I    between atoms: N_7  and  C_13 
REMARK    3  A    between atoms: C_8  and  C_11 
REMARK    4  A    between atoms: C_8  and  C_13 
REMARK    5  A    between atoms: C_10  and  C_14 
REMARK    6  A    between atoms: C_15  and  C_18 
REMARK    7  A    between atoms: C_15  and  C_22 
ROOT
HETATM    1  I   UNK N   1      30.047  23.984  -3.235  0.00  0.00    -0.041 I 
HETATM    2  I   UNK N   1      26.206  24.193  -8.067  0.00  0.00    -0.042 I 
HETATM    3  I   UNK N   1      29.670  19.500  -7.615  0.00  0.00    -0.044 I 
HETATM    4  C   UNK N   1      28.213  23.785  -5.690  0.00  0.00     0.069 A 
HETATM    5  C   UNK N   1      29.811  21.916  -5.550  0.00  0.00    -0.000 A 
HETATM    6  C   UNK N   1      29.273  23.126  -5.039  0.00  0.00     0.046 A 
HETATM    7  C   UNK N   1      27.697  23.250  -6.887  0.00  0.00     0.035 A 
HETATM    8  C   UNK N   1      29.235  21.367  -6.730  0.00  0.00     0.019 A 
HETATM    9  C   UNK N   1      28.206  22.054  -7.376  0.00  0.00     0.039 A 
ENDROOT
BRANCH   5  10
HETATM   10  C   UNK N   1      30.917  21.310  -4.744  0.00  0.00     0.028 C 
HETATM   11  C   UNK N   1      32.266  21.302  -4.801  0.00  0.00     0.016 C 
BRANCH  11  12
HETATM   12  C   UNK N   1      33.048  22.079  -5.817  0.00  0.00     0.041 C 
HETATM   13  C   UNK N   1      33.649  23.334  -5.195  0.00  0.00     0.010 C 
ENDBRANCH  11  12
BRANCH  11  14
HETATM   14  C   UNK N   1      33.003  20.611  -3.707  0.00  0.00     0.172 C 
HETATM   15  O   UNK N   1      33.788  19.710  -3.963  0.00  0.00    -0.646 OA
BRANCH  14  16
HETATM   16  O   UNK N   1      32.790  20.951  -2.421  0.00  0.00    -0.773 OA
HETATM   17  H   UNK N   1      33.348  20.670  -1.721  0.00  0.00     0.167 HD
ENDBRANCH  14  16
ENDBRANCH  11  14
ENDBRANCH   5  10
BRANCH   4  18
HETATM   18  N   UNK N   1      27.713  24.995  -5.121  0.00  0.00    -0.325 N 
HETATM   19  C   UNK N   1      26.658  25.064  -4.265  0.00  0.00     0.222 C 
HETATM   20  O   UNK N   1      26.100  24.053  -3.872  0.00  0.00    -0.273 OA
HETATM   21  H   UNK N   1      28.161  25.837  -5.364  0.00  0.00     0.169 HD
BRANCH  19  22
HETATM   22  C   UNK N   1      26.249  26.393  -3.714  0.00  0.00     0.103 C 
BRANCH  22  23
HETATM   23  C   UNK N   1      26.058  27.406  -4.827  0.00  0.00     0.005 C 
HETATM   24  C   UNK N   1      24.771  27.099  -5.564  0.00  0.00     0.005 C 
ENDBRANCH  22  23
ENDBRANCH  19  22
ENDBRANCH   4  18
TORSDOF 7
ENDMDL
MODEL 4
REMARK VINA RESULT:      -5.4     16.616     20.309
REMARK  7 active torsions:
REMARK  status: ('A' for Active; 'I' for Inactive)
REMARK    1  A    between atoms: O_5  and  C_22 
REMARK    2  A    between atoms: N_7  and  C_9 
REMARK       I    between atoms: N_7  and  C_13 
REMARK    3  A    between atoms: C_8  and  C_11 
REMARK    4  A    between atoms: C_8  and  C_13 
REMARK    5  A    between atoms: C_10  and  C_14 
REMARK    6  A    between atoms: C_15  and  C_18 
REMARK    7  A    between atoms: C_15  and  C_22 
ROOT
HETATM    1  I   UNK N   1      35.635  15.877  11.271  0.00  0.00    -0.041 I 
HETATM    2  I   UNK N   1      34.144   9.886  11.467  0.00  0.00    -0.042 I 
HETATM    3  I   UNK N   1      33.468  12.637   6.349  0.00  0.00    -0.044 I 
HETATM    4  C   UNK N   1      34.875  12.910  11.053  0.00  0.00     0.069 A 
HETATM    5  C   UNK N   1      34.444  14.152   8.970  0.00  0.00    -0.000 A 
HETATM    6  C   UNK N   1      34.892  14.109  10.316  0.00  0.00     0.046 A 
HETATM    7  C   UNK N   1      34.375  11.736  10.454  0.00  0.00     0.035 A 
HETATM    8  C   UNK N   1      33.997  12.941   8.370  0.00  0.00     0.019 A 
HETATM    9  C   UNK N   1      33.960  11.770   9.129  0.00  0.00     0.039 A 
ENDROOT
BRANCH   5  10
HETATM   10  C   UNK N   1      34.543  15.485   8.299  0.00  0.00     0.028 C 
HETATM   11  C   UNK N   1      33.688  16.490   8.010  0.00  0.00     0.016 C 
BRANCH  11  12
HETATM   12  C   UNK N   1      32.249  16.489   8.430  0.00  0.00     0.041 C 
HETATM   13  C   UNK N   1      31.342  16.123   7.260  0.00  0.00     0.010 C 
ENDBRANCH  11  12
BRANCH  11  14
HETATM   14  C   UNK N   1      34.247  17.718   7.380  0.00  0.00     0.172 C 
HETATM   15  O   UNK N   1      34.745  18.595   8.070  0.00  0.00    -0.646 OA
BRANCH  14  16
HETATM   16  O   UNK N   1      34.182  17.889   6.045  0.00  0.00    -0.773 OA
HETATM   17  H   UNK N   1      34.708  17.398   5.443  0.00  0.00     0.167 HD
ENDBRANCH  14  16
ENDBRANCH  11  14
ENDBRANCH   5  10
BRANCH   4  18
HETATM   18  N   UNK N   1      35.345  12.933  12.401  0.00  0.00    -0.325 N 
HETATM   19  C   UNK N   1      36.589  12.541  12.789  0.00  0.00     0.222 C 
HETATM   20  O   UNK N   1      37.423  12.197  11.969  0.00  0.00    -0.273 OA
HETATM   21  H   UNK N   1      34.728  13.253  13.098  0.00  0.00     0.169 HD
BRANCH  19  22
HETATM   22  C   UNK N   1      36.970  12.642  14.231  0.00  0.00     0.103 C 
BRANCH  22  23
HETATM   23  C   UNK N   1      36.034  13.575  14.976  0.00  0.00     0.005 C 
HETATM   24  C   UNK N   1      35.306  12.794  16.052  0.00  0.00     0.005 C 
ENDBRANCH  22  23
ENDBRANCH  19  22
ENDBRANCH   4  18
TORSDOF 7
ENDMDL
MODEL 5
REMARK VINA RESULT:      -5.3     17.424     20.490
REMARK  7 active torsions:
REMARK  status: ('A' for Active; 'I' for Inactive)
REMARK    1  A    between atoms: O_5  and  C_22 
REMARK    2  A    between atoms: N_7  and  C_9 
REMARK       I    between atoms: N_7  and  C_13 
REMARK    3  A    between atoms: C_8  and  C_11 
REMARK    4  A    between atoms: C_8  and  C_13 
REMARK    5  A    between atoms: C_10  and  C_14 
REMARK    6  A    between atoms: C_15  and  C_18 
REMARK    7  A    between atoms: C_15  and  C_22 
ROOT
HETATM    1  I   UNK N   1      35.564  15.839  11.143  0.00  0.00    -0.041 I 
HETATM    2  I   UNK N   1      33.839  11.790   6.811  0.00  0.00    -0.042 I 
HETATM    3  I   UNK N   1      34.397   9.774  12.274  0.00  0.00    -0.044 I 
HETATM    4  C   UNK N   1      34.643  13.625   9.225  0.00  0.00     0.069 A 
HETATM    5  C   UNK N   1      35.059  12.789  11.505  0.00  0.00    -0.000 A 
HETATM    6  C   UNK N   1      35.032  13.848  10.560  0.00  0.00     0.046 A 
HETATM    7  C   UNK N   1      34.304  12.322   8.812  0.00  0.00     0.035 A 
HETATM    8  C   UNK N   1      34.658  11.492  11.075  0.00  0.00     0.019 A 
HETATM    9  C   UNK N   1      34.306  11.289   9.741  0.00  0.00     0.039 A 
ENDROOT
BRANCH   5  10
HETATM   10  C   UNK N   1      35.466  13.172  12.892  0.00  0.00     0.028 C 
HETATM   11  C   UNK N   1      36.468  12.840  13.734  0.00  0.00     0.016 C 
BRANCH  11  12
HETATM   12  C   UNK N   1      37.586  11.916  13.355  0.00  0.00     0.041 C 
HETATM   13  C   UNK N   1      37.849  10.900  14.461  0.00  0.00     0.010 C 
ENDBRANCH  11  12
BRANCH  11  14
HETATM   14  C   UNK N   1      36.540  13.549  15.042  0.00  0.00     0.172 C 
HETATM   15  O   UNK N   1      35.626  13.456  15.847  0.00  0.00    -0.646 OA
BRANCH  14  16
HETATM   16  O   UNK N   1      37.600  14.327  15.338  0.00  0.00    -0.773 OA
HETATM   17  H   UNK N   1      38.428  14.246  14.904  0.00  0.00     0.167 HD
ENDBRANCH  14  16
ENDBRANCH  11  14
ENDBRANCH   5  10
BRANCH   4  18
HETATM   18  N   UNK N   1      34.630  14.735   8.326  0.00  0.00    -0.325 N 
HETATM   19  C   UNK N   1      33.515  15.431   7.979  0.00  0.00     0.222 C 
HETATM   20  O   UNK N   1      32.434  15.178   8.484  0.00  0.00    -0.273 OA
HETATM   21  H   UNK N   1      35.487  15.014   7.930  0.00  0.00     0.169 HD
BRANCH  19  22
HETATM   22  C   UNK N   1      33.640  16.594   7.048  0.00  0.00     0.103 C 
BRANCH  22  23
HETATM   23  C   UNK N   1      33.337  17.897   7.764  0.00  0.00     0.005 C 
HETATM   24  C   UNK N   1      34.637  18.519   8.233  0.00  0.00     0.005 C 
ENDBRANCH  22  23
ENDBRANCH  19  22
ENDBRANCH   4  18
TORSDOF 7
ENDMDL
MODEL 6
REMARK VINA RESULT:      -5.1     11.793     14.582
REMARK  7 active torsions:
REMARK  status: ('A' for Active; 'I' for Inactive)
REMARK    1  A    between atoms: O_5  and  C_22 
REMARK    2  A    between atoms: N_7  and  C_9 
REMARK       I    between atoms: N_7  and  C_13 
REMARK    3  A    between atoms: C_8  and  C_11 
REMARK    4  A    between atoms: C_8  and  C_13 
REMARK    5  A    between atoms: C_10  and  C_14 
REMARK    6  A    between atoms: C_15  and  C_18 
REMARK    7  A    between atoms: C_15  and  C_22 
ROOT
HETATM    1  I   UNK N   1      29.227  16.063   3.165  0.00  0.00    -0.041 I 
HETATM    2  I   UNK N   1      33.723  16.064   7.399  0.00  0.00    -0.042 I 
HETATM    3  I   UNK N   1      28.562  18.313   8.989  0.00  0.00    -0.044 I 
HETATM    4  C   UNK N   1      31.241  16.144   5.481  0.00  0.00     0.069 A 
HETATM    5  C   UNK N   1      29.106  17.235   6.046  0.00  0.00    -0.000 A 
HETATM    6  C   UNK N   1      29.938  16.543   5.127  0.00  0.00     0.046 A 
HETATM    7  C   UNK N   1      31.739  16.463   6.760  0.00  0.00     0.035 A 
HETATM    8  C   UNK N   1      29.613  17.495   7.351  0.00  0.00     0.019 A 
HETATM    9  C   UNK N   1      30.918  17.117   7.669  0.00  0.00     0.039 A 
ENDROOT
BRANCH   5  10
HETATM   10  C   UNK N   1      27.738  17.576   5.547  0.00  0.00     0.028 C 
HETATM   11  C   UNK N   1      27.117  18.692   5.108  0.00  0.00     0.016 C 
BRANCH  11  12
HETATM   12  C   UNK N   1      27.812  20.011   4.952  0.00  0.00     0.041 C 
HETATM   13  C   UNK N   1      27.417  20.968   6.071  0.00  0.00     0.010 C 
ENDBRANCH  11  12
BRANCH  11  14
HETATM   14  C   UNK N   1      25.719  18.559   4.612  0.00  0.00     0.172 C 
HETATM   15  O   UNK N   1      25.372  19.115   3.581  0.00  0.00    -0.646 OA
BRANCH  14  16
HETATM   16  O   UNK N   1      24.812  17.850   5.313  0.00  0.00    -0.773 OA
HETATM   17  H   UNK N   1      23.928  18.137   5.438  0.00  0.00     0.167 HD
ENDBRANCH  14  16
ENDBRANCH  11  14
ENDBRANCH   5  10
BRANCH   4  18
HETATM   18  N   UNK N   1      32.025  15.445   4.513  0.00  0.00    -0.325 N 
HETATM   19  C   UNK N   1      32.872  16.043   3.633  0.00  0.00     0.222 C 
HETATM   20  O   UNK N   1      33.065  17.247   3.665  0.00  0.00    -0.273 OA
HETATM   21  H   UNK N   1      31.947  14.465   4.481  0.00  0.00     0.169 HD
BRANCH  19  22
HETATM   22  C   UNK N   1      33.661  15.195   2.687  0.00  0.00     0.103 C 
BRANCH  22  23
HETATM   23  C   UNK N   1      33.913  13.818   3.274  0.00  0.00     0.005 C 
HETATM   24  C   UNK N   1      35.178  13.856   4.105  0.00  0.00     0.005 C 
ENDBRANCH  22  23
ENDBRANCH  19  22
ENDBRANCH   4  18
TORSDOF 7
ENDMDL
MODEL 7
REMARK VINA RESULT:      -5.0     12.834     14.506
REMARK  7 active torsions:
REMARK  status: ('A' for Active; 'I' for Inactive)
REMARK    1  A    between atoms: O_5  and  C_22 
REMARK    2  A    between atoms: N_7  and  C_9 
REMARK       I    between atoms: N_7  and  C_13 
REMARK    3  A    between atoms: C_8  and  C_11 
REMARK    4  A    between atoms: C_8  and  C_13 
REMARK    5  A    between atoms: C_10  and  C_14 
REMARK    6  A    between atoms: C_15  and  C_18 
REMARK    7  A    between atoms: C_15  and  C_22 
ROOT
HETATM    1  I   UNK N   1      31.071  15.426   3.933  0.00  0.00    -0.041 I 
HETATM    2  I   UNK N   1      25.415  15.096   6.392  0.00  0.00    -0.042 I 
HETATM    3  I   UNK N   1      29.301  18.535   9.093  0.00  0.00    -0.044 I 
HETATM    4  C   UNK N   1      28.343  15.505   5.339  0.00  0.00     0.069 A 
HETATM    5  C   UNK N   1      30.062  16.802   6.536  0.00  0.00    -0.000 A 
HETATM    6  C   UNK N   1      29.665  15.975   5.453  0.00  0.00     0.046 A 
HETATM    7  C   UNK N   1      27.403  15.838   6.335  0.00  0.00     0.035 A 
HETATM    8  C   UNK N   1      29.079  17.169   7.499  0.00  0.00     0.019 A 
HETATM    9  C   UNK N   1      27.782  16.667   7.383  0.00  0.00     0.039 A 
ENDROOT
BRANCH   5  10
HETATM   10  C   UNK N   1      31.489  17.249   6.518  0.00  0.00     0.028 C 
HETATM   11  C   UNK N   1      32.569  17.076   7.311  0.00  0.00     0.016 C 
BRANCH  11  12
HETATM   12  C   UNK N   1      32.558  16.208   8.534  0.00  0.00     0.041 C 
HETATM   13  C   UNK N   1      32.728  14.741   8.159  0.00  0.00     0.010 C 
ENDBRANCH  11  12
BRANCH  11  14
HETATM   14  C   UNK N   1      33.864  17.655   6.857  0.00  0.00     0.172 C 
HETATM   15  O   UNK N   1      34.231  17.515   5.700  0.00  0.00    -0.646 OA
BRANCH  14  16
HETATM   16  O   UNK N   1      34.659  18.311   7.724  0.00  0.00    -0.773 OA
HETATM   17  H   UNK N   1      34.444  19.155   8.073  0.00  0.00     0.167 HD
ENDBRANCH  14  16
ENDBRANCH  11  14
ENDBRANCH   5  10
BRANCH   4  18
HETATM   18  N   UNK N   1      28.007  14.682   4.222  0.00  0.00    -0.325 N 
HETATM   19  C   UNK N   1      27.401  15.132   3.090  0.00  0.00     0.222 C 
HETATM   20  O   UNK N   1      27.161  16.317   2.935  0.00  0.00    -0.273 OA
HETATM   21  H   UNK N   1      28.228  13.725   4.274  0.00  0.00     0.169 HD
BRANCH  19  22
HETATM   22  C   UNK N   1      27.129  14.171   1.977  0.00  0.00     0.103 C 
BRANCH  22  23
HETATM   23  C   UNK N   1      26.600  12.854   2.514  0.00  0.00     0.005 C 
HETATM   24  C   UNK N   1      25.532  12.328   1.577  0.00  0.00     0.005 C 
ENDBRANCH  22  23
ENDBRANCH  19  22
ENDBRANCH   4  18
TORSDOF 7
ENDMDL
MODEL 8
REMARK VINA RESULT:      -5.0      2.108      6.556
REMARK  7 active torsions:
REMARK  status: ('A' for Active; 'I' for Inactive)
REMARK    1  A    between atoms: O_5  and  C_22 
REMARK    2  A    between atoms: N_7  and  C_9 
REMARK       I    between atoms: N_7  and  C_13 
REMARK    3  A    between atoms: C_8  and  C_11 
REMARK    4  A    between atoms: C_8  and  C_13 
REMARK    5  A    between atoms: C_10  and  C_14 
REMARK    6  A    between atoms: C_15  and  C_18 
REMARK    7  A    between atoms: C_15  and  C_22 
ROOT
HETATM    1  I   UNK N   1      29.456  24.771  -3.779  0.00  0.00    -0.041 I 
HETATM    2  I   UNK N   1      30.465  19.850  -7.371  0.00  0.00    -0.042 I 
HETATM    3  I   UNK N   1      25.559  22.889  -8.328  0.00  0.00    -0.044 I 
HETATM    4  C   UNK N   1      29.718  22.426  -5.744  0.00  0.00     0.069 A 
HETATM    5  C   UNK N   1      27.586  23.635  -5.992  0.00  0.00    -0.000 A 
HETATM    6  C   UNK N   1      28.841  23.457  -5.354  0.00  0.00     0.046 A 
HETATM    7  C   UNK N   1      29.329  21.537  -6.766  0.00  0.00     0.035 A 
HETATM    8  C   UNK N   1      27.242  22.758  -7.060  0.00  0.00     0.019 A 
HETATM    9  C   UNK N   1      28.112  21.725  -7.409  0.00  0.00     0.039 A 
ENDROOT
BRANCH   5  10
HETATM   10  C   UNK N   1      26.766  24.784  -5.495  0.00  0.00     0.028 C 
HETATM   11  C   UNK N   1      26.477  26.029  -5.932  0.00  0.00     0.016 C 
BRANCH  11  12
HETATM   12  C   UNK N   1      26.951  26.566  -7.249  0.00  0.00     0.041 C 
HETATM   13  C   UNK N   1      27.635  27.917  -7.070  0.00  0.00     0.010 C 
ENDBRANCH  11  12
BRANCH  11  14
HETATM   14  C   UNK N   1      25.517  26.839  -5.134  0.00  0.00     0.172 C 
HETATM   15  O   UNK N   1      25.740  27.081  -3.957  0.00  0.00    -0.646 OA
BRANCH  14  16
HETATM   16  O   UNK N   1      24.376  27.289  -5.692  0.00  0.00    -0.773 OA
HETATM   17  H   UNK N   1      23.584  26.787  -5.706  0.00  0.00     0.167 HD
ENDBRANCH  14  16
ENDBRANCH  11  14
ENDBRANCH   5  10
BRANCH   4  18
HETATM   18  N   UNK N   1      30.969  22.305  -5.066  0.00  0.00    -0.325 N 
HETATM   19  C   UNK N   1      31.167  21.562  -3.945  0.00  0.00     0.222 C 
HETATM   20  O   UNK N   1      30.270  20.882  -3.474  0.00  0.00    -0.273 OA
HETATM   21  H   UNK N   1      31.740  22.792  -5.436  0.00  0.00     0.169 HD
BRANCH  19  22
HETATM   22  C   UNK N   1      32.536  21.493  -3.347  0.00  0.00     0.103 C 
BRANCH  22  23
HETATM   23  C   UNK N   1      33.438  20.582  -4.158  0.00  0.00     0.005 C 
HETATM   24  C   UNK N   1      34.884  20.912  -3.851  0.00  0.00     0.005 C 
ENDBRANCH  22  23
ENDBRANCH  19  22
ENDBRANCH   4  18
TORSDOF 7
ENDMDL
MODEL 9
REMARK VINA RESULT:      -5.0      3.337      5.998
REMARK  7 active torsions:
REMARK  status: ('A' for Active; 'I' for Inactive)
REMARK    1  A    between atoms: O_5  and  C_22 
REMARK    2  A    between atoms: N_7  and  C_9 
REMARK       I    between atoms: N_7  and  C_13 
REMARK    3  A    between atoms: C_8  and  C_11 
REMARK    4  A    between atoms: C_8  and  C_13 
REMARK    5  A    between atoms: C_10  and  C_14 
REMARK    6  A    between atoms: C_15  and  C_18 
REMARK    7  A    between atoms: C_15  and  C_22 
ROOT
HETATM    1  I   UNK N   1      31.919  20.286  -6.378  0.00  0.00    -0.041 I 
HETATM    2  I   UNK N   1      27.559  21.661 -10.530  0.00  0.00    -0.042 I 
HETATM    3  I   UNK N   1      27.072  24.111  -5.240  0.00  0.00    -0.044 I 
HETATM    4  C   UNK N   1      29.654  21.193  -8.241  0.00  0.00     0.069 A 
HETATM    5  C   UNK N   1      29.399  22.062  -5.950  0.00  0.00    -0.000 A 
HETATM    6  C   UNK N   1      30.109  21.297  -6.913  0.00  0.00     0.046 A 
HETATM    7  C   UNK N   1      28.457  21.836  -8.615  0.00  0.00     0.035 A 
HETATM    8  C   UNK N   1      28.223  22.746  -6.367  0.00  0.00     0.019 A 
HETATM    9  C   UNK N   1      27.774  22.604  -7.681  0.00  0.00     0.039 A 
ENDROOT
BRANCH   5  10
HETATM   10  C   UNK N   1      30.009  22.106  -4.584  0.00  0.00     0.028 C 
HETATM   11  C   UNK N   1      30.733  22.999  -3.876  0.00  0.00     0.016 C 
BRANCH  11  12
HETATM   12  C   UNK N   1      31.070  24.369  -4.382  0.00  0.00     0.041 C 
HETATM   13  C   UNK N   1      32.501  24.417  -4.906  0.00  0.00     0.010 C 
ENDBRANCH  11  12
BRANCH  11  14
HETATM   14  C   UNK N   1      31.076  22.653  -2.468  0.00  0.00     0.172 C 
HETATM   15  O   UNK N   1      32.023  21.921  -2.224  0.00  0.00    -0.646 OA
BRANCH  14  16
HETATM   16  O   UNK N   1      30.326  23.119  -1.450  0.00  0.00    -0.773 OA
HETATM   17  H   UNK N   1      30.605  23.084  -0.555  0.00  0.00     0.167 HD
ENDBRANCH  14  16
ENDBRANCH  11  14
ENDBRANCH   5  10
BRANCH   4  18
HETATM   18  N   UNK N   1      30.418  20.414  -9.163  0.00  0.00    -0.325 N 
HETATM   19  C   UNK N   1      30.314  19.065  -9.300  0.00  0.00     0.222 C 
HETATM   20  O   UNK N   1      29.488  18.431  -8.666  0.00  0.00    -0.273 OA
HETATM   21  H   UNK N   1      31.063  20.885  -9.738  0.00  0.00     0.169 HD
BRANCH  19  22
HETATM   22  C   UNK N   1      31.150  18.369 -10.326  0.00  0.00     0.103 C 
BRANCH  22  23
HETATM   23  C   UNK N   1      30.301  17.459 -11.192  0.00  0.00     0.005 C 
HETATM   24  C   UNK N   1      29.522  18.300 -12.182  0.00  0.00     0.005 C 
ENDBRANCH  22  23
ENDBRANCH  19  22
ENDBRANCH   4  18
TORSDOF 7
ENDMDL
