MODEL 1
REMARK VINA RESULT:      -5.2      0.000      0.000
REMARK  1 active torsions:
REMARK  status: ('A' for Active; 'I' for Inactive)
REMARK    1  A    between atoms: O_3  and  C_8 
ROOT
HETATM    1  I   UNK N   1      19.573  14.039   1.021  0.00  0.00    -0.042 I 
HETATM    2 Cl   UNK N   1      20.743  17.207   5.607  0.00  0.00    -0.083 Cl
HETATM    3  N   UNK N   1      20.454  19.455   0.954  0.00  0.00    -0.363 N 
ATOM      4  HN  UNK N   1      20.302  19.402  -0.054  1.00  0.00     0.165 HD
HETATM    5  C   UNK N   1      20.580  18.376   3.098  0.00  0.00     0.015 A 
HETATM    6  C   UNK N   1      20.372  18.316   1.700  0.00  0.00     0.079 A 
HETATM    7  C   UNK N   1      20.083  17.086   1.087  0.00  0.00     0.110 A 
HETATM    8  C   UNK N   1      20.496  17.200   3.868  0.00  0.00     0.048 A 
HETATM    9  C   UNK N   1      20.867  19.611   3.688  0.00  0.00     0.017 A 
HETATM   10  C   UNK N   1      20.003  15.921   1.869  0.00  0.00     0.043 A 
HETATM   11  C   UNK N   1      20.208  15.987   3.246  0.00  0.00     0.046 A 
HETATM   12  C   UNK N   1      20.943  20.759   2.898  0.00  0.00     0.018 A 
HETATM   13  C   UNK N   1      20.732  20.659   1.521  0.00  0.00     0.088 A 
ENDROOT
BRANCH   7  14
HETATM   14  O   UNK N   1      19.885  17.022  -0.242  0.00  0.00    -0.357 OA
HETATM   15  H   UNK N   1      19.294  17.619  -0.656  0.00  0.00     0.217 HD
ENDBRANCH   7  14
TORSDOF 1
ENDMDL
MODEL 2
REMARK VINA RESULT:      -5.1      4.037      4.618
REMARK  1 active torsions:
REMARK  status: ('A' for Active; 'I' for Inactive)
REMARK    1  A    between atoms: O_3  and  C_8 
ROOT
HETATM    1  I   UNK N   1      27.027  19.824   4.137  0.00  0.00    -0.042 I 
HETATM    2 Cl   UNK N   1      22.425  17.018   5.975  0.00  0.00    -0.083 Cl
HETATM    3  N   UNK N   1      21.937  20.542   2.215  0.00  0.00    -0.363 N 
ATOM      4  HN  UNK N   1      22.342  21.238   1.589  1.00  0.00     0.165 HD
HETATM    5  C   UNK N   1      22.202  18.913   3.963  0.00  0.00     0.015 A 
HETATM    6  C   UNK N   1      22.751  19.880   3.089  0.00  0.00     0.079 A 
HETATM    7  C   UNK N   1      24.127  20.156   3.123  0.00  0.00     0.110 A 
HETATM    8  C   UNK N   1      23.042  18.230   4.864  0.00  0.00     0.048 A 
HETATM    9  C   UNK N   1      20.829  18.654   3.912  0.00  0.00     0.017 A 
HETATM   10  C   UNK N   1      24.952  19.466   4.027  0.00  0.00     0.043 A 
HETATM   11  C   UNK N   1      24.406  18.514   4.886  0.00  0.00     0.046 A 
HETATM   12  C   UNK N   1      20.023  19.348   3.008  0.00  0.00     0.018 A 
HETATM   13  C   UNK N   1      20.601  20.296   2.161  0.00  0.00     0.088 A 
ENDROOT
BRANCH   7  14
HETATM   14  O   UNK N   1      24.654  21.075   2.294  0.00  0.00    -0.357 OA
HETATM   15  H   UNK N   1      24.575  20.969   1.367  0.00  0.00     0.217 HD
ENDBRANCH   7  14
TORSDOF 1
ENDMDL
MODEL 3
REMARK VINA RESULT:      -5.1     19.200     19.898
REMARK  1 active torsions:
REMARK  status: ('A' for Active; 'I' for Inactive)
REMARK    1  A    between atoms: O_3  and  C_8 
ROOT
HETATM    1  I   UNK N   1      35.865  11.935   9.672  0.00  0.00    -0.042 I 
HETATM    2 Cl   UNK N   1      33.399  10.715  14.658  0.00  0.00    -0.083 Cl
HETATM    3  N   UNK N   1      37.049  14.379  14.440  0.00  0.00    -0.363 N 
ATOM      4  HN  UNK N   1      37.725  14.932  13.915  1.00  0.00     0.165 HD
HETATM    5  C   UNK N   1      35.358  12.671  14.503  0.00  0.00     0.015 A 
HETATM    6  C   UNK N   1      36.299  13.445  13.785  0.00  0.00     0.079 A 
HETATM    7  C   UNK N   1      36.460  13.250  12.404  0.00  0.00     0.110 A 
HETATM    8  C   UNK N   1      34.585  11.708  13.826  0.00  0.00     0.048 A 
HETATM    9  C   UNK N   1      35.214  12.882  15.878  0.00  0.00     0.017 A 
HETATM   10  C   UNK N   1      35.682  12.285  11.743  0.00  0.00     0.043 A 
HETATM   11  C   UNK N   1      34.755  11.526  12.455  0.00  0.00     0.046 A 
HETATM   12  C   UNK N   1      35.995  13.844  16.519  0.00  0.00     0.018 A 
HETATM   13  C   UNK N   1      36.914  14.589  15.777  0.00  0.00     0.088 A 
ENDROOT
BRANCH   7  14
HETATM   14  O   UNK N   1      37.354  13.983  11.716  0.00  0.00    -0.357 OA
HETATM   15  H   UNK N   1      38.267  13.786  11.777  0.00  0.00     0.217 HD
ENDBRANCH   7  14
TORSDOF 1
ENDMDL
MODEL 4
REMARK VINA RESULT:      -5.0      8.559      8.946
REMARK  1 active torsions:
REMARK  status: ('A' for Active; 'I' for Inactive)
REMARK    1  A    between atoms: O_3  and  C_8 
ROOT
HETATM    1  I   UNK N   1      30.886  15.076   5.283  0.00  0.00    -0.042 I 
HETATM    2 Cl   UNK N   1      28.329  18.589   8.965  0.00  0.00    -0.083 Cl
HETATM    3  N   UNK N   1      27.803  19.394   3.879  0.00  0.00    -0.363 N 
ATOM      4  HN  UNK N   1      27.997  19.136   2.912  1.00  0.00     0.165 HD
HETATM    5  C   UNK N   1      28.070  18.989   6.234  0.00  0.00     0.015 A 
HETATM    6  C   UNK N   1      28.332  18.642   4.888  0.00  0.00     0.079 A 
HETATM    7  C   UNK N   1      29.134  17.528   4.594  0.00  0.00     0.110 A 
HETATM    8  C   UNK N   1      28.616  18.213   7.274  0.00  0.00     0.048 A 
HETATM    9  C   UNK N   1      27.268  20.103   6.503  0.00  0.00     0.017 A 
HETATM   10  C   UNK N   1      29.672  16.763   5.643  0.00  0.00     0.043 A 
HETATM   11  C   UNK N   1      29.411  17.109   6.967  0.00  0.00     0.046 A 
HETATM   12  C   UNK N   1      26.741  20.852   5.450  0.00  0.00     0.018 A 
HETATM   13  C   UNK N   1      27.022  20.478   4.134  0.00  0.00     0.088 A 
ENDROOT
BRANCH   7  14
HETATM   14  O   UNK N   1      29.387  17.193   3.316  0.00  0.00    -0.357 OA
HETATM   15  H   UNK N   1      30.033  16.544   3.121  0.00  0.00     0.217 HD
ENDBRANCH   7  14
TORSDOF 1
ENDMDL
MODEL 5
REMARK VINA RESULT:      -5.0     11.798     12.214
REMARK  1 active torsions:
REMARK  status: ('A' for Active; 'I' for Inactive)
REMARK    1  A    between atoms: O_3  and  C_8 
ROOT
HETATM    1  I   UNK N   1      28.939  17.709   9.432  0.00  0.00    -0.042 I 
HETATM    2 Cl   UNK N   1      34.377  17.915   7.755  0.00  0.00    -0.083 Cl
HETATM    3  N   UNK N   1      30.674  16.853   4.297  0.00  0.00    -0.363 N 
ATOM      4  HN  UNK N   1      29.693  16.707   4.059  1.00  0.00     0.165 HD
HETATM    5  C   UNK N   1      32.367  17.349   5.931  0.00  0.00     0.015 A 
HETATM    6  C   UNK N   1      31.010  17.145   5.587  0.00  0.00     0.079 A 
HETATM    7  C   UNK N   1      30.015  17.243   6.573  0.00  0.00     0.110 A 
HETATM    8  C   UNK N   1      32.712  17.650   7.263  0.00  0.00     0.048 A 
HETATM    9  C   UNK N   1      33.341  17.246   4.933  0.00  0.00     0.017 A 
HETATM   10  C   UNK N   1      30.375  17.545   7.897  0.00  0.00     0.043 A 
HETATM   11  C   UNK N   1      31.713  17.745   8.230  0.00  0.00     0.046 A 
HETATM   12  C   UNK N   1      32.967  16.946   3.623  0.00  0.00     0.018 A 
HETATM   13  C   UNK N   1      31.617  16.751   3.322  0.00  0.00     0.088 A 
ENDROOT
BRANCH   7  14
HETATM   14  O   UNK N   1      28.722  17.050   6.252  0.00  0.00    -0.357 OA
HETATM   15  H   UNK N   1      28.049  17.469   6.749  0.00  0.00     0.217 HD
ENDBRANCH   7  14
TORSDOF 1
ENDMDL
MODEL 6
REMARK VINA RESULT:      -5.0     20.628     21.429
REMARK  1 active torsions:
REMARK  status: ('A' for Active; 'I' for Inactive)
REMARK    1  A    between atoms: O_3  and  C_8 
ROOT
HETATM    1  I   UNK N   1      34.468  10.310  12.553  0.00  0.00    -0.042 I 
HETATM    2 Cl   UNK N   1      35.376   8.380  17.834  0.00  0.00    -0.083 Cl
HETATM    3  N   UNK N   1      34.977  13.474  17.008  0.00  0.00    -0.363 N 
ATOM      4  HN  UNK N   1      34.839  14.267  16.381  1.00  0.00     0.165 HD
HETATM    5  C   UNK N   1      35.157  11.102  17.353  0.00  0.00     0.015 A 
HETATM    6  C   UNK N   1      34.966  12.210  16.495  0.00  0.00     0.079 A 
HETATM    7  C   UNK N   1      34.768  12.005  15.120  0.00  0.00     0.110 A 
HETATM    8  C   UNK N   1      35.146   9.797  16.823  0.00  0.00     0.048 A 
HETATM    9  C   UNK N   1      35.352  11.329  18.719  0.00  0.00     0.017 A 
HETATM   10  C   UNK N   1      34.760  10.698  14.605  0.00  0.00     0.043 A 
HETATM   11  C   UNK N   1      34.948   9.610  15.456  0.00  0.00     0.046 A 
HETATM   12  C   UNK N   1      35.358  12.633  19.214  0.00  0.00     0.018 A 
HETATM   13  C   UNK N   1      35.166  13.702  18.335  0.00  0.00     0.088 A 
ENDROOT
BRANCH   7  14
HETATM   14  O   UNK N   1      34.587  13.055  14.298  0.00  0.00    -0.357 OA
HETATM   15  H   UNK N   1      35.201  13.761  14.298  0.00  0.00     0.217 HD
ENDBRANCH   7  14
TORSDOF 1
ENDMDL
MODEL 7
REMARK VINA RESULT:      -5.0     11.840     12.353
REMARK  1 active torsions:
REMARK  status: ('A' for Active; 'I' for Inactive)
REMARK    1  A    between atoms: O_3  and  C_8 
ROOT
HETATM    1  I   UNK N   1      34.540  15.554   6.714  0.00  0.00    -0.042 I 
HETATM    2 Cl   UNK N   1      29.443  16.937   4.582  0.00  0.00    -0.083 Cl
HETATM    3  N   UNK N   1      30.491  17.934   9.553  0.00  0.00    -0.363 N 
ATOM      4  HN  UNK N   1      31.126  17.913  10.351  1.00  0.00     0.165 HD
HETATM    5  C   UNK N   1      30.040  17.456   7.240  0.00  0.00     0.015 A 
HETATM    6  C   UNK N   1      30.911  17.432   8.355  0.00  0.00     0.079 A 
HETATM    7  C   UNK N   1      32.200  16.893   8.226  0.00  0.00     0.110 A 
HETATM    8  C   UNK N   1      30.474  16.938   6.004  0.00  0.00     0.048 A 
HETATM    9  C   UNK N   1      28.760  17.998   7.391  0.00  0.00     0.017 A 
HETATM   10  C   UNK N   1      32.619  16.380   6.986  0.00  0.00     0.043 A 
HETATM   11  C   UNK N   1      31.757  16.406   5.891  0.00  0.00     0.046 A 
HETATM   12  C   UNK N   1      28.360  18.504   8.629  0.00  0.00     0.018 A 
HETATM   13  C   UNK N   1      29.247  18.463   9.706  0.00  0.00     0.088 A 
ENDROOT
BRANCH   7  14
HETATM   14  O   UNK N   1      33.033  16.867   9.282  0.00  0.00    -0.357 OA
HETATM   15  H   UNK N   1      33.766  17.449   9.316  0.00  0.00     0.217 HD
ENDBRANCH   7  14
TORSDOF 1
ENDMDL
MODEL 8
REMARK VINA RESULT:      -4.9     12.079     12.548
REMARK  1 active torsions:
REMARK  status: ('A' for Active; 'I' for Inactive)
REMARK    1  A    between atoms: O_3  and  C_8 
ROOT
HETATM    1  I   UNK N   1      27.543  16.951   5.938  0.00  0.00    -0.042 I 
HETATM    2 Cl   UNK N   1      32.700  17.298   3.547  0.00  0.00    -0.083 Cl
HETATM    3  N   UNK N   1      32.263  17.391   8.704  0.00  0.00    -0.363 N 
ATOM      4  HN  UNK N   1      31.694  17.367   9.550  1.00  0.00     0.165 HD
HETATM    5  C   UNK N   1      32.427  17.345   6.306  0.00  0.00     0.015 A 
HETATM    6  C   UNK N   1      31.649  17.313   7.487  0.00  0.00     0.079 A 
HETATM    7  C   UNK N   1      30.253  17.201   7.404  0.00  0.00     0.110 A 
HETATM    8  C   UNK N   1      31.793  17.264   5.050  0.00  0.00     0.048 A 
HETATM    9  C   UNK N   1      33.817  17.457   6.412  0.00  0.00     0.017 A 
HETATM   10  C   UNK N   1      29.635  17.121   6.144  0.00  0.00     0.043 A 
HETATM   11  C   UNK N   1      30.406  17.153   4.984  0.00  0.00     0.046 A 
HETATM   12  C   UNK N   1      34.414  17.535   7.670  0.00  0.00     0.018 A 
HETATM   13  C   UNK N   1      33.614  17.500   8.814  0.00  0.00     0.088 A 
ENDROOT
BRANCH   7  14
HETATM   14  O   UNK N   1      29.508  17.170   8.524  0.00  0.00    -0.357 OA
HETATM   15  H   UNK N   1      28.687  16.720   8.528  0.00  0.00     0.217 HD
ENDBRANCH   7  14
TORSDOF 1
ENDMDL
MODEL 9
REMARK VINA RESULT:      -4.9     15.393     15.841
REMARK  1 active torsions:
REMARK  status: ('A' for Active; 'I' for Inactive)
REMARK    1  A    between atoms: O_3  and  C_8 
ROOT
HETATM    1  I   UNK N   1      35.413  12.448  11.232  0.00  0.00    -0.042 I 
HETATM    2 Cl   UNK N   1      36.308  14.633   6.049  0.00  0.00    -0.083 Cl
HETATM    3  N   UNK N   1      32.861  16.863   9.202  0.00  0.00    -0.363 N 
ATOM      4  HN  UNK N   1      32.366  16.905  10.093  1.00  0.00     0.165 HD
HETATM    5  C   UNK N   1      34.470  15.800   7.765  0.00  0.00     0.015 A 
HETATM    6  C   UNK N   1      33.776  15.871   8.996  0.00  0.00     0.079 A 
HETATM    7  C   UNK N   1      34.031  14.923  10.000  0.00  0.00     0.110 A 
HETATM    8  C   UNK N   1      35.414  14.777   7.554  0.00  0.00     0.048 A 
HETATM    9  C   UNK N   1      34.200  16.755   6.780  0.00  0.00     0.017 A 
HETATM   10  C   UNK N   1      34.976  13.908   9.774  0.00  0.00     0.043 A 
HETATM   11  C   UNK N   1      35.656  13.843   8.560  0.00  0.00     0.046 A 
HETATM   12  C   UNK N   1      33.259  17.756   7.020  0.00  0.00     0.018 A 
HETATM   13  C   UNK N   1      32.594  17.794   8.248  0.00  0.00     0.088 A 
ENDROOT
BRANCH   7  14
HETATM   14  O   UNK N   1      33.374  14.985  11.173  0.00  0.00    -0.357 OA
HETATM   15  H   UNK N   1      33.490  14.309  11.810  0.00  0.00     0.217 HD
ENDBRANCH   7  14
TORSDOF 1
ENDMDL
