REMARK  2 active torsions:
REMARK  status: ('A' for Active; 'I' for Inactive)
REMARK    1  A    between atoms: O_3  and  C_11 
REMARK    2  A    between atoms: O_4  and  C_12 
ROOT
HETATM    1  O   UNK N   1       3.886   2.523  -0.000  0.00  0.00    -0.286 OA
HETATM    2  O   UNK N   1       3.886  -2.820   0.000  0.00  0.00    -0.287 OA
HETATM    3  C   UNK N   1       5.176   0.557  -0.000  0.00  0.00     0.062 A 
HETATM    4  C   UNK N   1       2.595   0.556  -0.000  0.00  0.00     0.062 A 
HETATM    5  C   UNK N   1       5.165  -0.857  -0.000  0.00  0.00     0.032 A 
HETATM    6  C   UNK N   1       2.606  -0.857   0.000  0.00  0.00     0.032 A 
HETATM    7  C   UNK N   1       3.886   1.300  -0.000  0.00  0.00     0.199 A 
HETATM    8  C   UNK N   1       3.886  -1.595   0.000  0.00  0.00     0.194 A 
HETATM    9  C   UNK N   1       6.418   1.234   0.000  0.00  0.00     0.080 A 
HETATM   10  C   UNK N   1       1.354   1.233   0.000  0.00  0.00     0.080 A 
HETATM   11  C   UNK N   1       6.373  -1.564  -0.000  0.00  0.00     0.017 A 
HETATM   12  C   UNK N   1       1.398  -1.565   0.000  0.00  0.00     0.017 A 
HETATM   13  C   UNK N   1       7.610   0.509   0.000  0.00  0.00     0.037 A 
HETATM   14  C   UNK N   1       0.161   0.508   0.000  0.00  0.00     0.037 A 
HETATM   15  C   UNK N   1       7.589  -0.885  -0.000  0.00  0.00     0.004 A 
HETATM   16  C   UNK N   1       0.182  -0.885   0.000  0.00  0.00     0.004 A 
ENDROOT
BRANCH   9  17
HETATM   17  O   UNK N   1       6.477   2.578   0.000  0.00  0.00    -0.360 OA
HETATM   18  H   UNK N   1       7.308   3.010   0.000  0.00  0.00     0.217 HD
ENDBRANCH   9  17
BRANCH  10  19
HETATM   19  O   UNK N   1       1.296   2.577   0.000  0.00  0.00    -0.360 OA
HETATM   20  H   UNK N   1       2.087   3.080   0.000  0.00  0.00     0.217 HD
ENDBRANCH  10  19
TORSDOF 2
