MODEL 1
REMARK VINA RESULT:      -6.6      0.000      0.000
REMARK  2 active torsions:
REMARK  status: ('A' for Active; 'I' for Inactive)
REMARK    1  A    between atoms: O_3  and  C_11 
REMARK    2  A    between atoms: O_4  and  C_12 
ROOT
HETATM    1  O   UNK N   1      28.294  18.996   8.894  0.00  0.00    -0.286 OA
HETATM    2  O   UNK N   1      29.836  17.343   4.053  0.00  0.00    -0.287 OA
HETATM    3  C   UNK N   1      29.752  17.628   7.656  0.00  0.00     0.062 A 
HETATM    4  C   UNK N   1      27.971  19.147   6.569  0.00  0.00     0.062 A 
HETATM    5  C   UNK N   1      30.152  17.197   6.370  0.00  0.00     0.032 A 
HETATM    6  C   UNK N   1      28.387  18.704   5.293  0.00  0.00     0.032 A 
HETATM    7  C   UNK N   1      28.647  18.617   7.786  0.00  0.00     0.199 A 
HETATM    8  C   UNK N   1      29.483  17.722   5.163  0.00  0.00     0.194 A 
HETATM    9  C   UNK N   1      30.413  17.106   8.792  0.00  0.00     0.080 A 
HETATM   10  C   UNK N   1      26.919  20.088   6.660  0.00  0.00     0.080 A 
HETATM   11  C   UNK N   1      31.190  16.267   6.238  0.00  0.00     0.017 A 
HETATM   12  C   UNK N   1      27.757  19.196   4.143  0.00  0.00     0.017 A 
HETATM   13  C   UNK N   1      31.445  16.180   8.637  0.00  0.00     0.037 A 
HETATM   14  C   UNK N   1      26.305  20.566   5.501  0.00  0.00     0.037 A 
HETATM   15  C   UNK N   1      31.833  15.761   7.365  0.00  0.00     0.004 A 
HETATM   16  C   UNK N   1      26.722  20.122   4.247  0.00  0.00     0.004 A 
ENDROOT
BRANCH   9  17
HETATM   17  O   UNK N   1      30.066  17.487  10.035  0.00  0.00    -0.360 OA
HETATM   18  H   UNK N   1      29.197  17.792  10.205  0.00  0.00     0.217 HD
ENDBRANCH   9  17
BRANCH  10  19
HETATM   19  O   UNK N   1      26.491  20.538   7.853  0.00  0.00    -0.360 OA
HETATM   20  H   UNK N   1      25.834  20.063   8.324  0.00  0.00     0.217 HD
ENDBRANCH  10  19
TORSDOF 2
ENDMDL
MODEL 2
REMARK VINA RESULT:      -6.6      0.007      4.723
REMARK  2 active torsions:
REMARK  status: ('A' for Active; 'I' for Inactive)
REMARK    1  A    between atoms: O_3  and  C_11 
REMARK    2  A    between atoms: O_4  and  C_12 
ROOT
HETATM    1  O   UNK N   1      28.295  18.995   8.890  0.00  0.00    -0.286 OA
HETATM    2  O   UNK N   1      29.830  17.340   4.048  0.00  0.00    -0.287 OA
HETATM    3  C   UNK N   1      27.969  19.146   6.567  0.00  0.00     0.062 A 
HETATM    4  C   UNK N   1      29.751  17.625   7.650  0.00  0.00     0.062 A 
HETATM    5  C   UNK N   1      28.383  18.701   5.290  0.00  0.00     0.032 A 
HETATM    6  C   UNK N   1      30.149  17.194   6.364  0.00  0.00     0.032 A 
HETATM    7  C   UNK N   1      28.646  18.616   7.782  0.00  0.00     0.199 A 
HETATM    8  C   UNK N   1      29.478  17.720   5.158  0.00  0.00     0.194 A 
HETATM    9  C   UNK N   1      26.917  20.087   6.659  0.00  0.00     0.080 A 
HETATM   10  C   UNK N   1      30.413  17.104   8.785  0.00  0.00     0.080 A 
HETATM   11  C   UNK N   1      27.752  19.194   4.141  0.00  0.00     0.017 A 
HETATM   12  C   UNK N   1      31.187  16.263   6.230  0.00  0.00     0.017 A 
HETATM   13  C   UNK N   1      26.302  20.565   5.501  0.00  0.00     0.037 A 
HETATM   14  C   UNK N   1      31.445  16.177   8.629  0.00  0.00     0.037 A 
HETATM   15  C   UNK N   1      26.717  20.121   4.246  0.00  0.00     0.004 A 
HETATM   16  C   UNK N   1      31.831  15.758   7.357  0.00  0.00     0.004 A 
ENDROOT
BRANCH   9  17
HETATM   17  O   UNK N   1      26.490  20.538   7.852  0.00  0.00    -0.360 OA
HETATM   18  H   UNK N   1      25.615  20.360   8.134  0.00  0.00     0.217 HD
ENDBRANCH   9  17
BRANCH  10  19
HETATM   19  O   UNK N   1      30.067  17.486  10.027  0.00  0.00    -0.360 OA
HETATM   20  H   UNK N   1      29.165  17.630  10.239  0.00  0.00     0.217 HD
ENDBRANCH  10  19
TORSDOF 2
ENDMDL
MODEL 3
REMARK VINA RESULT:      -6.6      2.363      4.388
REMARK  2 active torsions:
REMARK  status: ('A' for Active; 'I' for Inactive)
REMARK    1  A    between atoms: O_3  and  C_11 
REMARK    2  A    between atoms: O_4  and  C_12 
ROOT
HETATM    1  O   UNK N   1      28.461  17.243   4.861  0.00  0.00    -0.286 OA
HETATM    2  O   UNK N   1      32.957  17.499   7.736  0.00  0.00    -0.287 OA
HETATM    3  C   UNK N   1      30.809  17.119   4.853  0.00  0.00     0.062 A 
HETATM    4  C   UNK N   1      29.422  17.556   6.986  0.00  0.00     0.062 A 
HETATM    5  C   UNK N   1      31.993  17.189   5.623  0.00  0.00     0.032 A 
HETATM    6  C   UNK N   1      30.617  17.622   7.737  0.00  0.00     0.032 A 
HETATM    7  C   UNK N   1      29.490  17.302   5.519  0.00  0.00     0.199 A 
HETATM    8  C   UNK N   1      31.926  17.441   7.077  0.00  0.00     0.194 A 
HETATM    9  C   UNK N   1      30.907  16.876   3.463  0.00  0.00     0.080 A 
HETATM   10  C   UNK N   1      28.185  17.734   7.647  0.00  0.00     0.080 A 
HETATM   11  C   UNK N   1      33.237  17.018   5.006  0.00  0.00     0.017 A 
HETATM   12  C   UNK N   1      30.564  17.861   9.115  0.00  0.00     0.017 A 
HETATM   13  C   UNK N   1      32.158  16.709   2.869  0.00  0.00     0.037 A 
HETATM   14  C   UNK N   1      28.154  17.971   9.022  0.00  0.00     0.037 A 
HETATM   15  C   UNK N   1      33.320  16.779   3.636  0.00  0.00     0.004 A 
HETATM   16  C   UNK N   1      29.338  18.034   9.754  0.00  0.00     0.004 A 
ENDROOT
BRANCH   9  17
HETATM   17  O   UNK N   1      29.807  16.802   2.691  0.00  0.00    -0.360 OA
HETATM   18  H   UNK N   1      29.301  16.014   2.673  0.00  0.00     0.217 HD
ENDBRANCH   9  17
BRANCH  10  19
HETATM   19  O   UNK N   1      27.023  17.680   6.971  0.00  0.00    -0.360 OA
HETATM   20  H   UNK N   1      26.357  17.074   7.234  0.00  0.00     0.217 HD
ENDBRANCH  10  19
TORSDOF 2
ENDMDL
MODEL 4
REMARK VINA RESULT:      -6.6      2.361      4.691
REMARK  2 active torsions:
REMARK  status: ('A' for Active; 'I' for Inactive)
REMARK    1  A    between atoms: O_3  and  C_11 
REMARK    2  A    between atoms: O_4  and  C_12 
ROOT
HETATM    1  O   UNK N   1      28.459  17.244   4.860  0.00  0.00    -0.286 OA
HETATM    2  O   UNK N   1      32.960  17.484   7.728  0.00  0.00    -0.287 OA
HETATM    3  C   UNK N   1      29.424  17.555   6.982  0.00  0.00     0.062 A 
HETATM    4  C   UNK N   1      30.808  17.110   4.849  0.00  0.00     0.062 A 
HETATM    5  C   UNK N   1      30.621  17.617   7.732  0.00  0.00     0.032 A 
HETATM    6  C   UNK N   1      31.992  17.175   5.617  0.00  0.00     0.032 A 
HETATM    7  C   UNK N   1      29.489  17.299   5.517  0.00  0.00     0.199 A 
HETATM    8  C   UNK N   1      31.928  17.429   7.071  0.00  0.00     0.194 A 
HETATM    9  C   UNK N   1      28.188  17.738   7.645  0.00  0.00     0.080 A 
HETATM   10  C   UNK N   1      30.902  16.866   3.460  0.00  0.00     0.080 A 
HETATM   11  C   UNK N   1      30.569  17.857   9.110  0.00  0.00     0.017 A 
HETATM   12  C   UNK N   1      33.236  16.999   4.998  0.00  0.00     0.017 A 
HETATM   13  C   UNK N   1      28.160  17.976   9.020  0.00  0.00     0.037 A 
HETATM   14  C   UNK N   1      32.152  16.693   2.863  0.00  0.00     0.037 A 
HETATM   15  C   UNK N   1      29.346  18.036   9.750  0.00  0.00     0.004 A 
HETATM   16  C   UNK N   1      33.315  16.759   3.628  0.00  0.00     0.004 A 
ENDROOT
BRANCH   9  17
HETATM   17  O   UNK N   1      27.024  17.688   6.972  0.00  0.00    -0.360 OA
HETATM   18  H   UNK N   1      26.647  18.474   6.630  0.00  0.00     0.217 HD
ENDBRANCH   9  17
BRANCH  10  19
HETATM   19  O   UNK N   1      29.801  16.795   2.691  0.00  0.00    -0.360 OA
HETATM   20  H   UNK N   1      29.356  15.977   2.583  0.00  0.00     0.217 HD
ENDBRANCH  10  19
TORSDOF 2
ENDMDL
MODEL 5
REMARK VINA RESULT:      -6.4     10.626     13.190
REMARK  2 active torsions:
REMARK  status: ('A' for Active; 'I' for Inactive)
REMARK    1  A    between atoms: O_3  and  C_11 
REMARK    2  A    between atoms: O_4  and  C_12 
ROOT
HETATM    1  O   UNK N   1      28.480  24.092  -2.478  0.00  0.00    -0.286 OA
HETATM    2  O   UNK N   1      29.247  21.811  -7.249  0.00  0.00    -0.287 OA
HETATM    3  C   UNK N   1      27.698  23.829  -4.680  0.00  0.00     0.062 A 
HETATM    4  C   UNK N   1      29.828  22.676  -3.787  0.00  0.00     0.062 A 
HETATM    5  C   UNK N   1      27.910  23.220  -5.939  0.00  0.00     0.032 A 
HETATM    6  C   UNK N   1      30.021  22.077  -5.053  0.00  0.00     0.032 A 
HETATM    7  C   UNK N   1      28.656  23.570  -3.570  0.00  0.00     0.199 A 
HETATM    8  C   UNK N   1      29.071  22.334  -6.155  0.00  0.00     0.194 A 
HETATM    9  C   UNK N   1      26.576  24.673  -4.505  0.00  0.00     0.080 A 
HETATM   10  C   UNK N   1      30.754  22.410  -2.753  0.00  0.00     0.080 A 
HETATM   11  C   UNK N   1      27.015  23.458  -6.988  0.00  0.00     0.017 A 
HETATM   12  C   UNK N   1      31.120  21.236  -5.267  0.00  0.00     0.017 A 
HETATM   13  C   UNK N   1      25.697  24.896  -5.565  0.00  0.00     0.037 A 
HETATM   14  C   UNK N   1      31.843  21.568  -2.988  0.00  0.00     0.037 A 
HETATM   15  C   UNK N   1      25.914  24.291  -6.803  0.00  0.00     0.004 A 
HETATM   16  C   UNK N   1      32.025  20.983  -4.239  0.00  0.00     0.004 A 
ENDROOT
BRANCH   9  17
HETATM   17  O   UNK N   1      26.335  25.273  -3.326  0.00  0.00    -0.360 OA
HETATM   18  H   UNK N   1      26.298  26.207  -3.275  0.00  0.00     0.217 HD
ENDBRANCH   9  17
BRANCH  10  19
HETATM   19  O   UNK N   1      30.609  22.958  -1.533  0.00  0.00    -0.360 OA
HETATM   20  H   UNK N   1      30.369  23.860  -1.450  0.00  0.00     0.217 HD
ENDBRANCH  10  19
TORSDOF 2
ENDMDL
MODEL 6
REMARK VINA RESULT:      -6.4     10.627     12.331
REMARK  2 active torsions:
REMARK  status: ('A' for Active; 'I' for Inactive)
REMARK    1  A    between atoms: O_3  and  C_11 
REMARK    2  A    between atoms: O_4  and  C_12 
ROOT
HETATM    1  O   UNK N   1      28.483  24.085  -2.474  0.00  0.00    -0.286 OA
HETATM    2  O   UNK N   1      29.257  21.811  -7.246  0.00  0.00    -0.287 OA
HETATM    3  C   UNK N   1      29.834  22.676  -3.784  0.00  0.00     0.062 A 
HETATM    4  C   UNK N   1      27.701  23.821  -4.677  0.00  0.00     0.062 A 
HETATM    5  C   UNK N   1      30.030  22.079  -5.051  0.00  0.00     0.032 A 
HETATM    6  C   UNK N   1      27.914  23.215  -5.935  0.00  0.00     0.032 A 
HETATM    7  C   UNK N   1      28.660  23.565  -3.566  0.00  0.00     0.199 A 
HETATM    8  C   UNK N   1      29.080  22.332  -6.152  0.00  0.00     0.194 A 
HETATM    9  C   UNK N   1      30.763  22.413  -2.750  0.00  0.00     0.080 A 
HETATM   10  C   UNK N   1      26.577  24.660  -4.501  0.00  0.00     0.080 A 
HETATM   11  C   UNK N   1      31.131  21.242  -5.265  0.00  0.00     0.017 A 
HETATM   12  C   UNK N   1      27.018  23.450  -6.985  0.00  0.00     0.017 A 
HETATM   13  C   UNK N   1      31.854  21.575  -2.986  0.00  0.00     0.037 A 
HETATM   14  C   UNK N   1      25.695  24.881  -5.561  0.00  0.00     0.037 A 
HETATM   15  C   UNK N   1      32.038  20.991  -4.238  0.00  0.00     0.004 A 
HETATM   16  C   UNK N   1      25.914  24.279  -6.798  0.00  0.00     0.004 A 
ENDROOT
BRANCH   9  17
HETATM   17  O   UNK N   1      30.618  22.959  -1.529  0.00  0.00    -0.360 OA
HETATM   18  H   UNK N   1      29.841  22.793  -1.033  0.00  0.00     0.217 HD
ENDBRANCH   9  17
BRANCH  10  19
HETATM   19  O   UNK N   1      26.334  25.258  -3.321  0.00  0.00    -0.360 OA
HETATM   20  H   UNK N   1      25.688  24.905  -2.741  0.00  0.00     0.217 HD
ENDBRANCH  10  19
TORSDOF 2
ENDMDL
MODEL 7
REMARK VINA RESULT:      -6.4      4.421      6.274
REMARK  2 active torsions:
REMARK  status: ('A' for Active; 'I' for Inactive)
REMARK    1  A    between atoms: O_3  and  C_11 
REMARK    2  A    between atoms: O_4  and  C_12 
ROOT
HETATM    1  O   UNK N   1      23.447  17.057   5.390  0.00  0.00    -0.286 OA
HETATM    2  O   UNK N   1      24.420  21.325   2.328  0.00  0.00    -0.287 OA
HETATM    3  C   UNK N   1      25.058  18.555   4.560  0.00  0.00     0.062 A 
HETATM    4  C   UNK N   1      22.551  18.701   3.966  0.00  0.00     0.062 A 
HETATM    5  C   UNK N   1      25.305  19.685   3.747  0.00  0.00     0.032 A 
HETATM    6  C   UNK N   1      22.819  19.829   3.158  0.00  0.00     0.032 A 
HETATM    7  C   UNK N   1      23.670  18.034   4.689  0.00  0.00     0.199 A 
HETATM    8  C   UNK N   1      24.197  20.347   3.030  0.00  0.00     0.194 A 
HETATM    9  C   UNK N   1      26.141  17.944   5.235  0.00  0.00     0.080 A 
HETATM   10  C   UNK N   1      21.222  18.230   4.068  0.00  0.00     0.080 A 
HETATM   11  C   UNK N   1      26.607  20.182   3.620  0.00  0.00     0.017 A 
HETATM   12  C   UNK N   1      21.774  20.463   2.474  0.00  0.00     0.017 A 
HETATM   13  C   UNK N   1      27.431  18.456   5.094  0.00  0.00     0.037 A 
HETATM   14  C   UNK N   1      20.195  18.876   3.377  0.00  0.00     0.037 A 
HETATM   15  C   UNK N   1      27.665  19.571   4.290  0.00  0.00     0.004 A 
HETATM   16  C   UNK N   1      20.469  19.988   2.584  0.00  0.00     0.004 A 
ENDROOT
BRANCH   9  17
HETATM   17  O   UNK N   1      25.954  16.867   6.018  0.00  0.00    -0.360 OA
HETATM   18  H   UNK N   1      26.692  16.393   6.348  0.00  0.00     0.217 HD
ENDBRANCH   9  17
BRANCH  10  19
HETATM   19  O   UNK N   1      20.921  17.159   4.825  0.00  0.00    -0.360 OA
HETATM   20  H   UNK N   1      21.348  17.034   5.650  0.00  0.00     0.217 HD
ENDBRANCH  10  19
TORSDOF 2
ENDMDL
MODEL 8
REMARK VINA RESULT:      -6.4     10.883     13.754
REMARK  2 active torsions:
REMARK  status: ('A' for Active; 'I' for Inactive)
REMARK    1  A    between atoms: O_3  and  C_11 
REMARK    2  A    between atoms: O_4  and  C_12 
ROOT
HETATM    1  O   UNK N   1      34.782  13.681  15.496  0.00  0.00    -0.286 OA
HETATM    2  O   UNK N   1      35.356   8.488  16.616  0.00  0.00    -0.287 OA
HETATM    3  C   UNK N   1      34.852  11.485  14.658  0.00  0.00     0.062 A 
HETATM    4  C   UNK N   1      35.134  12.054  17.159  0.00  0.00     0.062 A 
HETATM    5  C   UNK N   1      35.005  10.113  14.965  0.00  0.00     0.032 A 
HETATM    6  C   UNK N   1      35.285  10.679  17.445  0.00  0.00     0.032 A 
HETATM    7  C   UNK N   1      34.913  12.492  15.752  0.00  0.00     0.199 A 
HETATM    8  C   UNK N   1      35.224   9.678  16.360  0.00  0.00     0.194 A 
HETATM    9  C   UNK N   1      34.644  11.868  13.312  0.00  0.00     0.080 A 
HETATM   10  C   UNK N   1      35.197  12.987  18.220  0.00  0.00     0.080 A 
HETATM   11  C   UNK N   1      34.949   9.158  13.943  0.00  0.00     0.017 A 
HETATM   12  C   UNK N   1      35.493  10.258  18.764  0.00  0.00     0.017 A 
HETATM   13  C   UNK N   1      34.592  10.899  12.309  0.00  0.00     0.037 A 
HETATM   14  C   UNK N   1      35.405  12.546  19.528  0.00  0.00     0.037 A 
HETATM   15  C   UNK N   1      34.744   9.549  12.622  0.00  0.00     0.004 A 
HETATM   16  C   UNK N   1      35.552  11.188  19.800  0.00  0.00     0.004 A 
ENDROOT
BRANCH   9  17
HETATM   17  O   UNK N   1      34.493  13.161  12.973  0.00  0.00    -0.360 OA
HETATM   18  H   UNK N   1      35.137  13.790  13.231  0.00  0.00     0.217 HD
ENDBRANCH   9  17
BRANCH  10  19
HETATM   19  O   UNK N   1      35.059  14.306  17.994  0.00  0.00    -0.360 OA
HETATM   20  H   UNK N   1      35.441  14.693  17.231  0.00  0.00     0.217 HD
ENDBRANCH  10  19
TORSDOF 2
ENDMDL
MODEL 9
REMARK VINA RESULT:      -6.4      8.146      8.568
REMARK  2 active torsions:
REMARK  status: ('A' for Active; 'I' for Inactive)
REMARK    1  A    between atoms: O_3  and  C_11 
REMARK    2  A    between atoms: O_4  and  C_12 
ROOT
HETATM    1  O   UNK N   1      19.915  13.987   8.800  0.00  0.00    -0.286 OA
HETATM    2  O   UNK N   1      25.185  13.630   7.995  0.00  0.00    -0.287 OA
HETATM    3  C   UNK N   1      21.977  13.190   9.603  0.00  0.00     0.062 A 
HETATM    4  C   UNK N   1      21.732  14.521   7.405  0.00  0.00     0.062 A 
HETATM    5  C   UNK N   1      23.371  13.102   9.380  0.00  0.00     0.032 A 
HETATM    6  C   UNK N   1      23.127  14.421   7.201  0.00  0.00     0.032 A 
HETATM    7  C   UNK N   1      21.122  13.905   8.616  0.00  0.00     0.199 A 
HETATM    8  C   UNK N   1      23.977  13.712   8.180  0.00  0.00     0.194 A 
HETATM    9  C   UNK N   1      21.428  12.595  10.762  0.00  0.00     0.080 A 
HETATM   10  C   UNK N   1      20.947  15.206   6.450  0.00  0.00     0.080 A 
HETATM   11  C   UNK N   1      24.183  12.431  10.302  0.00  0.00     0.017 A 
HETATM   12  C   UNK N   1      23.711  14.997   6.066  0.00  0.00     0.017 A 
HETATM   13  C   UNK N   1      22.256  11.932  11.668  0.00  0.00     0.037 A 
HETATM   14  C   UNK N   1      21.548  15.773   5.325  0.00  0.00     0.037 A 
HETATM   15  C   UNK N   1      23.629  11.850  11.440  0.00  0.00     0.004 A 
HETATM   16  C   UNK N   1      22.924  15.669   5.133  0.00  0.00     0.004 A 
ENDROOT
BRANCH   9  17
HETATM   17  O   UNK N   1      20.108  12.655  11.015  0.00  0.00    -0.360 OA
HETATM   18  H   UNK N   1      19.500  12.760  10.310  0.00  0.00     0.217 HD
ENDBRANCH   9  17
BRANCH  10  19
HETATM   19  O   UNK N   1      19.615  15.326   6.603  0.00  0.00    -0.360 OA
HETATM   20  H   UNK N   1      19.258  16.086   7.019  0.00  0.00     0.217 HD
ENDBRANCH  10  19
TORSDOF 2
ENDMDL
