REMARK  3 active torsions:
REMARK  status: ('A' for Active; 'I' for Inactive)
REMARK    1  A    between atoms: N_2  and  N_3 
REMARK    2  A    between atoms: N_2  and  C_6 
REMARK       I    between atoms: N_3  and  C_9 
REMARK    3  A    between atoms: C_9  and  C_10 
ROOT
HETATM    1  O   UNK N   1       0.921   1.030  -0.088  0.00  0.00    -0.266 OA
HETATM    2  N   UNK N   1       3.152   1.118   0.027  0.00  0.00    -0.270 N 
HETATM    3  C   UNK N   1       1.988   0.432  -0.016  0.00  0.00     0.269 C 
HETATM    4  H   UNK N   1       3.994   0.621   0.142  0.00  0.00     0.190 HD
ENDROOT
BRANCH   3   5
HETATM    5  C   UNK N   1       2.016  -1.044   0.012  0.00  0.00     0.036 A 
HETATM    6  C   UNK N   1       3.245  -1.717   0.035  0.00  0.00     0.034 A 
HETATM    7  C   UNK N   1       3.269  -3.111   0.037  0.00  0.00     0.088 A 
HETATM    8  N   UNK N   1       2.105  -3.813   0.018  0.00  0.00    -0.375 N 
HETATM    9  C   UNK N   1       0.898  -3.185  -0.003  0.00  0.00     0.088 A 
ATOM     10  HN  UNK N   1       2.137  -4.833   0.020  1.00  0.00     0.164 HD
HETATM   11  C   UNK N   1       0.832  -1.789  -0.009  0.00  0.00     0.034 A 
ENDBRANCH   3   5
BRANCH   2  12
HETATM   12  N   UNK N   1       3.197   2.501  -0.087  0.00  0.00    -0.330 N 
HETATM   13  H   UNK N   1       2.441   3.098  -0.425  0.00  0.00     0.180 HD
BRANCH  12  14
HETATM   14  C   UNK N   1       4.513   2.958   0.359  0.00  0.00     0.091 C 
HETATM   15  C   UNK N   1       4.678   4.419   0.002  0.00  0.00     0.033 C 
HETATM   16  C   UNK N   1       5.651   2.174  -0.286  0.00  0.00     0.033 C 
ENDBRANCH  12  14
ENDBRANCH   2  12
TORSDOF 3
