MODEL 1
REMARK VINA RESULT:      -5.5      0.000      0.000
REMARK  3 active torsions:
REMARK  status: ('A' for Active; 'I' for Inactive)
REMARK    1  A    between atoms: N_2  and  N_3 
REMARK    2  A    between atoms: N_2  and  C_6 
REMARK       I    between atoms: N_3  and  C_9 
REMARK    3  A    between atoms: C_9  and  C_10 
ROOT
HETATM    1  O   UNK N   1      34.983  18.906   8.344  0.00  0.00    -0.266 OA
HETATM    2  N   UNK N   1      34.215  17.168   9.522  0.00  0.00    -0.270 N 
HETATM    3  C   UNK N   1      34.206  17.962   8.429  0.00  0.00     0.269 C 
HETATM    4  H   UNK N   1      33.545  16.450   9.596  0.00  0.00     0.190 HD
ENDROOT
BRANCH   3   5
HETATM    5  C   UNK N   1      33.259  17.674   7.333  0.00  0.00     0.036 A 
HETATM    6  C   UNK N   1      31.911  17.426   7.624  0.00  0.00     0.034 A 
HETATM    7  C   UNK N   1      31.024  17.130   6.589  0.00  0.00     0.088 A 
HETATM    8  N   UNK N   1      31.466  17.084   5.305  0.00  0.00    -0.375 N 
HETATM    9  C   UNK N   1      32.769  17.322   4.994  0.00  0.00     0.088 A 
ATOM     10  HN  UNK N   1      30.806  16.867   4.557  1.00  0.00     0.164 HD
HETATM   11  C   UNK N   1      33.690  17.619   6.003  0.00  0.00     0.034 A 
ENDBRANCH   3   5
BRANCH   2  12
HETATM   12  N   UNK N   1      35.140  17.332  10.544  0.00  0.00    -0.330 N 
HETATM   13  H   UNK N   1      35.593  18.208  10.806  0.00  0.00     0.180 HD
BRANCH  12  14
HETATM   14  C   UNK N   1      35.357  16.034  11.183  0.00  0.00     0.091 C 
HETATM   15  C   UNK N   1      36.606  15.401  10.608  0.00  0.00     0.033 C 
HETATM   16  C   UNK N   1      34.190  15.077  10.967  0.00  0.00     0.033 C 
ENDBRANCH  12  14
ENDBRANCH   2  12
TORSDOF 3
ENDMDL
MODEL 2
REMARK VINA RESULT:      -5.2     11.120     13.430
REMARK  3 active torsions:
REMARK  status: ('A' for Active; 'I' for Inactive)
REMARK    1  A    between atoms: N_2  and  N_3 
REMARK    2  A    between atoms: N_2  and  C_6 
REMARK       I    between atoms: N_3  and  C_9 
REMARK    3  A    between atoms: C_9  and  C_10 
ROOT
HETATM    1  O   UNK N   1      20.061  12.883  10.249  0.00  0.00    -0.266 OA
HETATM    2  N   UNK N   1      20.866  14.808   9.445  0.00  0.00    -0.270 N 
HETATM    3  C   UNK N   1      21.032  13.593  10.015  0.00  0.00     0.269 C 
HETATM    4  H   UNK N   1      21.653  15.385   9.318  0.00  0.00     0.190 HD
ENDROOT
BRANCH   3   5
HETATM    5  C   UNK N   1      22.394  13.126  10.341  0.00  0.00     0.036 A 
HETATM    6  C   UNK N   1      23.464  13.457   9.499  0.00  0.00     0.034 A 
HETATM    7  C   UNK N   1      24.745  12.994   9.796  0.00  0.00     0.088 A 
HETATM    8  N   UNK N   1      24.955  12.227  10.899  0.00  0.00    -0.375 N 
HETATM    9  C   UNK N   1      23.934  11.892  11.734  0.00  0.00     0.088 A 
ATOM     10  HN  UNK N   1      25.898  11.895  11.105  1.00  0.00     0.164 HD
HETATM   11  C   UNK N   1      22.635  12.334  11.469  0.00  0.00     0.034 A 
ENDBRANCH   3   5
BRANCH   2  12
HETATM   12  N   UNK N   1      19.622  15.265   9.033  0.00  0.00    -0.330 N 
HETATM   13  H   UNK N   1      18.719  14.891   9.329  0.00  0.00     0.180 HD
BRANCH  12  14
HETATM   14  C   UNK N   1      19.824  16.374   8.100  0.00  0.00     0.091 C 
HETATM   15  C   UNK N   1      21.203  16.263   7.489  0.00  0.00     0.033 C 
HETATM   16  C   UNK N   1      19.706  17.734   8.779  0.00  0.00     0.033 C 
ENDBRANCH  12  14
ENDBRANCH   2  12
TORSDOF 3
ENDMDL
MODEL 3
REMARK VINA RESULT:      -5.1      1.934      5.917
REMARK  3 active torsions:
REMARK  status: ('A' for Active; 'I' for Inactive)
REMARK    1  A    between atoms: N_2  and  N_3 
REMARK    2  A    between atoms: N_2  and  C_6 
REMARK       I    between atoms: N_3  and  C_9 
REMARK    3  A    between atoms: C_9  and  C_10 
ROOT
HETATM    1  O   UNK N   1      35.631  17.620  10.226  0.00  0.00    -0.266 OA
HETATM    2  N   UNK N   1      33.944  16.227   9.767  0.00  0.00    -0.270 N 
HETATM    3  C   UNK N   1      35.166  16.488  10.282  0.00  0.00     0.269 C 
HETATM    4  H   UNK N   1      33.613  15.300   9.771  0.00  0.00     0.190 HD
ENDROOT
BRANCH   3   5
HETATM    5  C   UNK N   1      35.930  15.398  10.922  0.00  0.00     0.036 A 
HETATM    6  C   UNK N   1      36.858  14.664  10.171  0.00  0.00     0.034 A 
HETATM    7  C   UNK N   1      37.560  13.620  10.771  0.00  0.00     0.088 A 
HETATM    8  N   UNK N   1      37.346  13.317  12.079  0.00  0.00    -0.375 N 
HETATM    9  C   UNK N   1      36.452  14.015  12.832  0.00  0.00     0.088 A 
ATOM     10  HN  UNK N   1      37.867  12.551  12.506  1.00  0.00     0.164 HD
HETATM   11  C   UNK N   1      35.726  15.066  12.265  0.00  0.00     0.034 A 
ENDBRANCH   3   5
BRANCH   2  12
HETATM   12  N   UNK N   1      33.140  17.226   9.235  0.00  0.00    -0.330 N 
HETATM   13  H   UNK N   1      32.794  18.046   9.736  0.00  0.00     0.180 HD
BRANCH  12  14
HETATM   14  C   UNK N   1      32.871  16.904   7.834  0.00  0.00     0.091 C 
HETATM   15  C   UNK N   1      33.798  17.713   6.952  0.00  0.00     0.033 C 
HETATM   16  C   UNK N   1      31.433  17.213   7.430  0.00  0.00     0.033 C 
ENDBRANCH  12  14
ENDBRANCH   2  12
TORSDOF 3
ENDMDL
MODEL 4
REMARK VINA RESULT:      -5.0      2.819      6.435
REMARK  3 active torsions:
REMARK  status: ('A' for Active; 'I' for Inactive)
REMARK    1  A    between atoms: N_2  and  N_3 
REMARK    2  A    between atoms: N_2  and  C_6 
REMARK       I    between atoms: N_3  and  C_9 
REMARK    3  A    between atoms: C_9  and  C_10 
ROOT
HETATM    1  O   UNK N   1      36.795  16.154  10.834  0.00  0.00    -0.266 OA
HETATM    2  N   UNK N   1      34.562  16.232  10.747  0.00  0.00    -0.270 N 
HETATM    3  C   UNK N   1      35.718  15.716  11.221  0.00  0.00     0.269 C 
HETATM    4  H   UNK N   1      33.710  15.828  11.028  0.00  0.00     0.190 HD
ENDROOT
BRANCH   3   5
HETATM    5  C   UNK N   1      35.670  14.630  12.220  0.00  0.00     0.036 A 
HETATM    6  C   UNK N   1      36.340  14.777  13.442  0.00  0.00     0.034 A 
HETATM    7  C   UNK N   1      36.313  13.740  14.374  0.00  0.00     0.088 A 
HETATM    8  N   UNK N   1      35.639  12.592  14.097  0.00  0.00    -0.375 N 
HETATM    9  C   UNK N   1      34.979  12.423  12.919  0.00  0.00     0.088 A 
ATOM     10  HN  UNK N   1      35.627  11.841  14.788  1.00  0.00     0.164 HD
HETATM   11  C   UNK N   1      34.985  13.438  11.958  0.00  0.00     0.034 A 
ENDBRANCH   3   5
BRANCH   2  12
HETATM   12  N   UNK N   1      34.541  17.313   9.876  0.00  0.00    -0.330 N 
HETATM   13  H   UNK N   1      35.017  18.205  10.018  0.00  0.00     0.180 HD
BRANCH  12  14
HETATM   14  C   UNK N   1      33.718  16.958   8.720  0.00  0.00     0.091 C 
HETATM   15  C   UNK N   1      34.549  16.145   7.751  0.00  0.00     0.033 C 
HETATM   16  C   UNK N   1      33.186  18.184   7.985  0.00  0.00     0.033 C 
ENDBRANCH  12  14
ENDBRANCH   2  12
TORSDOF 3
ENDMDL
MODEL 5
REMARK VINA RESULT:      -5.0      4.755      7.956
REMARK  3 active torsions:
REMARK  status: ('A' for Active; 'I' for Inactive)
REMARK    1  A    between atoms: N_2  and  N_3 
REMARK    2  A    between atoms: N_2  and  C_6 
REMARK       I    between atoms: N_3  and  C_9 
REMARK    3  A    between atoms: C_9  and  C_10 
ROOT
HETATM    1  O   UNK N   1      27.605  16.939   5.738  0.00  0.00    -0.266 OA
HETATM    2  N   UNK N   1      26.879  18.915   6.493  0.00  0.00    -0.270 N 
HETATM    3  C   UNK N   1      27.723  17.859   6.539  0.00  0.00     0.269 C 
HETATM    4  H   UNK N   1      26.955  19.615   7.181  0.00  0.00     0.190 HD
ENDROOT
BRANCH   3   5
HETATM    5  C   UNK N   1      28.794  17.832   7.555  0.00  0.00     0.036 A 
HETATM    6  C   UNK N   1      28.623  18.516   8.766  0.00  0.00     0.034 A 
HETATM    7  C   UNK N   1      29.646  18.509   9.713  0.00  0.00     0.088 A 
HETATM    8  N   UNK N   1      30.802  17.839   9.463  0.00  0.00    -0.375 N 
HETATM    9  C   UNK N   1      30.994  17.165   8.297  0.00  0.00     0.088 A 
ATOM     10  HN  UNK N   1      31.543  17.842  10.166  1.00  0.00     0.164 HD
HETATM   11  C   UNK N   1      29.994  17.152   7.320  0.00  0.00     0.034 A 
ENDBRANCH   3   5
BRANCH   2  12
HETATM   12  N   UNK N   1      25.911  19.042   5.507  0.00  0.00    -0.330 N 
HETATM   13  H   UNK N   1      25.241  18.323   5.230  0.00  0.00     0.180 HD
BRANCH  12  14
HETATM   14  C   UNK N   1      26.013  20.383   4.930  0.00  0.00     0.091 C 
HETATM   15  C   UNK N   1      26.642  20.286   3.558  0.00  0.00     0.033 C 
HETATM   16  C   UNK N   1      26.862  21.320   5.783  0.00  0.00     0.033 C 
ENDBRANCH  12  14
ENDBRANCH   2  12
TORSDOF 3
ENDMDL
MODEL 6
REMARK VINA RESULT:      -4.9      5.864      9.017
REMARK  3 active torsions:
REMARK  status: ('A' for Active; 'I' for Inactive)
REMARK    1  A    between atoms: N_2  and  N_3 
REMARK    2  A    between atoms: N_2  and  C_6 
REMARK       I    between atoms: N_3  and  C_9 
REMARK    3  A    between atoms: C_9  and  C_10 
ROOT
HETATM    1  O   UNK N   1      37.033  12.178  14.293  0.00  0.00    -0.266 OA
HETATM    2  N   UNK N   1      36.779  14.195  13.362  0.00  0.00    -0.270 N 
HETATM    3  C   UNK N   1      36.773  13.368  14.431  0.00  0.00     0.269 C 
HETATM    4  H   UNK N   1      36.511  15.134  13.485  0.00  0.00     0.190 HD
ENDROOT
BRANCH   3   5
HETATM    5  C   UNK N   1      36.463  13.914  15.767  0.00  0.00     0.036 A 
HETATM    6  C   UNK N   1      35.521  13.270  16.581  0.00  0.00     0.034 A 
HETATM    7  C   UNK N   1      35.213  13.802  17.833  0.00  0.00     0.088 A 
HETATM    8  N   UNK N   1      35.824  14.938  18.261  0.00  0.00    -0.375 N 
HETATM    9  C   UNK N   1      36.743  15.582  17.491  0.00  0.00     0.088 A 
ATOM     10  HN  UNK N   1      35.589  15.316  19.179  1.00  0.00     0.164 HD
HETATM   11  C   UNK N   1      37.077  15.083  16.229  0.00  0.00     0.034 A 
ENDBRANCH   3   5
BRANCH   2  12
HETATM   12  N   UNK N   1      37.150  13.761  12.096  0.00  0.00    -0.330 N 
HETATM   13  H   UNK N   1      37.959  13.179  11.877  0.00  0.00     0.180 HD
BRANCH  12  14
HETATM   14  C   UNK N   1      36.184  14.280  11.128  0.00  0.00     0.091 C 
HETATM   15  C   UNK N   1      35.739  15.659  11.563  0.00  0.00     0.033 C 
HETATM   16  C   UNK N   1      34.949  13.393  11.004  0.00  0.00     0.033 C 
ENDBRANCH  12  14
ENDBRANCH   2  12
TORSDOF 3
ENDMDL
MODEL 7
REMARK VINA RESULT:      -4.8     13.603     16.221
REMARK  3 active torsions:
REMARK  status: ('A' for Active; 'I' for Inactive)
REMARK    1  A    between atoms: N_2  and  N_3 
REMARK    2  A    between atoms: N_2  and  C_6 
REMARK       I    between atoms: N_3  and  C_9 
REMARK    3  A    between atoms: C_9  and  C_10 
ROOT
HETATM    1  O   UNK N   1      26.557  23.845  -2.894  0.00  0.00    -0.266 OA
HETATM    2  N   UNK N   1      28.261  24.353  -4.250  0.00  0.00    -0.270 N 
HETATM    3  C   UNK N   1      27.054  24.621  -3.702  0.00  0.00     0.269 C 
HETATM    4  H   UNK N   1      28.616  24.960  -4.939  0.00  0.00     0.190 HD
ENDROOT
BRANCH   3   5
HETATM    5  C   UNK N   1      26.348  25.862  -4.078  0.00  0.00     0.036 A 
HETATM    6  C   UNK N   1      26.441  26.992  -3.255  0.00  0.00     0.034 A 
HETATM    7  C   UNK N   1      25.753  28.155  -3.599  0.00  0.00     0.088 A 
HETATM    8  N   UNK N   1      24.997  28.191  -4.729  0.00  0.00    -0.375 N 
HETATM    9  C   UNK N   1      24.891  27.109  -5.546  0.00  0.00     0.088 A 
ATOM     10  HN  UNK N   1      24.500  29.049  -4.969  1.00  0.00     0.164 HD
HETATM   11  C   UNK N   1      25.562  25.923  -5.234  0.00  0.00     0.034 A 
ENDBRANCH   3   5
BRANCH   2  12
HETATM   12  N   UNK N   1      29.014  23.250  -3.871  0.00  0.00    -0.330 N 
HETATM   13  H   UNK N   1      28.863  22.289  -4.177  0.00  0.00     0.180 HD
BRANCH  12  14
HETATM   14  C   UNK N   1      30.062  23.701  -2.955  0.00  0.00     0.091 C 
HETATM   15  C   UNK N   1      30.753  24.910  -3.547  0.00  0.00     0.033 C 
HETATM   16  C   UNK N   1      31.112  22.625  -2.697  0.00  0.00     0.033 C 
ENDBRANCH  12  14
ENDBRANCH   2  12
TORSDOF 3
ENDMDL
MODEL 8
REMARK VINA RESULT:      -4.8      7.417     10.085
REMARK  3 active torsions:
REMARK  status: ('A' for Active; 'I' for Inactive)
REMARK    1  A    between atoms: N_2  and  N_3 
REMARK    2  A    between atoms: N_2  and  C_6 
REMARK       I    between atoms: N_3  and  C_9 
REMARK    3  A    between atoms: C_9  and  C_10 
ROOT
HETATM    1  O   UNK N   1      34.640  13.377  14.479  0.00  0.00    -0.266 OA
HETATM    2  N   UNK N   1      36.872  13.283  14.554  0.00  0.00    -0.270 N 
HETATM    3  C   UNK N   1      35.655  13.145  15.125  0.00  0.00     0.269 C 
HETATM    4  H   UNK N   1      37.676  13.147  15.107  0.00  0.00     0.190 HD
ENDROOT
BRANCH   3   5
HETATM    5  C   UNK N   1      35.560  12.701  16.530  0.00  0.00     0.036 A 
HETATM    6  C   UNK N   1      35.764  11.351  16.849  0.00  0.00     0.034 A 
HETATM    7  C   UNK N   1      35.650  10.930  18.173  0.00  0.00     0.088 A 
HETATM    8  N   UNK N   1      35.344  11.825  19.149  0.00  0.00    -0.375 N 
HETATM    9  C   UNK N   1      35.142  13.141  18.868  0.00  0.00     0.088 A 
ATOM     10  HN  UNK N   1      35.264  11.503  20.115  1.00  0.00     0.164 HD
HETATM   11  C   UNK N   1      35.244  13.602  17.552  0.00  0.00     0.034 A 
ENDBRANCH   3   5
BRANCH   2  12
HETATM   12  N   UNK N   1      37.025  13.609  13.213  0.00  0.00    -0.330 N 
HETATM   13  H   UNK N   1      37.050  14.554  12.827  0.00  0.00     0.180 HD
BRANCH  12  14
HETATM   14  C   UNK N   1      37.142  12.369  12.447  0.00  0.00     0.091 C 
HETATM   15  C   UNK N   1      37.814  11.318  13.304  0.00  0.00     0.033 C 
HETATM   16  C   UNK N   1      37.960  12.546  11.173  0.00  0.00     0.033 C 
ENDBRANCH  12  14
ENDBRANCH   2  12
TORSDOF 3
ENDMDL
MODEL 9
REMARK VINA RESULT:      -4.7      9.958     12.608
REMARK  3 active torsions:
REMARK  status: ('A' for Active; 'I' for Inactive)
REMARK    1  A    between atoms: N_2  and  N_3 
REMARK    2  A    between atoms: N_2  and  C_6 
REMARK       I    between atoms: N_3  and  C_9 
REMARK    3  A    between atoms: C_9  and  C_10 
ROOT
HETATM    1  O   UNK N   1      22.422  21.299   2.759  0.00  0.00    -0.266 OA
HETATM    2  N   UNK N   1      23.831  19.709   3.454  0.00  0.00    -0.270 N 
HETATM    3  C   UNK N   1      22.595  20.141   3.120  0.00  0.00     0.269 C 
HETATM    4  H   UNK N   1      23.939  18.792   3.796  0.00  0.00     0.190 HD
ENDROOT
BRANCH   3   5
HETATM    5  C   UNK N   1      21.458  19.201   3.182  0.00  0.00     0.036 A 
HETATM    6  C   UNK N   1      21.603  17.974   3.843  0.00  0.00     0.034 A 
HETATM    7  C   UNK N   1      20.536  17.079   3.879  0.00  0.00     0.088 A 
HETATM    8  N   UNK N   1      19.359  17.396   3.277  0.00  0.00    -0.375 N 
HETATM    9  C   UNK N   1      19.190  18.581   2.630  0.00  0.00     0.088 A 
ATOM     10  HN  UNK N   1      18.585  16.731   3.312  1.00  0.00     0.164 HD
HETATM   11  C   UNK N   1      20.237  19.504   2.569  0.00  0.00     0.034 A 
ENDBRANCH   3   5
BRANCH   2  12
HETATM   12  N   UNK N   1      24.953  20.517   3.330  0.00  0.00    -0.330 N 
HETATM   13  H   UNK N   1      24.950  21.533   3.231  0.00  0.00     0.180 HD
BRANCH  12  14
HETATM   14  C   UNK N   1      26.141  19.664   3.364  0.00  0.00     0.091 C 
HETATM   15  C   UNK N   1      25.730  18.255   3.729  0.00  0.00     0.033 C 
HETATM   16  C   UNK N   1      27.172  20.143   4.382  0.00  0.00     0.033 C 
ENDBRANCH  12  14
ENDBRANCH   2  12
TORSDOF 3
ENDMDL
