REMARK  6 active torsions:
REMARK  status: ('A' for Active; 'I' for Inactive)
REMARK    1  A    between atoms: N_3  and  C_7 
REMARK    2  A    between atoms: N_3  and  C_9 
REMARK    3  A    between atoms: N_3  and  C_10 
REMARK    4  A    between atoms: N_4  and  C_8 
REMARK    5  A    between atoms: C_7  and  C_8 
REMARK    6  A    between atoms: C_9  and  C_11 
ROOT
HETATM    1  N   UNK N   1       3.361   3.118  -0.177  0.00  0.00    -0.361 N 
ENDROOT
BRANCH   1   2
HETATM    2  C   UNK N   1       3.269   1.949  -1.041  0.00  0.00     0.155 C 
BRANCH   2   3
HETATM    3  C   UNK N   1       4.296   0.866  -0.698  0.00  0.00     0.291 C 
BRANCH   3   4
HETATM    4  N   UNK N   1       3.830  -0.018   0.356  0.00  0.00     0.081 N 
HETATM    5  C   UNK N   1       3.004  -1.039  -0.265  0.00  0.00     0.309 C 
HETATM    6  C   UNK N   1       5.006  -0.699   0.867  0.00  0.00     0.309 C 
ENDBRANCH   3   4
ENDBRANCH   2   3
ENDBRANCH   1   2
BRANCH   1   7
HETATM    7  C   UNK N   1       2.180   3.653   0.496  0.00  0.00     0.170 C 
BRANCH   7   8
HETATM    8  C   UNK N   1       0.906   2.886   0.319  0.00  0.00     0.000 A 
HETATM    9  S   UNK N   1       0.583   1.360   0.861  0.00  0.00    -0.105 SA
HETATM   10  C   UNK N   1      -1.015   1.235   0.428  0.00  0.00     0.050 A 
HETATM   11  C   UNK N   1      -1.348   2.459  -0.172  0.00  0.00     0.008 A 
HETATM   12  C   UNK N   1      -0.272   3.391  -0.225  0.00  0.00     0.017 A 
ENDBRANCH   7   8
ENDBRANCH   1   7
BRANCH   1  13
HETATM   13  C   UNK N   1       4.592   3.841  -0.056  0.00  0.00     0.103 A 
HETATM   14  N   UNK N   1       5.750   3.327  -0.568  0.00  0.00    -0.352 N 
HETATM   15  C   UNK N   1       6.939   3.977  -0.448  0.00  0.00     0.089 A 
ATOM     16  HN  UNK N   1       5.723   2.429  -1.052  1.00  0.00     0.166 HD
HETATM   17  C   UNK N   1       7.001   5.215   0.193  0.00  0.00     0.017 A 
HETATM   18  C   UNK N   1       5.835   5.772   0.713  0.00  0.00     0.005 A 
HETATM   19  C   UNK N   1       4.628   5.083   0.597  0.00  0.00     0.048 A 
ENDBRANCH   1  13
TORSDOF 6
