MODEL 1
REMARK VINA RESULT:      -5.4      0.000      0.000
REMARK  6 active torsions:
REMARK  status: ('A' for Active; 'I' for Inactive)
REMARK    1  A    between atoms: N_3  and  C_7 
REMARK    2  A    between atoms: N_3  and  C_9 
REMARK    3  A    between atoms: N_3  and  C_10 
REMARK    4  A    between atoms: N_4  and  C_8 
REMARK    5  A    between atoms: C_7  and  C_8 
REMARK    6  A    between atoms: C_9  and  C_11 
ROOT
HETATM    1  N   UNK N   1      32.497  16.943   7.776  0.00  0.00    -0.361 N 
ENDROOT
BRANCH   1   2
HETATM    2  C   UNK N   1      33.069  15.834   8.527  0.00  0.00     0.155 C 
BRANCH   2   3
HETATM    3  C   UNK N   1      34.589  15.932   8.680  0.00  0.00     0.291 C 
BRANCH   3   4
HETATM    4  N   UNK N   1      35.044  15.443   9.970  0.00  0.00     0.081 N 
HETATM    5  C   UNK N   1      36.281  14.715   9.749  0.00  0.00     0.309 C 
HETATM    6  C   UNK N   1      35.395  16.616  10.750  0.00  0.00     0.309 C 
ENDBRANCH   3   4
ENDBRANCH   2   3
ENDBRANCH   1   2
BRANCH   1   7
HETATM    7  C   UNK N   1      33.282  17.659   6.774  0.00  0.00     0.170 C 
BRANCH   7   8
HETATM    8  C   UNK N   1      33.227  17.126   5.376  0.00  0.00     0.000 A 
HETATM    9  S   UNK N   1      33.860  15.701   4.831  0.00  0.00    -0.105 SA
HETATM   10  C   UNK N   1      33.308  15.722   3.266  0.00  0.00     0.050 A 
HETATM   11  C   UNK N   1      32.566  16.906   3.136  0.00  0.00     0.008 A 
HETATM   12  C   UNK N   1      32.511  17.690   4.323  0.00  0.00     0.017 A 
ENDBRANCH   7   8
ENDBRANCH   1   7
BRANCH   1  13
HETATM   13  C   UNK N   1      31.186  17.432   8.082  0.00  0.00     0.103 A 
HETATM   14  N   UNK N   1      30.959  18.133   9.233  0.00  0.00    -0.352 N 
HETATM   15  C   UNK N   1      29.722  18.589   9.564  0.00  0.00     0.089 A 
ATOM     16  HN  UNK N   1      31.740  18.316   9.864  1.00  0.00     0.166 HD
HETATM   17  C   UNK N   1      28.640  18.368   8.711  0.00  0.00     0.017 A 
HETATM   18  C   UNK N   1      28.841  17.670   7.522  0.00  0.00     0.005 A 
HETATM   19  C   UNK N   1      30.114  17.193   7.208  0.00  0.00     0.048 A 
ENDBRANCH   1  13
TORSDOF 6
ENDMDL
MODEL 2
REMARK VINA RESULT:      -5.3      1.036      4.473
REMARK  6 active torsions:
REMARK  status: ('A' for Active; 'I' for Inactive)
REMARK    1  A    between atoms: N_3  and  C_7 
REMARK    2  A    between atoms: N_3  and  C_9 
REMARK    3  A    between atoms: N_3  and  C_10 
REMARK    4  A    between atoms: N_4  and  C_8 
REMARK    5  A    between atoms: C_7  and  C_8 
REMARK    6  A    between atoms: C_9  and  C_11 
ROOT
HETATM    1  N   UNK N   1      32.819  16.807   8.004  0.00  0.00    -0.361 N 
ENDROOT
BRANCH   1   2
HETATM    2  C   UNK N   1      31.443  16.355   7.848  0.00  0.00     0.155 C 
BRANCH   2   3
HETATM    3  C   UNK N   1      30.427  17.500   7.888  0.00  0.00     0.291 C 
BRANCH   3   4
HETATM    4  N   UNK N   1      29.554  17.419   9.047  0.00  0.00     0.081 N 
HETATM    5  C   UNK N   1      29.716  18.650   9.801  0.00  0.00     0.309 C 
HETATM    6  C   UNK N   1      28.196  17.428   8.535  0.00  0.00     0.309 C 
ENDBRANCH   3   4
ENDBRANCH   2   3
ENDBRANCH   1   2
BRANCH   1   7
HETATM    7  C   UNK N   1      33.467  17.618   6.977  0.00  0.00     0.170 C 
BRANCH   7   8
HETATM    8  C   UNK N   1      33.429  17.081   5.579  0.00  0.00     0.000 A 
HETATM    9  S   UNK N   1      34.002  15.622   5.060  0.00  0.00    -0.105 SA
HETATM   10  C   UNK N   1      33.503  15.665   3.477  0.00  0.00     0.050 A 
HETATM   11  C   UNK N   1      32.829  16.886   3.319  0.00  0.00     0.008 A 
HETATM   12  C   UNK N   1      32.778  17.678   4.502  0.00  0.00     0.017 A 
ENDBRANCH   7   8
ENDBRANCH   1   7
BRANCH   1  13
HETATM   13  C   UNK N   1      33.609  16.370   9.117  0.00  0.00     0.103 A 
HETATM   14  N   UNK N   1      34.544  17.200   9.670  0.00  0.00    -0.352 N 
HETATM   15  C   UNK N   1      35.326  16.807  10.711  0.00  0.00     0.089 A 
ATOM     16  HN  UNK N   1      34.660  18.140   9.290  1.00  0.00     0.166 HD
HETATM   17  C   UNK N   1      35.175  15.533  11.262  0.00  0.00     0.017 A 
HETATM   18  C   UNK N   1      34.221  14.670  10.729  0.00  0.00     0.005 A 
HETATM   19  C   UNK N   1      33.440  15.083   9.650  0.00  0.00     0.048 A 
ENDBRANCH   1  13
TORSDOF 6
ENDMDL
MODEL 3
REMARK VINA RESULT:      -5.1     13.554     16.236
REMARK  6 active torsions:
REMARK  status: ('A' for Active; 'I' for Inactive)
REMARK    1  A    between atoms: N_3  and  C_7 
REMARK    2  A    between atoms: N_3  and  C_9 
REMARK    3  A    between atoms: N_3  and  C_10 
REMARK    4  A    between atoms: N_4  and  C_8 
REMARK    5  A    between atoms: C_7  and  C_8 
REMARK    6  A    between atoms: C_9  and  C_11 
ROOT
HETATM    1  N   UNK N   1      27.233  23.656  -5.561  0.00  0.00    -0.361 N 
ENDROOT
BRANCH   1   2
HETATM    2  C   UNK N   1      28.651  23.990  -5.592  0.00  0.00     0.155 C 
BRANCH   2   3
HETATM    3  C   UNK N   1      29.285  24.051  -4.200  0.00  0.00     0.291 C 
BRANCH   3   4
HETATM    4  N   UNK N   1      29.683  22.739  -3.720  0.00  0.00     0.081 N 
HETATM    5  C   UNK N   1      30.340  22.054  -4.820  0.00  0.00     0.309 C 
HETATM    6  C   UNK N   1      30.704  22.966  -2.713  0.00  0.00     0.309 C 
ENDBRANCH   3   4
ENDBRANCH   2   3
ENDBRANCH   1   2
BRANCH   1   7
HETATM    7  C   UNK N   1      26.371  24.129  -4.480  0.00  0.00     0.170 C 
BRANCH   7   8
HETATM    8  C   UNK N   1      25.922  25.555  -4.560  0.00  0.00     0.000 A 
HETATM    9  S   UNK N   1      26.348  26.788  -3.548  0.00  0.00    -0.105 SA
HETATM   10  C   UNK N   1      25.600  28.057  -4.312  0.00  0.00     0.050 A 
HETATM   11  C   UNK N   1      24.977  27.511  -5.445  0.00  0.00     0.008 A 
HETATM   12  C   UNK N   1      25.165  26.107  -5.591  0.00  0.00     0.017 A 
ENDBRANCH   7   8
ENDBRANCH   1   7
BRANCH   1  13
HETATM   13  C   UNK N   1      26.673  22.760  -6.529  0.00  0.00     0.103 A 
HETATM   14  N   UNK N   1      25.327  22.526  -6.557  0.00  0.00    -0.352 N 
HETATM   15  C   UNK N   1      24.767  21.663  -7.447  0.00  0.00     0.089 A 
ATOM     16  HN  UNK N   1      24.725  23.010  -5.890  1.00  0.00     0.166 HD
HETATM   17  C   UNK N   1      25.565  21.002  -8.381  0.00  0.00     0.017 A 
HETATM   18  C   UNK N   1      26.939  21.231  -8.387  0.00  0.00     0.005 A 
HETATM   19  C   UNK N   1      27.498  22.105  -7.455  0.00  0.00     0.048 A 
ENDBRANCH   1  13
TORSDOF 6
ENDMDL
MODEL 4
REMARK VINA RESULT:      -4.9      1.848      5.423
REMARK  6 active torsions:
REMARK  status: ('A' for Active; 'I' for Inactive)
REMARK    1  A    between atoms: N_3  and  C_7 
REMARK    2  A    between atoms: N_3  and  C_9 
REMARK    3  A    between atoms: N_3  and  C_10 
REMARK    4  A    between atoms: N_4  and  C_8 
REMARK    5  A    between atoms: C_7  and  C_8 
REMARK    6  A    between atoms: C_9  and  C_11 
ROOT
HETATM    1  N   UNK N   1      32.768  16.986   8.135  0.00  0.00    -0.361 N 
ENDROOT
BRANCH   1   2
HETATM    2  C   UNK N   1      32.878  16.466   6.779  0.00  0.00     0.155 C 
BRANCH   2   3
HETATM    3  C   UNK N   1      33.709  17.364   5.857  0.00  0.00     0.291 C 
BRANCH   3   4
HETATM    4  N   UNK N   1      33.270  17.287   4.475  0.00  0.00     0.081 N 
HETATM    5  C   UNK N   1      33.402  15.903   4.052  0.00  0.00     0.309 C 
HETATM    6  C   UNK N   1      31.848  17.578   4.481  0.00  0.00     0.309 C 
ENDBRANCH   3   4
ENDBRANCH   2   3
ENDBRANCH   1   2
BRANCH   1   7
HETATM    7  C   UNK N   1      31.942  18.154   8.429  0.00  0.00     0.170 C 
BRANCH   7   8
HETATM    8  C   UNK N   1      30.464  17.924   8.511  0.00  0.00     0.000 A 
HETATM    9  S   UNK N   1      29.481  17.356   7.312  0.00  0.00    -0.105 SA
HETATM   10  C   UNK N   1      28.051  17.239   8.146  0.00  0.00     0.050 A 
HETATM   11  C   UNK N   1      28.334  17.655   9.456  0.00  0.00     0.008 A 
HETATM   12  C   UNK N   1      29.692  18.031   9.664  0.00  0.00     0.017 A 
ENDBRANCH   7   8
ENDBRANCH   1   7
BRANCH   1  13
HETATM   13  C   UNK N   1      33.556  16.433   9.195  0.00  0.00     0.103 A 
HETATM   14  N   UNK N   1      34.532  17.179   9.794  0.00  0.00    -0.352 N 
HETATM   15  C   UNK N   1      35.315  16.674  10.786  0.00  0.00     0.089 A 
ATOM     16  HN  UNK N   1      34.680  18.140   9.487  1.00  0.00     0.166 HD
HETATM   17  C   UNK N   1      35.121  15.368  11.238  0.00  0.00     0.017 A 
HETATM   18  C   UNK N   1      34.125  14.587  10.657  0.00  0.00     0.005 A 
HETATM   19  C   UNK N   1      33.344  15.114   9.629  0.00  0.00     0.048 A 
ENDBRANCH   1  13
TORSDOF 6
ENDMDL
MODEL 5
REMARK VINA RESULT:      -4.9      2.434      4.865
REMARK  6 active torsions:
REMARK  status: ('A' for Active; 'I' for Inactive)
REMARK    1  A    between atoms: N_3  and  C_7 
REMARK    2  A    between atoms: N_3  and  C_9 
REMARK    3  A    between atoms: N_3  and  C_10 
REMARK    4  A    between atoms: N_4  and  C_8 
REMARK    5  A    between atoms: C_7  and  C_8 
REMARK    6  A    between atoms: C_9  and  C_11 
ROOT
HETATM    1  N   UNK N   1      31.172  17.061   6.615  0.00  0.00    -0.361 N 
ENDROOT
BRANCH   1   2
HETATM    2  C   UNK N   1      31.921  17.615   7.734  0.00  0.00     0.155 C 
BRANCH   2   3
HETATM    3  C   UNK N   1      32.635  16.547   8.567  0.00  0.00     0.291 C 
BRANCH   3   4
HETATM    4  N   UNK N   1      34.062  16.797   8.673  0.00  0.00     0.081 N 
HETATM    5  C   UNK N   1      34.741  15.786   7.880  0.00  0.00     0.309 C 
HETATM    6  C   UNK N   1      34.304  18.066   8.011  0.00  0.00     0.309 C 
ENDBRANCH   3   4
ENDBRANCH   2   3
ENDBRANCH   1   2
BRANCH   1   7
HETATM    7  C   UNK N   1      29.732  16.834   6.709  0.00  0.00     0.170 C 
BRANCH   7   8
HETATM    8  C   UNK N   1      28.850  18.007   6.410  0.00  0.00     0.000 A 
HETATM    9  S   UNK N   1      28.141  19.020   7.504  0.00  0.00    -0.105 SA
HETATM   10  C   UNK N   1      27.453  20.122   6.470  0.00  0.00     0.050 A 
HETATM   11  C   UNK N   1      27.795  19.701   5.176  0.00  0.00     0.008 A 
HETATM   12  C   UNK N   1      28.588  18.518   5.141  0.00  0.00     0.017 A 
ENDBRANCH   7   8
ENDBRANCH   1   7
BRANCH   1  13
HETATM   13  C   UNK N   1      31.848  16.618   5.432  0.00  0.00     0.103 A 
HETATM   14  N   UNK N   1      32.214  15.309   5.293  0.00  0.00    -0.352 N 
HETATM   15  C   UNK N   1      32.879  14.861   4.194  0.00  0.00     0.089 A 
ATOM     16  HN  UNK N   1      31.984  14.648   6.036  1.00  0.00     0.166 HD
HETATM   17  C   UNK N   1      33.189  15.740   3.155  0.00  0.00     0.017 A 
HETATM   18  C   UNK N   1      32.816  17.078   3.260  0.00  0.00     0.005 A 
HETATM   19  C   UNK N   1      32.152  17.523   4.403  0.00  0.00     0.048 A 
ENDBRANCH   1  13
TORSDOF 6
ENDMDL
MODEL 6
REMARK VINA RESULT:      -4.8     13.349     16.332
REMARK  6 active torsions:
REMARK  status: ('A' for Active; 'I' for Inactive)
REMARK    1  A    between atoms: N_3  and  C_7 
REMARK    2  A    between atoms: N_3  and  C_9 
REMARK    3  A    between atoms: N_3  and  C_10 
REMARK    4  A    between atoms: N_4  and  C_8 
REMARK    5  A    between atoms: C_7  and  C_8 
REMARK    6  A    between atoms: C_9  and  C_11 
ROOT
HETATM    1  N   UNK N   1      27.016  23.858  -5.751  0.00  0.00    -0.361 N 
ENDROOT
BRANCH   1   2
HETATM    2  C   UNK N   1      26.119  24.718  -4.991  0.00  0.00     0.155 C 
BRANCH   2   3
HETATM    3  C   UNK N   1      26.791  26.004  -4.502  0.00  0.00     0.291 C 
BRANCH   3   4
HETATM    4  N   UNK N   1      26.095  27.194  -4.959  0.00  0.00     0.081 N 
HETATM    5  C   UNK N   1      24.877  26.760  -5.622  0.00  0.00     0.309 C 
HETATM    6  C   UNK N   1      25.678  27.907  -3.765  0.00  0.00     0.309 C 
ENDBRANCH   3   4
ENDBRANCH   2   3
ENDBRANCH   1   2
BRANCH   1   7
HETATM    7  C   UNK N   1      28.460  24.081  -5.745  0.00  0.00     0.170 C 
BRANCH   7   8
HETATM    8  C   UNK N   1      29.251  23.309  -4.735  0.00  0.00     0.000 A 
HETATM    9  S   UNK N   1      29.432  23.665  -3.133  0.00  0.00    -0.105 SA
HETATM   10  C   UNK N   1      30.297  22.336  -2.640  0.00  0.00     0.050 A 
HETATM   11  C   UNK N   1      30.458  21.537  -3.783  0.00  0.00     0.008 A 
HETATM   12  C   UNK N   1      29.862  22.078  -4.958  0.00  0.00     0.017 A 
ENDBRANCH   7   8
ENDBRANCH   1   7
BRANCH   1  13
HETATM   13  C   UNK N   1      26.495  22.840  -6.614  0.00  0.00     0.103 A 
HETATM   14  N   UNK N   1      25.182  22.470  -6.534  0.00  0.00    -0.352 N 
HETATM   15  C   UNK N   1      24.662  21.491  -7.322  0.00  0.00     0.089 A 
ATOM     16  HN  UNK N   1      24.574  22.939  -5.861  1.00  0.00     0.166 HD
HETATM   17  C   UNK N   1      25.466  20.846  -8.263  0.00  0.00     0.017 A 
HETATM   18  C   UNK N   1      26.805  21.211  -8.379  0.00  0.00     0.005 A 
HETATM   19  C   UNK N   1      27.326  22.204  -7.550  0.00  0.00     0.048 A 
ENDBRANCH   1  13
TORSDOF 6
ENDMDL
MODEL 7
REMARK VINA RESULT:      -4.8      3.923      6.371
REMARK  6 active torsions:
REMARK  status: ('A' for Active; 'I' for Inactive)
REMARK    1  A    between atoms: N_3  and  C_7 
REMARK    2  A    between atoms: N_3  and  C_9 
REMARK    3  A    between atoms: N_3  and  C_10 
REMARK    4  A    between atoms: N_4  and  C_8 
REMARK    5  A    between atoms: C_7  and  C_8 
REMARK    6  A    between atoms: C_9  and  C_11 
ROOT
HETATM    1  N   UNK N   1      29.022  17.139   5.336  0.00  0.00    -0.361 N 
ENDROOT
BRANCH   1   2
HETATM    2  C   UNK N   1      28.774  17.168   6.771  0.00  0.00     0.155 C 
BRANCH   2   3
HETATM    3  C   UNK N   1      28.504  18.578   7.305  0.00  0.00     0.291 C 
BRANCH   3   4
HETATM    4  N   UNK N   1      28.588  18.641   8.754  0.00  0.00     0.081 N 
HETATM    5  C   UNK N   1      28.033  17.405   9.277  0.00  0.00     0.309 C 
HETATM    6  C   UNK N   1      30.002  18.625   9.081  0.00  0.00     0.309 C 
ENDBRANCH   3   4
ENDBRANCH   2   3
ENDBRANCH   1   2
BRANCH   1   7
HETATM    7  C   UNK N   1      27.927  16.966   4.385  0.00  0.00     0.170 C 
BRANCH   7   8
HETATM    8  C   UNK N   1      27.085  18.174   4.109  0.00  0.00     0.000 A 
HETATM    9  S   UNK N   1      25.436  18.251   4.093  0.00  0.00    -0.105 SA
HETATM   10  C   UNK N   1      25.228  19.882   3.858  0.00  0.00     0.050 A 
HETATM   11  C   UNK N   1      26.519  20.429   3.797  0.00  0.00     0.008 A 
HETATM   12  C   UNK N   1      27.563  19.471   3.947  0.00  0.00     0.017 A 
ENDBRANCH   7   8
ENDBRANCH   1   7
BRANCH   1  13
HETATM   13  C   UNK N   1      30.361  17.165   4.825  0.00  0.00     0.103 A 
HETATM   14  N   UNK N   1      30.591  17.078   3.481  0.00  0.00    -0.352 N 
HETATM   15  C   UNK N   1      31.851  17.075   2.967  0.00  0.00     0.089 A 
ATOM     16  HN  UNK N   1      29.796  17.010   2.845  1.00  0.00     0.166 HD
HETATM   17  C   UNK N   1      32.955  17.184   3.814  0.00  0.00     0.017 A 
HETATM   18  C   UNK N   1      32.752  17.290   5.188  0.00  0.00     0.005 A 
HETATM   19  C   UNK N   1      31.454  17.273   5.699  0.00  0.00     0.048 A 
ENDBRANCH   1  13
TORSDOF 6
ENDMDL
MODEL 8
REMARK VINA RESULT:      -4.8      3.685      5.939
REMARK  6 active torsions:
REMARK  status: ('A' for Active; 'I' for Inactive)
REMARK    1  A    between atoms: N_3  and  C_7 
REMARK    2  A    between atoms: N_3  and  C_9 
REMARK    3  A    between atoms: N_3  and  C_10 
REMARK    4  A    between atoms: N_4  and  C_8 
REMARK    5  A    between atoms: C_7  and  C_8 
REMARK    6  A    between atoms: C_9  and  C_11 
ROOT
HETATM    1  N   UNK N   1      28.736  17.184   5.072  0.00  0.00    -0.361 N 
ENDROOT
BRANCH   1   2
HETATM    2  C   UNK N   1      29.788  16.709   4.185  0.00  0.00     0.155 C 
BRANCH   2   3
HETATM    3  C   UNK N   1      31.084  17.516   4.305  0.00  0.00     0.291 C 
BRANCH   3   4
HETATM    4  N   UNK N   1      32.255  16.662   4.402  0.00  0.00     0.081 N 
HETATM    5  C   UNK N   1      32.855  16.592   3.080  0.00  0.00     0.309 C 
HETATM    6  C   UNK N   1      33.205  17.367   5.244  0.00  0.00     0.309 C 
ENDBRANCH   3   4
ENDBRANCH   2   3
ENDBRANCH   1   2
BRANCH   1   7
HETATM    7  C   UNK N   1      28.547  16.601   6.399  0.00  0.00     0.170 C 
BRANCH   7   8
HETATM    8  C   UNK N   1      29.109  17.372   7.553  0.00  0.00     0.000 A 
HETATM    9  S   UNK N   1      28.269  18.010   8.823  0.00  0.00    -0.105 SA
HETATM   10  C   UNK N   1      29.529  18.582   9.741  0.00  0.00     0.050 A 
HETATM   11  C   UNK N   1      30.697  18.255   9.037  0.00  0.00     0.008 A 
HETATM   12  C   UNK N   1      30.463  17.566   7.812  0.00  0.00     0.017 A 
ENDBRANCH   7   8
ENDBRANCH   1   7
BRANCH   1  13
HETATM   13  C   UNK N   1      27.785  18.157   4.622  0.00  0.00     0.103 A 
HETATM   14  N   UNK N   1      26.672  17.770   3.932  0.00  0.00    -0.352 N 
HETATM   15  C   UNK N   1      25.764  18.671   3.470  0.00  0.00     0.089 A 
ATOM     16  HN  UNK N   1      26.517  16.776   3.756  1.00  0.00     0.166 HD
HETATM   17  C   UNK N   1      25.941  20.034   3.712  0.00  0.00     0.017 A 
HETATM   18  C   UNK N   1      27.059  20.459   4.426  0.00  0.00     0.005 A 
HETATM   19  C   UNK N   1      27.989  19.523   4.876  0.00  0.00     0.048 A 
ENDBRANCH   1  13
TORSDOF 6
ENDMDL
MODEL 9
REMARK VINA RESULT:      -4.7      7.922     11.280
REMARK  6 active torsions:
REMARK  status: ('A' for Active; 'I' for Inactive)
REMARK    1  A    between atoms: N_3  and  C_7 
REMARK    2  A    between atoms: N_3  and  C_9 
REMARK    3  A    between atoms: N_3  and  C_10 
REMARK    4  A    between atoms: N_4  and  C_8 
REMARK    5  A    between atoms: C_7  and  C_8 
REMARK    6  A    between atoms: C_9  and  C_11 
ROOT
HETATM    1  N   UNK N   1      23.325  18.961   4.301  0.00  0.00    -0.361 N 
ENDROOT
BRANCH   1   2
HETATM    2  C   UNK N   1      22.419  19.578   3.341  0.00  0.00     0.155 C 
BRANCH   2   3
HETATM    3  C   UNK N   1      20.962  19.593   3.814  0.00  0.00     0.291 C 
BRANCH   3   4
HETATM    4  N   UNK N   1      20.025  19.610   2.705  0.00  0.00     0.081 N 
HETATM    5  C   UNK N   1      20.685  20.262   1.587  0.00  0.00     0.309 C 
HETATM    6  C   UNK N   1      19.831  18.225   2.313  0.00  0.00     0.309 C 
ENDBRANCH   3   4
ENDBRANCH   2   3
ENDBRANCH   1   2
BRANCH   1   7
HETATM    7  C   UNK N   1      22.831  18.033   5.315  0.00  0.00     0.170 C 
BRANCH   7   8
HETATM    8  C   UNK N   1      23.016  16.574   5.031  0.00  0.00     0.000 A 
HETATM    9  S   UNK N   1      23.524  15.414   6.090  0.00  0.00    -0.105 SA
HETATM   10  C   UNK N   1      23.358  14.064   5.137  0.00  0.00     0.050 A 
HETATM   11  C   UNK N   1      22.863  14.521   3.906  0.00  0.00     0.008 A 
HETATM   12  C   UNK N   1      22.661  15.930   3.849  0.00  0.00     0.017 A 
ENDBRANCH   7   8
ENDBRANCH   1   7
BRANCH   1  13
HETATM   13  C   UNK N   1      24.706  19.338   4.346  0.00  0.00     0.103 A 
HETATM   14  N   UNK N   1      25.473  19.028   5.434  0.00  0.00    -0.352 N 
HETATM   15  C   UNK N   1      26.781  19.393   5.518  0.00  0.00     0.089 A 
ATOM     16  HN  UNK N   1      25.053  18.511   6.206  1.00  0.00     0.166 HD
HETATM   17  C   UNK N   1      27.386  20.085   4.468  0.00  0.00     0.017 A 
HETATM   18  C   UNK N   1      26.634  20.403   3.339  0.00  0.00     0.005 A 
HETATM   19  C   UNK N   1      25.290  20.037   3.277  0.00  0.00     0.048 A 
ENDBRANCH   1  13
TORSDOF 6
ENDMDL
