REMARK  7 active torsions:
REMARK  status: ('A' for Active; 'I' for Inactive)
REMARK    1  A    between atoms: N_3  and  C_10 
REMARK       I    between atoms: N_3  and  C_11 
REMARK    2  A    between atoms: N_4  and  N_5 
REMARK    3  A    between atoms: N_4  and  C_9 
REMARK       I    between atoms: N_5  and  C_17 
REMARK    4  A    between atoms: C_8  and  C_9 
REMARK    5  A    between atoms: C_8  and  C_11 
REMARK    6  A    between atoms: C_10  and  C_12 
REMARK    7  A    between atoms: C_17  and  C_19 
ROOT
HETATM    1  N   UNK N   1       2.070   0.029  -0.234  0.00  0.00    -0.333 N 
HETATM    2  H   UNK N   1       1.233   0.451  -0.635  0.00  0.00     0.180 HD
ENDROOT
BRANCH   1   3
HETATM    3  N   UNK N   1       2.339  -1.332  -0.142  0.00  0.00    -0.270 N 
HETATM    4  C   UNK N   1       1.338  -2.242  -0.075  0.00  0.00     0.269 C 
HETATM    5  O   UNK N   1       0.171  -1.865  -0.065  0.00  0.00    -0.266 OA
HETATM    6  H   UNK N   1       3.274  -1.640  -0.124  0.00  0.00     0.190 HD
BRANCH   4   7
HETATM    7  C   UNK N   1       1.642  -3.689  -0.028  0.00  0.00     0.036 A 
HETATM    8  C   UNK N   1       2.969  -4.140  -0.051  0.00  0.00     0.034 A 
HETATM    9  C   UNK N   1       3.232  -5.512  -0.023  0.00  0.00     0.088 A 
HETATM   10  N   UNK N   1       2.206  -6.404   0.025  0.00  0.00    -0.375 N 
HETATM   11  C   UNK N   1       0.910  -5.993   0.049  0.00  0.00     0.088 A 
ATOM     12  HN  UNK N   1       2.414  -7.403   0.043  1.00  0.00     0.164 HD
HETATM   13  C   UNK N   1       0.606  -4.630   0.022  0.00  0.00     0.034 A 
ENDBRANCH   4   7
ENDBRANCH   1   3
BRANCH   1  14
HETATM   14  C   UNK N   1       3.200   0.741   0.343  0.00  0.00     0.148 C 
BRANCH  14  15
HETATM   15  C   UNK N   1       4.380   0.759  -0.623  0.00  0.00     0.123 C 
BRANCH  15  16
HETATM   16  C   UNK N   1       5.649   0.592   0.160  0.00  0.00     0.219 C 
HETATM   17  O   UNK N   1       5.786  -0.405   0.851  0.00  0.00    -0.274 OA
HETATM   18  N   UNK N   1       6.653   1.507   0.111  0.00  0.00    -0.357 N 
HETATM   19  H   UNK N   1       7.412   1.398   0.729  0.00  0.00     0.162 HD
BRANCH  18  20
HETATM   20  C   UNK N   1       6.668   2.632  -0.799  0.00  0.00     0.161 C 
BRANCH  20  21
HETATM   21  C   UNK N   1       5.976   3.853  -0.279  0.00  0.00    -0.041 A 
HETATM   22  C   UNK N   1       4.597   3.842  -0.040  0.00  0.00     0.009 A 
HETATM   23  C   UNK N   1       3.935   5.018   0.325  0.00  0.00     0.001 A 
HETATM   24  C   UNK N   1       4.648   6.215   0.438  0.00  0.00     0.000 A 
HETATM   25  C   UNK N   1       6.025   6.232   0.200  0.00  0.00     0.001 A 
HETATM   26  C   UNK N   1       6.688   5.054  -0.164  0.00  0.00     0.009 A 
ENDBRANCH  20  21
ENDBRANCH  18  20
ENDBRANCH  15  16
ENDBRANCH  14  15
ENDBRANCH   1  14
TORSDOF 7
