MODEL 1
REMARK VINA RESULT:      -7.4      0.000      0.000
REMARK  7 active torsions:
REMARK  status: ('A' for Active; 'I' for Inactive)
REMARK    1  A    between atoms: N_3  and  C_10 
REMARK       I    between atoms: N_3  and  C_11 
REMARK    2  A    between atoms: N_4  and  N_5 
REMARK    3  A    between atoms: N_4  and  C_9 
REMARK       I    between atoms: N_5  and  C_17 
REMARK    4  A    between atoms: C_8  and  C_9 
REMARK    5  A    between atoms: C_8  and  C_11 
REMARK    6  A    between atoms: C_10  and  C_12 
REMARK    7  A    between atoms: C_17  and  C_19 
ROOT
HETATM    1  N   UNK N   1      35.031  17.292  10.621  0.00  0.00    -0.333 N 
HETATM    2  H   UNK N   1      35.022  18.069  11.281  0.00  0.00     0.180 HD
ENDROOT
BRANCH   1   3
HETATM    3  N   UNK N   1      34.147  17.103   9.565  0.00  0.00    -0.270 N 
HETATM    4  C   UNK N   1      34.182  17.899   8.469  0.00  0.00     0.269 C 
HETATM    5  O   UNK N   1      34.984  18.825   8.414  0.00  0.00    -0.266 OA
HETATM    6  H   UNK N   1      33.484  16.377   9.614  0.00  0.00     0.190 HD
BRANCH   4   7
HETATM    7  C   UNK N   1      33.267  17.651   7.333  0.00  0.00     0.036 A 
HETATM    8  C   UNK N   1      31.901  17.427   7.553  0.00  0.00     0.034 A 
HETATM    9  C   UNK N   1      31.059  17.179   6.466  0.00  0.00     0.088 A 
HETATM   10  N   UNK N   1      31.563  17.153   5.203  0.00  0.00    -0.375 N 
HETATM   11  C   UNK N   1      32.884  17.368   4.962  0.00  0.00     0.088 A 
ATOM     12  HN  UNK N   1      30.935  16.968   4.420  1.00  0.00     0.164 HD
HETATM   13  C   UNK N   1      33.758  17.619   6.022  0.00  0.00     0.034 A 
ENDBRANCH   4   7
ENDBRANCH   1   3
BRANCH   1  14
HETATM   14  C   UNK N   1      35.973  16.183  10.611  0.00  0.00     0.148 C 
BRANCH  14  15
HETATM   15  C   UNK N   1      36.071  15.543  11.992  0.00  0.00     0.123 C 
BRANCH  15  16
HETATM   16  C   UNK N   1      35.086  14.414  12.073  0.00  0.00     0.219 C 
HETATM   17  O   UNK N   1      34.141  14.403  11.300  0.00  0.00    -0.274 OA
HETATM   18  N   UNK N   1      35.222  13.400  12.967  0.00  0.00    -0.357 N 
HETATM   19  H   UNK N   1      34.488  12.748  13.046  0.00  0.00     0.162 HD
BRANCH  18  20
HETATM   20  C   UNK N   1      36.386  13.225  13.809  0.00  0.00     0.161 C 
BRANCH  20  21
HETATM   21  C   UNK N   1      36.259  13.837  15.169  0.00  0.00    -0.041 A 
HETATM   22  C   UNK N   1      37.100  14.885  15.558  0.00  0.00     0.009 A 
HETATM   23  C   UNK N   1      37.063  15.369  16.870  0.00  0.00     0.001 A 
HETATM   24  C   UNK N   1      36.194  14.795  17.802  0.00  0.00     0.000 A 
HETATM   25  C   UNK N   1      35.353  13.747  17.418  0.00  0.00     0.001 A 
HETATM   26  C   UNK N   1      35.389  13.264  16.105  0.00  0.00     0.009 A 
ENDBRANCH  20  21
ENDBRANCH  18  20
ENDBRANCH  15  16
ENDBRANCH  14  15
ENDBRANCH   1  14
TORSDOF 7
ENDMDL
MODEL 2
REMARK VINA RESULT:      -7.2      1.059      1.790
REMARK  7 active torsions:
REMARK  status: ('A' for Active; 'I' for Inactive)
REMARK    1  A    between atoms: N_3  and  C_10 
REMARK       I    between atoms: N_3  and  C_11 
REMARK    2  A    between atoms: N_4  and  N_5 
REMARK    3  A    between atoms: N_4  and  C_9 
REMARK       I    between atoms: N_5  and  C_17 
REMARK    4  A    between atoms: C_8  and  C_9 
REMARK    5  A    between atoms: C_8  and  C_11 
REMARK    6  A    between atoms: C_10  and  C_12 
REMARK    7  A    between atoms: C_17  and  C_19 
ROOT
HETATM    1  N   UNK N   1      35.074  17.084  10.910  0.00  0.00    -0.333 N 
HETATM    2  H   UNK N   1      35.045  17.817  11.618  0.00  0.00     0.180 HD
ENDROOT
BRANCH   1   3
HETATM    3  N   UNK N   1      34.191  16.935   9.846  0.00  0.00    -0.270 N 
HETATM    4  C   UNK N   1      34.272  17.728   8.751  0.00  0.00     0.269 C 
HETATM    5  O   UNK N   1      35.117  18.615   8.702  0.00  0.00    -0.266 OA
HETATM    6  H   UNK N   1      33.493  16.242   9.890  0.00  0.00     0.190 HD
BRANCH   4   7
HETATM    7  C   UNK N   1      33.356  17.523   7.608  0.00  0.00     0.036 A 
HETATM    8  C   UNK N   1      33.848  17.496   6.295  0.00  0.00     0.034 A 
HETATM    9  C   UNK N   1      32.963  17.318   5.230  0.00  0.00     0.088 A 
HETATM   10  N   UNK N   1      31.630  17.173   5.464  0.00  0.00    -0.375 N 
HETATM   11  C   UNK N   1      31.127  17.195   6.727  0.00  0.00     0.088 A 
ATOM     12  HN  UNK N   1      30.996  17.046   4.675  1.00  0.00     0.164 HD
HETATM   13  C   UNK N   1      31.980  17.371   7.819  0.00  0.00     0.034 A 
ENDBRANCH   4   7
ENDBRANCH   1   3
BRANCH   1  14
HETATM   14  C   UNK N   1      36.047  16.005  10.828  0.00  0.00     0.148 C 
BRANCH  14  15
HETATM   15  C   UNK N   1      36.146  15.262  12.156  0.00  0.00     0.123 C 
BRANCH  15  16
HETATM   16  C   UNK N   1      35.075  14.212  12.203  0.00  0.00     0.219 C 
HETATM   17  O   UNK N   1      34.139  14.291  11.424  0.00  0.00    -0.274 OA
HETATM   18  N   UNK N   1      35.125  13.170  13.075  0.00  0.00    -0.357 N 
HETATM   19  H   UNK N   1      34.342  12.575  13.134  0.00  0.00     0.162 HD
BRANCH  18  20
HETATM   20  C   UNK N   1      36.264  12.886  13.920  0.00  0.00     0.161 C 
BRANCH  20  21
HETATM   21  C   UNK N   1      35.908  12.400  15.290  0.00  0.00    -0.041 A 
HETATM   22  C   UNK N   1      35.257  13.244  16.198  0.00  0.00     0.009 A 
HETATM   23  C   UNK N   1      35.039  12.829  17.515  0.00  0.00     0.001 A 
HETATM   24  C   UNK N   1      35.485  11.573  17.935  0.00  0.00     0.000 A 
HETATM   25  C   UNK N   1      36.136  10.727  17.034  0.00  0.00     0.001 A 
HETATM   26  C   UNK N   1      36.353  11.141  15.714  0.00  0.00     0.009 A 
ENDBRANCH  20  21
ENDBRANCH  18  20
ENDBRANCH  15  16
ENDBRANCH  14  15
ENDBRANCH   1  14
TORSDOF 7
ENDMDL
MODEL 3
REMARK VINA RESULT:      -6.8      1.762      2.454
REMARK  7 active torsions:
REMARK  status: ('A' for Active; 'I' for Inactive)
REMARK    1  A    between atoms: N_3  and  C_10 
REMARK       I    between atoms: N_3  and  C_11 
REMARK    2  A    between atoms: N_4  and  N_5 
REMARK    3  A    between atoms: N_4  and  C_9 
REMARK       I    between atoms: N_5  and  C_17 
REMARK    4  A    between atoms: C_8  and  C_9 
REMARK    5  A    between atoms: C_8  and  C_11 
REMARK    6  A    between atoms: C_10  and  C_12 
REMARK    7  A    between atoms: C_17  and  C_19 
ROOT
HETATM    1  N   UNK N   1      33.475  17.210   9.017  0.00  0.00    -0.333 N 
HETATM    2  H   UNK N   1      33.823  18.058   9.464  0.00  0.00     0.180 HD
ENDROOT
BRANCH   1   3
HETATM    3  N   UNK N   1      32.703  17.150   7.863  0.00  0.00    -0.270 N 
HETATM    4  C   UNK N   1      33.242  17.396   6.645  0.00  0.00     0.269 C 
HETATM    5  O   UNK N   1      34.425  17.708   6.553  0.00  0.00    -0.266 OA
HETATM    6  H   UNK N   1      31.747  16.924   7.931  0.00  0.00     0.190 HD
BRANCH   4   7
HETATM    7  C   UNK N   1      32.418  17.278   5.422  0.00  0.00     0.036 A 
HETATM    8  C   UNK N   1      31.023  17.178   5.509  0.00  0.00     0.034 A 
HETATM    9  C   UNK N   1      30.266  17.050   4.342  0.00  0.00     0.088 A 
HETATM   10  N   UNK N   1      30.880  17.021   3.128  0.00  0.00    -0.375 N 
HETATM   11  C   UNK N   1      32.232  17.117   3.016  0.00  0.00     0.088 A 
ATOM     12  HN  UNK N   1      30.314  16.925   2.285  1.00  0.00     0.164 HD
HETATM   13  C   UNK N   1      33.024  17.246   4.159  0.00  0.00     0.034 A 
ENDBRANCH   4   7
ENDBRANCH   1   3
BRANCH   1  14
HETATM   14  C   UNK N   1      33.697  15.846   9.471  0.00  0.00     0.148 C 
BRANCH  14  15
HETATM   15  C   UNK N   1      35.183  15.505   9.457  0.00  0.00     0.123 C 
BRANCH  15  16
HETATM   16  C   UNK N   1      35.853  16.212  10.598  0.00  0.00     0.219 C 
HETATM   17  O   UNK N   1      35.863  17.433  10.607  0.00  0.00    -0.274 OA
HETATM   18  N   UNK N   1      36.433  15.537  11.625  0.00  0.00    -0.357 N 
HETATM   19  H   UNK N   1      36.951  16.052  12.286  0.00  0.00     0.162 HD
BRANCH  18  20
HETATM   20  C   UNK N   1      36.332  14.105  11.801  0.00  0.00     0.161 C 
BRANCH  20  21
HETATM   21  C   UNK N   1      35.926  13.681  13.177  0.00  0.00    -0.041 A 
HETATM   22  C   UNK N   1      36.574  14.202  14.303  0.00  0.00     0.009 A 
HETATM   23  C   UNK N   1      36.277  13.711  15.578  0.00  0.00     0.001 A 
HETATM   24  C   UNK N   1      35.341  12.685  15.731  0.00  0.00     0.000 A 
HETATM   25  C   UNK N   1      34.691  12.160  14.611  0.00  0.00     0.001 A 
HETATM   26  C   UNK N   1      34.987  12.653  13.334  0.00  0.00     0.009 A 
ENDBRANCH  20  21
ENDBRANCH  18  20
ENDBRANCH  15  16
ENDBRANCH  14  15
ENDBRANCH   1  14
TORSDOF 7
ENDMDL
MODEL 4
REMARK VINA RESULT:      -6.6      2.150      9.144
REMARK  7 active torsions:
REMARK  status: ('A' for Active; 'I' for Inactive)
REMARK    1  A    between atoms: N_3  and  C_10 
REMARK       I    between atoms: N_3  and  C_11 
REMARK    2  A    between atoms: N_4  and  N_5 
REMARK    3  A    between atoms: N_4  and  C_9 
REMARK       I    between atoms: N_5  and  C_17 
REMARK    4  A    between atoms: C_8  and  C_9 
REMARK    5  A    between atoms: C_8  and  C_11 
REMARK    6  A    between atoms: C_10  and  C_12 
REMARK    7  A    between atoms: C_17  and  C_19 
ROOT
HETATM    1  N   UNK N   1      37.398  13.702  11.908  0.00  0.00    -0.333 N 
HETATM    2  H   UNK N   1      38.168  14.365  11.827  0.00  0.00     0.180 HD
ENDROOT
BRANCH   1   3
HETATM    3  N   UNK N   1      37.058  12.973  13.042  0.00  0.00    -0.270 N 
HETATM    4  C   UNK N   1      36.690  13.592  14.189  0.00  0.00     0.269 C 
HETATM    5  O   UNK N   1      36.683  14.817  14.246  0.00  0.00    -0.266 OA
HETATM    6  H   UNK N   1      37.086  11.989  13.011  0.00  0.00     0.190 HD
BRANCH   4   7
HETATM    7  C   UNK N   1      36.284  12.800  15.371  0.00  0.00     0.036 A 
HETATM    8  C   UNK N   1      36.636  11.448  15.479  0.00  0.00     0.034 A 
HETATM    9  C   UNK N   1      36.227  10.716  16.596  0.00  0.00     0.088 A 
HETATM   10  N   UNK N   1      35.489  11.311  17.572  0.00  0.00    -0.375 N 
HETATM   11  C   UNK N   1      35.134  12.622  17.491  0.00  0.00     0.088 A 
ATOM     12  HN  UNK N   1      35.196  10.763  18.381  1.00  0.00     0.164 HD
HETATM   13  C   UNK N   1      35.524  13.387  16.390  0.00  0.00     0.034 A 
ENDBRANCH   4   7
ENDBRANCH   1   3
BRANCH   1  14
HETATM   14  C   UNK N   1      36.456  13.347  10.858  0.00  0.00     0.148 C 
BRANCH  14  15
HETATM   15  C   UNK N   1      35.970  14.592  10.122  0.00  0.00     0.123 C 
BRANCH  15  16
HETATM   16  C   UNK N   1      34.756  15.126  10.824  0.00  0.00     0.219 C 
HETATM   17  O   UNK N   1      34.361  14.557  11.829  0.00  0.00    -0.274 OA
HETATM   18  N   UNK N   1      34.095  16.229  10.384  0.00  0.00    -0.357 N 
HETATM   19  H   UNK N   1      33.245  16.467  10.821  0.00  0.00     0.162 HD
BRANCH  18  20
HETATM   20  C   UNK N   1      34.572  17.074   9.311  0.00  0.00     0.161 C 
BRANCH  20  21
HETATM   21  C   UNK N   1      33.617  17.213   8.167  0.00  0.00    -0.041 A 
HETATM   22  C   UNK N   1      32.246  17.006   8.356  0.00  0.00     0.009 A 
HETATM   23  C   UNK N   1      31.374  17.013   7.262  0.00  0.00     0.001 A 
HETATM   24  C   UNK N   1      31.874  17.213   5.972  0.00  0.00     0.000 A 
HETATM   25  C   UNK N   1      33.242  17.419   5.778  0.00  0.00     0.001 A 
HETATM   26  C   UNK N   1      34.114  17.414   6.873  0.00  0.00     0.009 A 
ENDBRANCH  20  21
ENDBRANCH  18  20
ENDBRANCH  15  16
ENDBRANCH  14  15
ENDBRANCH   1  14
TORSDOF 7
ENDMDL
MODEL 5
REMARK VINA RESULT:      -6.6     11.723     16.537
REMARK  7 active torsions:
REMARK  status: ('A' for Active; 'I' for Inactive)
REMARK    1  A    between atoms: N_3  and  C_10 
REMARK       I    between atoms: N_3  and  C_11 
REMARK    2  A    between atoms: N_4  and  N_5 
REMARK    3  A    between atoms: N_4  and  C_9 
REMARK       I    between atoms: N_5  and  C_17 
REMARK    4  A    between atoms: C_8  and  C_9 
REMARK    5  A    between atoms: C_8  and  C_11 
REMARK    6  A    between atoms: C_10  and  C_12 
REMARK    7  A    between atoms: C_17  and  C_19 
ROOT
HETATM    1  N   UNK N   1      19.860  15.319   8.642  0.00  0.00    -0.333 N 
HETATM    2  H   UNK N   1      18.899  14.998   8.757  0.00  0.00     0.180 HD
ENDROOT
BRANCH   1   3
HETATM    3  N   UNK N   1      20.971  14.840   9.328  0.00  0.00    -0.270 N 
HETATM    4  C   UNK N   1      21.358  13.547   9.221  0.00  0.00     0.269 C 
HETATM    5  O   UNK N   1      20.704  12.770   8.533  0.00  0.00    -0.266 OA
HETATM    6  H   UNK N   1      21.486  15.453   9.902  0.00  0.00     0.190 HD
BRANCH   4   7
HETATM    7  C   UNK N   1      22.572  13.067   9.917  0.00  0.00     0.036 A 
HETATM    8  C   UNK N   1      22.471  12.383  11.137  0.00  0.00     0.034 A 
HETATM    9  C   UNK N   1      23.632  11.955  11.785  0.00  0.00     0.088 A 
HETATM   10  N   UNK N   1      24.852  12.201  11.236  0.00  0.00    -0.375 N 
HETATM   11  C   UNK N   1      24.978  12.862  10.054  0.00  0.00     0.088 A 
ATOM     12  HN  UNK N   1      25.691  11.883  11.723  1.00  0.00     0.164 HD
HETATM   13  C   UNK N   1      23.841  13.307   9.376  0.00  0.00     0.034 A 
ENDBRANCH   4   7
ENDBRANCH   1   3
BRANCH   1  14
HETATM   14  C   UNK N   1      20.317  16.357   7.732  0.00  0.00     0.148 C 
BRANCH  14  15
HETATM   15  C   UNK N   1      20.437  15.817   6.310  0.00  0.00     0.123 C 
BRANCH  15  16
HETATM   16  C   UNK N   1      19.116  15.979   5.618  0.00  0.00     0.219 C 
HETATM   17  O   UNK N   1      18.103  16.052   6.296  0.00  0.00    -0.274 OA
HETATM   18  N   UNK N   1      19.015  16.061   4.265  0.00  0.00    -0.357 N 
HETATM   19  H   UNK N   1      18.115  16.056   3.865  0.00  0.00     0.162 HD
BRANCH  18  20
HETATM   20  C   UNK N   1      20.156  16.155   3.381  0.00  0.00     0.161 C 
BRANCH  20  21
HETATM   21  C   UNK N   1      20.640  17.552   3.148  0.00  0.00    -0.041 A 
HETATM   22  C   UNK N   1      21.889  17.962   3.628  0.00  0.00     0.009 A 
HETATM   23  C   UNK N   1      22.283  19.299   3.518  0.00  0.00     0.001 A 
HETATM   24  C   UNK N   1      21.421  20.236   2.941  0.00  0.00     0.000 A 
HETATM   25  C   UNK N   1      20.172  19.833   2.461  0.00  0.00     0.001 A 
HETATM   26  C   UNK N   1      19.779  18.494   2.569  0.00  0.00     0.009 A 
ENDBRANCH  20  21
ENDBRANCH  18  20
ENDBRANCH  15  16
ENDBRANCH  14  15
ENDBRANCH   1  14
TORSDOF 7
ENDMDL
MODEL 6
REMARK VINA RESULT:      -6.6     15.946     20.537
REMARK  7 active torsions:
REMARK  status: ('A' for Active; 'I' for Inactive)
REMARK    1  A    between atoms: N_3  and  C_10 
REMARK       I    between atoms: N_3  and  C_11 
REMARK    2  A    between atoms: N_4  and  N_5 
REMARK    3  A    between atoms: N_4  and  C_9 
REMARK       I    between atoms: N_5  and  C_17 
REMARK    4  A    between atoms: C_8  and  C_9 
REMARK    5  A    between atoms: C_8  and  C_11 
REMARK    6  A    between atoms: C_10  and  C_12 
REMARK    7  A    between atoms: C_17  and  C_19 
ROOT
HETATM    1  N   UNK N   1      28.843  24.236  -3.288  0.00  0.00    -0.333 N 
HETATM    2  H   UNK N   1      28.794  24.655  -2.360  0.00  0.00     0.180 HD
ENDROOT
BRANCH   1   3
HETATM    3  N   UNK N   1      29.759  23.278  -3.709  0.00  0.00    -0.270 N 
HETATM    4  C   UNK N   1      30.577  22.655  -2.827  0.00  0.00     0.269 C 
HETATM    5  O   UNK N   1      30.536  22.958  -1.639  0.00  0.00    -0.266 OA
HETATM    6  H   UNK N   1      29.815  23.049  -4.664  0.00  0.00     0.190 HD
BRANCH   4   7
HETATM    7  C   UNK N   1      31.511  21.603  -3.284  0.00  0.00     0.036 A 
HETATM    8  C   UNK N   1      31.113  20.667  -4.250  0.00  0.00     0.034 A 
HETATM    9  C   UNK N   1      32.005  19.671  -4.654  0.00  0.00     0.088 A 
HETATM   10  N   UNK N   1      33.252  19.610  -4.114  0.00  0.00    -0.375 N 
HETATM   11  C   UNK N   1      33.663  20.505  -3.176  0.00  0.00     0.088 A 
ATOM     12  HN  UNK N   1      33.892  18.875  -4.418  1.00  0.00     0.164 HD
HETATM   13  C   UNK N   1      32.800  21.515  -2.745  0.00  0.00     0.034 A 
ENDBRANCH   4   7
ENDBRANCH   1   3
BRANCH   1  14
HETATM   14  C   UNK N   1      27.967  24.530  -4.412  0.00  0.00     0.148 C 
BRANCH  14  15
HETATM   15  C   UNK N   1      26.509  24.569  -3.966  0.00  0.00     0.123 C 
BRANCH  15  16
HETATM   16  C   UNK N   1      25.639  24.768  -5.173  0.00  0.00     0.219 C 
HETATM   17  O   UNK N   1      25.278  23.788  -5.805  0.00  0.00    -0.274 OA
HETATM   18  N   UNK N   1      25.230  26.002  -5.572  0.00  0.00    -0.357 N 
HETATM   19  H   UNK N   1      24.754  26.078  -6.431  0.00  0.00     0.162 HD
BRANCH  18  20
HETATM   20  C   UNK N   1      25.456  27.208  -4.806  0.00  0.00     0.161 C 
BRANCH  20  21
HETATM   21  C   UNK N   1      26.452  28.145  -5.414  0.00  0.00    -0.041 A 
HETATM   22  C   UNK N   1      27.114  27.809  -6.600  0.00  0.00     0.009 A 
HETATM   23  C   UNK N   1      28.133  28.629  -7.096  0.00  0.00     0.001 A 
HETATM   24  C   UNK N   1      28.504  29.781  -6.399  0.00  0.00     0.000 A 
HETATM   25  C   UNK N   1      27.847  30.122  -5.213  0.00  0.00     0.001 A 
HETATM   26  C   UNK N   1      26.827  29.302  -4.717  0.00  0.00     0.009 A 
ENDBRANCH  20  21
ENDBRANCH  18  20
ENDBRANCH  15  16
ENDBRANCH  14  15
ENDBRANCH   1  14
TORSDOF 7
ENDMDL
MODEL 7
REMARK VINA RESULT:      -6.5      2.223      3.076
REMARK  7 active torsions:
REMARK  status: ('A' for Active; 'I' for Inactive)
REMARK    1  A    between atoms: N_3  and  C_10 
REMARK       I    between atoms: N_3  and  C_11 
REMARK    2  A    between atoms: N_4  and  N_5 
REMARK    3  A    between atoms: N_4  and  C_9 
REMARK       I    between atoms: N_5  and  C_17 
REMARK    4  A    between atoms: C_8  and  C_9 
REMARK    5  A    between atoms: C_8  and  C_11 
REMARK    6  A    between atoms: C_10  and  C_12 
REMARK    7  A    between atoms: C_17  and  C_19 
ROOT
HETATM    1  N   UNK N   1      33.737  16.759   9.257  0.00  0.00    -0.333 N 
HETATM    2  H   UNK N   1      34.475  17.431   9.047  0.00  0.00     0.180 HD
ENDROOT
BRANCH   1   3
HETATM    3  N   UNK N   1      32.369  17.000   9.209  0.00  0.00    -0.270 N 
HETATM    4  C   UNK N   1      31.761  17.366   8.055  0.00  0.00     0.269 C 
HETATM    5  O   UNK N   1      32.428  17.518   7.037  0.00  0.00    -0.266 OA
HETATM    6  H   UNK N   1      31.832  16.905  10.029  0.00  0.00     0.190 HD
BRANCH   4   7
HETATM    7  C   UNK N   1      30.297  17.571   8.011  0.00  0.00     0.036 A 
HETATM    8  C   UNK N   1      29.626  18.160   9.091  0.00  0.00     0.034 A 
HETATM    9  C   UNK N   1      28.240  18.328   9.035  0.00  0.00     0.088 A 
HETATM   10  N   UNK N   1      27.546  17.920   7.938  0.00  0.00    -0.375 N 
HETATM   11  C   UNK N   1      28.173  17.346   6.876  0.00  0.00     0.088 A 
ATOM     12  HN  UNK N   1      26.534  18.047   7.912  1.00  0.00     0.164 HD
HETATM   13  C   UNK N   1      29.557  17.161   6.895  0.00  0.00     0.034 A 
ENDBRANCH   4   7
ENDBRANCH   1   3
BRANCH   1  14
HETATM   14  C   UNK N   1      33.926  15.373   9.658  0.00  0.00     0.148 C 
BRANCH  14  15
HETATM   15  C   UNK N   1      35.407  15.010   9.675  0.00  0.00     0.123 C 
BRANCH  15  16
HETATM   16  C   UNK N   1      36.073  15.749  10.798  0.00  0.00     0.219 C 
HETATM   17  O   UNK N   1      36.185  16.962  10.718  0.00  0.00    -0.274 OA
HETATM   18  N   UNK N   1      36.540  15.113  11.905  0.00  0.00    -0.357 N 
HETATM   19  H   UNK N   1      37.064  15.635  12.555  0.00  0.00     0.162 HD
BRANCH  18  20
HETATM   20  C   UNK N   1      36.310  13.711  12.179  0.00  0.00     0.161 C 
BRANCH  20  21
HETATM   21  C   UNK N   1      36.012  13.406  13.614  0.00  0.00    -0.041 A 
HETATM   22  C   UNK N   1      34.981  12.523  13.955  0.00  0.00     0.009 A 
HETATM   23  C   UNK N   1      34.625  12.338  15.294  0.00  0.00     0.001 A 
HETATM   24  C   UNK N   1      35.289  13.047  16.298  0.00  0.00     0.000 A 
HETATM   25  C   UNK N   1      36.320  13.930  15.964  0.00  0.00     0.001 A 
HETATM   26  C   UNK N   1      36.678  14.114  14.623  0.00  0.00     0.009 A 
ENDBRANCH  20  21
ENDBRANCH  18  20
ENDBRANCH  15  16
ENDBRANCH  14  15
ENDBRANCH   1  14
TORSDOF 7
ENDMDL
MODEL 8
REMARK VINA RESULT:      -6.5      2.487      3.806
REMARK  7 active torsions:
REMARK  status: ('A' for Active; 'I' for Inactive)
REMARK    1  A    between atoms: N_3  and  C_10 
REMARK       I    between atoms: N_3  and  C_11 
REMARK    2  A    between atoms: N_4  and  N_5 
REMARK    3  A    between atoms: N_4  and  C_9 
REMARK       I    between atoms: N_5  and  C_17 
REMARK    4  A    between atoms: C_8  and  C_9 
REMARK    5  A    between atoms: C_8  and  C_11 
REMARK    6  A    between atoms: C_10  and  C_12 
REMARK    7  A    between atoms: C_17  and  C_19 
ROOT
HETATM    1  N   UNK N   1      36.722  14.329  12.454  0.00  0.00    -0.333 N 
HETATM    2  H   UNK N   1      37.595  13.893  12.156  0.00  0.00     0.180 HD
ENDROOT
BRANCH   1   3
HETATM    3  N   UNK N   1      35.618  14.585  11.649  0.00  0.00    -0.270 N 
HETATM    4  C   UNK N   1      35.591  15.649  10.811  0.00  0.00     0.269 C 
HETATM    5  O   UNK N   1      36.544  16.421  10.776  0.00  0.00    -0.266 OA
HETATM    6  H   UNK N   1      34.839  13.983  11.691  0.00  0.00     0.190 HD
BRANCH   4   7
HETATM    7  C   UNK N   1      34.428  15.878   9.926  0.00  0.00     0.036 A 
HETATM    8  C   UNK N   1      34.290  17.085   9.228  0.00  0.00     0.034 A 
HETATM    9  C   UNK N   1      33.174  17.287   8.412  0.00  0.00     0.088 A 
HETATM   10  N   UNK N   1      32.228  16.316   8.296  0.00  0.00    -0.375 N 
HETATM   11  C   UNK N   1      32.338  15.135   8.961  0.00  0.00     0.088 A 
ATOM     12  HN  UNK N   1      31.418  16.479   7.697  1.00  0.00     0.164 HD
HETATM   13  C   UNK N   1      33.439  14.896   9.787  0.00  0.00     0.034 A 
ENDBRANCH   4   7
ENDBRANCH   1   3
BRANCH   1  14
HETATM   14  C   UNK N   1      36.407  14.794  13.796  0.00  0.00     0.148 C 
BRANCH  14  15
HETATM   15  C   UNK N   1      36.420  13.635  14.788  0.00  0.00     0.123 C 
BRANCH  15  16
HETATM   16  C   UNK N   1      35.063  12.996  14.803  0.00  0.00     0.219 C 
HETATM   17  O   UNK N   1      34.620  12.532  13.765  0.00  0.00    -0.274 OA
HETATM   18  N   UNK N   1      34.320  12.906  15.938  0.00  0.00    -0.357 N 
HETATM   19  H   UNK N   1      33.395  12.576  15.864  0.00  0.00     0.162 HD
BRANCH  18  20
HETATM   20  C   UNK N   1      34.814  13.268  17.249  0.00  0.00     0.161 C 
BRANCH  20  21
HETATM   21  C   UNK N   1      35.313  12.113  18.059  0.00  0.00    -0.041 A 
HETATM   22  C   UNK N   1      35.469  12.230  19.445  0.00  0.00     0.009 A 
HETATM   23  C   UNK N   1      36.053  11.193  20.180  0.00  0.00     0.001 A 
HETATM   24  C   UNK N   1      36.497  10.039  19.528  0.00  0.00     0.000 A 
HETATM   25  C   UNK N   1      36.343   9.917  18.144  0.00  0.00     0.001 A 
HETATM   26  C   UNK N   1      35.758  10.955  17.409  0.00  0.00     0.009 A 
ENDBRANCH  20  21
ENDBRANCH  18  20
ENDBRANCH  15  16
ENDBRANCH  14  15
ENDBRANCH   1  14
TORSDOF 7
ENDMDL
MODEL 9
REMARK VINA RESULT:      -6.5      1.977      9.310
REMARK  7 active torsions:
REMARK  status: ('A' for Active; 'I' for Inactive)
REMARK    1  A    between atoms: N_3  and  C_10 
REMARK       I    between atoms: N_3  and  C_11 
REMARK    2  A    between atoms: N_4  and  N_5 
REMARK    3  A    between atoms: N_4  and  C_9 
REMARK       I    between atoms: N_5  and  C_17 
REMARK    4  A    between atoms: C_8  and  C_9 
REMARK    5  A    between atoms: C_8  and  C_11 
REMARK    6  A    between atoms: C_10  and  C_12 
REMARK    7  A    between atoms: C_17  and  C_19 
ROOT
HETATM    1  N   UNK N   1      36.996  14.092  11.989  0.00  0.00    -0.333 N 
HETATM    2  H   UNK N   1      37.913  13.802  11.651  0.00  0.00     0.180 HD
ENDROOT
BRANCH   1   3
HETATM    3  N   UNK N   1      36.683  14.474  13.289  0.00  0.00    -0.270 N 
HETATM    4  C   UNK N   1      36.646  13.570  14.296  0.00  0.00     0.269 C 
HETATM    5  O   UNK N   1      36.861  12.386  14.061  0.00  0.00    -0.266 OA
HETATM    6  H   UNK N   1      36.485  15.420  13.480  0.00  0.00     0.190 HD
BRANCH   4   7
HETATM    7  C   UNK N   1      36.361  14.003  15.682  0.00  0.00     0.036 A 
HETATM    8  C   UNK N   1      37.018  15.112  16.232  0.00  0.00     0.034 A 
HETATM    9  C   UNK N   1      36.746  15.492  17.549  0.00  0.00     0.088 A 
HETATM   10  N   UNK N   1      35.850  14.789  18.292  0.00  0.00    -0.375 N 
HETATM   11  C   UNK N   1      35.198  13.710  17.782  0.00  0.00     0.088 A 
ATOM     12  HN  UNK N   1      35.663  15.078  19.253  1.00  0.00     0.164 HD
HETATM   13  C   UNK N   1      35.443  13.298  16.470  0.00  0.00     0.034 A 
ENDBRANCH   4   7
ENDBRANCH   1   3
BRANCH   1  14
HETATM   14  C   UNK N   1      35.777  14.182  11.199  0.00  0.00     0.148 C 
BRANCH  14  15
HETATM   15  C   UNK N   1      35.994  15.054   9.967  0.00  0.00     0.123 C 
BRANCH  15  16
HETATM   16  C   UNK N   1      35.342  16.386  10.196  0.00  0.00     0.219 C 
HETATM   17  O   UNK N   1      35.986  17.269  10.740  0.00  0.00    -0.274 OA
HETATM   18  N   UNK N   1      34.066  16.643   9.804  0.00  0.00    -0.357 N 
HETATM   19  H   UNK N   1      33.657  17.495  10.079  0.00  0.00     0.162 HD
BRANCH  18  20
HETATM   20  C   UNK N   1      33.275  15.731   9.005  0.00  0.00     0.161 C 
BRANCH  20  21
HETATM   21  C   UNK N   1      32.897  16.264   7.658  0.00  0.00    -0.041 A 
HETATM   22  C   UNK N   1      31.724  15.835   7.027  0.00  0.00     0.009 A 
HETATM   23  C   UNK N   1      31.439  16.238   5.719  0.00  0.00     0.001 A 
HETATM   24  C   UNK N   1      32.335  17.059   5.030  0.00  0.00     0.000 A 
HETATM   25  C   UNK N   1      33.509  17.490   5.655  0.00  0.00     0.001 A 
HETATM   26  C   UNK N   1      33.793  17.088   6.965  0.00  0.00     0.009 A 
ENDBRANCH  20  21
ENDBRANCH  18  20
ENDBRANCH  15  16
ENDBRANCH  14  15
ENDBRANCH   1  14
TORSDOF 7
ENDMDL
