MODEL 1
REMARK VINA RESULT:      -6.6      0.000      0.000
REMARK  2 active torsions:
REMARK  status: ('A' for Active; 'I' for Inactive)
REMARK    1  A    between atoms: N_2  and  C_9 
REMARK    2  A    between atoms: C_3  and  C_8 
ROOT
HETATM    1  N   UNK N   1      31.375  17.340   5.038  0.00  0.00     0.089 N 
HETATM    2  C   UNK N   1      29.017  17.986   5.230  0.00  0.00     0.080 C 
HETATM    3  C   UNK N   1      30.059  17.214   4.418  0.00  0.00     0.286 C 
HETATM    4  C   UNK N   1      29.166  17.893   6.735  0.00  0.00    -0.038 A 
HETATM    5  C   UNK N   1      31.378  16.715   6.363  0.00  0.00     0.313 C 
HETATM    6  C   UNK N   1      30.318  17.286   7.276  0.00  0.00     0.003 A 
HETATM    7  C   UNK N   1      30.471  17.199   8.672  0.00  0.00     0.034 A 
HETATM    8  C   UNK N   1      28.187  18.401   7.601  0.00  0.00     0.009 A 
HETATM    9  C   UNK N   1      32.302  16.578   4.220  0.00  0.00     0.310 C 
HETATM   10  C   UNK N   1      29.481  17.709   9.518  0.00  0.00     0.029 A 
HETATM   11  C   UNK N   1      28.341  18.308   8.983  0.00  0.00     0.003 A 
ENDROOT
BRANCH   2  12
HETATM   12  C   UNK N   1      27.787  18.527   4.526  0.00  0.00    -0.048 A 
HETATM   13  C   UNK N   1      26.740  17.680   4.133  0.00  0.00     0.008 A 
HETATM   14  C   UNK N   1      25.608  18.190   3.495  0.00  0.00     0.001 A 
HETATM   15  C   UNK N   1      25.505  19.559   3.247  0.00  0.00     0.000 A 
HETATM   16  C   UNK N   1      26.538  20.417   3.636  0.00  0.00     0.001 A 
HETATM   17  C   UNK N   1      27.674  19.904   4.271  0.00  0.00     0.008 A 
ENDBRANCH   2  12
BRANCH   7  18
HETATM   18  N   UNK N   1      31.618  16.602   9.235  0.00  0.00    -0.399 N 
HETATM   19  H   UNK N   1      32.491  17.049   9.164  0.00  0.00     0.156 HD
HETATM   20  H   UNK N   1      31.544  15.738   9.700  0.00  0.00     0.156 HD
ENDBRANCH   7  18
TORSDOF 2
ENDMDL
MODEL 2
REMARK VINA RESULT:      -6.2      2.151      4.997
REMARK  2 active torsions:
REMARK  status: ('A' for Active; 'I' for Inactive)
REMARK    1  A    between atoms: N_2  and  C_9 
REMARK    2  A    between atoms: C_3  and  C_8 
ROOT
HETATM    1  N   UNK N   1      29.480  18.327   8.473  0.00  0.00     0.089 N 
HETATM    2  C   UNK N   1      29.631  17.763   6.090  0.00  0.00     0.080 C 
HETATM    3  C   UNK N   1      29.699  17.237   7.525  0.00  0.00     0.286 C 
HETATM    4  C   UNK N   1      28.557  18.799   5.828  0.00  0.00    -0.038 A 
HETATM    5  C   UNK N   1      28.127  18.868   8.323  0.00  0.00     0.313 C 
HETATM    6  C   UNK N   1      27.841  19.338   6.916  0.00  0.00     0.003 A 
HETATM    7  C   UNK N   1      26.845  20.306   6.687  0.00  0.00     0.034 A 
HETATM    8  C   UNK N   1      28.264  19.238   4.529  0.00  0.00     0.009 A 
HETATM    9  C   UNK N   1      29.550  17.750   9.803  0.00  0.00     0.310 C 
HETATM   10  C   UNK N   1      26.566  20.727   5.383  0.00  0.00     0.029 A 
HETATM   11  C   UNK N   1      27.273  20.193   4.307  0.00  0.00     0.003 A 
ENDROOT
BRANCH   2  12
HETATM   12  C   UNK N   1      30.403  17.039   5.003  0.00  0.00    -0.048 A 
HETATM   13  C   UNK N   1      31.560  17.596   4.437  0.00  0.00     0.008 A 
HETATM   14  C   UNK N   1      32.270  16.916   3.445  0.00  0.00     0.001 A 
HETATM   15  C   UNK N   1      31.832  15.665   3.010  0.00  0.00     0.000 A 
HETATM   16  C   UNK N   1      30.684  15.095   3.567  0.00  0.00     0.001 A 
HETATM   17  C   UNK N   1      29.972  15.780   4.558  0.00  0.00     0.008 A 
ENDBRANCH   2  12
BRANCH   7  18
HETATM   18  N   UNK N   1      26.121  20.863   7.761  0.00  0.00    -0.399 N 
HETATM   19  H   UNK N   1      26.463  20.782   8.680  0.00  0.00     0.156 HD
HETATM   20  H   UNK N   1      25.275  21.335   7.591  0.00  0.00     0.156 HD
ENDBRANCH   7  18
TORSDOF 2
ENDMDL
MODEL 3
REMARK VINA RESULT:      -6.1      8.918     10.578
REMARK  2 active torsions:
REMARK  status: ('A' for Active; 'I' for Inactive)
REMARK    1  A    between atoms: N_2  and  C_9 
REMARK    2  A    between atoms: C_3  and  C_8 
ROOT
HETATM    1  N   UNK N   1      20.775  11.870   6.298  0.00  0.00     0.089 N 
HETATM    2  C   UNK N   1      21.785  12.768   8.345  0.00  0.00     0.080 C 
HETATM    3  C   UNK N   1      21.970  11.847   7.138  0.00  0.00     0.286 C 
HETATM    4  C   UNK N   1      21.075  14.076   8.063  0.00  0.00    -0.038 A 
HETATM    5  C   UNK N   1      20.572  13.208   5.737  0.00  0.00     0.313 C 
HETATM    6  C   UNK N   1      20.479  14.277   6.801  0.00  0.00     0.003 A 
HETATM    7  C   UNK N   1      19.812  15.485   6.528  0.00  0.00     0.034 A 
HETATM    8  C   UNK N   1      20.991  15.088   9.030  0.00  0.00     0.009 A 
HETATM    9  C   UNK N   1      21.030  10.985   5.177  0.00  0.00     0.310 C 
HETATM   10  C   UNK N   1      19.743  16.482   7.505  0.00  0.00     0.029 A 
HETATM   11  C   UNK N   1      20.332  16.285   8.752  0.00  0.00     0.003 A 
ENDROOT
BRANCH   2  12
HETATM   12  C   UNK N   1      22.545  12.467   9.624  0.00  0.00    -0.048 A 
HETATM   13  C   UNK N   1      23.947  12.420   9.646  0.00  0.00     0.008 A 
HETATM   14  C   UNK N   1      24.636  12.154  10.830  0.00  0.00     0.001 A 
HETATM   15  C   UNK N   1      23.929  11.938  12.013  0.00  0.00     0.000 A 
HETATM   16  C   UNK N   1      22.532  11.986  12.009  0.00  0.00     0.001 A 
HETATM   17  C   UNK N   1      21.843  12.248  10.821  0.00  0.00     0.008 A 
ENDBRANCH   2  12
BRANCH   7  18
HETATM   18  N   UNK N   1      19.204  15.704   5.275  0.00  0.00    -0.399 N 
HETATM   19  H   UNK N   1      19.640  15.384   4.452  0.00  0.00     0.156 HD
HETATM   20  H   UNK N   1      18.342  16.177   5.222  0.00  0.00     0.156 HD
ENDBRANCH   7  18
TORSDOF 2
ENDMDL
MODEL 4
REMARK VINA RESULT:      -6.1     12.405     14.693
REMARK  2 active torsions:
REMARK  status: ('A' for Active; 'I' for Inactive)
REMARK    1  A    between atoms: N_2  and  C_9 
REMARK    2  A    between atoms: C_3  and  C_8 
ROOT
HETATM    1  N   UNK N   1      35.724   9.128  18.581  0.00  0.00     0.089 N 
HETATM    2  C   UNK N   1      35.107  10.064  16.399  0.00  0.00     0.080 C 
HETATM    3  C   UNK N   1      34.927   8.902  17.378  0.00  0.00     0.286 C 
HETATM    4  C   UNK N   1      35.168  11.441  17.028  0.00  0.00    -0.038 A 
HETATM    5  C   UNK N   1      35.246  10.314  19.295  0.00  0.00     0.313 C 
HETATM    6  C   UNK N   1      35.247  11.553  18.432  0.00  0.00     0.003 A 
HETATM    7  C   UNK N   1      35.311  12.826  19.028  0.00  0.00     0.034 A 
HETATM    8  C   UNK N   1      35.155  12.605  16.246  0.00  0.00     0.009 A 
HETATM    9  C   UNK N   1      35.495   7.995  19.458  0.00  0.00     0.310 C 
HETATM   10  C   UNK N   1      35.293  13.974  18.230  0.00  0.00     0.029 A 
HETATM   11  C   UNK N   1      35.214  13.864  16.843  0.00  0.00     0.003 A 
ENDROOT
BRANCH   2  12
HETATM   12  C   UNK N   1      34.925   9.811  14.914  0.00  0.00    -0.048 A 
HETATM   13  C   UNK N   1      33.912  10.451  14.184  0.00  0.00     0.008 A 
HETATM   14  C   UNK N   1      33.761  10.219  12.816  0.00  0.00     0.001 A 
HETATM   15  C   UNK N   1      34.627   9.347  12.157  0.00  0.00     0.000 A 
HETATM   16  C   UNK N   1      35.645   8.705  12.869  0.00  0.00     0.001 A 
HETATM   17  C   UNK N   1      35.792   8.935  14.241  0.00  0.00     0.008 A 
ENDBRANCH   2  12
BRANCH   7  18
HETATM   18  N   UNK N   1      35.397  12.962  20.429  0.00  0.00    -0.399 N 
HETATM   19  H   UNK N   1      35.949  13.675  20.822  0.00  0.00     0.156 HD
HETATM   20  H   UNK N   1      34.903  12.343  21.013  0.00  0.00     0.156 HD
ENDBRANCH   7  18
TORSDOF 2
ENDMDL
MODEL 5
REMARK VINA RESULT:      -6.1      9.518     12.757
REMARK  2 active torsions:
REMARK  status: ('A' for Active; 'I' for Inactive)
REMARK    1  A    between atoms: N_2  and  C_9 
REMARK    2  A    between atoms: C_3  and  C_8 
ROOT
HETATM    1  N   UNK N   1      37.029  10.987  12.956  0.00  0.00     0.089 N 
HETATM    2  C   UNK N   1      36.702  13.102  14.154  0.00  0.00     0.080 C 
HETATM    3  C   UNK N   1      37.444  11.764  14.121  0.00  0.00     0.286 C 
HETATM    4  C   UNK N   1      36.519  13.778  12.810  0.00  0.00    -0.038 A 
HETATM    5  C   UNK N   1      37.415  11.673  11.721  0.00  0.00     0.313 C 
HETATM    6  C   UNK N   1      36.856  13.074  11.635  0.00  0.00     0.003 A 
HETATM    7  C   UNK N   1      36.685  13.688  10.381  0.00  0.00     0.034 A 
HETATM    8  C   UNK N   1      36.017  15.083  12.709  0.00  0.00     0.009 A 
HETATM    9  C   UNK N   1      37.778   9.744  12.990  0.00  0.00     0.310 C 
HETATM   10  C   UNK N   1      36.186  14.992  10.302  0.00  0.00     0.029 A 
HETATM   11  C   UNK N   1      35.854  15.688  11.463  0.00  0.00     0.003 A 
ENDROOT
BRANCH   2  12
HETATM   12  C   UNK N   1      36.468  13.781  15.490  0.00  0.00    -0.048 A 
HETATM   13  C   UNK N   1      37.193  14.923  15.865  0.00  0.00     0.008 A 
HETATM   14  C   UNK N   1      36.961  15.547  17.092  0.00  0.00     0.001 A 
HETATM   15  C   UNK N   1      35.994  15.039  17.960  0.00  0.00     0.000 A 
HETATM   16  C   UNK N   1      35.260  13.905  17.599  0.00  0.00     0.001 A 
HETATM   17  C   UNK N   1      35.496  13.279  16.371  0.00  0.00     0.008 A 
ENDBRANCH   2  12
BRANCH   7  18
HETATM   18  N   UNK N   1      37.009  13.001   9.193  0.00  0.00    -0.399 N 
HETATM   19  H   UNK N   1      37.023  12.017   9.181  0.00  0.00     0.156 HD
HETATM   20  H   UNK N   1      37.221  13.506   8.375  0.00  0.00     0.156 HD
ENDBRANCH   7  18
TORSDOF 2
ENDMDL
MODEL 6
REMARK VINA RESULT:      -6.0      2.168      4.695
REMARK  2 active torsions:
REMARK  status: ('A' for Active; 'I' for Inactive)
REMARK    1  A    between atoms: N_2  and  C_9 
REMARK    2  A    between atoms: C_3  and  C_8 
ROOT
HETATM    1  N   UNK N   1      27.507  16.672   5.295  0.00  0.00     0.089 N 
HETATM    2  C   UNK N   1      29.955  16.660   5.145  0.00  0.00     0.080 C 
HETATM    3  C   UNK N   1      28.639  16.857   4.391  0.00  0.00     0.286 C 
HETATM    4  C   UNK N   1      29.995  17.234   6.546  0.00  0.00    -0.038 A 
HETATM    5  C   UNK N   1      27.513  17.701   6.339  0.00  0.00     0.313 C 
HETATM    6  C   UNK N   1      28.805  17.726   7.122  0.00  0.00     0.003 A 
HETATM    7  C   UNK N   1      28.827  18.256   8.425  0.00  0.00     0.034 A 
HETATM    8  C   UNK N   1      31.185  17.282   7.285  0.00  0.00     0.009 A 
HETATM    9  C   UNK N   1      26.302  16.883   4.513  0.00  0.00     0.310 C 
HETATM   10  C   UNK N   1      30.025  18.298   9.144  0.00  0.00     0.029 A 
HETATM   11  C   UNK N   1      31.202  17.813   8.574  0.00  0.00     0.003 A 
ENDROOT
BRANCH   2  12
HETATM   12  C   UNK N   1      31.178  16.188   4.381  0.00  0.00    -0.048 A 
HETATM   13  C   UNK N   1      31.542  14.833   4.350  0.00  0.00     0.008 A 
HETATM   14  C   UNK N   1      32.663  14.409   3.634  0.00  0.00     0.001 A 
HETATM   15  C   UNK N   1      33.433  15.337   2.933  0.00  0.00     0.000 A 
HETATM   16  C   UNK N   1      33.082  16.690   2.950  0.00  0.00     0.001 A 
HETATM   17  C   UNK N   1      31.960  17.114   3.671  0.00  0.00     0.008 A 
ENDBRANCH   2  12
BRANCH   7  18
HETATM   18  N   UNK N   1      27.648  18.747   9.023  0.00  0.00    -0.399 N 
HETATM   19  H   UNK N   1      27.129  19.456   8.579  0.00  0.00     0.156 HD
HETATM   20  H   UNK N   1      27.343  18.380   9.883  0.00  0.00     0.156 HD
ENDBRANCH   7  18
TORSDOF 2
ENDMDL
MODEL 7
REMARK VINA RESULT:      -5.9      4.712      7.975
REMARK  2 active torsions:
REMARK  status: ('A' for Active; 'I' for Inactive)
REMARK    1  A    between atoms: N_2  and  C_9 
REMARK    2  A    between atoms: C_3  and  C_8 
ROOT
HETATM    1  N   UNK N   1      22.376  16.737   5.641  0.00  0.00     0.089 N 
HETATM    2  C   UNK N   1      23.940  18.314   4.603  0.00  0.00     0.080 C 
HETATM    3  C   UNK N   1      23.746  16.904   5.165  0.00  0.00     0.286 C 
HETATM    4  C   UNK N   1      22.779  18.859   3.797  0.00  0.00    -0.038 A 
HETATM    5  C   UNK N   1      21.431  16.842   4.527  0.00  0.00     0.313 C 
HETATM    6  C   UNK N   1      21.562  18.146   3.775  0.00  0.00     0.003 A 
HETATM    7  C   UNK N   1      20.474  18.645   3.035  0.00  0.00     0.034 A 
HETATM    8  C   UNK N   1      22.884  20.058   3.079  0.00  0.00     0.009 A 
HETATM    9  C   UNK N   1      22.268  15.380   6.148  0.00  0.00     0.310 C 
HETATM   10  C   UNK N   1      20.601  19.841   2.324  0.00  0.00     0.029 A 
HETATM   11  C   UNK N   1      21.804  20.546   2.344  0.00  0.00     0.003 A 
ENDROOT
BRANCH   2  12
HETATM   12  C   UNK N   1      25.325  18.934   4.631  0.00  0.00    -0.048 A 
HETATM   13  C   UNK N   1      25.581  20.116   5.342  0.00  0.00     0.008 A 
HETATM   14  C   UNK N   1      26.861  20.671   5.371  0.00  0.00     0.001 A 
HETATM   15  C   UNK N   1      27.907  20.046   4.692  0.00  0.00     0.000 A 
HETATM   16  C   UNK N   1      27.670  18.865   3.983  0.00  0.00     0.001 A 
HETATM   17  C   UNK N   1      26.385  18.312   3.952  0.00  0.00     0.008 A 
ENDBRANCH   2  12
BRANCH   7  18
HETATM   18  N   UNK N   1      19.247  17.952   3.004  0.00  0.00    -0.399 N 
HETATM   19  H   UNK N   1      19.202  17.045   2.623  0.00  0.00     0.156 HD
HETATM   20  H   UNK N   1      18.435  18.373   3.366  0.00  0.00     0.156 HD
ENDBRANCH   7  18
TORSDOF 2
ENDMDL
MODEL 8
REMARK VINA RESULT:      -5.9      8.428     10.782
REMARK  2 active torsions:
REMARK  status: ('A' for Active; 'I' for Inactive)
REMARK    1  A    between atoms: N_2  and  C_9 
REMARK    2  A    between atoms: C_3  and  C_8 
ROOT
HETATM    1  N   UNK N   1      20.882  16.098   7.519  0.00  0.00     0.089 N 
HETATM    2  C   UNK N   1      21.586  13.954   8.481  0.00  0.00     0.080 C 
HETATM    3  C   UNK N   1      21.012  15.344   8.764  0.00  0.00     0.286 C 
HETATM    4  C   UNK N   1      21.067  13.278   7.228  0.00  0.00    -0.038 A 
HETATM    5  C   UNK N   1      19.913  15.453   6.630  0.00  0.00     0.313 C 
HETATM    6  C   UNK N   1      20.267  14.015   6.330  0.00  0.00     0.003 A 
HETATM    7  C   UNK N   1      19.783  13.400   5.160  0.00  0.00     0.034 A 
HETATM    8  C   UNK N   1      21.369  11.940   6.939  0.00  0.00     0.009 A 
HETATM    9  C   UNK N   1      20.327  17.394   7.866  0.00  0.00     0.310 C 
HETATM   10  C   UNK N   1      20.094  12.064   4.892  0.00  0.00     0.029 A 
HETATM   11  C   UNK N   1      20.883  11.335   5.780  0.00  0.00     0.003 A 
ENDROOT
BRANCH   2  12
HETATM   12  C   UNK N   1      22.373  13.248   9.569  0.00  0.00    -0.048 A 
HETATM   13  C   UNK N   1      21.733  12.679  10.680  0.00  0.00     0.008 A 
HETATM   14  C   UNK N   1      22.466  12.021  11.669  0.00  0.00     0.001 A 
HETATM   15  C   UNK N   1      23.852  11.918  11.556  0.00  0.00     0.000 A 
HETATM   16  C   UNK N   1      24.505  12.475  10.452  0.00  0.00     0.001 A 
HETATM   17  C   UNK N   1      23.769  13.138   9.464  0.00  0.00     0.008 A 
ENDBRANCH   2  12
BRANCH   7  18
HETATM   18  N   UNK N   1      18.987  14.120   4.246  0.00  0.00    -0.399 N 
HETATM   19  H   UNK N   1      18.117  14.484   4.529  0.00  0.00     0.156 HD
HETATM   20  H   UNK N   1      19.302  14.260   3.324  0.00  0.00     0.156 HD
ENDBRANCH   7  18
TORSDOF 2
ENDMDL
MODEL 9
REMARK VINA RESULT:      -5.9     12.095     13.998
REMARK  2 active torsions:
REMARK  status: ('A' for Active; 'I' for Inactive)
REMARK    1  A    between atoms: N_2  and  C_9 
REMARK    2  A    between atoms: C_3  and  C_8 
ROOT
HETATM    1  N   UNK N   1      29.241  24.772  -4.522  0.00  0.00     0.089 N 
HETATM    2  C   UNK N   1      27.267  24.028  -5.773  0.00  0.00     0.080 C 
HETATM    3  C   UNK N   1      28.428  23.609  -4.870  0.00  0.00     0.286 C 
HETATM    4  C   UNK N   1      26.605  25.343  -5.415  0.00  0.00    -0.038 A 
HETATM    5  C   UNK N   1      28.458  25.724  -3.730  0.00  0.00     0.313 C 
HETATM    6  C   UNK N   1      27.195  26.165  -4.432  0.00  0.00     0.003 A 
HETATM    7  C   UNK N   1      26.594  27.391  -4.094  0.00  0.00     0.034 A 
HETATM    8  C   UNK N   1      25.424  25.764  -6.042  0.00  0.00     0.009 A 
HETATM    9  C   UNK N   1      30.310  24.298  -3.662  0.00  0.00     0.310 C 
HETATM   10  C   UNK N   1      25.415  27.791  -4.730  0.00  0.00     0.029 A 
HETATM   11  C   UNK N   1      24.831  26.978  -5.700  0.00  0.00     0.003 A 
ENDROOT
BRANCH   2  12
HETATM   12  C   UNK N   1      26.684  23.015  -6.741  0.00  0.00    -0.048 A 
HETATM   13  C   UNK N   1      25.413  22.457  -6.534  0.00  0.00     0.008 A 
HETATM   14  C   UNK N   1      24.881  21.534  -7.437  0.00  0.00     0.001 A 
HETATM   15  C   UNK N   1      25.614  21.161  -8.564  0.00  0.00     0.000 A 
HETATM   16  C   UNK N   1      26.880  21.711  -8.786  0.00  0.00     0.001 A 
HETATM   17  C   UNK N   1      27.413  22.632  -7.878  0.00  0.00     0.008 A 
ENDBRANCH   2  12
BRANCH   7  18
HETATM   18  N   UNK N   1      27.170  28.231  -3.119  0.00  0.00    -0.399 N 
HETATM   19  H   UNK N   1      26.594  28.757  -2.519  0.00  0.00     0.156 HD
HETATM   20  H   UNK N   1      28.149  28.291  -3.038  0.00  0.00     0.156 HD
ENDBRANCH   7  18
TORSDOF 2
ENDMDL
