REMARK  2 active torsions:
REMARK  status: ('A' for Active; 'I' for Inactive)
REMARK    1  A    between atoms: N_2  and  C_9 
REMARK    2  A    between atoms: C_3  and  C_8 
ROOT
HETATM    1  N   UNK N   1       1.484   2.051   0.399  0.00  0.00     0.089 N 
HETATM    2  C   UNK N   1       2.693  -0.049   0.020  0.00  0.00     0.080 C 
HETATM    3  C   UNK N   1       1.421   0.752  -0.266  0.00  0.00     0.286 C 
HETATM    4  C   UNK N   1       3.980   0.750   0.016  0.00  0.00    -0.038 A 
HETATM    5  C   UNK N   1       2.579   2.854  -0.151  0.00  0.00     0.313 C 
HETATM    6  C   UNK N   1       3.916   2.157  -0.055  0.00  0.00     0.003 A 
HETATM    7  C   UNK N   1       5.104   2.911  -0.053  0.00  0.00     0.034 A 
HETATM    8  C   UNK N   1       5.232   0.123   0.088  0.00  0.00     0.009 A 
HETATM    9  C   UNK N   1       0.254   2.751   0.075  0.00  0.00     0.310 C 
HETATM   10  C   UNK N   1       6.342   2.266   0.016  0.00  0.00     0.029 A 
HETATM   11  C   UNK N   1       6.406   0.875   0.085  0.00  0.00     0.003 A 
ENDROOT
BRANCH   2  12
HETATM   12  C   UNK N   1       2.629  -1.565  -0.003  0.00  0.00    -0.048 A 
HETATM   13  C   UNK N   1       3.795  -2.345   0.035  0.00  0.00     0.008 A 
HETATM   14  C   UNK N   1       3.724  -3.739   0.025  0.00  0.00     0.001 A 
HETATM   15  C   UNK N   1       2.482  -4.373  -0.017  0.00  0.00     0.000 A 
HETATM   16  C   UNK N   1       1.311  -3.610  -0.051  0.00  0.00     0.001 A 
HETATM   17  C   UNK N   1       1.384  -2.213  -0.045  0.00  0.00     0.008 A 
ENDBRANCH   2  12
BRANCH   7  18
HETATM   18  N   UNK N   1       5.063   4.319  -0.117  0.00  0.00    -0.399 N 
HETATM   19  H   UNK N   1       5.900   4.835  -0.163  0.00  0.00     0.156 HD
HETATM   20  H   UNK N   1       4.197   4.786  -0.117  0.00  0.00     0.156 HD
ENDBRANCH   7  18
TORSDOF 2
