MODEL 1
REMARK VINA RESULT:      -5.8      0.000      0.000
REMARK  13 active torsions:
REMARK  status: ('A' for Active; 'I' for Inactive)
REMARK    1  A    between atoms: O_1  and  C_9 
REMARK    2  A    between atoms: O_1  and  C_14 
REMARK    3  A    between atoms: O_3  and  C_18 
REMARK    4  A    between atoms: O_3  and  C_19 
REMARK    5  A    between atoms: N_4  and  C_17 
REMARK    6  A    between atoms: N_4  and  C_21 
REMARK    7  A    between atoms: N_4  and  C_22 
REMARK    8  A    between atoms: C_5  and  C_6 
REMARK    9  A    between atoms: C_5  and  C_7 
REMARK   10  A    between atoms: C_5  and  C_8 
REMARK   11  A    between atoms: C_5  and  C_9 
REMARK   12  A    between atoms: C_14  and  C_18 
REMARK   13  A    between atoms: C_17  and  C_19 
ROOT
HETATM    1  O   UNK N   1      36.550  12.328  12.631  0.00  0.00    -0.264 OA
HETATM    2  C   UNK N   1      35.732  12.788  13.416  0.00  0.00     0.272 C 
ENDROOT
BRANCH   2   3
HETATM    3  O   UNK N   1      34.891  13.780  13.025  0.00  0.00    -0.319 OA
BRANCH   3   4
HETATM    4  C   UNK N   1      34.973  14.364  11.783  0.00  0.00     0.205 C 
BRANCH   4   5
HETATM    5  C   UNK N   1      35.737  15.671  11.926  0.00  0.00     0.194 C 
BRANCH   5   6
HETATM    6  O   UNK N   1      35.157  16.665  11.149  0.00  0.00    -0.387 OA
BRANCH   6   7
HETATM    7  C   UNK N   1      35.246  16.182   9.841  0.00  0.00     0.198 C 
BRANCH   7   8
HETATM    8  C   UNK N   1      34.486  17.109   8.910  0.00  0.00     0.298 C 
BRANCH   8   9
HETATM    9  N   UNK N   1      33.958  16.354   7.778  0.00  0.00     0.089 N 
BRANCH   9  10
HETATM   10  C   UNK N   1      33.961  14.920   8.089  0.00  0.00     0.268 C 
HETATM   11  C   UNK N   1      32.695  14.202   7.625  0.00  0.00     0.037 C 
ENDBRANCH   9  10
BRANCH   9  12
HETATM   12  C   UNK N   1      32.611  16.822   7.461  0.00  0.00     0.268 C 
HETATM   13  C   UNK N   1      32.206  17.932   8.413  0.00  0.00     0.037 C 
ENDBRANCH   9  12
ENDBRANCH   8   9
ENDBRANCH   7   8
ENDBRANCH   6   7
ENDBRANCH   5   6
ENDBRANCH   4   5
ENDBRANCH   3   4
ENDBRANCH   2   3
BRANCH   2  14
HETATM   14  C   UNK N   1      35.690  12.328  14.864  0.00  0.00     0.074 C 
BRANCH  14  15
HETATM   15  C   UNK N   1      34.287  11.760  15.158  0.00  0.00     0.020 C 
HETATM   16  C   UNK N   1      33.791  10.717  14.162  0.00  0.00     0.006 C 
ENDBRANCH  14  15
BRANCH  14  17
HETATM   17  C   UNK N   1      36.650  11.134  15.028  0.00  0.00     0.020 C 
HETATM   18  C   UNK N   1      36.619  10.503  16.414  0.00  0.00     0.006 C 
ENDBRANCH  14  17
BRANCH  14  19
HETATM   19  C   UNK N   1      35.992  13.465  15.852  0.00  0.00    -0.040 A 
HETATM   20  C   UNK N   1      35.272  13.563  17.057  0.00  0.00     0.008 A 
HETATM   21  C   UNK N   1      35.547  14.580  17.974  0.00  0.00     0.001 A 
HETATM   22  C   UNK N   1      36.549  15.512  17.703  0.00  0.00     0.000 A 
HETATM   23  C   UNK N   1      37.274  15.430  16.512  0.00  0.00     0.001 A 
HETATM   24  C   UNK N   1      36.998  14.414  15.593  0.00  0.00     0.008 A 
ENDBRANCH  14  19
ENDBRANCH   2  14
TORSDOF 13
ENDMDL
MODEL 2
REMARK VINA RESULT:      -5.7      1.511      2.096
REMARK  13 active torsions:
REMARK  status: ('A' for Active; 'I' for Inactive)
REMARK    1  A    between atoms: O_1  and  C_9 
REMARK    2  A    between atoms: O_1  and  C_14 
REMARK    3  A    between atoms: O_3  and  C_18 
REMARK    4  A    between atoms: O_3  and  C_19 
REMARK    5  A    between atoms: N_4  and  C_17 
REMARK    6  A    between atoms: N_4  and  C_21 
REMARK    7  A    between atoms: N_4  and  C_22 
REMARK    8  A    between atoms: C_5  and  C_6 
REMARK    9  A    between atoms: C_5  and  C_7 
REMARK   10  A    between atoms: C_5  and  C_8 
REMARK   11  A    between atoms: C_5  and  C_9 
REMARK   12  A    between atoms: C_14  and  C_18 
REMARK   13  A    between atoms: C_17  and  C_19 
ROOT
HETATM    1  O   UNK N   1      36.563  14.037  14.989  0.00  0.00    -0.264 OA
HETATM    2  C   UNK N   1      35.724  13.273  14.531  0.00  0.00     0.272 C 
ENDROOT
BRANCH   2   3
HETATM    3  O   UNK N   1      35.060  13.590  13.390  0.00  0.00    -0.319 OA
BRANCH   3   4
HETATM    4  C   UNK N   1      35.689  13.654  12.169  0.00  0.00     0.205 C 
BRANCH   4   5
HETATM    5  C   UNK N   1      35.225  14.920  11.465  0.00  0.00     0.194 C 
BRANCH   5   6
HETATM    6  O   UNK N   1      33.845  14.919  11.314  0.00  0.00    -0.387 OA
BRANCH   6   7
HETATM    7  C   UNK N   1      33.644  15.086   9.942  0.00  0.00     0.198 C 
BRANCH   7   8
HETATM    8  C   UNK N   1      34.362  16.341   9.477  0.00  0.00     0.298 C 
BRANCH   8   9
HETATM    9  N   UNK N   1      33.636  16.947   8.366  0.00  0.00     0.089 N 
BRANCH   9  10
HETATM   10  C   UNK N   1      34.207  16.496   7.091  0.00  0.00     0.268 C 
HETATM   11  C   UNK N   1      33.756  17.338   5.899  0.00  0.00     0.037 C 
ENDBRANCH   9  10
BRANCH   9  12
HETATM   12  C   UNK N   1      32.219  16.604   8.459  0.00  0.00     0.268 C 
HETATM   13  C   UNK N   1      31.389  17.861   8.641  0.00  0.00     0.037 C 
ENDBRANCH   9  12
ENDBRANCH   8   9
ENDBRANCH   7   8
ENDBRANCH   6   7
ENDBRANCH   5   6
ENDBRANCH   4   5
ENDBRANCH   3   4
ENDBRANCH   2   3
BRANCH   2  14
HETATM   14  C   UNK N   1      35.342  11.998  15.264  0.00  0.00     0.074 C 
BRANCH  14  15
HETATM   15  C   UNK N   1      33.938  11.565  14.797  0.00  0.00     0.020 C 
HETATM   16  C   UNK N   1      33.922  10.455  13.749  0.00  0.00     0.006 C 
ENDBRANCH  14  15
BRANCH  14  17
HETATM   17  C   UNK N   1      36.285  10.868  14.809  0.00  0.00     0.020 C 
HETATM   18  C   UNK N   1      37.720  11.320  14.566  0.00  0.00     0.006 C 
ENDBRANCH  14  17
BRANCH  14  19
HETATM   19  C   UNK N   1      35.333  12.176  16.790  0.00  0.00    -0.040 A 
HETATM   20  C   UNK N   1      35.556  11.070  17.632  0.00  0.00     0.008 A 
HETATM   21  C   UNK N   1      35.570  11.219  19.020  0.00  0.00     0.001 A 
HETATM   22  C   UNK N   1      35.363  12.476  19.590  0.00  0.00     0.000 A 
HETATM   23  C   UNK N   1      35.141  13.585  18.770  0.00  0.00     0.001 A 
HETATM   24  C   UNK N   1      35.125  13.436  17.380  0.00  0.00     0.008 A 
ENDBRANCH  14  19
ENDBRANCH   2  14
TORSDOF 13
ENDMDL
MODEL 3
REMARK VINA RESULT:      -5.2      2.616      8.592
REMARK  13 active torsions:
REMARK  status: ('A' for Active; 'I' for Inactive)
REMARK    1  A    between atoms: O_1  and  C_9 
REMARK    2  A    between atoms: O_1  and  C_14 
REMARK    3  A    between atoms: O_3  and  C_18 
REMARK    4  A    between atoms: O_3  and  C_19 
REMARK    5  A    between atoms: N_4  and  C_17 
REMARK    6  A    between atoms: N_4  and  C_21 
REMARK    7  A    between atoms: N_4  and  C_22 
REMARK    8  A    between atoms: C_5  and  C_6 
REMARK    9  A    between atoms: C_5  and  C_7 
REMARK   10  A    between atoms: C_5  and  C_8 
REMARK   11  A    between atoms: C_5  and  C_9 
REMARK   12  A    between atoms: C_14  and  C_18 
REMARK   13  A    between atoms: C_17  and  C_19 
ROOT
HETATM    1  O   UNK N   1      34.668  18.554   7.574  0.00  0.00    -0.264 OA
HETATM    2  C   UNK N   1      34.288  17.408   7.767  0.00  0.00     0.272 C 
ENDROOT
BRANCH   2   3
HETATM    3  O   UNK N   1      34.919  16.621   8.676  0.00  0.00    -0.319 OA
BRANCH   3   4
HETATM    4  C   UNK N   1      34.943  16.924  10.017  0.00  0.00     0.205 C 
BRANCH   4   5
HETATM    5  C   UNK N   1      35.391  15.683  10.774  0.00  0.00     0.194 C 
BRANCH   5   6
HETATM    6  O   UNK N   1      35.535  14.607   9.908  0.00  0.00    -0.387 OA
BRANCH   6   7
HETATM    7  C   UNK N   1      35.062  13.510  10.633  0.00  0.00     0.198 C 
BRANCH   7   8
HETATM    8  C   UNK N   1      35.456  13.663  12.091  0.00  0.00     0.298 C 
BRANCH   8   9
HETATM    9  N   UNK N   1      34.819  12.622  12.890  0.00  0.00     0.089 N 
BRANCH   9  10
HETATM   10  C   UNK N   1      35.111  11.303  12.318  0.00  0.00     0.268 C 
HETATM   11  C   UNK N   1      33.969  10.304  12.497  0.00  0.00     0.037 C 
ENDBRANCH   9  10
BRANCH   9  12
HETATM   12  C   UNK N   1      35.283  12.711  14.273  0.00  0.00     0.268 C 
HETATM   13  C   UNK N   1      36.799  12.693  14.316  0.00  0.00     0.037 C 
ENDBRANCH   9  12
ENDBRANCH   8   9
ENDBRANCH   7   8
ENDBRANCH   6   7
ENDBRANCH   5   6
ENDBRANCH   4   5
ENDBRANCH   3   4
ENDBRANCH   2   3
BRANCH   2  14
HETATM   14  C   UNK N   1      33.163  16.806   6.941  0.00  0.00     0.074 C 
BRANCH  14  15
HETATM   15  C   UNK N   1      33.398  17.158   5.459  0.00  0.00     0.020 C 
HETATM   16  C   UNK N   1      33.509  15.960   4.521  0.00  0.00     0.006 C 
ENDBRANCH  14  15
BRANCH  14  17
HETATM   17  C   UNK N   1      33.269  15.271   7.012  0.00  0.00     0.020 C 
HETATM   18  C   UNK N   1      32.394  14.639   8.088  0.00  0.00     0.006 C 
ENDBRANCH  14  17
BRANCH  14  19
HETATM   19  C   UNK N   1      31.779  17.320   7.368  0.00  0.00    -0.040 A 
HETATM   20  C   UNK N   1      30.662  17.117   6.536  0.00  0.00     0.008 A 
HETATM   21  C   UNK N   1      29.395  17.561   6.918  0.00  0.00     0.001 A 
HETATM   22  C   UNK N   1      29.223  18.212   8.140  0.00  0.00     0.000 A 
HETATM   23  C   UNK N   1      30.319  18.422   8.979  0.00  0.00     0.001 A 
HETATM   24  C   UNK N   1      31.589  17.979   8.596  0.00  0.00     0.008 A 
ENDBRANCH  14  19
ENDBRANCH   2  14
TORSDOF 13
ENDMDL
MODEL 4
REMARK VINA RESULT:      -5.2      2.626      9.287
REMARK  13 active torsions:
REMARK  status: ('A' for Active; 'I' for Inactive)
REMARK    1  A    between atoms: O_1  and  C_9 
REMARK    2  A    between atoms: O_1  and  C_14 
REMARK    3  A    between atoms: O_3  and  C_18 
REMARK    4  A    between atoms: O_3  and  C_19 
REMARK    5  A    between atoms: N_4  and  C_17 
REMARK    6  A    between atoms: N_4  and  C_21 
REMARK    7  A    between atoms: N_4  and  C_22 
REMARK    8  A    between atoms: C_5  and  C_6 
REMARK    9  A    between atoms: C_5  and  C_7 
REMARK   10  A    between atoms: C_5  and  C_8 
REMARK   11  A    between atoms: C_5  and  C_9 
REMARK   12  A    between atoms: C_14  and  C_18 
REMARK   13  A    between atoms: C_17  and  C_19 
ROOT
HETATM    1  O   UNK N   1      33.897  15.083   7.429  0.00  0.00    -0.264 OA
HETATM    2  C   UNK N   1      33.212  15.738   8.202  0.00  0.00     0.272 C 
ENDROOT
BRANCH   2   3
HETATM    3  O   UNK N   1      33.104  15.368   9.504  0.00  0.00    -0.319 OA
BRANCH   3   4
HETATM    4  C   UNK N   1      33.974  14.478  10.087  0.00  0.00     0.205 C 
BRANCH   4   5
HETATM    5  C   UNK N   1      34.897  15.257  11.013  0.00  0.00     0.194 C 
BRANCH   5   6
HETATM    6  O   UNK N   1      34.771  14.810  12.321  0.00  0.00    -0.387 OA
BRANCH   6   7
HETATM    7  C   UNK N   1      35.124  13.460  12.263  0.00  0.00     0.198 C 
BRANCH   7   8
HETATM    8  C   UNK N   1      36.071  13.138  13.406  0.00  0.00     0.298 C 
BRANCH   8   9
HETATM    9  N   UNK N   1      35.330  12.544  14.514  0.00  0.00     0.089 N 
BRANCH   9  10
HETATM   10  C   UNK N   1      34.998  11.149  14.202  0.00  0.00     0.268 C 
HETATM   11  C   UNK N   1      33.564  10.775  14.570  0.00  0.00     0.037 C 
ENDBRANCH   9  10
BRANCH   9  12
HETATM   12  C   UNK N   1      36.121  12.637  15.739  0.00  0.00     0.268 C 
HETATM   13  C   UNK N   1      35.294  13.261  16.847  0.00  0.00     0.037 C 
ENDBRANCH   9  12
ENDBRANCH   8   9
ENDBRANCH   7   8
ENDBRANCH   6   7
ENDBRANCH   5   6
ENDBRANCH   4   5
ENDBRANCH   3   4
ENDBRANCH   2   3
BRANCH   2  14
HETATM   14  C   UNK N   1      32.398  16.926   7.714  0.00  0.00     0.074 C 
BRANCH  14  15
HETATM   15  C   UNK N   1      31.041  16.925   8.445  0.00  0.00     0.020 C 
HETATM   16  C   UNK N   1      30.551  18.298   8.897  0.00  0.00     0.006 C 
ENDBRANCH  14  15
BRANCH  14  17
HETATM   17  C   UNK N   1      33.099  18.221   8.167  0.00  0.00     0.020 C 
HETATM   18  C   UNK N   1      34.616  18.103   8.259  0.00  0.00     0.006 C 
ENDBRANCH  14  17
BRANCH  14  19
HETATM   19  C   UNK N   1      32.154  16.889   6.197  0.00  0.00    -0.040 A 
HETATM   20  C   UNK N   1      31.025  16.228   5.679  0.00  0.00     0.008 A 
HETATM   21  C   UNK N   1      30.779  16.202   4.305  0.00  0.00     0.001 A 
HETATM   22  C   UNK N   1      31.656  16.840   3.427  0.00  0.00     0.000 A 
HETATM   23  C   UNK N   1      32.781  17.502   3.923  0.00  0.00     0.001 A 
HETATM   24  C   UNK N   1      33.029  17.526   5.299  0.00  0.00     0.008 A 
ENDBRANCH  14  19
ENDBRANCH   2  14
TORSDOF 13
ENDMDL
MODEL 5
REMARK VINA RESULT:      -5.1      2.449      8.830
REMARK  13 active torsions:
REMARK  status: ('A' for Active; 'I' for Inactive)
REMARK    1  A    between atoms: O_1  and  C_9 
REMARK    2  A    between atoms: O_1  and  C_14 
REMARK    3  A    between atoms: O_3  and  C_18 
REMARK    4  A    between atoms: O_3  and  C_19 
REMARK    5  A    between atoms: N_4  and  C_17 
REMARK    6  A    between atoms: N_4  and  C_21 
REMARK    7  A    between atoms: N_4  and  C_22 
REMARK    8  A    between atoms: C_5  and  C_6 
REMARK    9  A    between atoms: C_5  and  C_7 
REMARK   10  A    between atoms: C_5  and  C_8 
REMARK   11  A    between atoms: C_5  and  C_9 
REMARK   12  A    between atoms: C_14  and  C_18 
REMARK   13  A    between atoms: C_17  and  C_19 
ROOT
HETATM    1  O   UNK N   1      34.683  17.063   8.192  0.00  0.00    -0.264 OA
HETATM    2  C   UNK N   1      33.648  16.415   8.263  0.00  0.00     0.272 C 
ENDROOT
BRANCH   2   3
HETATM    3  O   UNK N   1      33.473  15.513   9.263  0.00  0.00    -0.319 OA
BRANCH   3   4
HETATM    4  C   UNK N   1      34.506  14.747   9.748  0.00  0.00     0.205 C 
BRANCH   4   5
HETATM    5  C   UNK N   1      34.928  15.320  11.093  0.00  0.00     0.194 C 
BRANCH   5   6
HETATM    6  O   UNK N   1      34.436  14.542  12.133  0.00  0.00    -0.387 OA
BRANCH   6   7
HETATM    7  C   UNK N   1      35.248  13.406  12.133  0.00  0.00     0.198 C 
BRANCH   7   8
HETATM    8  C   UNK N   1      36.020  13.340  13.438  0.00  0.00     0.298 C 
BRANCH   8   9
HETATM    9  N   UNK N   1      35.447  12.315  14.305  0.00  0.00     0.089 N 
BRANCH   9  10
HETATM   10  C   UNK N   1      34.691  12.945  15.392  0.00  0.00     0.268 C 
HETATM   11  C   UNK N   1      35.559  13.313  16.594  0.00  0.00     0.037 C 
ENDBRANCH   9  10
BRANCH   9  12
HETATM   12  C   UNK N   1      34.596  11.426  13.517  0.00  0.00     0.268 C 
HETATM   13  C   UNK N   1      33.732  10.582  14.436  0.00  0.00     0.037 C 
ENDBRANCH   9  12
ENDBRANCH   8   9
ENDBRANCH   7   8
ENDBRANCH   6   7
ENDBRANCH   5   6
ENDBRANCH   4   5
ENDBRANCH   3   4
ENDBRANCH   2   3
BRANCH   2  14
HETATM   14  C   UNK N   1      32.573  16.535   7.196  0.00  0.00     0.074 C 
BRANCH  14  15
HETATM   15  C   UNK N   1      33.120  17.399   6.042  0.00  0.00     0.020 C 
HETATM   16  C   UNK N   1      32.239  17.446   4.797  0.00  0.00     0.006 C 
ENDBRANCH  14  15
BRANCH  14  17
HETATM   17  C   UNK N   1      32.335  15.144   6.579  0.00  0.00     0.020 C 
HETATM   18  C   UNK N   1      33.611  14.440   6.133  0.00  0.00     0.006 C 
ENDBRANCH  14  17
BRANCH  14  19
HETATM   19  C   UNK N   1      31.280  17.169   7.732  0.00  0.00    -0.040 A 
HETATM   20  C   UNK N   1      31.343  18.232   8.653  0.00  0.00     0.008 A 
HETATM   21  C   UNK N   1      30.178  18.831   9.135  0.00  0.00     0.001 A 
HETATM   22  C   UNK N   1      28.931  18.380   8.702  0.00  0.00     0.000 A 
HETATM   23  C   UNK N   1      28.849  17.328   7.788  0.00  0.00     0.001 A 
HETATM   24  C   UNK N   1      30.015  16.726   7.306  0.00  0.00     0.008 A 
ENDBRANCH  14  19
ENDBRANCH   2  14
TORSDOF 13
ENDMDL
MODEL 6
REMARK VINA RESULT:      -5.0     18.151     22.967
REMARK  13 active torsions:
REMARK  status: ('A' for Active; 'I' for Inactive)
REMARK    1  A    between atoms: O_1  and  C_9 
REMARK    2  A    between atoms: O_1  and  C_14 
REMARK    3  A    between atoms: O_3  and  C_18 
REMARK    4  A    between atoms: O_3  and  C_19 
REMARK    5  A    between atoms: N_4  and  C_17 
REMARK    6  A    between atoms: N_4  and  C_21 
REMARK    7  A    between atoms: N_4  and  C_22 
REMARK    8  A    between atoms: C_5  and  C_6 
REMARK    9  A    between atoms: C_5  and  C_7 
REMARK   10  A    between atoms: C_5  and  C_8 
REMARK   11  A    between atoms: C_5  and  C_9 
REMARK   12  A    between atoms: C_14  and  C_18 
REMARK   13  A    between atoms: C_17  and  C_19 
ROOT
HETATM    1  O   UNK N   1      29.337  25.471  -6.447  0.00  0.00    -0.264 OA
HETATM    2  C   UNK N   1      28.419  25.845  -5.731  0.00  0.00     0.272 C 
ENDROOT
BRANCH   2   3
HETATM    3  O   UNK N   1      28.590  25.932  -4.387  0.00  0.00    -0.319 OA
BRANCH   3   4
HETATM    4  C   UNK N   1      29.472  25.126  -3.707  0.00  0.00     0.205 C 
BRANCH   4   5
HETATM    5  C   UNK N   1      28.734  23.861  -3.294  0.00  0.00     0.194 C 
BRANCH   5   6
HETATM    6  O   UNK N   1      29.402  23.220  -2.259  0.00  0.00    -0.387 OA
BRANCH   6   7
HETATM    7  C   UNK N   1      30.583  22.754  -2.841  0.00  0.00     0.198 C 
BRANCH   7   8
HETATM    8  C   UNK N   1      30.298  21.469  -3.596  0.00  0.00     0.298 C 
BRANCH   8   9
HETATM    9  N   UNK N   1      31.536  20.722  -3.791  0.00  0.00     0.089 N 
BRANCH   9  10
HETATM   10  C   UNK N   1      31.897  20.715  -5.214  0.00  0.00     0.268 C 
HETATM   11  C   UNK N   1      30.714  20.416  -6.133  0.00  0.00     0.037 C 
ENDBRANCH   9  10
BRANCH   9  12
HETATM   12  C   UNK N   1      32.599  21.311  -2.981  0.00  0.00     0.268 C 
HETATM   13  C   UNK N   1      33.950  20.789  -3.432  0.00  0.00     0.037 C 
ENDBRANCH   9  12
ENDBRANCH   8   9
ENDBRANCH   7   8
ENDBRANCH   6   7
ENDBRANCH   5   6
ENDBRANCH   4   5
ENDBRANCH   3   4
ENDBRANCH   2   3
BRANCH   2  14
HETATM   14  C   UNK N   1      27.045  26.140  -6.309  0.00  0.00     0.074 C 
BRANCH  14  15
HETATM   15  C   UNK N   1      26.153  26.711  -5.189  0.00  0.00     0.020 C 
HETATM   16  C   UNK N   1      24.737  27.086  -5.618  0.00  0.00     0.006 C 
ENDBRANCH  14  15
BRANCH  14  17
HETATM   17  C   UNK N   1      27.178  27.281  -7.337  0.00  0.00     0.020 C 
HETATM   18  C   UNK N   1      27.775  28.561  -6.765  0.00  0.00     0.006 C 
ENDBRANCH  14  17
BRANCH  14  19
HETATM   19  C   UNK N   1      26.374  24.891  -6.901  0.00  0.00    -0.040 A 
HETATM   20  C   UNK N   1      25.935  24.892  -8.238  0.00  0.00     0.008 A 
HETATM   21  C   UNK N   1      25.340  23.759  -8.797  0.00  0.00     0.001 A 
HETATM   22  C   UNK N   1      25.179  22.605  -8.029  0.00  0.00     0.000 A 
HETATM   23  C   UNK N   1      25.609  22.586  -6.700  0.00  0.00     0.001 A 
HETATM   24  C   UNK N   1      26.203  23.721  -6.140  0.00  0.00     0.008 A 
ENDBRANCH  14  19
ENDBRANCH   2  14
TORSDOF 13
ENDMDL
MODEL 7
REMARK VINA RESULT:      -4.9      2.771      9.206
REMARK  13 active torsions:
REMARK  status: ('A' for Active; 'I' for Inactive)
REMARK    1  A    between atoms: O_1  and  C_9 
REMARK    2  A    between atoms: O_1  and  C_14 
REMARK    3  A    between atoms: O_3  and  C_18 
REMARK    4  A    between atoms: O_3  and  C_19 
REMARK    5  A    between atoms: N_4  and  C_17 
REMARK    6  A    between atoms: N_4  and  C_21 
REMARK    7  A    between atoms: N_4  and  C_22 
REMARK    8  A    between atoms: C_5  and  C_6 
REMARK    9  A    between atoms: C_5  and  C_7 
REMARK   10  A    between atoms: C_5  and  C_8 
REMARK   11  A    between atoms: C_5  and  C_9 
REMARK   12  A    between atoms: C_14  and  C_18 
REMARK   13  A    between atoms: C_17  and  C_19 
ROOT
HETATM    1  O   UNK N   1      32.003  14.518   7.434  0.00  0.00    -0.264 OA
HETATM    2  C   UNK N   1      32.766  15.411   7.771  0.00  0.00     0.272 C 
ENDROOT
BRANCH   2   3
HETATM    3  O   UNK N   1      33.783  15.154   8.633  0.00  0.00    -0.319 OA
BRANCH   3   4
HETATM    4  C   UNK N   1      33.573  14.570   9.860  0.00  0.00     0.205 C 
BRANCH   4   5
HETATM    5  C   UNK N   1      34.570  15.166  10.843  0.00  0.00     0.194 C 
BRANCH   5   6
HETATM    6  O   UNK N   1      34.560  14.460  12.039  0.00  0.00    -0.387 OA
BRANCH   6   7
HETATM    7  C   UNK N   1      35.737  13.709  12.011  0.00  0.00     0.198 C 
BRANCH   7   8
HETATM    8  C   UNK N   1      35.993  13.123  13.387  0.00  0.00     0.298 C 
BRANCH   8   9
HETATM    9  N   UNK N   1      35.390  11.798  13.484  0.00  0.00     0.089 N 
BRANCH   9  10
HETATM   10  C   UNK N   1      36.403  10.815  13.884  0.00  0.00     0.268 C 
HETATM   11  C   UNK N   1      37.724  11.453  14.312  0.00  0.00     0.037 C 
ENDBRANCH   9  10
BRANCH   9  12
HETATM   12  C   UNK N   1      34.283  11.830  14.437  0.00  0.00     0.268 C 
HETATM   13  C   UNK N   1      34.150  10.486  15.128  0.00  0.00     0.037 C 
ENDBRANCH   9  12
ENDBRANCH   8   9
ENDBRANCH   7   8
ENDBRANCH   6   7
ENDBRANCH   5   6
ENDBRANCH   4   5
ENDBRANCH   3   4
ENDBRANCH   2   3
BRANCH   2  14
HETATM   14  C   UNK N   1      32.552  16.843   7.306  0.00  0.00     0.074 C 
BRANCH  14  15
HETATM   15  C   UNK N   1      33.069  17.797   8.401  0.00  0.00     0.020 C 
HETATM   16  C   UNK N   1      34.452  18.389   8.141  0.00  0.00     0.006 C 
ENDBRANCH  14  15
BRANCH  14  17
HETATM   17  C   UNK N   1      33.455  17.104   6.086  0.00  0.00     0.020 C 
HETATM   18  C   UNK N   1      33.966  15.836   5.413  0.00  0.00     0.006 C 
ENDBRANCH  14  17
BRANCH  14  19
HETATM   19  C   UNK N   1      31.075  17.155   7.022  0.00  0.00    -0.040 A 
HETATM   20  C   UNK N   1      30.200  17.460   8.082  0.00  0.00     0.008 A 
HETATM   21  C   UNK N   1      28.860  17.764   7.839  0.00  0.00     0.001 A 
HETATM   22  C   UNK N   1      28.372  17.772   6.532  0.00  0.00     0.000 A 
HETATM   23  C   UNK N   1      29.225  17.472   5.467  0.00  0.00     0.001 A 
HETATM   24  C   UNK N   1      30.567  17.165   5.710  0.00  0.00     0.008 A 
ENDBRANCH  14  19
ENDBRANCH   2  14
TORSDOF 13
ENDMDL
MODEL 8
REMARK VINA RESULT:      -4.8      4.772     10.982
REMARK  13 active torsions:
REMARK  status: ('A' for Active; 'I' for Inactive)
REMARK    1  A    between atoms: O_1  and  C_9 
REMARK    2  A    between atoms: O_1  and  C_14 
REMARK    3  A    between atoms: O_3  and  C_18 
REMARK    4  A    between atoms: O_3  and  C_19 
REMARK    5  A    between atoms: N_4  and  C_17 
REMARK    6  A    between atoms: N_4  and  C_21 
REMARK    7  A    between atoms: N_4  and  C_22 
REMARK    8  A    between atoms: C_5  and  C_6 
REMARK    9  A    between atoms: C_5  and  C_7 
REMARK   10  A    between atoms: C_5  and  C_8 
REMARK   11  A    between atoms: C_5  and  C_9 
REMARK   12  A    between atoms: C_14  and  C_18 
REMARK   13  A    between atoms: C_17  and  C_19 
ROOT
HETATM    1  O   UNK N   1      29.896  15.528   6.015  0.00  0.00    -0.264 OA
HETATM    2  C   UNK N   1      29.744  16.587   5.423  0.00  0.00     0.272 C 
ENDROOT
BRANCH   2   3
HETATM    3  O   UNK N   1      30.784  17.448   5.281  0.00  0.00    -0.319 OA
BRANCH   3   4
HETATM    4  C   UNK N   1      32.093  17.038   5.372  0.00  0.00     0.205 C 
BRANCH   4   5
HETATM    5  C   UNK N   1      32.595  17.371   6.769  0.00  0.00     0.194 C 
BRANCH   5   6
HETATM    6  O   UNK N   1      33.731  18.168   6.704  0.00  0.00    -0.387 OA
BRANCH   6   7
HETATM    7  C   UNK N   1      34.507  17.759   7.790  0.00  0.00     0.198 C 
BRANCH   7   8
HETATM    8  C   UNK N   1      33.659  16.915   8.725  0.00  0.00     0.298 C 
BRANCH   8   9
HETATM    9  N   UNK N   1      34.502  15.959   9.435  0.00  0.00     0.089 N 
BRANCH   9  10
HETATM   10  C   UNK N   1      35.223  16.637  10.519  0.00  0.00     0.268 C 
HETATM   11  C   UNK N   1      35.716  15.680  11.603  0.00  0.00     0.037 C 
ENDBRANCH   9  10
BRANCH   9  12
HETATM   12  C   UNK N   1      33.680  14.867   9.951  0.00  0.00     0.268 C 
HETATM   13  C   UNK N   1      32.230  15.076   9.558  0.00  0.00     0.037 C 
ENDBRANCH   9  12
ENDBRANCH   8   9
ENDBRANCH   7   8
ENDBRANCH   6   7
ENDBRANCH   5   6
ENDBRANCH   4   5
ENDBRANCH   3   4
ENDBRANCH   2   3
BRANCH   2  14
HETATM   14  C   UNK N   1      28.377  17.007   4.908  0.00  0.00     0.074 C 
BRANCH  14  15
HETATM   15  C   UNK N   1      28.395  16.954   3.367  0.00  0.00     0.020 C 
HETATM   16  C   UNK N   1      29.141  15.764   2.771  0.00  0.00     0.006 C 
ENDBRANCH  14  15
BRANCH  14  17
HETATM   17  C   UNK N   1      27.344  15.946   5.334  0.00  0.00     0.020 C 
HETATM   18  C   UNK N   1      25.967  16.139   4.711  0.00  0.00     0.006 C 
ENDBRANCH  14  17
BRANCH  14  19
HETATM   19  C   UNK N   1      27.986  18.422   5.360  0.00  0.00    -0.040 A 
HETATM   20  C   UNK N   1      27.645  19.400   4.406  0.00  0.00     0.008 A 
HETATM   21  C   UNK N   1      27.270  20.685   4.801  0.00  0.00     0.001 A 
HETATM   22  C   UNK N   1      27.227  21.014   6.157  0.00  0.00     0.000 A 
HETATM   23  C   UNK N   1      27.561  20.056   7.117  0.00  0.00     0.001 A 
HETATM   24  C   UNK N   1      27.939  18.770   6.722  0.00  0.00     0.008 A 
ENDBRANCH  14  19
ENDBRANCH   2  14
TORSDOF 13
ENDMDL
MODEL 9
REMARK VINA RESULT:      -4.8      4.254      9.664
REMARK  13 active torsions:
REMARK  status: ('A' for Active; 'I' for Inactive)
REMARK    1  A    between atoms: O_1  and  C_9 
REMARK    2  A    between atoms: O_1  and  C_14 
REMARK    3  A    between atoms: O_3  and  C_18 
REMARK    4  A    between atoms: O_3  and  C_19 
REMARK    5  A    between atoms: N_4  and  C_17 
REMARK    6  A    between atoms: N_4  and  C_21 
REMARK    7  A    between atoms: N_4  and  C_22 
REMARK    8  A    between atoms: C_5  and  C_6 
REMARK    9  A    between atoms: C_5  and  C_7 
REMARK   10  A    between atoms: C_5  and  C_8 
REMARK   11  A    between atoms: C_5  and  C_9 
REMARK   12  A    between atoms: C_14  and  C_18 
REMARK   13  A    between atoms: C_17  and  C_19 
ROOT
HETATM    1  O   UNK N   1      33.075  15.494   6.584  0.00  0.00    -0.264 OA
HETATM    2  C   UNK N   1      32.596  16.561   6.230  0.00  0.00     0.272 C 
ENDROOT
BRANCH   2   3
HETATM    3  O   UNK N   1      32.988  17.719   6.823  0.00  0.00    -0.319 OA
BRANCH   3   4
HETATM    4  C   UNK N   1      33.337  17.780   8.151  0.00  0.00     0.205 C 
BRANCH   4   5
HETATM    5  C   UNK N   1      34.674  18.500   8.255  0.00  0.00     0.194 C 
BRANCH   5   6
HETATM    6  O   UNK N   1      35.356  18.104   9.397  0.00  0.00    -0.387 OA
BRANCH   6   7
HETATM    7  C   UNK N   1      34.783  16.877   9.738  0.00  0.00     0.198 C 
BRANCH   7   8
HETATM    8  C   UNK N   1      35.753  16.091  10.601  0.00  0.00     0.298 C 
BRANCH   8   9
HETATM    9  N   UNK N   1      35.839  14.714  10.126  0.00  0.00     0.089 N 
BRANCH   9  10
HETATM   10  C   UNK N   1      36.141  13.816  11.246  0.00  0.00     0.268 C 
HETATM   11  C   UNK N   1      37.544  13.215  11.174  0.00  0.00     0.037 C 
ENDBRANCH   9  10
BRANCH   9  12
HETATM   12  C   UNK N   1      34.585  14.340   9.475  0.00  0.00     0.268 C 
HETATM   13  C   UNK N   1      34.316  12.860   9.672  0.00  0.00     0.037 C 
ENDBRANCH   9  12
ENDBRANCH   8   9
ENDBRANCH   7   8
ENDBRANCH   6   7
ENDBRANCH   5   6
ENDBRANCH   4   5
ENDBRANCH   3   4
ENDBRANCH   2   3
BRANCH   2  14
HETATM   14  C   UNK N   1      31.493  16.618   5.186  0.00  0.00     0.074 C 
BRANCH  14  15
HETATM   15  C   UNK N   1      31.995  17.445   3.986  0.00  0.00     0.020 C 
HETATM   16  C   UNK N   1      32.892  16.689   3.010  0.00  0.00     0.006 C 
ENDBRANCH  14  15
BRANCH  14  17
HETATM   17  C   UNK N   1      31.270  15.198   4.630  0.00  0.00     0.020 C 
HETATM   18  C   UNK N   1      29.809  14.863   4.359  0.00  0.00     0.006 C 
ENDBRANCH  14  17
BRANCH  14  19
HETATM   19  C   UNK N   1      30.200  17.247   5.727  0.00  0.00    -0.040 A 
HETATM   20  C   UNK N   1      29.775  16.968   7.039  0.00  0.00     0.008 A 
HETATM   21  C   UNK N   1      28.612  17.546   7.553  0.00  0.00     0.001 A 
HETATM   22  C   UNK N   1      27.858  18.416   6.764  0.00  0.00     0.000 A 
HETATM   23  C   UNK N   1      28.266  18.705   5.460  0.00  0.00     0.001 A 
HETATM   24  C   UNK N   1      29.429  18.125   4.944  0.00  0.00     0.008 A 
ENDBRANCH  14  19
ENDBRANCH   2  14
TORSDOF 13
ENDMDL
