MODEL 1
REMARK VINA RESULT:      -8.2      0.000      0.000
REMARK  4 active torsions:
REMARK  status: ('A' for Active; 'I' for Inactive)
REMARK    1  A    between atoms: O_2  and  C_23 
REMARK    2  A    between atoms: O_3  and  C_24 
REMARK    3  A    between atoms: C_5  and  C_8 
REMARK    4  A    between atoms: C_5  and  C_9 
ROOT
HETATM    1  O   UNK N   1      28.575  17.293   9.389  0.00  0.00    -0.271 OA
HETATM    2  N   UNK N   1      27.701  19.099   8.391  0.00  0.00    -0.325 N 
HETATM    3  C   UNK N   1      28.884  17.525   6.975  0.00  0.00     0.124 A 
HETATM    4  C   UNK N   1      28.315  18.731   6.222  0.00  0.00    -0.004 A 
HETATM    5  C   UNK N   1      28.383  17.941   8.376  0.00  0.00     0.244 A 
HETATM    6  C   UNK N   1      27.639  19.564   7.090  0.00  0.00     0.043 A 
HETATM    7  C   UNK N   1      28.314  19.007   4.850  0.00  0.00     0.011 A 
HETATM    8  C   UNK N   1      26.936  20.685   6.661  0.00  0.00     0.030 A 
HETATM    9  C   UNK N   1      27.610  20.136   4.386  0.00  0.00     0.001 A 
HETATM   10  C   UNK N   1      26.921  20.971   5.290  0.00  0.00     0.002 A 
HETATM   11  H   UNK N   1      27.317  19.537   9.184  0.00  0.00     0.169 HD
ENDROOT
BRANCH   3  12
HETATM   12  C   UNK N   1      28.234  16.228   6.508  0.00  0.00    -0.031 A 
HETATM   13  C   UNK N   1      26.848  16.047   6.686  0.00  0.00     0.012 A 
HETATM   14  C   UNK N   1      26.176  15.007   6.047  0.00  0.00     0.037 A 
HETATM   15  C   UNK N   1      26.872  14.152   5.194  0.00  0.00     0.065 A 
HETATM   16  C   UNK N   1      28.243  14.327   4.993  0.00  0.00     0.037 A 
HETATM   17  C   UNK N   1      28.916  15.373   5.628  0.00  0.00     0.012 A 
BRANCH  15  18
HETATM   18  O   UNK N   1      26.219  13.167   4.556  0.00  0.00    -0.361 OA
HETATM   19  H   UNK N   1      26.450  12.932   3.680  0.00  0.00     0.217 HD
ENDBRANCH  15  18
ENDBRANCH   3  12
BRANCH   3  20
HETATM   20  C   UNK N   1      30.410  17.289   6.973  0.00  0.00    -0.031 A 
HETATM   21  C   UNK N   1      31.154  17.549   8.145  0.00  0.00     0.012 A 
HETATM   22  C   UNK N   1      32.540  17.721   8.093  0.00  0.00     0.037 A 
HETATM   23  C   UNK N   1      33.209  17.638   6.871  0.00  0.00     0.065 A 
HETATM   24  C   UNK N   1      32.499  17.328   5.710  0.00  0.00     0.037 A 
HETATM   25  C   UNK N   1      31.112  17.175   5.757  0.00  0.00     0.012 A 
BRANCH  23  26
HETATM   26  O   UNK N   1      34.530  17.871   6.808  0.00  0.00    -0.361 OA
HETATM   27  H   UNK N   1      34.859  18.657   6.420  0.00  0.00     0.217 HD
ENDBRANCH  23  26
ENDBRANCH   3  20
TORSDOF 4
ENDMDL
MODEL 2
REMARK VINA RESULT:      -8.0      3.359      6.648
REMARK  4 active torsions:
REMARK  status: ('A' for Active; 'I' for Inactive)
REMARK    1  A    between atoms: O_2  and  C_23 
REMARK    2  A    between atoms: O_3  and  C_24 
REMARK    3  A    between atoms: C_5  and  C_8 
REMARK    4  A    between atoms: C_5  and  C_9 
ROOT
HETATM    1  O   UNK N   1      34.257  19.026   8.183  0.00  0.00    -0.271 OA
HETATM    2  N   UNK N   1      34.821  17.246   9.421  0.00  0.00    -0.325 N 
HETATM    3  C   UNK N   1      33.054  16.935   7.790  0.00  0.00     0.124 A 
HETATM    4  C   UNK N   1      33.384  15.675   8.595  0.00  0.00    -0.004 A 
HETATM    5  C   UNK N   1      34.094  17.854   8.469  0.00  0.00     0.244 A 
HETATM    6  C   UNK N   1      34.411  15.927   9.482  0.00  0.00     0.043 A 
HETATM    7  C   UNK N   1      32.874  14.377   8.472  0.00  0.00     0.011 A 
HETATM    8  C   UNK N   1      34.983  14.934  10.271  0.00  0.00     0.030 A 
HETATM    9  C   UNK N   1      33.434  13.350   9.258  0.00  0.00     0.001 A 
HETATM   10  C   UNK N   1      34.488  13.629  10.153  0.00  0.00     0.002 A 
HETATM   11  H   UNK N   1      35.519  17.664   9.975  0.00  0.00     0.169 HD
ENDROOT
BRANCH   3  12
HETATM   12  C   UNK N   1      33.360  16.737   6.310  0.00  0.00    -0.031 A 
HETATM   13  C   UNK N   1      33.884  15.506   5.871  0.00  0.00     0.012 A 
HETATM   14  C   UNK N   1      33.931  15.192   4.514  0.00  0.00     0.037 A 
HETATM   15  C   UNK N   1      33.424  16.090   3.577  0.00  0.00     0.065 A 
HETATM   16  C   UNK N   1      32.885  17.309   3.995  0.00  0.00     0.037 A 
HETATM   17  C   UNK N   1      32.832  17.621   5.355  0.00  0.00     0.012 A 
BRANCH  15  18
HETATM   18  O   UNK N   1      33.443  15.777   2.272  0.00  0.00    -0.361 OA
HETATM   19  H   UNK N   1      32.814  16.144   1.684  0.00  0.00     0.217 HD
ENDBRANCH  15  18
ENDBRANCH   3  12
BRANCH   3  20
HETATM   20  C   UNK N   1      31.634  17.533   7.879  0.00  0.00    -0.031 A 
HETATM   21  C   UNK N   1      31.350  18.504   8.865  0.00  0.00     0.012 A 
HETATM   22  C   UNK N   1      30.033  18.788   9.236  0.00  0.00     0.037 A 
HETATM   23  C   UNK N   1      28.974  18.109   8.630  0.00  0.00     0.065 A 
HETATM   24  C   UNK N   1      29.231  17.186   7.615  0.00  0.00     0.037 A 
HETATM   25  C   UNK N   1      30.547  16.887   7.258  0.00  0.00     0.012 A 
BRANCH  23  26
HETATM   26  O   UNK N   1      27.712  18.331   9.033  0.00  0.00    -0.361 OA
HETATM   27  H   UNK N   1      27.032  17.721   8.831  0.00  0.00     0.217 HD
ENDBRANCH  23  26
ENDBRANCH   3  20
TORSDOF 4
ENDMDL
MODEL 3
REMARK VINA RESULT:      -7.8     11.569     13.760
REMARK  4 active torsions:
REMARK  status: ('A' for Active; 'I' for Inactive)
REMARK    1  A    between atoms: O_2  and  C_23 
REMARK    2  A    between atoms: O_3  and  C_24 
REMARK    3  A    between atoms: C_5  and  C_8 
REMARK    4  A    between atoms: C_5  and  C_9 
ROOT
HETATM    1  O   UNK N   1      26.556  23.887  -2.971  0.00  0.00    -0.271 OA
HETATM    2  N   UNK N   1      26.511  25.991  -3.739  0.00  0.00    -0.325 N 
HETATM    3  C   UNK N   1      27.824  24.388  -5.000  0.00  0.00     0.124 A 
HETATM    4  C   UNK N   1      27.840  25.803  -5.587  0.00  0.00    -0.004 A 
HETATM    5  C   UNK N   1      26.905  24.707  -3.800  0.00  0.00     0.244 A 
HETATM    6  C   UNK N   1      27.054  26.647  -4.829  0.00  0.00     0.043 A 
HETATM    7  C   UNK N   1      28.431  26.273  -6.765  0.00  0.00     0.011 A 
HETATM    8  C   UNK N   1      26.807  27.967  -5.188  0.00  0.00     0.030 A 
HETATM    9  C   UNK N   1      28.197  27.607  -7.155  0.00  0.00     0.001 A 
HETATM   10  C   UNK N   1      27.385  28.450  -6.369  0.00  0.00     0.002 A 
HETATM   11  H   UNK N   1      25.939  26.391  -3.045  0.00  0.00     0.169 HD
ENDROOT
BRANCH   3  12
HETATM   12  C   UNK N   1      27.171  23.402  -5.960  0.00  0.00    -0.031 A 
HETATM   13  C   UNK N   1      25.780  23.192  -5.895  0.00  0.00     0.012 A 
HETATM   14  C   UNK N   1      25.111  22.510  -6.909  0.00  0.00     0.037 A 
HETATM   15  C   UNK N   1      25.818  22.056  -8.023  0.00  0.00     0.065 A 
HETATM   16  C   UNK N   1      27.195  22.271  -8.112  0.00  0.00     0.037 A 
HETATM   17  C   UNK N   1      27.864  22.960  -7.098  0.00  0.00     0.012 A 
BRANCH  15  18
HETATM   18  O   UNK N   1      25.170  21.424  -9.014  0.00  0.00    -0.361 OA
HETATM   19  H   UNK N   1      24.236  21.352  -9.003  0.00  0.00     0.217 HD
ENDBRANCH  15  18
ENDBRANCH   3  12
BRANCH   3  20
HETATM   20  C   UNK N   1      29.152  23.752  -4.535  0.00  0.00    -0.031 A 
HETATM   21  C   UNK N   1      29.303  22.349  -4.581  0.00  0.00     0.012 A 
HETATM   22  C   UNK N   1      30.298  21.708  -3.838  0.00  0.00     0.037 A 
HETATM   23  C   UNK N   1      31.160  22.456  -3.034  0.00  0.00     0.065 A 
HETATM   24  C   UNK N   1      31.062  23.848  -3.017  0.00  0.00     0.037 A 
HETATM   25  C   UNK N   1      30.056  24.488  -3.744  0.00  0.00     0.012 A 
BRANCH  23  26
HETATM   26  O   UNK N   1      32.072  21.837  -2.266  0.00  0.00    -0.361 OA
HETATM   27  H   UNK N   1      32.088  21.974  -1.340  0.00  0.00     0.217 HD
ENDBRANCH  23  26
ENDBRANCH   3  20
TORSDOF 4
ENDMDL
MODEL 4
REMARK VINA RESULT:      -7.6     12.199     15.133
REMARK  4 active torsions:
REMARK  status: ('A' for Active; 'I' for Inactive)
REMARK    1  A    between atoms: O_2  and  C_23 
REMARK    2  A    between atoms: O_3  and  C_24 
REMARK    3  A    between atoms: C_5  and  C_8 
REMARK    4  A    between atoms: C_5  and  C_9 
ROOT
HETATM    1  O   UNK N   1      29.383  25.298  -7.558  0.00  0.00    -0.271 OA
HETATM    2  N   UNK N   1      28.535  27.224  -6.789  0.00  0.00    -0.325 N 
HETATM    3  C   UNK N   1      27.630  25.175  -5.858  0.00  0.00     0.124 A 
HETATM    4  C   UNK N   1      27.003  26.449  -5.283  0.00  0.00    -0.004 A 
HETATM    5  C   UNK N   1      28.607  25.882  -6.824  0.00  0.00     0.244 A 
HETATM    6  C   UNK N   1      27.585  27.567  -5.844  0.00  0.00     0.043 A 
HETATM    7  C   UNK N   1      26.057  26.595  -4.262  0.00  0.00     0.011 A 
HETATM    8  C   UNK N   1      27.279  28.860  -5.433  0.00  0.00     0.030 A 
HETATM    9  C   UNK N   1      25.726  27.893  -3.824  0.00  0.00     0.001 A 
HETATM   10  C   UNK N   1      26.338  29.022  -4.407  0.00  0.00     0.002 A 
HETATM   11  H   UNK N   1      29.062  27.848  -7.338  0.00  0.00     0.169 HD
ENDROOT
BRANCH   3  12
HETATM   12  C   UNK N   1      28.372  24.393  -4.781  0.00  0.00    -0.031 A 
HETATM   13  C   UNK N   1      29.779  24.444  -4.737  0.00  0.00     0.012 A 
HETATM   14  C   UNK N   1      30.477  23.966  -3.629  0.00  0.00     0.037 A 
HETATM   15  C   UNK N   1      29.777  23.462  -2.533  0.00  0.00     0.065 A 
HETATM   16  C   UNK N   1      28.381  23.420  -2.553  0.00  0.00     0.037 A 
HETATM   17  C   UNK N   1      27.682  23.904  -3.661  0.00  0.00     0.012 A 
BRANCH  15  18
HETATM   18  O   UNK N   1      30.447  23.028  -1.454  0.00  0.00    -0.361 OA
HETATM   19  H   UNK N   1      30.562  22.111  -1.301  0.00  0.00     0.217 HD
ENDBRANCH  15  18
ENDBRANCH   3  12
BRANCH   3  20
HETATM   20  C   UNK N   1      26.732  24.168  -6.608  0.00  0.00    -0.031 A 
HETATM   21  C   UNK N   1      27.112  22.809  -6.667  0.00  0.00     0.012 A 
HETATM   22  C   UNK N   1      26.565  21.951  -7.625  0.00  0.00     0.037 A 
HETATM   23  C   UNK N   1      25.629  22.433  -8.542  0.00  0.00     0.065 A 
HETATM   24  C   UNK N   1      25.200  23.758  -8.465  0.00  0.00     0.037 A 
HETATM   25  C   UNK N   1      25.760  24.622  -7.521  0.00  0.00     0.012 A 
BRANCH  23  26
HETATM   26  O   UNK N   1      25.153  21.628  -9.506  0.00  0.00    -0.361 OA
HETATM   27  H   UNK N   1      24.237  21.600  -9.696  0.00  0.00     0.217 HD
ENDBRANCH  23  26
ENDBRANCH   3  20
TORSDOF 4
ENDMDL
MODEL 5
REMARK VINA RESULT:      -7.6     10.487     13.554
REMARK  4 active torsions:
REMARK  status: ('A' for Active; 'I' for Inactive)
REMARK    1  A    between atoms: O_2  and  C_23 
REMARK    2  A    between atoms: O_3  and  C_24 
REMARK    3  A    between atoms: C_5  and  C_8 
REMARK    4  A    between atoms: C_5  and  C_9 
ROOT
HETATM    1  O   UNK N   1      33.323  10.834  14.825  0.00  0.00    -0.271 OA
HETATM    2  N   UNK N   1      34.880   9.299  14.337  0.00  0.00    -0.325 N 
HETATM    3  C   UNK N   1      35.670  11.492  15.008  0.00  0.00     0.124 A 
HETATM    4  C   UNK N   1      36.792  10.497  14.693  0.00  0.00    -0.004 A 
HETATM    5  C   UNK N   1      34.497  10.529  14.721  0.00  0.00     0.244 A 
HETATM    6  C   UNK N   1      36.263   9.272  14.343  0.00  0.00     0.043 A 
HETATM    7  C   UNK N   1      38.178  10.650  14.809  0.00  0.00     0.011 A 
HETATM    8  C   UNK N   1      37.054   8.153  14.102  0.00  0.00     0.030 A 
HETATM    9  C   UNK N   1      39.005   9.534  14.572  0.00  0.00     0.001 A 
HETATM   10  C   UNK N   1      38.444   8.289  14.222  0.00  0.00     0.002 A 
HETATM   11  H   UNK N   1      34.285   8.554  14.096  0.00  0.00     0.169 HD
ENDROOT
BRANCH   3  12
HETATM   12  C   UNK N   1      35.705  11.913  16.472  0.00  0.00    -0.031 A 
HETATM   13  C   UNK N   1      35.318  13.222  16.823  0.00  0.00     0.012 A 
HETATM   14  C   UNK N   1      35.085  13.565  18.154  0.00  0.00     0.037 A 
HETATM   15  C   UNK N   1      35.200  12.597  19.150  0.00  0.00     0.065 A 
HETATM   16  C   UNK N   1      35.566  11.290  18.818  0.00  0.00     0.037 A 
HETATM   17  C   UNK N   1      35.794  10.945  17.484  0.00  0.00     0.012 A 
BRANCH  15  18
HETATM   18  O   UNK N   1      34.948  12.919  20.429  0.00  0.00    -0.361 OA
HETATM   19  H   UNK N   1      35.620  13.283  20.970  0.00  0.00     0.217 HD
ENDBRANCH  15  18
ENDBRANCH   3  12
BRANCH   3  20
HETATM   20  C   UNK N   1      35.553  12.783  14.170  0.00  0.00    -0.031 A 
HETATM   21  C   UNK N   1      34.972  12.727  12.885  0.00  0.00     0.012 A 
HETATM   22  C   UNK N   1      35.182  13.750  11.955  0.00  0.00     0.037 A 
HETATM   23  C   UNK N   1      35.977  14.846  12.291  0.00  0.00     0.065 A 
HETATM   24  C   UNK N   1      36.515  14.947  13.575  0.00  0.00     0.037 A 
HETATM   25  C   UNK N   1      36.322  13.917  14.498  0.00  0.00     0.012 A 
BRANCH  23  26
HETATM   26  O   UNK N   1      36.237  15.796  11.377  0.00  0.00    -0.361 OA
HETATM   27  H   UNK N   1      36.341  16.690  11.634  0.00  0.00     0.217 HD
ENDBRANCH  23  26
ENDBRANCH   3  20
TORSDOF 4
ENDMDL
MODEL 6
REMARK VINA RESULT:      -7.5      2.597      5.900
REMARK  4 active torsions:
REMARK  status: ('A' for Active; 'I' for Inactive)
REMARK    1  A    between atoms: O_2  and  C_23 
REMARK    2  A    between atoms: O_3  and  C_24 
REMARK    3  A    between atoms: C_5  and  C_8 
REMARK    4  A    between atoms: C_5  and  C_9 
ROOT
HETATM    1  O   UNK N   1      27.426  14.960   5.491  0.00  0.00    -0.271 OA
HETATM    2  N   UNK N   1      29.340  14.735   4.347  0.00  0.00    -0.325 N 
HETATM    3  C   UNK N   1      28.900  16.905   5.340  0.00  0.00     0.124 A 
HETATM    4  C   UNK N   1      30.226  16.828   4.576  0.00  0.00    -0.004 A 
HETATM    5  C   UNK N   1      28.464  15.445   5.079  0.00  0.00     0.244 A 
HETATM    6  C   UNK N   1      30.412  15.560   4.064  0.00  0.00     0.043 A 
HETATM    7  C   UNK N   1      31.233  17.790   4.440  0.00  0.00     0.011 A 
HETATM    8  C   UNK N   1      31.580  15.179   3.410  0.00  0.00     0.030 A 
HETATM    9  C   UNK N   1      32.427  17.432   3.782  0.00  0.00     0.001 A 
HETATM   10  C   UNK N   1      32.600  16.129   3.272  0.00  0.00     0.002 A 
HETATM   11  H   UNK N   1      29.235  13.799   4.064  0.00  0.00     0.169 HD
ENDROOT
BRANCH   3  12
HETATM   12  C   UNK N   1      29.133  17.165   6.823  0.00  0.00    -0.031 A 
HETATM   13  C   UNK N   1      30.441  17.411   7.283  0.00  0.00     0.012 A 
HETATM   14  C   UNK N   1      30.666  17.907   8.566  0.00  0.00     0.037 A 
HETATM   15  C   UNK N   1      29.584  18.197   9.397  0.00  0.00     0.065 A 
HETATM   16  C   UNK N   1      28.280  17.975   8.950  0.00  0.00     0.037 A 
HETATM   17  C   UNK N   1      28.054  17.484   7.663  0.00  0.00     0.012 A 
BRANCH  15  18
HETATM   18  O   UNK N   1      29.799  18.702  10.622  0.00  0.00    -0.361 OA
HETATM   19  H   UNK N   1      30.252  19.514  10.730  0.00  0.00     0.217 HD
ENDBRANCH  15  18
ENDBRANCH   3  12
BRANCH   3  20
HETATM   20  C   UNK N   1      27.820  17.904   4.872  0.00  0.00    -0.031 A 
HETATM   21  C   UNK N   1      26.696  17.429   4.160  0.00  0.00     0.012 A 
HETATM   22  C   UNK N   1      25.908  18.297   3.399  0.00  0.00     0.037 A 
HETATM   23  C   UNK N   1      26.227  19.654   3.334  0.00  0.00     0.065 A 
HETATM   24  C   UNK N   1      27.300  20.152   4.074  0.00  0.00     0.037 A 
HETATM   25  C   UNK N   1      28.101  19.283   4.818  0.00  0.00     0.012 A 
BRANCH  23  26
HETATM   26  O   UNK N   1      25.512  20.477   2.549  0.00  0.00    -0.361 OA
HETATM   27  H   UNK N   1      25.323  21.352   2.823  0.00  0.00     0.217 HD
ENDBRANCH  23  26
ENDBRANCH   3  20
TORSDOF 4
ENDMDL
MODEL 7
REMARK VINA RESULT:      -7.4     12.265     15.022
REMARK  4 active torsions:
REMARK  status: ('A' for Active; 'I' for Inactive)
REMARK    1  A    between atoms: O_2  and  C_23 
REMARK    2  A    between atoms: O_3  and  C_24 
REMARK    3  A    between atoms: C_5  and  C_8 
REMARK    4  A    between atoms: C_5  and  C_9 
ROOT
HETATM    1  O   UNK N   1      29.474  26.152  -7.040  0.00  0.00    -0.271 OA
HETATM    2  N   UNK N   1      30.321  25.040  -5.289  0.00  0.00    -0.325 N 
HETATM    3  C   UNK N   1      27.916  25.349  -5.335  0.00  0.00     0.124 A 
HETATM    4  C   UNK N   1      28.420  24.579  -4.111  0.00  0.00    -0.004 A 
HETATM    5  C   UNK N   1      29.300  25.564  -5.988  0.00  0.00     0.244 A 
HETATM    6  C   UNK N   1      29.790  24.425  -4.170  0.00  0.00     0.043 A 
HETATM    7  C   UNK N   1      27.696  23.975  -3.077  0.00  0.00     0.011 A 
HETATM    8  C   UNK N   1      30.503  23.678  -3.238  0.00  0.00     0.030 A 
HETATM    9  C   UNK N   1      28.391  23.211  -2.118  0.00  0.00     0.001 A 
HETATM   10  C   UNK N   1      29.791  23.061  -2.201  0.00  0.00     0.002 A 
HETATM   11  H   UNK N   1      31.274  25.086  -5.530  0.00  0.00     0.169 HD
ENDROOT
BRANCH   3  12
HETATM   12  C   UNK N   1      27.016  24.476  -6.202  0.00  0.00    -0.031 A 
HETATM   13  C   UNK N   1      26.149  25.085  -7.130  0.00  0.00     0.012 A 
HETATM   14  C   UNK N   1      25.511  24.331  -8.113  0.00  0.00     0.037 A 
HETATM   15  C   UNK N   1      25.756  22.962  -8.205  0.00  0.00     0.065 A 
HETATM   16  C   UNK N   1      26.626  22.344  -7.303  0.00  0.00     0.037 A 
HETATM   17  C   UNK N   1      27.271  23.100  -6.322  0.00  0.00     0.012 A 
BRANCH  15  18
HETATM   18  O   UNK N   1      25.163  22.240  -9.169  0.00  0.00    -0.361 OA
HETATM   19  H   UNK N   1      24.801  22.659  -9.924  0.00  0.00     0.217 HD
ENDBRANCH  15  18
ENDBRANCH   3  12
BRANCH   3  20
HETATM   20  C   UNK N   1      27.179  26.690  -5.129  0.00  0.00    -0.031 A 
HETATM   21  C   UNK N   1      27.799  27.892  -5.532  0.00  0.00     0.012 A 
HETATM   22  C   UNK N   1      27.367  29.126  -5.037  0.00  0.00     0.037 A 
HETATM   23  C   UNK N   1      26.308  29.182  -4.130  0.00  0.00     0.065 A 
HETATM   24  C   UNK N   1      25.646  28.009  -3.761  0.00  0.00     0.037 A 
HETATM   25  C   UNK N   1      26.090  26.775  -4.240  0.00  0.00     0.012 A 
BRANCH  23  26
HETATM   26  O   UNK N   1      25.935  30.358  -3.600  0.00  0.00    -0.361 OA
HETATM   27  H   UNK N   1      26.396  30.721  -2.870  0.00  0.00     0.217 HD
ENDBRANCH  23  26
ENDBRANCH   3  20
TORSDOF 4
ENDMDL
MODEL 8
REMARK VINA RESULT:      -7.4     11.876     14.548
REMARK  4 active torsions:
REMARK  status: ('A' for Active; 'I' for Inactive)
REMARK    1  A    between atoms: O_2  and  C_23 
REMARK    2  A    between atoms: O_3  and  C_24 
REMARK    3  A    between atoms: C_5  and  C_8 
REMARK    4  A    between atoms: C_5  and  C_9 
ROOT
HETATM    1  O   UNK N   1      26.193  25.404  -3.411  0.00  0.00    -0.271 OA
HETATM    2  N   UNK N   1      25.598  23.952  -5.010  0.00  0.00    -0.325 N 
HETATM    3  C   UNK N   1      27.859  24.824  -5.103  0.00  0.00     0.124 A 
HETATM    4  C   UNK N   1      27.527  23.837  -6.227  0.00  0.00    -0.004 A 
HETATM    5  C   UNK N   1      26.479  24.771  -4.411  0.00  0.00     0.244 A 
HETATM    6  C   UNK N   1      26.235  23.371  -6.091  0.00  0.00     0.043 A 
HETATM    7  C   UNK N   1      28.351  23.320  -7.233  0.00  0.00     0.011 A 
HETATM    8  C   UNK N   1      25.701  22.386  -6.915  0.00  0.00     0.030 A 
HETATM    9  C   UNK N   1      27.837  22.320  -8.083  0.00  0.00     0.001 A 
HETATM   10  C   UNK N   1      26.517  21.854  -7.923  0.00  0.00     0.002 A 
HETATM   11  H   UNK N   1      24.667  23.796  -4.731  0.00  0.00     0.169 HD
ENDROOT
BRANCH   3  12
HETATM   12  C   UNK N   1      28.961  24.280  -4.202  0.00  0.00    -0.031 A 
HETATM   13  C   UNK N   1      28.612  23.576  -3.032  0.00  0.00     0.012 A 
HETATM   14  C   UNK N   1      29.566  22.844  -2.327  0.00  0.00     0.037 A 
HETATM   15  C   UNK N   1      30.876  22.776  -2.799  0.00  0.00     0.065 A 
HETATM   16  C   UNK N   1      31.235  23.453  -3.967  0.00  0.00     0.037 A 
HETATM   17  C   UNK N   1      30.279  24.182  -4.677  0.00  0.00     0.012 A 
BRANCH  15  18
HETATM   18  O   UNK N   1      31.788  22.048  -2.136  0.00  0.00    -0.361 OA
HETATM   19  H   UNK N   1      32.120  21.252  -2.502  0.00  0.00     0.217 HD
ENDBRANCH  15  18
ENDBRANCH   3  12
BRANCH   3  20
HETATM   20  C   UNK N   1      28.249  26.273  -5.466  0.00  0.00    -0.031 A 
HETATM   21  C   UNK N   1      28.839  27.099  -4.486  0.00  0.00     0.012 A 
HETATM   22  C   UNK N   1      28.857  28.489  -4.633  0.00  0.00     0.037 A 
HETATM   23  C   UNK N   1      28.286  29.080  -5.761  0.00  0.00     0.065 A 
HETATM   24  C   UNK N   1      27.746  28.277  -6.767  0.00  0.00     0.037 A 
HETATM   25  C   UNK N   1      27.710  26.890  -6.612  0.00  0.00     0.012 A 
BRANCH  23  26
HETATM   26  O   UNK N   1      28.240  30.417  -5.872  0.00  0.00    -0.361 OA
HETATM   27  H   UNK N   1      27.638  30.828  -6.459  0.00  0.00     0.217 HD
ENDBRANCH  23  26
ENDBRANCH   3  20
TORSDOF 4
ENDMDL
MODEL 9
REMARK VINA RESULT:      -7.3      1.886      5.352
REMARK  4 active torsions:
REMARK  status: ('A' for Active; 'I' for Inactive)
REMARK    1  A    between atoms: O_2  and  C_23 
REMARK    2  A    between atoms: O_3  and  C_24 
REMARK    3  A    between atoms: C_5  and  C_8 
REMARK    4  A    between atoms: C_5  and  C_9 
ROOT
HETATM    1  O   UNK N   1      28.603  16.689   2.885  0.00  0.00    -0.271 OA
HETATM    2  N   UNK N   1      27.783  18.666   3.547  0.00  0.00    -0.325 N 
HETATM    3  C   UNK N   1      28.646  17.199   5.276  0.00  0.00     0.124 A 
HETATM    4  C   UNK N   1      28.104  18.531   5.804  0.00  0.00    -0.004 A 
HETATM    5  C   UNK N   1      28.351  17.471   3.783  0.00  0.00     0.244 A 
HETATM    6  C   UNK N   1      27.655  19.315   4.762  0.00  0.00     0.043 A 
HETATM    7  C   UNK N   1      28.109  19.041   7.108  0.00  0.00     0.011 A 
HETATM    8  C   UNK N   1      27.204  20.618   4.942  0.00  0.00     0.030 A 
HETATM    9  C   UNK N   1      27.657  20.359   7.321  0.00  0.00     0.001 A 
HETATM   10  C   UNK N   1      27.208  21.145   6.241  0.00  0.00     0.002 A 
HETATM   11  H   UNK N   1      27.507  19.015   2.669  0.00  0.00     0.169 HD
ENDROOT
BRANCH   3  12
HETATM   12  C   UNK N   1      30.141  17.070   5.538  0.00  0.00    -0.031 A 
HETATM   13  C   UNK N   1      31.053  17.409   4.520  0.00  0.00     0.012 A 
HETATM   14  C   UNK N   1      32.411  17.557   4.797  0.00  0.00     0.037 A 
HETATM   15  C   UNK N   1      32.874  17.402   6.103  0.00  0.00     0.065 A 
HETATM   16  C   UNK N   1      31.981  17.082   7.128  0.00  0.00     0.037 A 
HETATM   17  C   UNK N   1      30.619  16.940   6.852  0.00  0.00     0.012 A 
BRANCH  15  18
HETATM   18  O   UNK N   1      34.177  17.572   6.375  0.00  0.00    -0.361 OA
HETATM   19  H   UNK N   1      34.790  17.741   5.687  0.00  0.00     0.217 HD
ENDBRANCH  15  18
ENDBRANCH   3  12
BRANCH   3  20
HETATM   20  C   UNK N   1      27.991  15.882   5.745  0.00  0.00    -0.031 A 
HETATM   21  C   UNK N   1      28.333  14.670   5.105  0.00  0.00     0.012 A 
HETATM   22  C   UNK N   1      27.516  13.542   5.219  0.00  0.00     0.037 A 
HETATM   23  C   UNK N   1      26.342  13.602   5.972  0.00  0.00     0.065 A 
HETATM   24  C   UNK N   1      26.015  14.774   6.656  0.00  0.00     0.037 A 
HETATM   25  C   UNK N   1      26.820  15.908   6.528  0.00  0.00     0.012 A 
BRANCH  23  26
HETATM   26  O   UNK N   1      25.521  12.541   6.027  0.00  0.00    -0.361 OA
HETATM   27  H   UNK N   1      24.602  12.641   5.882  0.00  0.00     0.217 HD
ENDBRANCH  23  26
ENDBRANCH   3  20
TORSDOF 4
ENDMDL
