REMARK  4 active torsions:
REMARK  status: ('A' for Active; 'I' for Inactive)
REMARK    1  A    between atoms: O_3  and  C_23 
REMARK    2  A    between atoms: O_4  and  C_24 
REMARK    3  A    between atoms: C_5  and  C_7 
REMARK    4  A    between atoms: C_5  and  C_8 
ROOT
HETATM    1  O   UNK N   1       4.008  -1.323  -1.636  0.00  0.00    -0.291 OA
HETATM    2  O   UNK N   1       3.236  -3.170  -2.702  0.00  0.00    -0.259 OA
HETATM    3  C   UNK N   1       3.853  -0.691  -0.393  0.00  0.00     0.153 A 
HETATM    4  C   UNK N   1       2.843  -1.600   0.302  0.00  0.00     0.002 A 
HETATM    5  C   UNK N   1       2.504  -2.629  -0.528  0.00  0.00     0.049 A 
HETATM    6  C   UNK N   1       3.253  -2.440  -1.727  0.00  0.00     0.295 A 
HETATM    7  C   UNK N   1       2.270  -1.493   1.573  0.00  0.00     0.012 A 
HETATM    8  C   UNK N   1       1.587  -3.614  -0.170  0.00  0.00     0.018 A 
HETATM    9  C   UNK N   1       1.334  -2.468   1.970  0.00  0.00     0.001 A 
HETATM   10  C   UNK N   1       0.994  -3.525   1.100  0.00  0.00     0.001 A 
ENDROOT
BRANCH   3  11
HETATM   11  C   UNK N   1       5.214  -0.664   0.296  0.00  0.00    -0.014 A 
HETATM   12  C   UNK N   1       5.907  -1.863   0.530  0.00  0.00     0.013 A 
HETATM   13  C   UNK N   1       7.197  -1.843   1.072  0.00  0.00     0.037 A 
HETATM   14  C   UNK N   1       7.812  -0.625   1.376  0.00  0.00     0.065 A 
HETATM   15  C   UNK N   1       7.132   0.573   1.155  0.00  0.00     0.037 A 
HETATM   16  C   UNK N   1       5.845   0.554   0.617  0.00  0.00     0.013 A 
BRANCH  14  17
HETATM   17  O   UNK N   1       9.058  -0.605   1.874  0.00  0.00    -0.361 OA
HETATM   18  H   UNK N   1       9.505  -1.351   2.222  0.00  0.00     0.217 HD
ENDBRANCH  14  17
ENDBRANCH   3  11
BRANCH   3  19
HETATM   19  C   UNK N   1       3.280   0.709  -0.567  0.00  0.00    -0.014 A 
HETATM   20  C   UNK N   1       3.134   1.271  -1.845  0.00  0.00     0.013 A 
HETATM   21  C   UNK N   1       2.674   2.583  -1.991  0.00  0.00     0.037 A 
HETATM   22  C   UNK N   1       2.353   3.343  -0.862  0.00  0.00     0.065 A 
HETATM   23  C   UNK N   1       2.481   2.789   0.413  0.00  0.00     0.037 A 
HETATM   24  C   UNK N   1       2.944   1.480   0.561  0.00  0.00     0.013 A 
BRANCH  22  25
HETATM   25  O   UNK N   1       1.926   4.608  -1.004  0.00  0.00    -0.361 OA
HETATM   26  H   UNK N   1       2.541   5.307  -1.102  0.00  0.00     0.217 HD
ENDBRANCH  22  25
ENDBRANCH   3  19
TORSDOF 4
