MODEL 1
REMARK VINA RESULT:      -8.7      0.000      0.000
REMARK  4 active torsions:
REMARK  status: ('A' for Active; 'I' for Inactive)
REMARK    1  A    between atoms: O_3  and  C_23 
REMARK    2  A    between atoms: O_4  and  C_24 
REMARK    3  A    between atoms: C_5  and  C_7 
REMARK    4  A    between atoms: C_5  and  C_8 
ROOT
HETATM    1  O   UNK N   1      33.493  18.409   7.486  0.00  0.00    -0.291 OA
HETATM    2  O   UNK N   1      35.310  19.226   8.570  0.00  0.00    -0.259 OA
HETATM    3  C   UNK N   1      32.718  17.240   7.479  0.00  0.00     0.153 A 
HETATM    4  C   UNK N   1      33.435  16.376   8.512  0.00  0.00     0.002 A 
HETATM    5  C   UNK N   1      34.505  17.057   9.017  0.00  0.00     0.049 A 
HETATM    6  C   UNK N   1      34.513  18.327   8.369  0.00  0.00     0.295 A 
HETATM    7  C   UNK N   1      33.149  15.078   8.946  0.00  0.00     0.012 A 
HETATM    8  C   UNK N   1      35.360  16.514   9.972  0.00  0.00     0.018 A 
HETATM    9  C   UNK N   1      33.994  14.492   9.909  0.00  0.00     0.001 A 
HETATM   10  C   UNK N   1      35.096  15.209  10.420  0.00  0.00     0.001 A 
ENDROOT
BRANCH   3  11
HETATM   11  C   UNK N   1      31.296  17.614   7.887  0.00  0.00    -0.014 A 
HETATM   12  C   UNK N   1      30.200  17.048   7.215  0.00  0.00     0.013 A 
HETATM   13  C   UNK N   1      28.894  17.307   7.644  0.00  0.00     0.037 A 
HETATM   14  C   UNK N   1      28.669  18.126   8.755  0.00  0.00     0.065 A 
HETATM   15  C   UNK N   1      29.748  18.700   9.427  0.00  0.00     0.037 A 
HETATM   16  C   UNK N   1      31.051  18.444   8.998  0.00  0.00     0.013 A 
BRANCH  14  17
HETATM   17  O   UNK N   1      27.417  18.356   9.180  0.00  0.00    -0.361 OA
HETATM   18  H   UNK N   1      26.646  18.005   8.781  0.00  0.00     0.217 HD
ENDBRANCH  14  17
ENDBRANCH   3  11
BRANCH   3  19
HETATM   19  C   UNK N   1      32.756  16.576   6.109  0.00  0.00    -0.014 A 
HETATM   20  C   UNK N   1      32.773  15.178   5.990  0.00  0.00     0.013 A 
HETATM   21  C   UNK N   1      32.880  14.577   4.731  0.00  0.00     0.037 A 
HETATM   22  C   UNK N   1      32.967  15.369   3.582  0.00  0.00     0.065 A 
HETATM   23  C   UNK N   1      32.937  16.761   3.689  0.00  0.00     0.037 A 
HETATM   24  C   UNK N   1      32.834  17.362   4.945  0.00  0.00     0.013 A 
BRANCH  22  25
HETATM   25  O   UNK N   1      33.085  14.791   2.376  0.00  0.00    -0.361 OA
HETATM   26  H   UNK N   1      32.646  15.153   1.633  0.00  0.00     0.217 HD
ENDBRANCH  22  25
ENDBRANCH   3  19
TORSDOF 4
ENDMDL
MODEL 2
REMARK VINA RESULT:      -8.0      1.653      4.985
REMARK  4 active torsions:
REMARK  status: ('A' for Active; 'I' for Inactive)
REMARK    1  A    between atoms: O_3  and  C_23 
REMARK    2  A    between atoms: O_4  and  C_24 
REMARK    3  A    between atoms: C_5  and  C_7 
REMARK    4  A    between atoms: C_5  and  C_8 
ROOT
HETATM    1  O   UNK N   1      31.253  14.883   7.109  0.00  0.00    -0.291 OA
HETATM    2  O   UNK N   1      31.170  13.112   5.694  0.00  0.00    -0.259 OA
HETATM    3  C   UNK N   1      31.607  16.239   7.066  0.00  0.00     0.153 A 
HETATM    4  C   UNK N   1      32.062  16.404   5.619  0.00  0.00     0.002 A 
HETATM    5  C   UNK N   1      31.948  15.213   4.963  0.00  0.00     0.049 A 
HETATM    6  C   UNK N   1      31.430  14.282   5.911  0.00  0.00     0.295 A 
HETATM    7  C   UNK N   1      32.552  17.535   4.959  0.00  0.00     0.012 A 
HETATM    8  C   UNK N   1      32.304  15.052   3.626  0.00  0.00     0.018 A 
HETATM    9  C   UNK N   1      32.927  17.412   3.606  0.00  0.00     0.001 A 
HETATM   10  C   UNK N   1      32.803  16.173   2.943  0.00  0.00     0.001 A 
ENDROOT
BRANCH   3  11
HETATM   11  C   UNK N   1      30.368  17.062   7.406  0.00  0.00    -0.014 A 
HETATM   12  C   UNK N   1      30.205  17.584   8.700  0.00  0.00     0.013 A 
HETATM   13  C   UNK N   1      29.122  18.420   8.996  0.00  0.00     0.037 A 
HETATM   14  C   UNK N   1      28.198  18.752   8.001  0.00  0.00     0.065 A 
HETATM   15  C   UNK N   1      28.345  18.234   6.714  0.00  0.00     0.037 A 
HETATM   16  C   UNK N   1      29.422  17.399   6.418  0.00  0.00     0.013 A 
BRANCH  14  17
HETATM   17  O   UNK N   1      27.173  19.572   8.280  0.00  0.00    -0.361 OA
HETATM   18  H   UNK N   1      27.197  20.257   8.918  0.00  0.00     0.217 HD
ENDBRANCH  14  17
ENDBRANCH   3  11
BRANCH   3  19
HETATM   19  C   UNK N   1      32.757  16.527   8.023  0.00  0.00    -0.014 A 
HETATM   20  C   UNK N   1      33.499  17.714   7.916  0.00  0.00     0.013 A 
HETATM   21  C   UNK N   1      34.597  17.937   8.753  0.00  0.00     0.037 A 
HETATM   22  C   UNK N   1      34.960  16.979   9.704  0.00  0.00     0.065 A 
HETATM   23  C   UNK N   1      34.220  15.802   9.828  0.00  0.00     0.037 A 
HETATM   24  C   UNK N   1      33.125  15.575   8.991  0.00  0.00     0.013 A 
BRANCH  22  25
HETATM   25  O   UNK N   1      36.024  17.189  10.496  0.00  0.00    -0.361 OA
HETATM   26  H   UNK N   1      35.923  17.223  11.426  0.00  0.00     0.217 HD
ENDBRANCH  22  25
ENDBRANCH   3  19
TORSDOF 4
ENDMDL
MODEL 3
REMARK VINA RESULT:      -7.8     14.039     16.745
REMARK  4 active torsions:
REMARK  status: ('A' for Active; 'I' for Inactive)
REMARK    1  A    between atoms: O_3  and  C_23 
REMARK    2  A    between atoms: O_4  and  C_24 
REMARK    3  A    between atoms: C_5  and  C_7 
REMARK    4  A    between atoms: C_5  and  C_8 
ROOT
HETATM    1  O   UNK N   1      26.069  25.952  -4.026  0.00  0.00    -0.291 OA
HETATM    2  O   UNK N   1      25.235  27.913  -3.249  0.00  0.00    -0.259 OA
HETATM    3  C   UNK N   1      27.056  25.518  -4.924  0.00  0.00     0.153 A 
HETATM    4  C   UNK N   1      27.605  26.839  -5.456  0.00  0.00     0.002 A 
HETATM    5  C   UNK N   1      26.945  27.880  -4.869  0.00  0.00     0.049 A 
HETATM    6  C   UNK N   1      26.000  27.301  -3.973  0.00  0.00     0.295 A 
HETATM    7  C   UNK N   1      28.607  27.075  -6.402  0.00  0.00     0.012 A 
HETATM    8  C   UNK N   1      27.222  29.212  -5.170  0.00  0.00     0.018 A 
HETATM    9  C   UNK N   1      28.913  28.409  -6.736  0.00  0.00     0.001 A 
HETATM   10  C   UNK N   1      28.221  29.473  -6.122  0.00  0.00     0.001 A 
ENDROOT
BRANCH   3  11
HETATM   11  C   UNK N   1      28.085  24.710  -4.140  0.00  0.00    -0.014 A 
HETATM   12  C   UNK N   1      29.444  24.771  -4.492  0.00  0.00     0.013 A 
HETATM   13  C   UNK N   1      30.407  24.112  -3.720  0.00  0.00     0.037 A 
HETATM   14  C   UNK N   1      30.025  23.393  -2.584  0.00  0.00     0.065 A 
HETATM   15  C   UNK N   1      28.679  23.318  -2.227  0.00  0.00     0.037 A 
HETATM   16  C   UNK N   1      27.717  23.973  -2.997  0.00  0.00     0.013 A 
BRANCH  14  17
HETATM   17  O   UNK N   1      30.952  22.780  -1.831  0.00  0.00    -0.361 OA
HETATM   18  H   UNK N   1      31.873  22.799  -1.999  0.00  0.00     0.217 HD
ENDBRANCH  14  17
ENDBRANCH   3  11
BRANCH   3  19
HETATM   19  C   UNK N   1      26.439  24.704  -6.052  0.00  0.00    -0.014 A 
HETATM   20  C   UNK N   1      26.229  23.323  -5.909  0.00  0.00     0.013 A 
HETATM   21  C   UNK N   1      25.727  22.571  -6.976  0.00  0.00     0.037 A 
HETATM   22  C   UNK N   1      25.428  23.192  -8.192  0.00  0.00     0.065 A 
HETATM   23  C   UNK N   1      25.620  24.567  -8.341  0.00  0.00     0.037 A 
HETATM   24  C   UNK N   1      26.124  25.319  -7.278  0.00  0.00     0.013 A 
BRANCH  22  25
HETATM   25  O   UNK N   1      24.962  22.465  -9.220  0.00  0.00    -0.361 OA
HETATM   26  H   UNK N   1      25.554  22.071  -9.829  0.00  0.00     0.217 HD
ENDBRANCH  22  25
ENDBRANCH   3  19
TORSDOF 4
ENDMDL
MODEL 4
REMARK VINA RESULT:      -7.5     13.991     16.855
REMARK  4 active torsions:
REMARK  status: ('A' for Active; 'I' for Inactive)
REMARK    1  A    between atoms: O_3  and  C_23 
REMARK    2  A    between atoms: O_4  and  C_24 
REMARK    3  A    between atoms: C_5  and  C_7 
REMARK    4  A    between atoms: C_5  and  C_8 
ROOT
HETATM    1  O   UNK N   1      28.782  26.037  -6.614  0.00  0.00    -0.291 OA
HETATM    2  O   UNK N   1      29.267  28.140  -7.311  0.00  0.00    -0.259 OA
HETATM    3  C   UNK N   1      27.901  25.408  -5.721  0.00  0.00     0.153 A 
HETATM    4  C   UNK N   1      27.157  26.597  -5.118  0.00  0.00     0.002 A 
HETATM    5  C   UNK N   1      27.624  27.756  -5.665  0.00  0.00     0.049 A 
HETATM    6  C   UNK N   1      28.630  27.380  -6.604  0.00  0.00     0.295 A 
HETATM    7  C   UNK N   1      26.153  26.623  -4.145  0.00  0.00     0.012 A 
HETATM    8  C   UNK N   1      27.142  29.010  -5.297  0.00  0.00     0.018 A 
HETATM    9  C   UNK N   1      25.643  27.873  -3.743  0.00  0.00     0.001 A 
HETATM   10  C   UNK N   1      26.137  29.062  -4.318  0.00  0.00     0.001 A 
ENDROOT
BRANCH   3  11
HETATM   11  C   UNK N   1      26.998  24.477  -6.526  0.00  0.00    -0.014 A 
HETATM   12  C   UNK N   1      26.099  25.009  -7.465  0.00  0.00     0.013 A 
HETATM   13  C   UNK N   1      25.337  24.161  -8.277  0.00  0.00     0.037 A 
HETATM   14  C   UNK N   1      25.473  22.774  -8.166  0.00  0.00     0.065 A 
HETATM   15  C   UNK N   1      26.358  22.233  -7.233  0.00  0.00     0.037 A 
HETATM   16  C   UNK N   1      27.116  23.077  -6.421  0.00  0.00     0.013 A 
BRANCH  14  17
HETATM   17  O   UNK N   1      24.760  21.962  -8.961  0.00  0.00    -0.361 OA
HETATM   18  H   UNK N   1      24.052  21.420  -8.672  0.00  0.00     0.217 HD
ENDBRANCH  14  17
ENDBRANCH   3  11
BRANCH   3  19
HETATM   19  C   UNK N   1      28.670  24.657  -4.643  0.00  0.00    -0.014 A 
HETATM   20  C   UNK N   1      27.994  24.033  -3.582  0.00  0.00     0.013 A 
HETATM   21  C   UNK N   1      28.712  23.407  -2.559  0.00  0.00     0.037 A 
HETATM   22  C   UNK N   1      30.110  23.395  -2.589  0.00  0.00     0.065 A 
HETATM   23  C   UNK N   1      30.792  24.000  -3.647  0.00  0.00     0.037 A 
HETATM   24  C   UNK N   1      30.076  24.630  -4.668  0.00  0.00     0.013 A 
BRANCH  22  25
HETATM   25  O   UNK N   1      30.798  22.806  -1.598  0.00  0.00    -0.361 OA
HETATM   26  H   UNK N   1      30.379  22.188  -1.033  0.00  0.00     0.217 HD
ENDBRANCH  22  25
ENDBRANCH   3  19
TORSDOF 4
ENDMDL
MODEL 5
REMARK VINA RESULT:      -7.4      6.628     10.493
REMARK  4 active torsions:
REMARK  status: ('A' for Active; 'I' for Inactive)
REMARK    1  A    between atoms: O_3  and  C_23 
REMARK    2  A    between atoms: O_4  and  C_24 
REMARK    3  A    between atoms: C_5  and  C_7 
REMARK    4  A    between atoms: C_5  and  C_8 
ROOT
HETATM    1  O   UNK N   1      34.441  12.346  14.229  0.00  0.00    -0.291 OA
HETATM    2  O   UNK N   1      32.996  10.601  14.324  0.00  0.00    -0.259 OA
HETATM    3  C   UNK N   1      35.816  12.575  14.386  0.00  0.00     0.153 A 
HETATM    4  C   UNK N   1      36.333  11.183  14.737  0.00  0.00     0.002 A 
HETATM    5  C   UNK N   1      35.293  10.299  14.758  0.00  0.00     0.049 A 
HETATM    6  C   UNK N   1      34.125  11.047  14.427  0.00  0.00     0.295 A 
HETATM    7  C   UNK N   1      37.633  10.758  15.028  0.00  0.00     0.012 A 
HETATM    8  C   UNK N   1      35.457   8.950  15.064  0.00  0.00     0.018 A 
HETATM    9  C   UNK N   1      37.839   9.402  15.347  0.00  0.00     0.001 A 
HETATM   10  C   UNK N   1      36.753   8.501  15.365  0.00  0.00     0.001 A 
ENDROOT
BRANCH   3  11
HETATM   11  C   UNK N   1      36.361  13.104  13.062  0.00  0.00    -0.014 A 
HETATM   12  C   UNK N   1      37.373  12.401  12.388  0.00  0.00     0.013 A 
HETATM   13  C   UNK N   1      37.811  12.823  11.127  0.00  0.00     0.037 A 
HETATM   14  C   UNK N   1      37.236  13.944  10.523  0.00  0.00     0.065 A 
HETATM   15  C   UNK N   1      36.234  14.656  11.185  0.00  0.00     0.037 A 
HETATM   16  C   UNK N   1      35.799  14.237  12.443  0.00  0.00     0.013 A 
BRANCH  14  17
HETATM   17  O   UNK N   1      37.640  14.335   9.305  0.00  0.00    -0.361 OA
HETATM   18  H   UNK N   1      38.530  14.333   9.012  0.00  0.00     0.217 HD
ENDBRANCH  14  17
ENDBRANCH   3  11
BRANCH   3  19
HETATM   19  C   UNK N   1      36.075  13.545  15.530  0.00  0.00    -0.014 A 
HETATM   20  C   UNK N   1      35.319  13.479  16.712  0.00  0.00     0.013 A 
HETATM   21  C   UNK N   1      35.515  14.418  17.728  0.00  0.00     0.037 A 
HETATM   22  C   UNK N   1      36.469  15.429  17.575  0.00  0.00     0.065 A 
HETATM   23  C   UNK N   1      37.236  15.496  16.410  0.00  0.00     0.037 A 
HETATM   24  C   UNK N   1      37.039  14.561  15.392  0.00  0.00     0.013 A 
BRANCH  22  25
HETATM   25  O   UNK N   1      36.644  16.339  18.547  0.00  0.00    -0.361 OA
HETATM   26  H   UNK N   1      36.848  17.227  18.332  0.00  0.00     0.217 HD
ENDBRANCH  22  25
ENDBRANCH   3  19
TORSDOF 4
ENDMDL
MODEL 6
REMARK VINA RESULT:      -7.4     13.853     16.096
REMARK  4 active torsions:
REMARK  status: ('A' for Active; 'I' for Inactive)
REMARK    1  A    between atoms: O_3  and  C_23 
REMARK    2  A    between atoms: O_4  and  C_24 
REMARK    3  A    between atoms: C_5  and  C_7 
REMARK    4  A    between atoms: C_5  and  C_8 
ROOT
HETATM    1  O   UNK N   1      29.469  25.866  -5.736  0.00  0.00    -0.291 OA
HETATM    2  O   UNK N   1      31.656  25.341  -5.449  0.00  0.00    -0.259 OA
HETATM    3  C   UNK N   1      28.237  25.589  -5.124  0.00  0.00     0.153 A 
HETATM    4  C   UNK N   1      28.648  24.648  -3.995  0.00  0.00     0.002 A 
HETATM    5  C   UNK N   1      29.999  24.457  -4.025  0.00  0.00     0.049 A 
HETATM    6  C   UNK N   1      30.490  25.237  -5.114  0.00  0.00     0.295 A 
HETATM    7  C   UNK N   1      27.861  24.009  -3.032  0.00  0.00     0.012 A 
HETATM    8  C   UNK N   1      30.663  23.632  -3.121  0.00  0.00     0.018 A 
HETATM    9  C   UNK N   1      28.495  23.162  -2.102  0.00  0.00     0.001 A 
HETATM   10  C   UNK N   1      29.893  22.975  -2.148  0.00  0.00     0.001 A 
ENDROOT
BRANCH   3  11
HETATM   11  C   UNK N   1      27.649  26.907  -4.628  0.00  0.00    -0.014 A 
HETATM   12  C   UNK N   1      28.268  28.122  -4.962  0.00  0.00     0.013 A 
HETATM   13  C   UNK N   1      27.685  29.340  -4.595  0.00  0.00     0.037 A 
HETATM   14  C   UNK N   1      26.472  29.356  -3.899  0.00  0.00     0.065 A 
HETATM   15  C   UNK N   1      25.851  28.156  -3.555  0.00  0.00     0.037 A 
HETATM   16  C   UNK N   1      26.433  26.941  -3.918  0.00  0.00     0.013 A 
BRANCH  14  17
HETATM   17  O   UNK N   1      25.901  30.525  -3.568  0.00  0.00    -0.361 OA
HETATM   18  H   UNK N   1      26.186  31.363  -3.873  0.00  0.00     0.217 HD
ENDBRANCH  14  17
ENDBRANCH   3  11
BRANCH   3  19
HETATM   19  C   UNK N   1      27.300  24.882  -6.094  0.00  0.00    -0.014 A 
HETATM   20  C   UNK N   1      26.721  25.576  -7.168  0.00  0.00     0.013 A 
HETATM   21  C   UNK N   1      25.806  24.938  -8.010  0.00  0.00     0.037 A 
HETATM   22  C   UNK N   1      25.465  23.600  -7.789  0.00  0.00     0.065 A 
HETATM   23  C   UNK N   1      26.045  22.896  -6.732  0.00  0.00     0.037 A 
HETATM   24  C   UNK N   1      26.956  23.533  -5.887  0.00  0.00     0.013 A 
BRANCH  22  25
HETATM   25  O   UNK N   1      24.575  22.993  -8.590  0.00  0.00    -0.361 OA
HETATM   26  H   UNK N   1      23.916  22.435  -8.229  0.00  0.00     0.217 HD
ENDBRANCH  22  25
ENDBRANCH   3  19
TORSDOF 4
ENDMDL
MODEL 7
REMARK VINA RESULT:      -7.4      9.636     12.260
REMARK  4 active torsions:
REMARK  status: ('A' for Active; 'I' for Inactive)
REMARK    1  A    between atoms: O_3  and  C_23 
REMARK    2  A    between atoms: O_4  and  C_24 
REMARK    3  A    between atoms: C_5  and  C_7 
REMARK    4  A    between atoms: C_5  and  C_8 
ROOT
HETATM    1  O   UNK N   1      20.077  14.242   8.430  0.00  0.00    -0.291 OA
HETATM    2  O   UNK N   1      18.844  16.095   8.867  0.00  0.00    -0.259 OA
HETATM    3  C   UNK N   1      21.227  13.898   7.704  0.00  0.00     0.153 A 
HETATM    4  C   UNK N   1      21.619  15.234   7.077  0.00  0.00     0.002 A 
HETATM    5  C   UNK N   1      20.730  16.197   7.457  0.00  0.00     0.049 A 
HETATM    6  C   UNK N   1      19.784  15.556   8.310  0.00  0.00     0.295 A 
HETATM    7  C   UNK N   1      22.682  15.543   6.224  0.00  0.00     0.012 A 
HETATM    8  C   UNK N   1      20.824  17.519   7.028  0.00  0.00     0.018 A 
HETATM    9  C   UNK N   1      22.808  16.869   5.764  0.00  0.00     0.001 A 
HETATM   10  C   UNK N   1      21.880  17.853   6.165  0.00  0.00     0.001 A 
ENDROOT
BRANCH   3  11
HETATM   11  C   UNK N   1      22.265  13.366   8.688  0.00  0.00    -0.014 A 
HETATM   12  C   UNK N   1      23.632  13.435   8.373  0.00  0.00     0.013 A 
HETATM   13  C   UNK N   1      24.596  13.040   9.307  0.00  0.00     0.037 A 
HETATM   14  C   UNK N   1      24.206  12.583  10.569  0.00  0.00     0.065 A 
HETATM   15  C   UNK N   1      22.851  12.504  10.892  0.00  0.00     0.037 A 
HETATM   16  C   UNK N   1      21.889  12.894   9.961  0.00  0.00     0.013 A 
BRANCH  14  17
HETATM   17  O   UNK N   1      25.131  12.227  11.473  0.00  0.00    -0.361 OA
HETATM   18  H   UNK N   1      25.107  11.439  11.979  0.00  0.00     0.217 HD
ENDBRANCH  14  17
ENDBRANCH   3  11
BRANCH   3  19
HETATM   19  C   UNK N   1      20.898  12.877   6.623  0.00  0.00    -0.014 A 
HETATM   20  C   UNK N   1      20.019  13.198   5.577  0.00  0.00     0.013 A 
HETATM   21  C   UNK N   1      19.667  12.232   4.629  0.00  0.00     0.037 A 
HETATM   22  C   UNK N   1      20.193  10.940   4.717  0.00  0.00     0.065 A 
HETATM   23  C   UNK N   1      21.079  10.614   5.746  0.00  0.00     0.037 A 
HETATM   24  C   UNK N   1      21.428  11.576   6.696  0.00  0.00     0.013 A 
BRANCH  22  25
HETATM   25  O   UNK N   1      19.842  10.010   3.815  0.00  0.00    -0.361 OA
HETATM   26  H   UNK N   1      20.289   9.188   3.783  0.00  0.00     0.217 HD
ENDBRANCH  22  25
ENDBRANCH   3  19
TORSDOF 4
ENDMDL
MODEL 8
REMARK VINA RESULT:      -7.2      9.666     12.202
REMARK  4 active torsions:
REMARK  status: ('A' for Active; 'I' for Inactive)
REMARK    1  A    between atoms: O_3  and  C_23 
REMARK    2  A    between atoms: O_4  and  C_24 
REMARK    3  A    between atoms: C_5  and  C_7 
REMARK    4  A    between atoms: C_5  and  C_8 
ROOT
HETATM    1  O   UNK N   1      20.447  13.039   9.207  0.00  0.00    -0.291 OA
HETATM    2  O   UNK N   1      20.340  12.210  11.315  0.00  0.00    -0.259 OA
HETATM    3  C   UNK N   1      21.429  13.394   8.270  0.00  0.00     0.153 A 
HETATM    4  C   UNK N   1      22.717  13.113   9.039  0.00  0.00     0.002 A 
HETATM    5  C   UNK N   1      22.415  12.644  10.285  0.00  0.00     0.049 A 
HETATM    6  C   UNK N   1      20.992  12.597  10.361  0.00  0.00     0.295 A 
HETATM    7  C   UNK N   1      24.049  13.282   8.646  0.00  0.00     0.012 A 
HETATM    8  C   UNK N   1      23.391  12.313  11.222  0.00  0.00     0.018 A 
HETATM    9  C   UNK N   1      25.065  12.963   9.568  0.00  0.00     0.001 A 
HETATM   10  C   UNK N   1      24.736  12.480  10.852  0.00  0.00     0.001 A 
ENDROOT
BRANCH   3  11
HETATM   11  C   UNK N   1      21.254  12.507   7.042  0.00  0.00    -0.014 A 
HETATM   12  C   UNK N   1      22.021  11.338   6.905  0.00  0.00     0.013 A 
HETATM   13  C   UNK N   1      21.800  10.466   5.832  0.00  0.00     0.037 A 
HETATM   14  C   UNK N   1      20.804  10.748   4.892  0.00  0.00     0.065 A 
HETATM   15  C   UNK N   1      20.040  11.909   5.013  0.00  0.00     0.037 A 
HETATM   16  C   UNK N   1      20.261  12.780   6.081  0.00  0.00     0.013 A 
BRANCH  14  17
HETATM   17  O   UNK N   1      20.577   9.900   3.877  0.00  0.00    -0.361 OA
HETATM   18  H   UNK N   1      20.316   9.006   3.978  0.00  0.00     0.217 HD
ENDBRANCH  14  17
ENDBRANCH   3  11
BRANCH   3  19
HETATM   19  C   UNK N   1      21.330  14.873   7.918  0.00  0.00    -0.014 A 
HETATM   20  C   UNK N   1      20.417  15.708   8.580  0.00  0.00     0.013 A 
HETATM   21  C   UNK N   1      20.283  17.047   8.201  0.00  0.00     0.037 A 
HETATM   22  C   UNK N   1      21.062  17.563   7.160  0.00  0.00     0.065 A 
HETATM   23  C   UNK N   1      21.984  16.744   6.505  0.00  0.00     0.037 A 
HETATM   24  C   UNK N   1      22.116  15.405   6.880  0.00  0.00     0.013 A 
BRANCH  22  25
HETATM   25  O   UNK N   1      20.921  18.845   6.788  0.00  0.00    -0.361 OA
HETATM   26  H   UNK N   1      20.923  19.078   5.881  0.00  0.00     0.217 HD
ENDBRANCH  22  25
ENDBRANCH   3  19
TORSDOF 4
ENDMDL
MODEL 9
REMARK VINA RESULT:      -7.0     16.020     18.989
REMARK  4 active torsions:
REMARK  status: ('A' for Active; 'I' for Inactive)
REMARK    1  A    between atoms: O_3  and  C_23 
REMARK    2  A    between atoms: O_4  and  C_24 
REMARK    3  A    between atoms: C_5  and  C_7 
REMARK    4  A    between atoms: C_5  and  C_8 
ROOT
HETATM    1  O   UNK N   1      25.061  24.203  -8.036  0.00  0.00    -0.291 OA
HETATM    2  O   UNK N   1      24.306  22.088  -8.350  0.00  0.00    -0.259 OA
HETATM    3  C   UNK N   1      26.272  24.850  -7.750  0.00  0.00     0.153 A 
HETATM    4  C   UNK N   1      27.237  23.674  -7.618  0.00  0.00     0.002 A 
HETATM    5  C   UNK N   1      26.565  22.504  -7.825  0.00  0.00     0.049 A 
HETATM    6  C   UNK N   1      25.211  22.862  -8.095  0.00  0.00     0.295 A 
HETATM    7  C   UNK N   1      28.603  23.668  -7.322  0.00  0.00     0.012 A 
HETATM    8  C   UNK N   1      27.184  21.259  -7.754  0.00  0.00     0.018 A 
HETATM    9  C   UNK N   1      29.264  22.427  -7.237  0.00  0.00     0.001 A 
HETATM   10  C   UNK N   1      28.556  21.226  -7.452  0.00  0.00     0.001 A 
ENDROOT
BRANCH   3  11
HETATM   11  C   UNK N   1      26.602  25.773  -8.919  0.00  0.00    -0.014 A 
HETATM   12  C   UNK N   1      27.795  26.515  -8.913  0.00  0.00     0.013 A 
HETATM   13  C   UNK N   1      28.155  27.289 -10.022  0.00  0.00     0.037 A 
HETATM   14  C   UNK N   1      27.332  27.322 -11.152  0.00  0.00     0.065 A 
HETATM   15  C   UNK N   1      26.141  26.595 -11.168  0.00  0.00     0.037 A 
HETATM   16  C   UNK N   1      25.781  25.825 -10.062  0.00  0.00     0.013 A 
BRANCH  14  17
HETATM   17  O   UNK N   1      27.689  28.046 -12.224  0.00  0.00    -0.361 OA
HETATM   18  H   UNK N   1      28.535  28.426 -12.353  0.00  0.00     0.217 HD
ENDBRANCH  14  17
ENDBRANCH   3  11
BRANCH   3  19
HETATM   19  C   UNK N   1      26.179  25.614  -6.436  0.00  0.00    -0.014 A 
HETATM   20  C   UNK N   1      26.746  25.094  -5.262  0.00  0.00     0.013 A 
HETATM   21  C   UNK N   1      26.594  25.767  -4.046  0.00  0.00     0.037 A 
HETATM   22  C   UNK N   1      25.877  26.966  -3.994  0.00  0.00     0.065 A 
HETATM   23  C   UNK N   1      25.322  27.500  -5.158  0.00  0.00     0.037 A 
HETATM   24  C   UNK N   1      25.469  26.827  -6.373  0.00  0.00     0.013 A 
BRANCH  22  25
HETATM   25  O   UNK N   1      25.720  27.603  -2.822  0.00  0.00    -0.361 OA
HETATM   26  H   UNK N   1      25.842  28.530  -2.767  0.00  0.00     0.217 HD
ENDBRANCH  22  25
ENDBRANCH   3  19
TORSDOF 4
ENDMDL
