MODEL 1
REMARK VINA RESULT:      -6.4      0.000      0.000
REMARK  8 active torsions:
REMARK  status: ('A' for Active; 'I' for Inactive)
REMARK    1  A    between atoms: N_1  and  C_4 
REMARK    2  A    between atoms: N_1  and  C_5 
REMARK    3  A    between atoms: C_2  and  C_3 
REMARK    4  A    between atoms: C_2  and  C_6 
REMARK    5  A    between atoms: C_2  and  C_7 
REMARK    6  A    between atoms: C_3  and  C_4 
REMARK    7  A    between atoms: C_5  and  C_8 
REMARK    8  A    between atoms: C_8  and  C_10 
ROOT
HETATM    1  C   UNK N   1      27.732  22.939  -7.163  0.00  0.00     0.053 C 
ENDROOT
BRANCH   1   2
HETATM    2  C   UNK N   1      26.318  22.708  -7.721  0.00  0.00     0.033 C 
BRANCH   2   3
HETATM    3  C   UNK N   1      25.981  23.530  -8.971  0.00  0.00     0.115 C 
BRANCH   3   4
HETATM    4  N   UNK N   1      27.050  24.458  -9.369  0.00  0.00    -0.417 N 
HETATM    5  H   UNK N   1      27.983  24.152  -9.642  0.00  0.00     0.153 HD
BRANCH   4   6
HETATM    6  C   UNK N   1      26.641  25.868  -9.334  0.00  0.00     0.076 C 
HETATM    7  C   UNK N   1      26.532  26.432 -10.743  0.00  0.00     0.032 C 
BRANCH   6   8
HETATM    8  C   UNK N   1      27.481  26.706  -8.355  0.00  0.00     0.062 C 
BRANCH   8   9
HETATM    9  C   UNK N   1      26.736  27.155  -7.140  0.00  0.00    -0.056 A 
HETATM   10  C   UNK N   1      25.475  26.623  -6.855  0.00  0.00     0.007 A 
HETATM   11  C   UNK N   1      24.794  27.021  -5.700  0.00  0.00     0.001 A 
HETATM   12  C   UNK N   1      25.378  27.944  -4.825  0.00  0.00     0.000 A 
HETATM   13  C   UNK N   1      26.643  28.468  -5.104  0.00  0.00     0.001 A 
HETATM   14  C   UNK N   1      27.322  28.072  -6.258  0.00  0.00     0.007 A 
ENDBRANCH   8   9
ENDBRANCH   6   8
ENDBRANCH   4   6
ENDBRANCH   3   4
ENDBRANCH   2   3
ENDBRANCH   1   2
BRANCH   1  15
HETATM   15  C   UNK N   1      27.608  23.734  -5.864  0.00  0.00    -0.050 A 
HETATM   16  C   UNK N   1      28.629  24.565  -5.370  0.00  0.00     0.008 A 
HETATM   17  C   UNK N   1      28.463  25.270  -4.176  0.00  0.00     0.001 A 
HETATM   18  C   UNK N   1      27.275  25.153  -3.452  0.00  0.00     0.000 A 
HETATM   19  C   UNK N   1      26.252  24.331  -3.927  0.00  0.00     0.001 A 
HETATM   20  C   UNK N   1      26.417  23.633  -5.125  0.00  0.00     0.008 A 
ENDBRANCH   1  15
BRANCH   1  21
HETATM   21  C   UNK N   1      28.573  21.661  -7.202  0.00  0.00    -0.050 A 
HETATM   22  C   UNK N   1      29.702  21.467  -6.385  0.00  0.00     0.008 A 
HETATM   23  C   UNK N   1      30.452  20.292  -6.465  0.00  0.00     0.001 A 
HETATM   24  C   UNK N   1      30.083  19.287  -7.360  0.00  0.00     0.000 A 
HETATM   25  C   UNK N   1      28.969  19.462  -8.181  0.00  0.00     0.001 A 
HETATM   26  C   UNK N   1      28.228  20.643  -8.105  0.00  0.00     0.008 A 
ENDBRANCH   1  21
TORSDOF 8
ENDMDL
MODEL 2
REMARK VINA RESULT:      -6.0      2.600      4.433
REMARK  8 active torsions:
REMARK  status: ('A' for Active; 'I' for Inactive)
REMARK    1  A    between atoms: N_1  and  C_4 
REMARK    2  A    between atoms: N_1  and  C_5 
REMARK    3  A    between atoms: C_2  and  C_3 
REMARK    4  A    between atoms: C_2  and  C_6 
REMARK    5  A    between atoms: C_2  and  C_7 
REMARK    6  A    between atoms: C_3  and  C_4 
REMARK    7  A    between atoms: C_5  and  C_8 
REMARK    8  A    between atoms: C_8  and  C_10 
ROOT
HETATM    1  C   UNK N   1      26.921  23.927  -5.176  0.00  0.00     0.053 C 
ENDROOT
BRANCH   1   2
HETATM    2  C   UNK N   1      28.451  24.074  -5.111  0.00  0.00     0.033 C 
BRANCH   2   3
HETATM    3  C   UNK N   1      29.090  23.540  -3.824  0.00  0.00     0.115 C 
BRANCH   3   4
HETATM    4  N   UNK N   1      30.085  24.452  -3.240  0.00  0.00    -0.417 N 
HETATM    5  H   UNK N   1      30.419  24.374  -2.280  0.00  0.00     0.153 HD
BRANCH   4   6
HETATM    6  C   UNK N   1      30.549  25.484  -4.175  0.00  0.00     0.076 C 
HETATM    7  C   UNK N   1      31.983  25.215  -4.606  0.00  0.00     0.032 C 
BRANCH   6   8
HETATM    8  C   UNK N   1      30.273  26.911  -3.669  0.00  0.00     0.062 C 
BRANCH   8   9
HETATM    9  C   UNK N   1      29.482  27.753  -4.616  0.00  0.00    -0.056 A 
HETATM   10  C   UNK N   1      29.009  29.006  -4.212  0.00  0.00     0.007 A 
HETATM   11  C   UNK N   1      28.297  29.806  -5.111  0.00  0.00     0.001 A 
HETATM   12  C   UNK N   1      28.066  29.359  -6.417  0.00  0.00     0.000 A 
HETATM   13  C   UNK N   1      28.548  28.112  -6.824  0.00  0.00     0.001 A 
HETATM   14  C   UNK N   1      29.258  27.312  -5.927  0.00  0.00     0.007 A 
ENDBRANCH   8   9
ENDBRANCH   6   8
ENDBRANCH   4   6
ENDBRANCH   3   4
ENDBRANCH   2   3
ENDBRANCH   1   2
BRANCH   1  15
HETATM   15  C   UNK N   1      26.302  25.311  -4.989  0.00  0.00    -0.050 A 
HETATM   16  C   UNK N   1      25.579  25.973  -5.997  0.00  0.00     0.008 A 
HETATM   17  C   UNK N   1      25.033  27.239  -5.773  0.00  0.00     0.001 A 
HETATM   18  C   UNK N   1      25.205  27.868  -4.539  0.00  0.00     0.000 A 
HETATM   19  C   UNK N   1      25.922  27.226  -3.527  0.00  0.00     0.001 A 
HETATM   20  C   UNK N   1      26.460  25.957  -3.751  0.00  0.00     0.008 A 
ENDBRANCH   1  15
BRANCH   1  21
HETATM   21  C   UNK N   1      26.485  23.044  -6.348  0.00  0.00    -0.050 A 
HETATM   22  C   UNK N   1      25.226  22.418  -6.402  0.00  0.00     0.008 A 
HETATM   23  C   UNK N   1      24.876  21.605  -7.482  0.00  0.00     0.001 A 
HETATM   24  C   UNK N   1      25.776  21.408  -8.530  0.00  0.00     0.000 A 
HETATM   25  C   UNK N   1      27.030  22.017  -8.493  0.00  0.00     0.001 A 
HETATM   26  C   UNK N   1      27.381  22.821  -7.406  0.00  0.00     0.008 A 
ENDBRANCH   1  21
TORSDOF 8
ENDMDL
MODEL 3
REMARK VINA RESULT:      -6.0     12.667     15.972
REMARK  8 active torsions:
REMARK  status: ('A' for Active; 'I' for Inactive)
REMARK    1  A    between atoms: N_1  and  C_4 
REMARK    2  A    between atoms: N_1  and  C_5 
REMARK    3  A    between atoms: C_2  and  C_3 
REMARK    4  A    between atoms: C_2  and  C_6 
REMARK    5  A    between atoms: C_2  and  C_7 
REMARK    6  A    between atoms: C_3  and  C_4 
REMARK    7  A    between atoms: C_5  and  C_8 
REMARK    8  A    between atoms: C_8  and  C_10 
ROOT
HETATM    1  C   UNK N   1      29.559  17.689   5.954  0.00  0.00     0.053 C 
ENDROOT
BRANCH   1   2
HETATM    2  C   UNK N   1      29.670  17.198   7.407  0.00  0.00     0.033 C 
BRANCH   2   3
HETATM    3  C   UNK N   1      30.937  17.651   8.141  0.00  0.00     0.115 C 
BRANCH   3   4
HETATM    4  N   UNK N   1      31.834  16.544   8.502  0.00  0.00    -0.417 N 
HETATM    5  H   UNK N   1      31.537  15.741   9.057  0.00  0.00     0.153 HD
BRANCH   4   6
HETATM    6  C   UNK N   1      33.200  16.707   7.987  0.00  0.00     0.076 C 
HETATM    7  C   UNK N   1      34.161  17.058   9.112  0.00  0.00     0.032 C 
BRANCH   6   8
HETATM    8  C   UNK N   1      33.264  17.629   6.758  0.00  0.00     0.062 C 
BRANCH   8   9
HETATM    9  C   UNK N   1      33.204  16.909   5.450  0.00  0.00    -0.056 A 
HETATM   10  C   UNK N   1      33.439  15.531   5.397  0.00  0.00     0.007 A 
HETATM   11  C   UNK N   1      33.351  14.854   4.177  0.00  0.00     0.001 A 
HETATM   12  C   UNK N   1      33.017  15.551   3.011  0.00  0.00     0.000 A 
HETATM   13  C   UNK N   1      32.770  16.926   3.064  0.00  0.00     0.001 A 
HETATM   14  C   UNK N   1      32.860  17.603   4.282  0.00  0.00     0.007 A 
ENDBRANCH   8   9
ENDBRANCH   6   8
ENDBRANCH   4   6
ENDBRANCH   3   4
ENDBRANCH   2   3
ENDBRANCH   1   2
BRANCH   1  15
HETATM   15  C   UNK N   1      29.520  16.466   5.039  0.00  0.00    -0.050 A 
HETATM   16  C   UNK N   1      29.280  16.547   3.656  0.00  0.00     0.008 A 
HETATM   17  C   UNK N   1      29.255  15.396   2.865  0.00  0.00     0.001 A 
HETATM   18  C   UNK N   1      29.463  14.143   3.445  0.00  0.00     0.000 A 
HETATM   19  C   UNK N   1      29.699  14.044   4.817  0.00  0.00     0.001 A 
HETATM   20  C   UNK N   1      29.732  15.197   5.604  0.00  0.00     0.008 A 
ENDBRANCH   1  15
BRANCH   1  21
HETATM   21  C   UNK N   1      28.507  18.791   5.806  0.00  0.00    -0.050 A 
HETATM   22  C   UNK N   1      28.082  19.274   4.555  0.00  0.00     0.008 A 
HETATM   23  C   UNK N   1      27.132  20.294   4.466  0.00  0.00     0.001 A 
HETATM   24  C   UNK N   1      26.587  20.845   5.626  0.00  0.00     0.000 A 
HETATM   25  C   UNK N   1      26.999  20.382   6.876  0.00  0.00     0.001 A 
HETATM   26  C   UNK N   1      27.956  19.369   6.961  0.00  0.00     0.008 A 
ENDBRANCH   1  21
TORSDOF 8
ENDMDL
MODEL 4
REMARK VINA RESULT:      -6.0     12.198     15.011
REMARK  8 active torsions:
REMARK  status: ('A' for Active; 'I' for Inactive)
REMARK    1  A    between atoms: N_1  and  C_4 
REMARK    2  A    between atoms: N_1  and  C_5 
REMARK    3  A    between atoms: C_2  and  C_3 
REMARK    4  A    between atoms: C_2  and  C_6 
REMARK    5  A    between atoms: C_2  and  C_7 
REMARK    6  A    between atoms: C_3  and  C_4 
REMARK    7  A    between atoms: C_5  and  C_8 
REMARK    8  A    between atoms: C_8  and  C_10 
ROOT
HETATM    1  C   UNK N   1      27.652  18.077   4.842  0.00  0.00     0.053 C 
ENDROOT
BRANCH   1   2
HETATM    2  C   UNK N   1      27.634  16.666   4.229  0.00  0.00     0.033 C 
BRANCH   2   3
HETATM    3  C   UNK N   1      29.005  16.145   3.783  0.00  0.00     0.115 C 
BRANCH   3   4
HETATM    4  N   UNK N   1      29.880  17.190   3.232  0.00  0.00    -0.417 N 
HETATM    5  H   UNK N   1      29.577  17.855   2.520  0.00  0.00     0.153 HD
BRANCH   4   6
HETATM    6  C   UNK N   1      31.231  17.183   3.806  0.00  0.00     0.076 C 
HETATM    7  C   UNK N   1      32.272  16.915   2.730  0.00  0.00     0.032 C 
BRANCH   6   8
HETATM    8  C   UNK N   1      31.340  16.297   5.058  0.00  0.00     0.062 C 
BRANCH   8   9
HETATM    9  C   UNK N   1      32.002  16.961   6.221  0.00  0.00    -0.056 A 
HETATM   10  C   UNK N   1      31.289  17.177   7.405  0.00  0.00     0.007 A 
HETATM   11  C   UNK N   1      31.920  17.770   8.503  0.00  0.00     0.001 A 
HETATM   12  C   UNK N   1      33.268  18.137   8.422  0.00  0.00     0.000 A 
HETATM   13  C   UNK N   1      33.985  17.910   7.244  0.00  0.00     0.001 A 
HETATM   14  C   UNK N   1      33.354  17.321   6.147  0.00  0.00     0.007 A 
ENDBRANCH   8   9
ENDBRANCH   6   8
ENDBRANCH   4   6
ENDBRANCH   3   4
ENDBRANCH   2   3
ENDBRANCH   1   2
BRANCH   1  15
HETATM   15  C   UNK N   1      26.520  18.885   4.211  0.00  0.00    -0.050 A 
HETATM   16  C   UNK N   1      25.161  18.564   4.375  0.00  0.00     0.008 A 
HETATM   17  C   UNK N   1      24.164  19.337   3.775  0.00  0.00     0.001 A 
HETATM   18  C   UNK N   1      24.510  20.441   2.995  0.00  0.00     0.000 A 
HETATM   19  C   UNK N   1      25.854  20.774   2.818  0.00  0.00     0.001 A 
HETATM   20  C   UNK N   1      26.848  20.003   3.426  0.00  0.00     0.008 A 
ENDBRANCH   1  15
BRANCH   1  21
HETATM   21  C   UNK N   1      27.805  18.031   6.365  0.00  0.00    -0.050 A 
HETATM   22  C   UNK N   1      28.173  19.156   7.126  0.00  0.00     0.008 A 
HETATM   23  C   UNK N   1      28.320  19.066   8.512  0.00  0.00     0.001 A 
HETATM   24  C   UNK N   1      28.095  17.852   9.162  0.00  0.00     0.000 A 
HETATM   25  C   UNK N   1      27.733  16.725   8.423  0.00  0.00     0.001 A 
HETATM   26  C   UNK N   1      27.598  16.816   7.036  0.00  0.00     0.008 A 
ENDBRANCH   1  21
TORSDOF 8
ENDMDL
MODEL 5
REMARK VINA RESULT:      -6.0      2.848      5.387
REMARK  8 active torsions:
REMARK  status: ('A' for Active; 'I' for Inactive)
REMARK    1  A    between atoms: N_1  and  C_4 
REMARK    2  A    between atoms: N_1  and  C_5 
REMARK    3  A    between atoms: C_2  and  C_3 
REMARK    4  A    between atoms: C_2  and  C_6 
REMARK    5  A    between atoms: C_2  and  C_7 
REMARK    6  A    between atoms: C_3  and  C_4 
REMARK    7  A    between atoms: C_5  and  C_8 
REMARK    8  A    between atoms: C_8  and  C_10 
ROOT
HETATM    1  C   UNK N   1      30.423  24.644  -4.462  0.00  0.00     0.053 C 
ENDROOT
BRANCH   1   2
HETATM    2  C   UNK N   1      30.644  25.734  -3.400  0.00  0.00     0.033 C 
BRANCH   2   3
HETATM    3  C   UNK N   1      30.809  27.151  -3.962  0.00  0.00     0.115 C 
BRANCH   3   4
HETATM    4  N   UNK N   1      30.163  28.187  -3.144  0.00  0.00    -0.417 N 
HETATM    5  H   UNK N   1      30.425  28.381  -2.178  0.00  0.00     0.153 HD
BRANCH   4   6
HETATM    6  C   UNK N   1      29.102  28.914  -3.853  0.00  0.00     0.076 C 
HETATM    7  C   UNK N   1      29.307  30.416  -3.734  0.00  0.00     0.032 C 
BRANCH   6   8
HETATM    8  C   UNK N   1      27.694  28.412  -3.490  0.00  0.00     0.062 C 
BRANCH   8   9
HETATM    9  C   UNK N   1      26.908  27.902  -4.653  0.00  0.00    -0.056 A 
HETATM   10  C   UNK N   1      27.555  27.589  -5.853  0.00  0.00     0.007 A 
HETATM   11  C   UNK N   1      26.822  27.081  -6.930  0.00  0.00     0.001 A 
HETATM   12  C   UNK N   1      25.444  26.875  -6.805  0.00  0.00     0.000 A 
HETATM   13  C   UNK N   1      24.798  27.177  -5.603  0.00  0.00     0.001 A 
HETATM   14  C   UNK N   1      25.529  27.686  -4.528  0.00  0.00     0.007 A 
ENDBRANCH   8   9
ENDBRANCH   6   8
ENDBRANCH   4   6
ENDBRANCH   3   4
ENDBRANCH   2   3
ENDBRANCH   1   2
BRANCH   1  15
HETATM   15  C   UNK N   1      31.413  23.512  -4.196  0.00  0.00    -0.050 A 
HETATM   16  C   UNK N   1      32.556  23.287  -4.984  0.00  0.00     0.008 A 
HETATM   17  C   UNK N   1      33.430  22.236  -4.695  0.00  0.00     0.001 A 
HETATM   18  C   UNK N   1      33.172  21.387  -3.618  0.00  0.00     0.000 A 
HETATM   19  C   UNK N   1      32.041  21.593  -2.827  0.00  0.00     0.001 A 
HETATM   20  C   UNK N   1      31.173  22.650  -3.112  0.00  0.00     0.008 A 
ENDBRANCH   1  15
BRANCH   1  21
HETATM   21  C   UNK N   1      28.936  24.333  -4.655  0.00  0.00    -0.050 A 
HETATM   22  C   UNK N   1      28.416  23.825  -5.859  0.00  0.00     0.008 A 
HETATM   23  C   UNK N   1      27.049  23.573  -5.999  0.00  0.00     0.001 A 
HETATM   24  C   UNK N   1      26.180  23.819  -4.936  0.00  0.00     0.000 A 
HETATM   25  C   UNK N   1      26.677  24.327  -3.735  0.00  0.00     0.001 A 
HETATM   26  C   UNK N   1      28.043  24.587  -3.602  0.00  0.00     0.008 A 
ENDBRANCH   1  21
TORSDOF 8
ENDMDL
MODEL 6
REMARK VINA RESULT:      -5.9      2.795      4.662
REMARK  8 active torsions:
REMARK  status: ('A' for Active; 'I' for Inactive)
REMARK    1  A    between atoms: N_1  and  C_4 
REMARK    2  A    between atoms: N_1  and  C_5 
REMARK    3  A    between atoms: C_2  and  C_3 
REMARK    4  A    between atoms: C_2  and  C_6 
REMARK    5  A    between atoms: C_2  and  C_7 
REMARK    6  A    between atoms: C_3  and  C_4 
REMARK    7  A    between atoms: C_5  and  C_8 
REMARK    8  A    between atoms: C_8  and  C_10 
ROOT
HETATM    1  C   UNK N   1      30.152  24.577  -3.656  0.00  0.00     0.053 C 
ENDROOT
BRANCH   1   2
HETATM    2  C   UNK N   1      30.632  25.908  -4.259  0.00  0.00     0.033 C 
BRANCH   2   3
HETATM    3  C   UNK N   1      30.481  27.121  -3.334  0.00  0.00     0.115 C 
BRANCH   3   4
HETATM    4  N   UNK N   1      30.643  28.409  -4.024  0.00  0.00    -0.417 N 
HETATM    5  H   UNK N   1      31.552  28.820  -4.237  0.00  0.00     0.153 HD
BRANCH   4   6
HETATM    6  C   UNK N   1      29.368  29.047  -4.375  0.00  0.00     0.076 C 
HETATM    7  C   UNK N   1      29.419  30.542  -4.100  0.00  0.00     0.032 C 
BRANCH   6   8
HETATM    8  C   UNK N   1      28.153  28.312  -3.782  0.00  0.00     0.062 C 
BRANCH   8   9
HETATM    9  C   UNK N   1      27.162  27.848  -4.799  0.00  0.00    -0.056 A 
HETATM   10  C   UNK N   1      27.596  27.447  -6.067  0.00  0.00     0.007 A 
HETATM   11  C   UNK N   1      26.670  26.983  -7.007  0.00  0.00     0.001 A 
HETATM   12  C   UNK N   1      25.312  26.910  -6.676  0.00  0.00     0.000 A 
HETATM   13  C   UNK N   1      24.880  27.300  -5.405  0.00  0.00     0.001 A 
HETATM   14  C   UNK N   1      25.804  27.765  -4.468  0.00  0.00     0.007 A 
ENDBRANCH   8   9
ENDBRANCH   6   8
ENDBRANCH   4   6
ENDBRANCH   3   4
ENDBRANCH   2   3
ENDBRANCH   1   2
BRANCH   1  15
HETATM   15  C   UNK N   1      28.746  24.295  -4.183  0.00  0.00    -0.050 A 
HETATM   16  C   UNK N   1      27.585  24.472  -3.410  0.00  0.00     0.008 A 
HETATM   17  C   UNK N   1      26.322  24.200  -3.941  0.00  0.00     0.001 A 
HETATM   18  C   UNK N   1      26.199  23.739  -5.253  0.00  0.00     0.000 A 
HETATM   19  C   UNK N   1      27.341  23.555  -6.034  0.00  0.00     0.001 A 
HETATM   20  C   UNK N   1      28.602  23.836  -5.503  0.00  0.00     0.008 A 
ENDBRANCH   1  15
BRANCH   1  21
HETATM   21  C   UNK N   1      31.232  23.495  -3.736  0.00  0.00    -0.050 A 
HETATM   22  C   UNK N   1      32.272  23.528  -4.682  0.00  0.00     0.008 A 
HETATM   23  C   UNK N   1      33.227  22.511  -4.733  0.00  0.00     0.001 A 
HETATM   24  C   UNK N   1      33.163  21.445  -3.833  0.00  0.00     0.000 A 
HETATM   25  C   UNK N   1      32.137  21.394  -2.890  0.00  0.00     0.001 A 
HETATM   26  C   UNK N   1      31.177  22.408  -2.849  0.00  0.00     0.008 A 
ENDBRANCH   1  21
TORSDOF 8
ENDMDL
MODEL 7
REMARK VINA RESULT:      -5.8      2.220      3.984
REMARK  8 active torsions:
REMARK  status: ('A' for Active; 'I' for Inactive)
REMARK    1  A    between atoms: N_1  and  C_4 
REMARK    2  A    between atoms: N_1  and  C_5 
REMARK    3  A    between atoms: C_2  and  C_3 
REMARK    4  A    between atoms: C_2  and  C_6 
REMARK    5  A    between atoms: C_2  and  C_7 
REMARK    6  A    between atoms: C_3  and  C_4 
REMARK    7  A    between atoms: C_5  and  C_8 
REMARK    8  A    between atoms: C_8  and  C_10 
ROOT
HETATM    1  C   UNK N   1      28.651  24.718  -4.824  0.00  0.00     0.053 C 
ENDROOT
BRANCH   1   2
HETATM    2  C   UNK N   1      27.179  24.681  -4.380  0.00  0.00     0.033 C 
BRANCH   2   3
HETATM    3  C   UNK N   1      26.232  23.977  -5.359  0.00  0.00     0.115 C 
BRANCH   3   4
HETATM    4  N   UNK N   1      25.193  24.859  -5.909  0.00  0.00    -0.417 N 
HETATM    5  H   UNK N   1      24.255  24.538  -6.147  0.00  0.00     0.153 HD
BRANCH   4   6
HETATM    6  C   UNK N   1      25.637  26.248  -6.082  0.00  0.00     0.076 C 
HETATM    7  C   UNK N   1      24.572  27.219  -5.597  0.00  0.00     0.032 C 
BRANCH   6   8
HETATM    8  C   UNK N   1      26.184  26.524  -7.494  0.00  0.00     0.062 C 
BRANCH   8   9
HETATM    9  C   UNK N   1      27.518  27.196  -7.512  0.00  0.00    -0.056 A 
HETATM   10  C   UNK N   1      28.619  26.553  -8.088  0.00  0.00     0.007 A 
HETATM   11  C   UNK N   1      29.860  27.196  -8.132  0.00  0.00     0.001 A 
HETATM   12  C   UNK N   1      29.998  28.487  -7.610  0.00  0.00     0.000 A 
HETATM   13  C   UNK N   1      28.897  29.135  -7.045  0.00  0.00     0.001 A 
HETATM   14  C   UNK N   1      27.658  28.492  -6.999  0.00  0.00     0.007 A 
ENDBRANCH   8   9
ENDBRANCH   6   8
ENDBRANCH   4   6
ENDBRANCH   3   4
ENDBRANCH   2   3
ENDBRANCH   1   2
BRANCH   1  15
HETATM   15  C   UNK N   1      29.240  26.065  -4.409  0.00  0.00    -0.050 A 
HETATM   16  C   UNK N   1      28.475  27.095  -3.834  0.00  0.00     0.008 A 
HETATM   17  C   UNK N   1      29.064  28.308  -3.472  0.00  0.00     0.001 A 
HETATM   18  C   UNK N   1      30.428  28.515  -3.684  0.00  0.00     0.000 A 
HETATM   19  C   UNK N   1      31.203  27.505  -4.256  0.00  0.00     0.001 A 
HETATM   20  C   UNK N   1      30.613  26.289  -4.609  0.00  0.00     0.008 A 
ENDBRANCH   1  15
BRANCH   1  21
HETATM   21  C   UNK N   1      29.382  23.420  -4.473  0.00  0.00    -0.050 A 
HETATM   22  C   UNK N   1      29.619  22.402  -5.414  0.00  0.00     0.008 A 
HETATM   23  C   UNK N   1      30.274  21.224  -5.047  0.00  0.00     0.001 A 
HETATM   24  C   UNK N   1      30.708  21.046  -3.733  0.00  0.00     0.000 A 
HETATM   25  C   UNK N   1      30.478  22.043  -2.784  0.00  0.00     0.001 A 
HETATM   26  C   UNK N   1      29.814  23.215  -3.153  0.00  0.00     0.008 A 
ENDBRANCH   1  21
TORSDOF 8
ENDMDL
MODEL 8
REMARK VINA RESULT:      -5.8      1.960      5.568
REMARK  8 active torsions:
REMARK  status: ('A' for Active; 'I' for Inactive)
REMARK    1  A    between atoms: N_1  and  C_4 
REMARK    2  A    between atoms: N_1  and  C_5 
REMARK    3  A    between atoms: C_2  and  C_3 
REMARK    4  A    between atoms: C_2  and  C_6 
REMARK    5  A    between atoms: C_2  and  C_7 
REMARK    6  A    between atoms: C_3  and  C_4 
REMARK    7  A    between atoms: C_5  and  C_8 
REMARK    8  A    between atoms: C_8  and  C_10 
ROOT
HETATM    1  C   UNK N   1      27.443  25.412  -4.842  0.00  0.00     0.053 C 
ENDROOT
BRANCH   1   2
HETATM    2  C   UNK N   1      26.094  24.672  -4.829  0.00  0.00     0.033 C 
BRANCH   2   3
HETATM    3  C   UNK N   1      25.596  24.227  -6.209  0.00  0.00     0.115 C 
BRANCH   3   4
HETATM    4  N   UNK N   1      25.437  22.771  -6.335  0.00  0.00    -0.417 N 
HETATM    5  H   UNK N   1      25.208  22.164  -5.548  0.00  0.00     0.153 HD
BRANCH   4   6
HETATM    6  C   UNK N   1      25.640  22.278  -7.703  0.00  0.00     0.076 C 
HETATM    7  C   UNK N   1      25.209  20.824  -7.821  0.00  0.00     0.032 C 
BRANCH   6   8
HETATM    8  C   UNK N   1      27.046  22.591  -8.243  0.00  0.00     0.062 C 
BRANCH   8   9
HETATM    9  C   UNK N   1      28.136  21.786  -7.614  0.00  0.00    -0.056 A 
HETATM   10  C   UNK N   1      28.792  22.265  -6.475  0.00  0.00     0.007 A 
HETATM   11  C   UNK N   1      29.790  21.495  -5.868  0.00  0.00     0.001 A 
HETATM   12  C   UNK N   1      30.126  20.242  -6.394  0.00  0.00     0.000 A 
HETATM   13  C   UNK N   1      29.463  19.758  -7.525  0.00  0.00     0.001 A 
HETATM   14  C   UNK N   1      28.468  20.527  -8.132  0.00  0.00     0.007 A 
ENDBRANCH   8   9
ENDBRANCH   6   8
ENDBRANCH   4   6
ENDBRANCH   3   4
ENDBRANCH   2   3
ENDBRANCH   1   2
BRANCH   1  15
HETATM   15  C   UNK N   1      27.171  26.901  -4.635  0.00  0.00    -0.050 A 
HETATM   16  C   UNK N   1      26.460  27.407  -3.532  0.00  0.00     0.008 A 
HETATM   17  C   UNK N   1      26.240  28.779  -3.390  0.00  0.00     0.001 A 
HETATM   18  C   UNK N   1      26.720  29.668  -4.352  0.00  0.00     0.000 A 
HETATM   19  C   UNK N   1      27.425  29.184  -5.455  0.00  0.00     0.001 A 
HETATM   20  C   UNK N   1      27.651  27.812  -5.590  0.00  0.00     0.008 A 
ENDBRANCH   1  15
BRANCH   1  21
HETATM   21  C   UNK N   1      28.490  24.697  -3.985  0.00  0.00    -0.050 A 
HETATM   22  C   UNK N   1      29.869  24.944  -4.106  0.00  0.00     0.008 A 
HETATM   23  C   UNK N   1      30.793  24.256  -3.317  0.00  0.00     0.001 A 
HETATM   24  C   UNK N   1      30.353  23.312  -2.388  0.00  0.00     0.000 A 
HETATM   25  C   UNK N   1      28.989  23.050  -2.256  0.00  0.00     0.001 A 
HETATM   26  C   UNK N   1      28.069  23.733  -3.055  0.00  0.00     0.008 A 
ENDBRANCH   1  21
TORSDOF 8
ENDMDL
MODEL 9
REMARK VINA RESULT:      -5.8      1.972      3.936
REMARK  8 active torsions:
REMARK  status: ('A' for Active; 'I' for Inactive)
REMARK    1  A    between atoms: N_1  and  C_4 
REMARK    2  A    between atoms: N_1  and  C_5 
REMARK    3  A    between atoms: C_2  and  C_3 
REMARK    4  A    between atoms: C_2  and  C_6 
REMARK    5  A    between atoms: C_2  and  C_7 
REMARK    6  A    between atoms: C_3  and  C_4 
REMARK    7  A    between atoms: C_5  and  C_8 
REMARK    8  A    between atoms: C_8  and  C_10 
ROOT
HETATM    1  C   UNK N   1      27.720  24.065  -5.025  0.00  0.00     0.053 C 
ENDROOT
BRANCH   1   2
HETATM    2  C   UNK N   1      26.659  24.389  -3.959  0.00  0.00     0.033 C 
BRANCH   2   3
HETATM    3  C   UNK N   1      26.594  25.864  -3.548  0.00  0.00     0.115 C 
BRANCH   3   4
HETATM    4  N   UNK N   1      27.542  26.719  -4.278  0.00  0.00    -0.417 N 
HETATM    5  H   UNK N   1      28.485  26.422  -4.528  0.00  0.00     0.153 HD
BRANCH   4   6
HETATM    6  C   UNK N   1      26.999  28.042  -4.609  0.00  0.00     0.076 C 
HETATM    7  C   UNK N   1      25.546  28.152  -4.174  0.00  0.00     0.032 C 
BRANCH   6   8
HETATM    8  C   UNK N   1      27.280  28.452  -6.065  0.00  0.00     0.062 C 
BRANCH   8   9
HETATM    9  C   UNK N   1      27.200  27.325  -7.043  0.00  0.00    -0.056 A 
HETATM   10  C   UNK N   1      25.954  26.811  -7.419  0.00  0.00     0.007 A 
HETATM   11  C   UNK N   1      25.880  25.778  -8.359  0.00  0.00     0.001 A 
HETATM   12  C   UNK N   1      27.049  25.265  -8.931  0.00  0.00     0.000 A 
HETATM   13  C   UNK N   1      28.294  25.787  -8.565  0.00  0.00     0.001 A 
HETATM   14  C   UNK N   1      28.368  26.817  -7.625  0.00  0.00     0.007 A 
ENDBRANCH   8   9
ENDBRANCH   6   8
ENDBRANCH   4   6
ENDBRANCH   3   4
ENDBRANCH   2   3
ENDBRANCH   1   2
BRANCH   1  15
HETATM   15  C   UNK N   1      29.030  23.743  -4.309  0.00  0.00    -0.050 A 
HETATM   16  C   UNK N   1      30.295  24.010  -4.862  0.00  0.00     0.008 A 
HETATM   17  C   UNK N   1      31.464  23.695  -4.164  0.00  0.00     0.001 A 
HETATM   18  C   UNK N   1      31.387  23.102  -2.903  0.00  0.00     0.000 A 
HETATM   19  C   UNK N   1      30.140  22.827  -2.339  0.00  0.00     0.001 A 
HETATM   20  C   UNK N   1      28.974  23.150  -3.036  0.00  0.00     0.008 A 
ENDBRANCH   1  15
BRANCH   1  21
HETATM   21  C   UNK N   1      27.177  23.115  -6.095  0.00  0.00    -0.050 A 
HETATM   22  C   UNK N   1      28.014  22.388  -6.961  0.00  0.00     0.008 A 
HETATM   23  C   UNK N   1      27.477  21.546  -7.937  0.00  0.00     0.001 A 
HETATM   24  C   UNK N   1      26.093  21.411  -8.060  0.00  0.00     0.000 A 
HETATM   25  C   UNK N   1      25.247  22.127  -7.213  0.00  0.00     0.001 A 
HETATM   26  C   UNK N   1      25.788  22.977  -6.245  0.00  0.00     0.008 A 
ENDBRANCH   1  21
TORSDOF 8
ENDMDL
