REMARK  8 active torsions:
REMARK  status: ('A' for Active; 'I' for Inactive)
REMARK    1  A    between atoms: N_1  and  C_4 
REMARK    2  A    between atoms: N_1  and  C_5 
REMARK    3  A    between atoms: C_2  and  C_3 
REMARK    4  A    between atoms: C_2  and  C_6 
REMARK    5  A    between atoms: C_2  and  C_7 
REMARK    6  A    between atoms: C_3  and  C_4 
REMARK    7  A    between atoms: C_5  and  C_8 
REMARK    8  A    between atoms: C_8  and  C_10 
ROOT
HETATM    1  C   UNK N   1       4.610  -1.478   0.022  0.00  0.00     0.053 C 
ENDROOT
BRANCH   1   2
HETATM    2  C   UNK N   1       3.767  -0.857   1.149  0.00  0.00     0.033 C 
BRANCH   2   3
HETATM    3  C   UNK N   1       2.251  -0.971   0.951  0.00  0.00     0.115 C 
BRANCH   3   4
HETATM    4  N   UNK N   1       1.816  -0.696  -0.426  0.00  0.00    -0.417 N 
HETATM    5  H   UNK N   1       1.511  -1.424  -1.072  0.00  0.00     0.153 HD
BRANCH   4   6
HETATM    6  C   UNK N   1       1.864   0.728  -0.780  0.00  0.00     0.076 C 
HETATM    7  C   UNK N   1       3.246   1.111  -1.286  0.00  0.00     0.032 C 
BRANCH   6   8
HETATM    8  C   UNK N   1       1.296   1.634   0.326  0.00  0.00     0.062 C 
BRANCH   8   9
HETATM    9  C   UNK N   1       1.510   3.094   0.090  0.00  0.00    -0.056 A 
HETATM   10  C   UNK N   1       0.438   3.906  -0.294  0.00  0.00     0.007 A 
HETATM   11  C   UNK N   1       0.634   5.278  -0.483  0.00  0.00     0.001 A 
HETATM   12  C   UNK N   1       1.899   5.840  -0.278  0.00  0.00     0.000 A 
HETATM   13  C   UNK N   1       2.968   5.031   0.117  0.00  0.00     0.001 A 
HETATM   14  C   UNK N   1       2.773   3.661   0.304  0.00  0.00     0.007 A 
ENDBRANCH   8   9
ENDBRANCH   6   8
ENDBRANCH   4   6
ENDBRANCH   3   4
ENDBRANCH   2   3
ENDBRANCH   1   2
BRANCH   1  15
HETATM   15  C   UNK N   1       5.992  -0.828   0.048  0.00  0.00    -0.050 A 
HETATM   16  C   UNK N   1       7.187  -1.564   0.135  0.00  0.00     0.008 A 
HETATM   17  C   UNK N   1       8.426  -0.919   0.155  0.00  0.00     0.001 A 
HETATM   18  C   UNK N   1       8.491   0.474   0.095  0.00  0.00     0.000 A 
HETATM   19  C   UNK N   1       7.315   1.221   0.011  0.00  0.00     0.001 A 
HETATM   20  C   UNK N   1       6.078   0.573  -0.017  0.00  0.00     0.008 A 
ENDBRANCH   1  15
BRANCH   1  21
HETATM   21  C   UNK N   1       4.480  -3.003  -0.009  0.00  0.00    -0.050 A 
HETATM   22  C   UNK N   1       5.593  -3.862   0.032  0.00  0.00     0.008 A 
HETATM   23  C   UNK N   1       5.431  -5.248  -0.017  0.00  0.00     0.001 A 
HETATM   24  C   UNK N   1       4.152  -5.800  -0.102  0.00  0.00     0.000 A 
HETATM   25  C   UNK N   1       3.036  -4.964  -0.148  0.00  0.00     0.001 A 
HETATM   26  C   UNK N   1       3.203  -3.578  -0.109  0.00  0.00     0.008 A 
ENDBRANCH   1  21
TORSDOF 8
