REMARK  4 active torsions:
REMARK  status: ('A' for Active; 'I' for Inactive)
REMARK    1  A    between atoms: N_3  and  C_4 
REMARK    2  A    between atoms: N_3  and  C_9 
REMARK    3  A    between atoms: N_3  and  C_10 
REMARK    4  A    between atoms: C_9  and  C_12 
ROOT
HETATM    1  N   UNK N   1       3.037   0.388   0.018  0.00  0.00    -0.371 N 
ENDROOT
BRANCH   1   2
HETATM    2  C   UNK N   1       2.882  -1.044   0.289  0.00  0.00     0.088 C 
HETATM    3  C   UNK N   1       1.445  -1.536   0.482  0.00  0.00     0.055 C 
HETATM    4  C   UNK N   1       1.480  -3.049   0.761  0.00  0.00     0.274 C 
HETATM    5  N   UNK N   1       2.119  -3.771  -0.344  0.00  0.00     0.084 N 
HETATM    6  C   UNK N   1       3.506  -3.336  -0.473  0.00  0.00     0.274 C 
HETATM    7  C   UNK N   1       2.159  -5.179   0.013  0.00  0.00     0.309 C 
HETATM    8  C   UNK N   1       3.554  -1.856  -0.823  0.00  0.00     0.055 C 
ENDBRANCH   1   2
BRANCH   1   9
HETATM    9  C   UNK N   1       1.986   1.093  -0.719  0.00  0.00     0.169 C 
BRANCH   9  10
HETATM   10  C   UNK N   1       1.462   2.405  -0.157  0.00  0.00     0.000 A 
HETATM   11  S   UNK N   1       2.315   3.749   0.318  0.00  0.00    -0.105 SA
HETATM   12  C   UNK N   1       1.094   4.862   0.445  0.00  0.00     0.050 A 
HETATM   13  C   UNK N   1      -0.075   4.182   0.083  0.00  0.00     0.008 A 
HETATM   14  C   UNK N   1       0.131   2.814  -0.271  0.00  0.00     0.017 A 
ENDBRANCH   9  10
ENDBRANCH   1   9
BRANCH   1  15
HETATM   15  C   UNK N   1       4.377   0.915   0.062  0.00  0.00     0.030 A 
HETATM   16  C   UNK N   1       5.429   0.148   0.601  0.00  0.00     0.029 A 
HETATM   17  C   UNK N   1       6.741   0.628   0.600  0.00  0.00     0.002 A 
HETATM   18  C   UNK N   1       7.021   1.888   0.070  0.00  0.00     0.000 A 
HETATM   19  C   UNK N   1       5.993   2.660  -0.469  0.00  0.00     0.002 A 
HETATM   20  C   UNK N   1       4.686   2.169  -0.486  0.00  0.00     0.029 A 
ENDBRANCH   1  15
TORSDOF 4
