MODEL 1
REMARK VINA RESULT:      -6.2      0.000      0.000
REMARK  4 active torsions:
REMARK  status: ('A' for Active; 'I' for Inactive)
REMARK    1  A    between atoms: N_3  and  C_4 
REMARK    2  A    between atoms: N_3  and  C_9 
REMARK    3  A    between atoms: N_3  and  C_10 
REMARK    4  A    between atoms: C_9  and  C_12 
ROOT
HETATM    1  N   UNK N   1      32.614  17.091   7.745  0.00  0.00    -0.371 N 
ENDROOT
BRANCH   1   2
HETATM    2  C   UNK N   1      33.269  16.533   8.932  0.00  0.00     0.088 C 
HETATM    3  C   UNK N   1      33.438  15.011   8.948  0.00  0.00     0.055 C 
HETATM    4  C   UNK N   1      34.132  14.611  10.262  0.00  0.00     0.274 C 
HETATM    5  N   UNK N   1      35.438  15.268  10.386  0.00  0.00     0.084 N 
HETATM    6  C   UNK N   1      35.253  16.715  10.433  0.00  0.00     0.274 C 
HETATM    7  C   UNK N   1      36.006  14.883  11.667  0.00  0.00     0.309 C 
HETATM    8  C   UNK N   1      34.634  17.200   9.131  0.00  0.00     0.055 C 
ENDBRANCH   1   2
BRANCH   1   9
HETATM    9  C   UNK N   1      33.433  17.724   6.709  0.00  0.00     0.169 C 
BRANCH   9  10
HETATM   10  C   UNK N   1      33.450  17.105   5.320  0.00  0.00     0.000 A 
HETATM   11  S   UNK N   1      33.931  15.582   4.864  0.00  0.00    -0.105 SA
HETATM   12  C   UNK N   1      33.323  15.513   3.324  0.00  0.00     0.050 A 
HETATM   13  C   UNK N   1      32.677  16.738   3.119  0.00  0.00     0.008 A 
HETATM   14  C   UNK N   1      32.731  17.622   4.239  0.00  0.00     0.017 A 
ENDBRANCH   9  10
ENDBRANCH   1   9
BRANCH   1  15
HETATM   15  C   UNK N   1      31.215  17.412   7.867  0.00  0.00     0.030 A 
HETATM   16  C   UNK N   1      30.267  16.806   7.019  0.00  0.00     0.029 A 
HETATM   17  C   UNK N   1      28.902  17.070   7.163  0.00  0.00     0.002 A 
HETATM   18  C   UNK N   1      28.465  17.952   8.152  0.00  0.00     0.000 A 
HETATM   19  C   UNK N   1      29.388  18.559   9.001  0.00  0.00     0.002 A 
HETATM   20  C   UNK N   1      30.750  18.277   8.868  0.00  0.00     0.029 A 
ENDBRANCH   1  15
TORSDOF 4
ENDMDL
MODEL 2
REMARK VINA RESULT:      -5.7      2.634      6.613
REMARK  4 active torsions:
REMARK  status: ('A' for Active; 'I' for Inactive)
REMARK    1  A    between atoms: N_3  and  C_4 
REMARK    2  A    between atoms: N_3  and  C_9 
REMARK    3  A    between atoms: N_3  and  C_10 
REMARK    4  A    between atoms: C_9  and  C_12 
ROOT
HETATM    1  N   UNK N   1      30.278  16.973   6.114  0.00  0.00    -0.371 N 
ENDROOT
BRANCH   1   2
HETATM    2  C   UNK N   1      29.332  18.018   5.711  0.00  0.00     0.088 C 
HETATM    3  C   UNK N   1      28.382  17.653   4.567  0.00  0.00     0.055 C 
HETATM    4  C   UNK N   1      27.476  18.864   4.281  0.00  0.00     0.274 C 
HETATM    5  N   UNK N   1      26.712  19.242   5.474  0.00  0.00     0.084 N 
HETATM    6  C   UNK N   1      27.631  19.647   6.533  0.00  0.00     0.274 C 
HETATM    7  C   UNK N   1      25.923  20.415   5.140  0.00  0.00     0.309 C 
HETATM    8  C   UNK N   1      28.518  18.474   6.926  0.00  0.00     0.055 C 
ENDBRANCH   1   2
BRANCH   1   9
HETATM    9  C   UNK N   1      30.534  16.754   7.539  0.00  0.00     0.169 C 
BRANCH   9  10
HETATM   10  C   UNK N   1      31.950  16.947   8.060  0.00  0.00     0.000 A 
HETATM   11  S   UNK N   1      33.103  15.799   8.391  0.00  0.00    -0.105 SA
HETATM   12  C   UNK N   1      34.452  16.749   8.541  0.00  0.00     0.050 A 
HETATM   13  C   UNK N   1      34.019  18.059   8.305  0.00  0.00     0.008 A 
HETATM   14  C   UNK N   1      32.624  18.170   8.018  0.00  0.00     0.017 A 
ENDBRANCH   9  10
ENDBRANCH   1   9
BRANCH   1  15
HETATM   15  C   UNK N   1      31.238  16.551   5.126  0.00  0.00     0.030 A 
HETATM   16  C   UNK N   1      31.387  15.185   4.813  0.00  0.00     0.029 A 
HETATM   17  C   UNK N   1      32.276  14.770   3.819  0.00  0.00     0.002 A 
HETATM   18  C   UNK N   1      33.040  15.712   3.130  0.00  0.00     0.000 A 
HETATM   19  C   UNK N   1      32.905  17.068   3.425  0.00  0.00     0.002 A 
HETATM   20  C   UNK N   1      31.999  17.482   4.404  0.00  0.00     0.029 A 
ENDBRANCH   1  15
TORSDOF 4
ENDMDL
MODEL 3
REMARK VINA RESULT:      -5.7      5.756     10.019
REMARK  4 active torsions:
REMARK  status: ('A' for Active; 'I' for Inactive)
REMARK    1  A    between atoms: N_3  and  C_4 
REMARK    2  A    between atoms: N_3  and  C_9 
REMARK    3  A    between atoms: N_3  and  C_10 
REMARK    4  A    between atoms: C_9  and  C_12 
ROOT
HETATM    1  N   UNK N   1      36.425  12.834  14.334  0.00  0.00    -0.371 N 
ENDROOT
BRANCH   1   2
HETATM    2  C   UNK N   1      36.437  13.525  13.042  0.00  0.00     0.088 C 
HETATM    3  C   UNK N   1      37.240  12.847  11.928  0.00  0.00     0.055 C 
HETATM    4  C   UNK N   1      37.143  13.712  10.660  0.00  0.00     0.274 C 
HETATM    5  N   UNK N   1      35.747  13.882  10.246  0.00  0.00     0.084 N 
HETATM    6  C   UNK N   1      35.011  14.587  11.292  0.00  0.00     0.274 C 
HETATM    7  C   UNK N   1      35.734  14.747   9.078  0.00  0.00     0.309 C 
HETATM    8  C   UNK N   1      34.999  13.755  12.566  0.00  0.00     0.055 C 
ENDBRANCH   1   2
BRANCH   1   9
HETATM    9  C   UNK N   1      35.954  11.448  14.399  0.00  0.00     0.169 C 
BRANCH   9  10
HETATM   10  C   UNK N   1      36.966  10.352  14.691  0.00  0.00     0.000 A 
HETATM   11  S   UNK N   1      36.729   8.709  14.766  0.00  0.00    -0.105 SA
HETATM   12  C   UNK N   1      38.296   8.169  14.747  0.00  0.00     0.050 A 
HETATM   13  C   UNK N   1      39.090   9.319  14.659  0.00  0.00     0.008 A 
HETATM   14  C   UNK N   1      38.348  10.538  14.610  0.00  0.00     0.017 A 
ENDBRANCH   9  10
ENDBRANCH   1   9
BRANCH   1  15
HETATM   15  C   UNK N   1      36.420  13.662  15.513  0.00  0.00     0.030 A 
HETATM   16  C   UNK N   1      37.214  14.825  15.572  0.00  0.00     0.029 A 
HETATM   17  C   UNK N   1      37.176  15.664  16.689  0.00  0.00     0.002 A 
HETATM   18  C   UNK N   1      36.352  15.348  17.769  0.00  0.00     0.000 A 
HETATM   19  C   UNK N   1      35.558  14.202  17.727  0.00  0.00     0.002 A 
HETATM   20  C   UNK N   1      35.582  13.377  16.601  0.00  0.00     0.029 A 
ENDBRANCH   1  15
TORSDOF 4
ENDMDL
MODEL 4
REMARK VINA RESULT:      -5.7     13.042     16.499
REMARK  4 active torsions:
REMARK  status: ('A' for Active; 'I' for Inactive)
REMARK    1  A    between atoms: N_3  and  C_4 
REMARK    2  A    between atoms: N_3  and  C_9 
REMARK    3  A    between atoms: N_3  and  C_10 
REMARK    4  A    between atoms: C_9  and  C_12 
ROOT
HETATM    1  N   UNK N   1      27.788  23.619  -5.947  0.00  0.00    -0.371 N 
ENDROOT
BRANCH   1   2
HETATM    2  C   UNK N   1      27.059  24.769  -5.404  0.00  0.00     0.088 C 
HETATM    3  C   UNK N   1      27.209  25.007  -3.899  0.00  0.00     0.055 C 
HETATM    4  C   UNK N   1      26.376  26.242  -3.514  0.00  0.00     0.274 C 
HETATM    5  N   UNK N   1      26.816  27.425  -4.260  0.00  0.00     0.084 N 
HETATM    6  C   UNK N   1      26.607  27.206  -5.688  0.00  0.00     0.274 C 
HETATM    7  C   UNK N   1      25.955  28.532  -3.881  0.00  0.00     0.309 C 
HETATM    8  C   UNK N   1      27.460  26.039  -6.163  0.00  0.00     0.055 C 
ENDBRANCH   1   2
BRANCH   1   9
HETATM    9  C   UNK N   1      29.247  23.684  -6.053  0.00  0.00     0.169 C 
BRANCH   9  10
HETATM   10  C   UNK N   1      30.083  22.968  -5.004  0.00  0.00     0.000 A 
HETATM   11  S   UNK N   1      30.780  23.585  -3.629  0.00  0.00    -0.105 SA
HETATM   12  C   UNK N   1      31.181  22.189  -2.831  0.00  0.00     0.050 A 
HETATM   13  C   UNK N   1      30.740  21.145  -3.653  0.00  0.00     0.008 A 
HETATM   14  C   UNK N   1      30.111  21.578  -4.860  0.00  0.00     0.017 A 
ENDBRANCH   9  10
ENDBRANCH   1   9
BRANCH   1  15
HETATM   15  C   UNK N   1      27.036  22.703  -6.765  0.00  0.00     0.030 A 
HETATM   16  C   UNK N   1      27.696  21.841  -7.664  0.00  0.00     0.029 A 
HETATM   17  C   UNK N   1      26.982  20.911  -8.423  0.00  0.00     0.002 A 
HETATM   18  C   UNK N   1      25.593  20.836  -8.305  0.00  0.00     0.000 A 
HETATM   19  C   UNK N   1      24.924  21.680  -7.420  0.00  0.00     0.002 A 
HETATM   20  C   UNK N   1      25.643  22.593  -6.647  0.00  0.00     0.029 A 
ENDBRANCH   1  15
TORSDOF 4
ENDMDL
MODEL 5
REMARK VINA RESULT:      -5.6      3.935      6.688
REMARK  4 active torsions:
REMARK  status: ('A' for Active; 'I' for Inactive)
REMARK    1  A    between atoms: N_3  and  C_4 
REMARK    2  A    between atoms: N_3  and  C_9 
REMARK    3  A    between atoms: N_3  and  C_10 
REMARK    4  A    between atoms: C_9  and  C_12 
ROOT
HETATM    1  N   UNK N   1      28.665  17.285   5.062  0.00  0.00    -0.371 N 
ENDROOT
BRANCH   1   2
HETATM    2  C   UNK N   1      27.962  16.306   4.228  0.00  0.00     0.088 C 
HETATM    3  C   UNK N   1      28.606  15.996   2.874  0.00  0.00     0.055 C 
HETATM    4  C   UNK N   1      27.731  14.962   2.142  0.00  0.00     0.274 C 
HETATM    5  N   UNK N   1      27.598  13.735   2.934  0.00  0.00     0.084 N 
HETATM    6  C   UNK N   1      26.925  14.038   4.193  0.00  0.00     0.274 C 
HETATM    7  C   UNK N   1      26.723  12.832   2.205  0.00  0.00     0.309 C 
HETATM    8  C   UNK N   1      27.769  15.004   5.011  0.00  0.00     0.055 C 
ENDBRANCH   1   2
BRANCH   1   9
HETATM    9  C   UNK N   1      29.675  16.818   6.014  0.00  0.00     0.169 C 
BRANCH   9  10
HETATM   10  C   UNK N   1      31.126  17.203   5.779  0.00  0.00     0.000 A 
HETATM   11  S   UNK N   1      32.435  16.995   6.781  0.00  0.00    -0.105 SA
HETATM   12  C   UNK N   1      33.681  17.294   5.731  0.00  0.00     0.050 A 
HETATM   13  C   UNK N   1      33.077  17.562   4.497  0.00  0.00     0.008 A 
HETATM   14  C   UNK N   1      31.651  17.494   4.517  0.00  0.00     0.017 A 
ENDBRANCH   9  10
ENDBRANCH   1   9
BRANCH   1  15
HETATM   15  C   UNK N   1      28.022  18.561   5.247  0.00  0.00     0.030 A 
HETATM   16  C   UNK N   1      27.965  19.153   6.525  0.00  0.00     0.029 A 
HETATM   17  C   UNK N   1      27.391  20.414   6.706  0.00  0.00     0.002 A 
HETATM   18  C   UNK N   1      26.853  21.098   5.616  0.00  0.00     0.000 A 
HETATM   19  C   UNK N   1      26.901  20.527   4.345  0.00  0.00     0.002 A 
HETATM   20  C   UNK N   1      27.495  19.277   4.162  0.00  0.00     0.029 A 
ENDBRANCH   1  15
TORSDOF 4
ENDMDL
MODEL 6
REMARK VINA RESULT:      -5.6     13.688     16.809
REMARK  4 active torsions:
REMARK  status: ('A' for Active; 'I' for Inactive)
REMARK    1  A    between atoms: N_3  and  C_4 
REMARK    2  A    between atoms: N_3  and  C_9 
REMARK    3  A    between atoms: N_3  and  C_10 
REMARK    4  A    between atoms: C_9  and  C_12 
ROOT
HETATM    1  N   UNK N   1      27.430  25.029  -4.350  0.00  0.00    -0.371 N 
ENDROOT
BRANCH   1   2
HETATM    2  C   UNK N   1      27.383  26.460  -4.035  0.00  0.00     0.088 C 
HETATM    3  C   UNK N   1      28.193  27.374  -4.959  0.00  0.00     0.055 C 
HETATM    4  C   UNK N   1      28.030  28.825  -4.474  0.00  0.00     0.274 C 
HETATM    5  N   UNK N   1      26.619  29.224  -4.477  0.00  0.00     0.084 N 
HETATM    6  C   UNK N   1      25.874  28.384  -3.545  0.00  0.00     0.274 C 
HETATM    7  C   UNK N   1      26.542  30.581  -3.963  0.00  0.00     0.309 C 
HETATM    8  C   UNK N   1      25.926  26.933  -3.999  0.00  0.00     0.055 C 
ENDBRANCH   1   2
BRANCH   1   9
HETATM    9  C   UNK N   1      26.214  24.360  -4.816  0.00  0.00     0.169 C 
BRANCH   9  10
HETATM   10  C   UNK N   1      26.094  24.021  -6.294  0.00  0.00     0.000 A 
HETATM   11  S   UNK N   1      25.764  22.556  -7.003  0.00  0.00    -0.105 SA
HETATM   12  C   UNK N   1      25.427  23.031  -8.554  0.00  0.00     0.050 A 
HETATM   13  C   UNK N   1      25.551  24.425  -8.556  0.00  0.00     0.008 A 
HETATM   14  C   UNK N   1      25.906  24.982  -7.290  0.00  0.00     0.017 A 
ENDBRANCH   9  10
ENDBRANCH   1   9
BRANCH   1  15
HETATM   15  C   UNK N   1      28.499  24.269  -3.754  0.00  0.00     0.030 A 
HETATM   16  C   UNK N   1      29.770  24.224  -4.361  0.00  0.00     0.029 A 
HETATM   17  C   UNK N   1      30.827  23.534  -3.764  0.00  0.00     0.002 A 
HETATM   18  C   UNK N   1      30.628  22.867  -2.554  0.00  0.00     0.000 A 
HETATM   19  C   UNK N   1      29.378  22.902  -1.938  0.00  0.00     0.002 A 
HETATM   20  C   UNK N   1      28.329  23.610  -2.526  0.00  0.00     0.029 A 
ENDBRANCH   1  15
TORSDOF 4
ENDMDL
MODEL 7
REMARK VINA RESULT:      -5.5     13.544     17.164
REMARK  4 active torsions:
REMARK  status: ('A' for Active; 'I' for Inactive)
REMARK    1  A    between atoms: N_3  and  C_4 
REMARK    2  A    between atoms: N_3  and  C_9 
REMARK    3  A    between atoms: N_3  and  C_10 
REMARK    4  A    between atoms: C_9  and  C_12 
ROOT
HETATM    1  N   UNK N   1      28.035  23.743  -5.740  0.00  0.00    -0.371 N 
ENDROOT
BRANCH   1   2
HETATM    2  C   UNK N   1      27.529  22.820  -6.760  0.00  0.00     0.088 C 
HETATM    3  C   UNK N   1      26.010  22.629  -6.793  0.00  0.00     0.055 C 
HETATM    4  C   UNK N   1      25.668  21.630  -7.913  0.00  0.00     0.274 C 
HETATM    5  N   UNK N   1      26.147  22.114  -9.212  0.00  0.00     0.084 N 
HETATM    6  C   UNK N   1      27.601  22.231  -9.183  0.00  0.00     0.274 C 
HETATM    7  C   UNK N   1      25.833  21.101 -10.204  0.00  0.00     0.309 C 
HETATM    8  C   UNK N   1      28.018  23.261  -8.143  0.00  0.00     0.055 C 
ENDBRANCH   1   2
BRANCH   1   9
HETATM    9  C   UNK N   1      28.001  25.184  -6.000  0.00  0.00     0.169 C 
BRANCH   9  10
HETATM   10  C   UNK N   1      26.843  25.994  -5.441  0.00  0.00     0.000 A 
HETATM   11  S   UNK N   1      26.826  27.023  -4.137  0.00  0.00    -0.105 SA
HETATM   12  C   UNK N   1      25.379  27.796  -4.371  0.00  0.00     0.050 A 
HETATM   13  C   UNK N   1      24.849  27.255  -5.548  0.00  0.00     0.008 A 
HETATM   14  C   UNK N   1      25.673  26.261  -6.157  0.00  0.00     0.017 A 
ENDBRANCH   9  10
ENDBRANCH   1   9
BRANCH   1  15
HETATM   15  C   UNK N   1      28.949  23.198  -4.769  0.00  0.00     0.030 A 
HETATM   16  C   UNK N   1      28.942  23.666  -3.440  0.00  0.00     0.029 A 
HETATM   17  C   UNK N   1      29.787  23.107  -2.477  0.00  0.00     0.002 A 
HETATM   18  C   UNK N   1      30.661  22.079  -2.831  0.00  0.00     0.000 A 
HETATM   19  C   UNK N   1      30.680  21.602  -4.141  0.00  0.00     0.002 A 
HETATM   20  C   UNK N   1      29.820  22.148  -5.095  0.00  0.00     0.029 A 
ENDBRANCH   1  15
TORSDOF 4
ENDMDL
MODEL 8
REMARK VINA RESULT:      -5.4      3.331      5.574
REMARK  4 active torsions:
REMARK  status: ('A' for Active; 'I' for Inactive)
REMARK    1  A    between atoms: N_3  and  C_4 
REMARK    2  A    between atoms: N_3  and  C_9 
REMARK    3  A    between atoms: N_3  and  C_10 
REMARK    4  A    between atoms: C_9  and  C_12 
ROOT
HETATM    1  N   UNK N   1      29.537  16.803   5.820  0.00  0.00    -0.371 N 
ENDROOT
BRANCH   1   2
HETATM    2  C   UNK N   1      30.879  16.813   6.409  0.00  0.00     0.088 C 
HETATM    3  C   UNK N   1      31.990  17.392   5.529  0.00  0.00     0.055 C 
HETATM    4  C   UNK N   1      33.317  17.314   6.304  0.00  0.00     0.274 C 
HETATM    5  N   UNK N   1      33.231  18.055   7.567  0.00  0.00     0.084 N 
HETATM    6  C   UNK N   1      32.212  17.451   8.418  0.00  0.00     0.274 C 
HETATM    7  C   UNK N   1      34.498  17.894   8.261  0.00  0.00     0.309 C 
HETATM    8  C   UNK N   1      30.850  17.556   7.749  0.00  0.00     0.055 C 
ENDBRANCH   1   2
BRANCH   1   9
HETATM    9  C   UNK N   1      28.423  17.388   6.571  0.00  0.00     0.169 C 
BRANCH   9  10
HETATM   10  C   UNK N   1      27.830  18.700   6.083  0.00  0.00     0.000 A 
HETATM   11  S   UNK N   1      26.816  18.970   4.796  0.00  0.00    -0.105 SA
HETATM   12  C   UNK N   1      26.314  20.517   5.115  0.00  0.00     0.050 A 
HETATM   13  C   UNK N   1      26.946  20.878   6.311  0.00  0.00     0.008 A 
HETATM   14  C   UNK N   1      27.779  19.859   6.863  0.00  0.00     0.017 A 
ENDBRANCH   9  10
ENDBRANCH   1   9
BRANCH   1  15
HETATM   15  C   UNK N   1      29.289  15.832   4.786  0.00  0.00     0.030 A 
HETATM   16  C   UNK N   1      29.187  14.462   5.102  0.00  0.00     0.029 A 
HETATM   17  C   UNK N   1      28.895  13.518   4.115  0.00  0.00     0.002 A 
HETATM   18  C   UNK N   1      28.711  13.926   2.793  0.00  0.00     0.000 A 
HETATM   19  C   UNK N   1      28.806  15.276   2.462  0.00  0.00     0.002 A 
HETATM   20  C   UNK N   1      29.078  16.221   3.454  0.00  0.00     0.029 A 
ENDBRANCH   1  15
TORSDOF 4
ENDMDL
MODEL 9
REMARK VINA RESULT:      -5.3      3.456      5.533
REMARK  4 active torsions:
REMARK  status: ('A' for Active; 'I' for Inactive)
REMARK    1  A    between atoms: N_3  and  C_4 
REMARK    2  A    between atoms: N_3  and  C_9 
REMARK    3  A    between atoms: N_3  and  C_10 
REMARK    4  A    between atoms: C_9  and  C_12 
ROOT
HETATM    1  N   UNK N   1      28.564  17.450   5.886  0.00  0.00    -0.371 N 
ENDROOT
BRANCH   1   2
HETATM    2  C   UNK N   1      29.813  17.562   6.645  0.00  0.00     0.088 C 
HETATM    3  C   UNK N   1      29.719  17.238   8.138  0.00  0.00     0.055 C 
HETATM    4  C   UNK N   1      31.113  17.415   8.765  0.00  0.00     0.274 C 
HETATM    5  N   UNK N   1      32.094  16.538   8.117  0.00  0.00     0.084 N 
HETATM    6  C   UNK N   1      32.218  16.903   6.709  0.00  0.00     0.274 C 
HETATM    7  C   UNK N   1      33.388  16.797   8.726  0.00  0.00     0.309 C 
HETATM    8  C   UNK N   1      30.890  16.684   5.999  0.00  0.00     0.055 C 
ENDBRANCH   1   2
BRANCH   1   9
HETATM    9  C   UNK N   1      28.273  16.206   5.170  0.00  0.00     0.169 C 
BRANCH   9  10
HETATM   10  C   UNK N   1      27.117  15.345   5.653  0.00  0.00     0.000 A 
HETATM   11  S   UNK N   1      26.746  13.777   5.249  0.00  0.00    -0.105 SA
HETATM   12  C   UNK N   1      25.628  13.412   6.416  0.00  0.00     0.050 A 
HETATM   13  C   UNK N   1      25.521  14.562   7.208  0.00  0.00     0.008 A 
HETATM   14  C   UNK N   1      26.365  15.637   6.794  0.00  0.00     0.017 A 
ENDBRANCH   9  10
ENDBRANCH   1   9
BRANCH   1  15
HETATM   15  C   UNK N   1      27.930  18.683   5.495  0.00  0.00     0.030 A 
HETATM   16  C   UNK N   1      27.532  18.890   4.159  0.00  0.00     0.029 A 
HETATM   17  C   UNK N   1      26.869  20.060   3.780  0.00  0.00     0.002 A 
HETATM   18  C   UNK N   1      26.603  21.048   4.729  0.00  0.00     0.000 A 
HETATM   19  C   UNK N   1      26.988  20.860   6.056  0.00  0.00     0.002 A 
HETATM   20  C   UNK N   1      27.632  19.680   6.436  0.00  0.00     0.029 A 
ENDBRANCH   1  15
TORSDOF 4
ENDMDL
