MODEL 1
REMARK VINA RESULT:      -3.8      0.000      0.000
REMARK  2 active torsions:
REMARK  status: ('A' for Active; 'I' for Inactive)
REMARK    1  A    between atoms: O_1  and  C_4 
REMARK    2  A    between atoms: O_1  and  C_6 
REMARK       I    between atoms: N_3  and  C_6 
ROOT
HETATM    1  O   UNK N   1      35.306  19.286   8.599  0.00  0.00    -0.239 OA
HETATM    2  N   UNK N   1      33.880  17.649   9.073  0.00  0.00    -0.346 N 
HETATM    3  C   UNK N   1      34.598  18.375   8.195  0.00  0.00     0.358 C 
HETATM    4  H   UNK N   1      33.927  17.853  10.035  0.00  0.00     0.161 HD
HETATM    5  H   UNK N   1      33.308  16.914   8.752  0.00  0.00     0.161 HD
ENDROOT
BRANCH   3   6
HETATM    6  O   UNK N   1      34.525  18.085   6.873  0.00  0.00    -0.305 OA
BRANCH   6   7
HETATM    7  C   UNK N   1      33.801  17.025   6.383  0.00  0.00     0.176 C 
HETATM    8  C   UNK N   1      33.123  17.439   5.095  0.00  0.00     0.034 C 
ENDBRANCH   6   7
ENDBRANCH   3   6
TORSDOF 2
ENDMDL
MODEL 2
REMARK VINA RESULT:      -3.3     13.116     13.915
REMARK  2 active torsions:
REMARK  status: ('A' for Active; 'I' for Inactive)
REMARK    1  A    between atoms: O_1  and  C_4 
REMARK    2  A    between atoms: O_1  and  C_6 
REMARK       I    between atoms: N_3  and  C_6 
ROOT
HETATM    1  O   UNK N   1      21.389  20.762   0.351  0.00  0.00    -0.239 OA
HETATM    2  N   UNK N   1      20.022  19.821   1.829  0.00  0.00    -0.346 N 
HETATM    3  C   UNK N   1      21.135  20.515   1.521  0.00  0.00     0.358 C 
HETATM    4  H   UNK N   1      19.419  19.516   1.114  0.00  0.00     0.161 HD
HETATM    5  H   UNK N   1      19.813  19.620   2.770  0.00  0.00     0.161 HD
ENDROOT
BRANCH   3   6
HETATM    6  O   UNK N   1      21.958  20.930   2.514  0.00  0.00    -0.305 OA
BRANCH   6   7
HETATM    7  C   UNK N   1      22.865  20.098   3.125  0.00  0.00     0.176 C 
HETATM    8  C   UNK N   1      24.266  20.604   2.853  0.00  0.00     0.034 C 
ENDBRANCH   6   7
ENDBRANCH   3   6
TORSDOF 2
ENDMDL
MODEL 3
REMARK VINA RESULT:      -3.2     14.894     15.143
REMARK  2 active torsions:
REMARK  status: ('A' for Active; 'I' for Inactive)
REMARK    1  A    between atoms: O_1  and  C_4 
REMARK    2  A    between atoms: O_1  and  C_6 
REMARK       I    between atoms: N_3  and  C_6 
ROOT
HETATM    1  O   UNK N   1      20.113  19.569  10.086  0.00  0.00    -0.239 OA
HETATM    2  N   UNK N   1      18.054  19.446  10.913  0.00  0.00    -0.346 N 
HETATM    3  C   UNK N   1      19.041  18.982  10.123  0.00  0.00     0.358 C 
HETATM    4  H   UNK N   1      18.198  20.253  11.458  0.00  0.00     0.161 HD
HETATM    5  H   UNK N   1      17.189  18.977  10.947  0.00  0.00     0.161 HD
ENDROOT
BRANCH   3   6
HETATM    6  O   UNK N   1      18.830  17.870   9.378  0.00  0.00    -0.305 OA
BRANCH   6   7
HETATM    7  C   UNK N   1      19.740  17.408   8.457  0.00  0.00     0.176 C 
HETATM    8  C   UNK N   1      20.130  15.989   8.811  0.00  0.00     0.034 C 
ENDBRANCH   6   7
ENDBRANCH   3   6
TORSDOF 2
ENDMDL
MODEL 4
REMARK VINA RESULT:      -3.1     12.963     13.162
REMARK  2 active torsions:
REMARK  status: ('A' for Active; 'I' for Inactive)
REMARK    1  A    between atoms: O_1  and  C_4 
REMARK    2  A    between atoms: O_1  and  C_6 
REMARK       I    between atoms: N_3  and  C_6 
ROOT
HETATM    1  O   UNK N   1      23.883  11.989  12.920  0.00  0.00    -0.239 OA
HETATM    2  N   UNK N   1      25.003  12.511  11.073  0.00  0.00    -0.346 N 
HETATM    3  C   UNK N   1      23.918  12.014  11.698  0.00  0.00     0.358 C 
HETATM    4  H   UNK N   1      25.762  12.851  11.600  0.00  0.00     0.161 HD
HETATM    5  H   UNK N   1      25.037  12.533  10.089  0.00  0.00     0.161 HD
ENDROOT
BRANCH   3   6
HETATM    6  O   UNK N   1      22.880  11.549  10.962  0.00  0.00    -0.305 OA
BRANCH   6   7
HETATM    7  C   UNK N   1      21.682  12.215  10.862  0.00  0.00     0.176 C 
HETATM    8  C   UNK N   1      21.516  12.730   9.448  0.00  0.00     0.034 C 
ENDBRANCH   6   7
ENDBRANCH   3   6
TORSDOF 2
ENDMDL
MODEL 5
REMARK VINA RESULT:      -3.0     14.644     14.971
REMARK  2 active torsions:
REMARK  status: ('A' for Active; 'I' for Inactive)
REMARK    1  A    between atoms: O_1  and  C_4 
REMARK    2  A    between atoms: O_1  and  C_6 
REMARK       I    between atoms: N_3  and  C_6 
ROOT
HETATM    1  O   UNK N   1      22.009  20.725   1.905  0.00  0.00    -0.239 OA
HETATM    2  N   UNK N   1      20.474  20.965   0.317  0.00  0.00    -0.346 N 
HETATM    3  C   UNK N   1      20.865  20.521   1.527  0.00  0.00     0.358 C 
HETATM    4  H   UNK N   1      21.109  21.452  -0.257  0.00  0.00     0.161 HD
HETATM    5  H   UNK N   1      19.553  20.804   0.007  0.00  0.00     0.161 HD
ENDROOT
BRANCH   3   6
HETATM    6  O   UNK N   1      19.982  19.853   2.309  0.00  0.00    -0.305 OA
BRANCH   6   7
HETATM    7  C   UNK N   1      20.234  18.598   2.809  0.00  0.00     0.176 C 
HETATM    8  C   UNK N   1      20.097  17.582   1.695  0.00  0.00     0.034 C 
ENDBRANCH   6   7
ENDBRANCH   3   6
TORSDOF 2
ENDMDL
MODEL 6
REMARK VINA RESULT:      -3.0      2.290      2.642
REMARK  2 active torsions:
REMARK  status: ('A' for Active; 'I' for Inactive)
REMARK    1  A    between atoms: O_1  and  C_4 
REMARK    2  A    between atoms: O_1  and  C_6 
REMARK       I    between atoms: N_3  and  C_6 
ROOT
HETATM    1  O   UNK N   1      34.541  18.024   6.860  0.00  0.00    -0.239 OA
HETATM    2  N   UNK N   1      34.829  17.800   9.052  0.00  0.00    -0.346 N 
HETATM    3  C   UNK N   1      34.069  18.108   7.984  0.00  0.00     0.358 C 
HETATM    4  H   UNK N   1      35.761  17.508   8.924  0.00  0.00     0.161 HD
HETATM    5  H   UNK N   1      34.453  17.866   9.959  0.00  0.00     0.161 HD
ENDROOT
BRANCH   3   6
HETATM    6  O   UNK N   1      32.788  18.508   8.172  0.00  0.00    -0.305 OA
BRANCH   6   7
HETATM    7  C   UNK N   1      31.751  17.624   8.349  0.00  0.00     0.176 C 
HETATM    8  C   UNK N   1      30.559  18.362   8.921  0.00  0.00     0.034 C 
ENDBRANCH   6   7
ENDBRANCH   3   6
TORSDOF 2
ENDMDL
MODEL 7
REMARK VINA RESULT:      -2.9     13.941     14.292
REMARK  2 active torsions:
REMARK  status: ('A' for Active; 'I' for Inactive)
REMARK    1  A    between atoms: O_1  and  C_4 
REMARK    2  A    between atoms: O_1  and  C_6 
REMARK       I    between atoms: N_3  and  C_6 
ROOT
HETATM    1  O   UNK N   1      19.465  14.062   9.864  0.00  0.00    -0.239 OA
HETATM    2  N   UNK N   1      20.812  15.484   8.816  0.00  0.00    -0.346 N 
HETATM    3  C   UNK N   1      20.607  14.412   9.605  0.00  0.00     0.358 C 
HETATM    4  H   UNK N   1      20.044  15.981   8.451  0.00  0.00     0.161 HD
HETATM    5  H   UNK N   1      21.730  15.771   8.604  0.00  0.00     0.161 HD
ENDROOT
BRANCH   3   6
HETATM    6  O   UNK N   1      21.672  13.737  10.102  0.00  0.00    -0.305 OA
BRANCH   6   7
HETATM    7  C   UNK N   1      21.629  12.396  10.398  0.00  0.00     0.176 C 
HETATM    8  C   UNK N   1      22.726  12.070  11.389  0.00  0.00     0.034 C 
ENDBRANCH   6   7
ENDBRANCH   3   6
TORSDOF 2
ENDMDL
MODEL 8
REMARK VINA RESULT:      -2.9      4.111      4.857
REMARK  2 active torsions:
REMARK  status: ('A' for Active; 'I' for Inactive)
REMARK    1  A    between atoms: O_1  and  C_4 
REMARK    2  A    between atoms: O_1  and  C_6 
REMARK       I    between atoms: N_3  and  C_6 
ROOT
HETATM    1  O   UNK N   1      35.507  17.664  10.251  0.00  0.00    -0.239 OA
HETATM    2  N   UNK N   1      34.380  15.857  10.885  0.00  0.00    -0.346 N 
HETATM    3  C   UNK N   1      35.528  16.482  10.563  0.00  0.00     0.358 C 
HETATM    4  H   UNK N   1      33.529  16.352  10.868  0.00  0.00     0.161 HD
HETATM    5  H   UNK N   1      34.392  14.905  11.137  0.00  0.00     0.161 HD
ENDROOT
BRANCH   3   6
HETATM    6  O   UNK N   1      36.694  15.791  10.590  0.00  0.00    -0.305 OA
BRANCH   6   7
HETATM    7  C   UNK N   1      36.846  14.566   9.986  0.00  0.00     0.176 C 
HETATM    8  C   UNK N   1      37.214  13.537  11.034  0.00  0.00     0.034 C 
ENDBRANCH   6   7
ENDBRANCH   3   6
TORSDOF 2
ENDMDL
MODEL 9
REMARK VINA RESULT:      -2.8      8.387      8.982
REMARK  2 active torsions:
REMARK  status: ('A' for Active; 'I' for Inactive)
REMARK    1  A    between atoms: O_1  and  C_4 
REMARK    2  A    between atoms: O_1  and  C_6 
REMARK       I    between atoms: N_3  and  C_6 
ROOT
HETATM    1  O   UNK N   1      34.924  13.852  12.791  0.00  0.00    -0.239 OA
HETATM    2  N   UNK N   1      36.772  13.544  13.985  0.00  0.00    -0.346 N 
HETATM    3  C   UNK N   1      35.432  13.526  13.853  0.00  0.00     0.358 C 
HETATM    4  H   UNK N   1      37.337  13.818  13.226  0.00  0.00     0.161 HD
HETATM    5  H   UNK N   1      37.187  13.282  14.838  0.00  0.00     0.161 HD
ENDROOT
BRANCH   3   6
HETATM    6  O   UNK N   1      34.665  13.147  14.904  0.00  0.00    -0.305 OA
BRANCH   6   7
HETATM    7  C   UNK N   1      34.699  11.878  15.431  0.00  0.00     0.176 C 
HETATM    8  C   UNK N   1      33.758  10.989  14.646  0.00  0.00     0.034 C 
ENDBRANCH   6   7
ENDBRANCH   3   6
TORSDOF 2
ENDMDL
