REMARK  5 active torsions:
REMARK  status: ('A' for Active; 'I' for Inactive)
REMARK    1  A    between atoms: O_3  and  C_15 
REMARK    2  A    between atoms: C_6  and  C_11 
REMARK    3  A    between atoms: C_7  and  C_10 
REMARK    4  A    between atoms: C_10  and  C_15 
REMARK    5  A    between atoms: C_11  and  C_14 
ROOT
HETATM    1  N   UNK N   1       3.210   2.127   0.002  0.00  0.00    -0.351 N 
HETATM    2  C   UNK N   1       3.113   0.787   0.170  0.00  0.00     0.091 A 
HETATM    3  C   UNK N   1       4.508   2.420  -0.222  0.00  0.00     0.022 A 
HETATM    4  C   UNK N   1       4.401   0.243   0.076  0.00  0.00    -0.029 A 
HETATM    5  C   UNK N   1       5.275   1.274  -0.185  0.00  0.00     0.034 A 
HETATM    6  C   UNK N   1       2.124   3.101   0.026  0.00  0.00     0.156 C 
HETATM    7  C   UNK N   1       4.874  -1.149   0.301  0.00  0.00     0.050 C 
ENDROOT
BRANCH   2   8
HETATM    8  C   UNK N   1       1.817   0.073   0.452  0.00  0.00     0.209 C 
HETATM    9  O   UNK N   1       0.874   0.730   0.873  0.00  0.00    -0.285 OA
BRANCH   8  10
HETATM   10  C   UNK N   1       1.605  -1.389   0.241  0.00  0.00     0.016 A 
HETATM   11  C   UNK N   1       2.451  -2.141  -0.584  0.00  0.00     0.017 A 
HETATM   12  C   UNK N   1       2.252  -3.509  -0.767  0.00  0.00     0.025 A 
HETATM   13  C   UNK N   1       1.185  -4.145  -0.134  0.00  0.00     0.034 A 
HETATM   14 Cl   UNK N   1       0.962  -5.869  -0.333  0.00  0.00    -0.084 Cl
HETATM   15  C   UNK N   1       0.304  -3.406   0.659  0.00  0.00     0.025 A 
HETATM   16  C   UNK N   1       0.506  -2.031   0.837  0.00  0.00     0.017 A 
ENDBRANCH   8  10
ENDBRANCH   2   8
BRANCH   3  17
HETATM   17  C   UNK N   1       5.049   3.793  -0.491  0.00  0.00     0.167 C 
BRANCH  17  18
HETATM   18  C   UNK N   1       6.256   4.093   0.348  0.00  0.00     0.145 C 
HETATM   19  O   UNK N   1       7.278   3.437   0.209  0.00  0.00    -0.650 OA
BRANCH  18  20
HETATM   20  O   UNK N   1       6.231   5.108   1.230  0.00  0.00    -0.776 OA
HETATM   21  H   UNK N   1       6.834   5.477   1.844  0.00  0.00     0.167 HD
ENDBRANCH  18  20
ENDBRANCH  17  18
ENDBRANCH   3  17
TORSDOF 5
