MODEL 1
REMARK VINA RESULT:      -6.6      0.000      0.000
REMARK  5 active torsions:
REMARK  status: ('A' for Active; 'I' for Inactive)
REMARK    1  A    between atoms: O_3  and  C_15 
REMARK    2  A    between atoms: C_6  and  C_11 
REMARK    3  A    between atoms: C_7  and  C_10 
REMARK    4  A    between atoms: C_10  and  C_15 
REMARK    5  A    between atoms: C_11  and  C_14 
ROOT
HETATM    1  N   UNK N   1      32.182  16.520   7.236  0.00  0.00    -0.351 N 
HETATM    2  C   UNK N   1      31.524  16.820   6.091  0.00  0.00     0.091 A 
HETATM    3  C   UNK N   1      33.502  16.667   7.002  0.00  0.00     0.022 A 
HETATM    4  C   UNK N   1      32.477  17.132   5.112  0.00  0.00    -0.029 A 
HETATM    5  C   UNK N   1      33.722  17.048   5.694  0.00  0.00     0.034 A 
HETATM    6  C   UNK N   1      31.596  16.132   8.514  0.00  0.00     0.156 C 
HETATM    7  C   UNK N   1      32.306  17.413   3.661  0.00  0.00     0.050 C 
ENDROOT
BRANCH   2   8
HETATM    8  C   UNK N   1      30.026  16.764   5.950  0.00  0.00     0.209 C 
HETATM    9  O   UNK N   1      29.504  15.676   5.741  0.00  0.00    -0.285 OA
BRANCH   8  10
HETATM   10  C   UNK N   1      29.131  17.953   6.059  0.00  0.00     0.016 A 
HETATM   11  C   UNK N   1      28.668  18.411   7.299  0.00  0.00     0.017 A 
HETATM   12  C   UNK N   1      27.840  19.530   7.392  0.00  0.00     0.025 A 
HETATM   13  C   UNK N   1      27.449  20.201   6.235  0.00  0.00     0.034 A 
HETATM   14 Cl   UNK N   1      26.444  21.628   6.358  0.00  0.00    -0.084 Cl
HETATM   15  C   UNK N   1      27.864  19.736   4.985  0.00  0.00     0.025 A 
HETATM   16  C   UNK N   1      28.692  18.609   4.896  0.00  0.00     0.017 A 
ENDBRANCH   8  10
ENDBRANCH   2   8
BRANCH   3  17
HETATM   17  C   UNK N   1      34.587  16.463   8.017  0.00  0.00     0.167 C 
BRANCH  17  18
HETATM   18  C   UNK N   1      34.848  17.706   8.815  0.00  0.00     0.145 C 
HETATM   19  O   UNK N   1      35.291  17.624   9.951  0.00  0.00    -0.650 OA
BRANCH  18  20
HETATM   20  O   UNK N   1      34.630  18.917   8.271  0.00  0.00    -0.776 OA
HETATM   21  H   UNK N   1      35.132  19.523   7.763  0.00  0.00     0.167 HD
ENDBRANCH  18  20
ENDBRANCH  17  18
ENDBRANCH   3  17
TORSDOF 5
ENDMDL
MODEL 2
REMARK VINA RESULT:      -6.6      1.927      2.297
REMARK  5 active torsions:
REMARK  status: ('A' for Active; 'I' for Inactive)
REMARK    1  A    between atoms: O_3  and  C_15 
REMARK    2  A    between atoms: C_6  and  C_11 
REMARK    3  A    between atoms: C_7  and  C_10 
REMARK    4  A    between atoms: C_10  and  C_15 
REMARK    5  A    between atoms: C_11  and  C_14 
ROOT
HETATM    1  N   UNK N   1      30.949  17.614   8.185  0.00  0.00    -0.351 N 
HETATM    2  C   UNK N   1      30.054  17.038   7.348  0.00  0.00     0.091 A 
HETATM    3  C   UNK N   1      32.142  17.015   7.985  0.00  0.00     0.022 A 
HETATM    4  C   UNK N   1      30.714  16.030   6.633  0.00  0.00    -0.029 A 
HETATM    5  C   UNK N   1      32.032  16.029   7.027  0.00  0.00     0.034 A 
HETATM    6  C   UNK N   1      30.706  18.704   9.124  0.00  0.00     0.156 C 
HETATM    7  C   UNK N   1      30.178  15.021   5.681  0.00  0.00     0.050 C 
ENDROOT
BRANCH   2   8
HETATM    8  C   UNK N   1      28.601  17.431   7.282  0.00  0.00     0.209 C 
HETATM    9  O   UNK N   1      27.857  17.050   8.176  0.00  0.00    -0.285 OA
BRANCH   8  10
HETATM   10  C   UNK N   1      28.010  18.267   6.196  0.00  0.00     0.016 A 
HETATM   11  C   UNK N   1      27.720  19.624   6.391  0.00  0.00     0.017 A 
HETATM   12  C   UNK N   1      27.178  20.401   5.368  0.00  0.00     0.025 A 
HETATM   13  C   UNK N   1      26.902  19.822   4.130  0.00  0.00     0.034 A 
HETATM   14 Cl   UNK N   1      26.260  20.808   2.835  0.00  0.00    -0.084 Cl
HETATM   15  C   UNK N   1      27.144  18.461   3.927  0.00  0.00     0.025 A 
HETATM   16  C   UNK N   1      27.685  17.684   4.960  0.00  0.00     0.017 A 
ENDBRANCH   8  10
ENDBRANCH   2   8
BRANCH   3  17
HETATM   17  C   UNK N   1      33.417  17.375   8.689  0.00  0.00     0.167 C 
BRANCH  17  18
HETATM   18  C   UNK N   1      34.295  18.250   7.844  0.00  0.00     0.145 C 
HETATM   19  O   UNK N   1      34.965  19.130   8.363  0.00  0.00    -0.650 OA
BRANCH  18  20
HETATM   20  O   UNK N   1      34.376  18.045   6.517  0.00  0.00    -0.776 OA
HETATM   21  H   UNK N   1      34.881  17.493   5.954  0.00  0.00     0.167 HD
ENDBRANCH  18  20
ENDBRANCH  17  18
ENDBRANCH   3  17
TORSDOF 5
ENDMDL
MODEL 3
REMARK VINA RESULT:      -6.5      1.742      2.862
REMARK  5 active torsions:
REMARK  status: ('A' for Active; 'I' for Inactive)
REMARK    1  A    between atoms: O_3  and  C_15 
REMARK    2  A    between atoms: C_6  and  C_11 
REMARK    3  A    between atoms: C_7  and  C_10 
REMARK    4  A    between atoms: C_10  and  C_15 
REMARK    5  A    between atoms: C_11  and  C_14 
ROOT
HETATM    1  N   UNK N   1      31.163  16.762   7.026  0.00  0.00    -0.351 N 
HETATM    2  C   UNK N   1      29.861  17.129   7.080  0.00  0.00     0.091 A 
HETATM    3  C   UNK N   1      31.794  17.327   8.076  0.00  0.00     0.022 A 
HETATM    4  C   UNK N   1      29.693  17.973   8.186  0.00  0.00    -0.029 A 
HETATM    5  C   UNK N   1      30.911  18.084   8.819  0.00  0.00     0.034 A 
HETATM    6  C   UNK N   1      31.796  15.894   6.038  0.00  0.00     0.156 C 
HETATM    7  C   UNK N   1      28.504  18.746   8.633  0.00  0.00     0.050 C 
ENDROOT
BRANCH   2   8
HETATM    8  C   UNK N   1      28.831  16.703   6.067  0.00  0.00     0.209 C 
HETATM    9  O   UNK N   1      28.646  15.505   5.898  0.00  0.00    -0.285 OA
BRANCH   8  10
HETATM   10  C   UNK N   1      28.011  17.652   5.259  0.00  0.00     0.016 A 
HETATM   11  C   UNK N   1      28.486  18.926   4.919  0.00  0.00     0.017 A 
HETATM   12  C   UNK N   1      27.717  19.802   4.154  0.00  0.00     0.025 A 
HETATM   13  C   UNK N   1      26.445  19.420   3.730  0.00  0.00     0.034 A 
HETATM   14 Cl   UNK N   1      25.499  20.506   2.736  0.00  0.00    -0.084 Cl
HETATM   15  C   UNK N   1      25.935  18.171   4.094  0.00  0.00     0.025 A 
HETATM   16  C   UNK N   1      26.710  17.295   4.865  0.00  0.00     0.017 A 
ENDBRANCH   8  10
ENDBRANCH   2   8
BRANCH   3  17
HETATM   17  C   UNK N   1      33.246  17.151   8.409  0.00  0.00     0.167 C 
BRANCH  17  18
HETATM   18  C   UNK N   1      34.108  18.149   7.696  0.00  0.00     0.145 C 
HETATM   19  O   UNK N   1      34.666  19.038   8.324  0.00  0.00    -0.650 OA
BRANCH  18  20
HETATM   20  O   UNK N   1      34.302  18.050   6.369  0.00  0.00    -0.776 OA
HETATM   21  H   UNK N   1      34.484  17.355   5.768  0.00  0.00     0.167 HD
ENDBRANCH  18  20
ENDBRANCH  17  18
ENDBRANCH   3  17
TORSDOF 5
ENDMDL
MODEL 4
REMARK VINA RESULT:      -6.4      5.715      8.728
REMARK  5 active torsions:
REMARK  status: ('A' for Active; 'I' for Inactive)
REMARK    1  A    between atoms: O_3  and  C_15 
REMARK    2  A    between atoms: C_6  and  C_11 
REMARK    3  A    between atoms: C_7  and  C_10 
REMARK    4  A    between atoms: C_10  and  C_15 
REMARK    5  A    between atoms: C_11  and  C_14 
ROOT
HETATM    1  N   UNK N   1      34.979  15.738  10.048  0.00  0.00    -0.351 N 
HETATM    2  C   UNK N   1      35.220  14.406  10.041  0.00  0.00     0.091 A 
HETATM    3  C   UNK N   1      34.082  15.998   9.074  0.00  0.00     0.022 A 
HETATM    4  C   UNK N   1      34.467  13.833   9.007  0.00  0.00    -0.029 A 
HETATM    5  C   UNK N   1      33.741  14.838   8.409  0.00  0.00     0.034 A 
HETATM    6  C   UNK N   1      35.549  16.735  10.948  0.00  0.00     0.156 C 
HETATM    7  C   UNK N   1      34.452  12.439   8.489  0.00  0.00     0.050 C 
ENDROOT
BRANCH   2   8
HETATM    8  C   UNK N   1      36.180  13.727  10.982  0.00  0.00     0.209 C 
HETATM    9  O   UNK N   1      37.295  13.441  10.565  0.00  0.00    -0.285 OA
BRANCH   8  10
HETATM   10  C   UNK N   1      35.861  13.388  12.400  0.00  0.00     0.016 A 
HETATM   11  C   UNK N   1      34.952  12.373  12.724  0.00  0.00     0.017 A 
HETATM   12  C   UNK N   1      34.668  12.055  14.052  0.00  0.00     0.025 A 
HETATM   13  C   UNK N   1      35.284  12.765  15.082  0.00  0.00     0.034 A 
HETATM   14 Cl   UNK N   1      34.956  12.337  16.746  0.00  0.00    -0.084 Cl
HETATM   15  C   UNK N   1      36.162  13.809  14.781  0.00  0.00     0.025 A 
HETATM   16  C   UNK N   1      36.441  14.127  13.445  0.00  0.00     0.017 A 
ENDBRANCH   8  10
ENDBRANCH   2   8
BRANCH   3  17
HETATM   17  C   UNK N   1      33.515  17.351   8.761  0.00  0.00     0.167 C 
BRANCH  17  18
HETATM   18  C   UNK N   1      34.441  18.160   7.899  0.00  0.00     0.145 C 
HETATM   19  O   UNK N   1      34.473  17.973   6.692  0.00  0.00    -0.650 OA
BRANCH  18  20
HETATM   20  O   UNK N   1      35.211  19.117   8.447  0.00  0.00    -0.776 OA
HETATM   21  H   UNK N   1      35.836  19.737   8.129  0.00  0.00     0.167 HD
ENDBRANCH  18  20
ENDBRANCH  17  18
ENDBRANCH   3  17
TORSDOF 5
ENDMDL
MODEL 5
REMARK VINA RESULT:      -6.3      4.252      6.210
REMARK  5 active torsions:
REMARK  status: ('A' for Active; 'I' for Inactive)
REMARK    1  A    between atoms: O_3  and  C_15 
REMARK    2  A    between atoms: C_6  and  C_11 
REMARK    3  A    between atoms: C_7  and  C_10 
REMARK    4  A    between atoms: C_10  and  C_15 
REMARK    5  A    between atoms: C_11  and  C_14 
ROOT
HETATM    1  N   UNK N   1      27.600  18.581   5.617  0.00  0.00    -0.351 N 
HETATM    2  C   UNK N   1      26.898  19.706   5.346  0.00  0.00     0.091 A 
HETATM    3  C   UNK N   1      28.101  18.699   6.865  0.00  0.00     0.022 A 
HETATM    4  C   UNK N   1      26.997  20.558   6.455  0.00  0.00    -0.029 A 
HETATM    5  C   UNK N   1      27.744  19.913   7.415  0.00  0.00     0.034 A 
HETATM    6  C   UNK N   1      27.779  17.422   4.750  0.00  0.00     0.156 C 
HETATM    7  C   UNK N   1      26.520  21.954   6.639  0.00  0.00     0.050 C 
ENDROOT
BRANCH   2   8
HETATM    8  C   UNK N   1      26.192  19.955   4.039  0.00  0.00     0.209 C 
HETATM    9  O   UNK N   1      26.853  20.366   3.094  0.00  0.00    -0.285 OA
BRANCH   8  10
HETATM   10  C   UNK N   1      24.735  19.723   3.818  0.00  0.00     0.016 A 
HETATM   11  C   UNK N   1      23.968  20.581   3.019  0.00  0.00     0.017 A 
HETATM   12  C   UNK N   1      22.609  20.350   2.809  0.00  0.00     0.025 A 
HETATM   13  C   UNK N   1      21.990  19.257   3.414  0.00  0.00     0.034 A 
HETATM   14 Cl   UNK N   1      20.294  18.947   3.116  0.00  0.00    -0.084 Cl
HETATM   15  C   UNK N   1      22.726  18.413   4.250  0.00  0.00     0.025 A 
HETATM   16  C   UNK N   1      24.091  18.652   4.460  0.00  0.00     0.017 A 
ENDBRANCH   8  10
ENDBRANCH   2   8
BRANCH   3  17
HETATM   17  C   UNK N   1      28.918  17.657   7.569  0.00  0.00     0.167 C 
BRANCH  17  18
HETATM   18  C   UNK N   1      28.575  17.569   9.027  0.00  0.00     0.145 C 
HETATM   19  O   UNK N   1      29.367  17.969   9.869  0.00  0.00    -0.650 OA
BRANCH  18  20
HETATM   20  O   UNK N   1      27.381  17.085   9.413  0.00  0.00    -0.776 OA
HETATM   21  H   UNK N   1      26.762  16.474   9.067  0.00  0.00     0.167 HD
ENDBRANCH  18  20
ENDBRANCH  17  18
ENDBRANCH   3  17
TORSDOF 5
ENDMDL
MODEL 6
REMARK VINA RESULT:      -6.2      1.627      2.056
REMARK  5 active torsions:
REMARK  status: ('A' for Active; 'I' for Inactive)
REMARK    1  A    between atoms: O_3  and  C_15 
REMARK    2  A    between atoms: C_6  and  C_11 
REMARK    3  A    between atoms: C_7  and  C_10 
REMARK    4  A    between atoms: C_10  and  C_15 
REMARK    5  A    between atoms: C_11  and  C_14 
ROOT
HETATM    1  N   UNK N   1      31.026  17.232   6.680  0.00  0.00    -0.351 N 
HETATM    2  C   UNK N   1      30.914  17.031   5.346  0.00  0.00     0.091 A 
HETATM    3  C   UNK N   1      32.303  17.584   6.937  0.00  0.00     0.022 A 
HETATM    4  C   UNK N   1      32.174  17.238   4.768  0.00  0.00    -0.029 A 
HETATM    5  C   UNK N   1      33.043  17.600   5.773  0.00  0.00     0.034 A 
HETATM    6  C   UNK N   1      29.971  17.122   7.681  0.00  0.00     0.156 C 
HETATM    7  C   UNK N   1      32.634  17.034   3.368  0.00  0.00     0.050 C 
ENDROOT
BRANCH   2   8
HETATM    8  C   UNK N   1      29.635  16.613   4.669  0.00  0.00     0.209 C 
HETATM    9  O   UNK N   1      29.504  15.438   4.353  0.00  0.00    -0.285 OA
BRANCH   8  10
HETATM   10  C   UNK N   1      28.508  17.543   4.366  0.00  0.00     0.016 A 
HETATM   11  C   UNK N   1      28.597  18.915   4.631  0.00  0.00     0.017 A 
HETATM   12  C   UNK N   1      27.543  19.778   4.335  0.00  0.00     0.025 A 
HETATM   13  C   UNK N   1      26.369  19.272   3.779  0.00  0.00     0.034 A 
HETATM   14 Cl   UNK N   1      25.063  20.364   3.370  0.00  0.00    -0.084 Cl
HETATM   15  C   UNK N   1      26.242  17.901   3.545  0.00  0.00     0.025 A 
HETATM   16  C   UNK N   1      27.303  17.037   3.848  0.00  0.00     0.017 A 
ENDBRANCH   8  10
ENDBRANCH   2   8
BRANCH   3  17
HETATM   17  C   UNK N   1      32.848  17.929   8.291  0.00  0.00     0.167 C 
BRANCH  17  18
HETATM   18  C   UNK N   1      34.348  17.928   8.308  0.00  0.00     0.145 C 
HETATM   19  O   UNK N   1      34.962  18.984   8.278  0.00  0.00    -0.650 OA
BRANCH  18  20
HETATM   20  O   UNK N   1      35.022  16.767   8.393  0.00  0.00    -0.776 OA
HETATM   21  H   UNK N   1      35.662  16.405   8.973  0.00  0.00     0.167 HD
ENDBRANCH  18  20
ENDBRANCH  17  18
ENDBRANCH   3  17
TORSDOF 5
ENDMDL
MODEL 7
REMARK VINA RESULT:      -6.2      9.881     12.718
REMARK  5 active torsions:
REMARK  status: ('A' for Active; 'I' for Inactive)
REMARK    1  A    between atoms: O_3  and  C_15 
REMARK    2  A    between atoms: C_6  and  C_11 
REMARK    3  A    between atoms: C_7  and  C_10 
REMARK    4  A    between atoms: C_10  and  C_15 
REMARK    5  A    between atoms: C_11  and  C_14 
ROOT
HETATM    1  N   UNK N   1      35.993  13.472  14.449  0.00  0.00    -0.351 N 
HETATM    2  C   UNK N   1      35.096  12.719  15.128  0.00  0.00     0.091 A 
HETATM    3  C   UNK N   1      35.902  13.141  13.144  0.00  0.00     0.022 A 
HETATM    4  C   UNK N   1      34.454  11.875  14.212  0.00  0.00    -0.029 A 
HETATM    5  C   UNK N   1      34.956  12.154  12.961  0.00  0.00     0.034 A 
HETATM    6  C   UNK N   1      36.890  14.484  14.996  0.00  0.00     0.156 C 
HETATM    7  C   UNK N   1      33.479  10.775  14.439  0.00  0.00     0.050 C 
ENDROOT
BRANCH   2   8
HETATM    8  C   UNK N   1      34.904  12.794  16.621  0.00  0.00     0.209 C 
HETATM    9  O   UNK N   1      34.237  13.715  17.073  0.00  0.00    -0.285 OA
BRANCH   8  10
HETATM   10  C   UNK N   1      35.469  11.806  17.587  0.00  0.00     0.016 A 
HETATM   11  C   UNK N   1      35.388  12.006  18.971  0.00  0.00     0.017 A 
HETATM   12  C   UNK N   1      35.909  11.073  19.866  0.00  0.00     0.025 A 
HETATM   13  C   UNK N   1      36.537   9.925  19.384  0.00  0.00     0.034 A 
HETATM   14 Cl   UNK N   1      37.154   8.737  20.511  0.00  0.00    -0.084 Cl
HETATM   15  C   UNK N   1      36.667   9.727  18.008  0.00  0.00     0.025 A 
HETATM   16  C   UNK N   1      36.145  10.669  17.112  0.00  0.00     0.017 A 
ENDBRANCH   8  10
ENDBRANCH   2   8
BRANCH   3  17
HETATM   17  C   UNK N   1      36.702  13.763  12.038  0.00  0.00     0.167 C 
BRANCH  17  18
HETATM   18  C   UNK N   1      36.072  15.030  11.537  0.00  0.00     0.145 C 
HETATM   19  O   UNK N   1      34.871  15.212  11.671  0.00  0.00    -0.650 OA
BRANCH  18  20
HETATM   20  O   UNK N   1      36.832  15.985  10.971  0.00  0.00    -0.776 OA
HETATM   21  H   UNK N   1      36.915  16.355  10.115  0.00  0.00     0.167 HD
ENDBRANCH  18  20
ENDBRANCH  17  18
ENDBRANCH   3  17
TORSDOF 5
ENDMDL
MODEL 8
REMARK VINA RESULT:      -6.2     10.766     12.312
REMARK  5 active torsions:
REMARK  status: ('A' for Active; 'I' for Inactive)
REMARK    1  A    between atoms: O_3  and  C_15 
REMARK    2  A    between atoms: C_6  and  C_11 
REMARK    3  A    between atoms: C_7  and  C_10 
REMARK    4  A    between atoms: C_10  and  C_15 
REMARK    5  A    between atoms: C_11  and  C_14 
ROOT
HETATM    1  N   UNK N   1      20.159  15.563   3.998  0.00  0.00    -0.351 N 
HETATM    2  C   UNK N   1      20.463  16.087   5.209  0.00  0.00     0.091 A 
HETATM    3  C   UNK N   1      20.883  16.225   3.072  0.00  0.00     0.022 A 
HETATM    4  C   UNK N   1      21.382  17.127   5.015  0.00  0.00    -0.029 A 
HETATM    5  C   UNK N   1      21.654  17.201   3.668  0.00  0.00     0.034 A 
HETATM    6  C   UNK N   1      19.241  14.465   3.716  0.00  0.00     0.156 C 
HETATM    7  C   UNK N   1      21.947  18.103   5.985  0.00  0.00     0.050 C 
ENDROOT
BRANCH   2   8
HETATM    8  C   UNK N   1      19.847  15.615   6.501  0.00  0.00     0.209 C 
HETATM    9  O   UNK N   1      18.735  16.031   6.797  0.00  0.00    -0.285 OA
BRANCH   8  10
HETATM   10  C   UNK N   1      20.505  14.662   7.441  0.00  0.00     0.016 A 
HETATM   11  C   UNK N   1      20.750  15.002   8.778  0.00  0.00     0.017 A 
HETATM   12  C   UNK N   1      21.355  14.101   9.653  0.00  0.00     0.025 A 
HETATM   13  C   UNK N   1      21.742  12.842   9.194  0.00  0.00     0.034 A 
HETATM   14 Cl   UNK N   1      22.464  11.699  10.305  0.00  0.00    -0.084 Cl
HETATM   15  C   UNK N   1      21.546  12.498   7.855  0.00  0.00     0.025 A 
HETATM   16  C   UNK N   1      20.940  13.408   6.978  0.00  0.00     0.017 A 
ENDBRANCH   8  10
ENDBRANCH   2   8
BRANCH   3  17
HETATM   17  C   UNK N   1      20.870  15.937   1.599  0.00  0.00     0.167 C 
BRANCH  17  18
HETATM   18  C   UNK N   1      20.081  16.960   0.836  0.00  0.00     0.145 C 
HETATM   19  O   UNK N   1      20.372  17.219  -0.323  0.00  0.00    -0.650 OA
BRANCH  18  20
HETATM   20  O   UNK N   1      19.030  17.570   1.411  0.00  0.00    -0.776 OA
HETATM   21  H   UNK N   1      18.153  17.778   1.155  0.00  0.00     0.167 HD
ENDBRANCH  18  20
ENDBRANCH  17  18
ENDBRANCH   3  17
TORSDOF 5
ENDMDL
MODEL 9
REMARK VINA RESULT:      -6.0      2.893      4.473
REMARK  5 active torsions:
REMARK  status: ('A' for Active; 'I' for Inactive)
REMARK    1  A    between atoms: O_3  and  C_15 
REMARK    2  A    between atoms: C_6  and  C_11 
REMARK    3  A    between atoms: C_7  and  C_10 
REMARK    4  A    between atoms: C_10  and  C_15 
REMARK    5  A    between atoms: C_11  and  C_14 
ROOT
HETATM    1  N   UNK N   1      35.117  15.787   9.217  0.00  0.00    -0.351 N 
HETATM    2  C   UNK N   1      34.710  15.962   7.938  0.00  0.00     0.091 A 
HETATM    3  C   UNK N   1      35.711  14.577   9.297  0.00  0.00     0.022 A 
HETATM    4  C   UNK N   1      35.039  14.807   7.215  0.00  0.00    -0.029 A 
HETATM    5  C   UNK N   1      35.682  13.943   8.073  0.00  0.00     0.034 A 
HETATM    6  C   UNK N   1      34.978  16.726  10.325  0.00  0.00     0.156 C 
HETATM    7  C   UNK N   1      34.715  14.427   5.814  0.00  0.00     0.050 C 
ENDROOT
BRANCH   2   8
HETATM    8  C   UNK N   1      33.992  17.194   7.452  0.00  0.00     0.209 C 
HETATM    9  O   UNK N   1      34.665  18.141   7.066  0.00  0.00    -0.285 OA
BRANCH   8  10
HETATM   10  C   UNK N   1      32.507  17.331   7.402  0.00  0.00     0.016 A 
HETATM   11  C   UNK N   1      31.779  17.000   6.252  0.00  0.00     0.017 A 
HETATM   12  C   UNK N   1      30.390  17.120   6.217  0.00  0.00     0.025 A 
HETATM   13  C   UNK N   1      29.707  17.593   7.337  0.00  0.00     0.034 A 
HETATM   14 Cl   UNK N   1      27.961  17.704   7.304  0.00  0.00    -0.084 Cl
HETATM   15  C   UNK N   1      30.417  17.969   8.479  0.00  0.00     0.025 A 
HETATM   16  C   UNK N   1      31.813  17.849   8.508  0.00  0.00     0.017 A 
ENDBRANCH   8  10
ENDBRANCH   2   8
BRANCH   3  17
HETATM   17  C   UNK N   1      36.333  14.001  10.535  0.00  0.00     0.167 C 
BRANCH  17  18
HETATM   18  C   UNK N   1      35.367  13.146  11.300  0.00  0.00     0.145 C 
HETATM   19  O   UNK N   1      35.415  11.928  11.202  0.00  0.00    -0.650 OA
BRANCH  18  20
HETATM   20  O   UNK N   1      34.468  13.713  12.125  0.00  0.00    -0.776 OA
HETATM   21  H   UNK N   1      34.419  14.507  12.619  0.00  0.00     0.167 HD
ENDBRANCH  18  20
ENDBRANCH  17  18
ENDBRANCH   3  17
TORSDOF 5
ENDMDL
