MODEL 1
REMARK VINA RESULT:      -7.6      0.000      0.000
REMARK  3 active torsions:
REMARK  status: ('A' for Active; 'I' for Inactive)
REMARK       I    between atoms: N_4  and  C_16 
REMARK    1  A    between atoms: N_4  and  C_21 
REMARK    2  A    between atoms: N_4  and  C_22 
REMARK    3  A    between atoms: C_8  and  C_16 
ROOT
HETATM    1  N   UNK N   1      19.631  16.511   8.493  0.00  0.00     0.094 N 
HETATM    2  N   UNK N   1      22.352  11.655  10.961  0.00  0.00    -0.365 N 
HETATM    3  C   UNK N   1      20.584  15.490   9.000  0.00  0.00     0.260 C 
HETATM    4  C   UNK N   1      21.602  15.036   7.937  0.00  0.00    -0.017 C 
HETATM    5  C   UNK N   1      19.957  14.258   9.734  0.00  0.00     0.081 C 
HETATM    6  C   UNK N   1      20.488  16.381   6.172  0.00  0.00     0.129 C 
HETATM    7  C   UNK N   1      19.252  16.332   7.092  0.00  0.00     0.290 C 
HETATM    8  C   UNK N   1      21.069  13.301  10.121  0.00  0.00    -0.027 A 
HETATM    9  C   UNK N   1      22.582  14.013   8.345  0.00  0.00    -0.015 A 
HETATM   10  C   UNK N   1      22.230  13.243   9.425  0.00  0.00     0.009 A 
HETATM   11  C   UNK N   1      21.565  15.469   6.674  0.00  0.00    -0.001 C 
HETATM   12  C   UNK N   1      22.985  12.248   9.927  0.00  0.00     0.043 A 
HETATM   13  C   UNK N   1      18.424  16.606   9.306  0.00  0.00     0.310 C 
HETATM   14  C   UNK N   1      21.151  12.299  11.085  0.00  0.00     0.096 A 
HETATM   15  C   UNK N   1      23.799  13.714   7.699  0.00  0.00     0.013 A 
HETATM   16  C   UNK N   1      24.217  11.929   9.353  0.00  0.00     0.030 A 
HETATM   17  C   UNK N   1      24.623  12.678   8.216  0.00  0.00     0.003 A 
HETATM   18  H   UNK N   1      22.686  10.913  11.514  0.00  0.00     0.165 HD
ENDROOT
BRANCH   6  19
HETATM   19  C   UNK N   1      21.077  17.679   5.624  0.00  0.00     0.229 C 
HETATM   20  O   UNK N   1      21.774  18.333   6.394  0.00  0.00    -0.273 OA
HETATM   21  N   UNK N   1      20.915  18.135   4.341  0.00  0.00    -0.352 N 
BRANCH  21  22
HETATM   22  C   UNK N   1      20.117  17.426   3.365  0.00  0.00     0.121 C 
HETATM   23  C   UNK N   1      20.991  16.517   2.520  0.00  0.00     0.026 C 
ENDBRANCH  21  22
BRANCH  21  24
HETATM   24  C   UNK N   1      21.528  19.390   3.952  0.00  0.00     0.121 C 
HETATM   25  C   UNK N   1      20.543  20.276   3.208  0.00  0.00     0.026 C 
ENDBRANCH  21  24
ENDBRANCH   6  19
TORSDOF 3
ENDMDL
MODEL 2
REMARK VINA RESULT:      -6.9     14.556     16.742
REMARK  3 active torsions:
REMARK  status: ('A' for Active; 'I' for Inactive)
REMARK       I    between atoms: N_4  and  C_16 
REMARK    1  A    between atoms: N_4  and  C_21 
REMARK    2  A    between atoms: N_4  and  C_22 
REMARK    3  A    between atoms: C_8  and  C_16 
ROOT
HETATM    1  N   UNK N   1      36.036  10.719  13.065  0.00  0.00     0.094 N 
HETATM    2  N   UNK N   1      36.001   9.983  19.109  0.00  0.00    -0.365 N 
HETATM    3  C   UNK N   1      35.779  10.780  14.527  0.00  0.00     0.260 C 
HETATM    4  C   UNK N   1      35.845  12.212  15.091  0.00  0.00    -0.017 C 
HETATM    5  C   UNK N   1      36.602   9.791  15.419  0.00  0.00     0.081 C 
HETATM    6  C   UNK N   1      36.580  13.131  12.904  0.00  0.00     0.129 C 
HETATM    7  C   UNK N   1      37.023  11.688  12.590  0.00  0.00     0.290 C 
HETATM    8  C   UNK N   1      36.255  10.041  16.875  0.00  0.00    -0.027 A 
HETATM    9  C   UNK N   1      35.617  12.371  16.538  0.00  0.00    -0.015 A 
HETATM   10  C   UNK N   1      35.827  11.252  17.304  0.00  0.00     0.009 A 
HETATM   11  C   UNK N   1      36.178  13.266  14.341  0.00  0.00    -0.001 C 
HETATM   12  C   UNK N   1      35.689  11.211  18.643  0.00  0.00     0.043 A 
HETATM   13  C   UNK N   1      36.421   9.386  12.617  0.00  0.00     0.310 C 
HETATM   14  C   UNK N   1      36.364   9.247  18.014  0.00  0.00     0.096 A 
HETATM   15  C   UNK N   1      35.271  13.563  17.206  0.00  0.00     0.013 A 
HETATM   16  C   UNK N   1      35.313  12.351  19.356  0.00  0.00     0.030 A 
HETATM   17  C   UNK N   1      35.106  13.546  18.618  0.00  0.00     0.003 A 
HETATM   18  H   UNK N   1      35.972   9.679  20.044  0.00  0.00     0.165 HD
ENDROOT
BRANCH   6  19
HETATM   19  C   UNK N   1      35.660  13.944  11.996  0.00  0.00     0.229 C 
HETATM   20  O   UNK N   1      34.513  14.122  12.395  0.00  0.00    -0.273 OA
HETATM   21  N   UNK N   1      36.035  14.514  10.806  0.00  0.00    -0.352 N 
BRANCH  21  22
HETATM   22  C   UNK N   1      37.367  14.363  10.264  0.00  0.00     0.121 C 
HETATM   23  C   UNK N   1      37.371  13.344   9.138  0.00  0.00     0.026 C 
ENDBRANCH  21  22
BRANCH  21  24
HETATM   24  C   UNK N   1      35.056  15.261  10.039  0.00  0.00     0.121 C 
HETATM   25  C   UNK N   1      35.212  16.756  10.258  0.00  0.00     0.026 C 
ENDBRANCH  21  24
ENDBRANCH   6  19
TORSDOF 3
ENDMDL
MODEL 3
REMARK VINA RESULT:      -6.9      1.929      3.649
REMARK  3 active torsions:
REMARK  status: ('A' for Active; 'I' for Inactive)
REMARK       I    between atoms: N_4  and  C_16 
REMARK    1  A    between atoms: N_4  and  C_21 
REMARK    2  A    between atoms: N_4  and  C_22 
REMARK    3  A    between atoms: C_8  and  C_16 
ROOT
HETATM    1  N   UNK N   1      24.598  14.397   6.081  0.00  0.00     0.094 N 
HETATM    2  N   UNK N   1      23.680  11.837  11.529  0.00  0.00    -0.365 N 
HETATM    3  C   UNK N   1      24.063  13.699   7.279  0.00  0.00     0.260 C 
HETATM    4  C   UNK N   1      22.704  14.256   7.743  0.00  0.00    -0.017 C 
HETATM    5  C   UNK N   1      25.044  13.542   8.488  0.00  0.00     0.081 C 
HETATM    6  C   UNK N   1      22.776  16.076   6.055  0.00  0.00     0.129 C 
HETATM    7  C   UNK N   1      24.297  15.827   6.038  0.00  0.00     0.290 C 
HETATM    8  C   UNK N   1      24.308  12.869   9.631  0.00  0.00    -0.027 A 
HETATM    9  C   UNK N   1      22.099  13.634   8.935  0.00  0.00    -0.015 A 
HETATM   10  C   UNK N   1      22.965  12.973   9.769  0.00  0.00     0.009 A 
HETATM   11  C   UNK N   1      22.122  15.309   7.163  0.00  0.00    -0.001 C 
HETATM   12  C   UNK N   1      22.600  12.363  10.913  0.00  0.00     0.043 A 
HETATM   13  C   UNK N   1      26.034  14.205   5.913  0.00  0.00     0.310 C 
HETATM   14  C   UNK N   1      24.753  12.155  10.741  0.00  0.00     0.096 A 
HETATM   15  C   UNK N   1      20.747  13.708   9.324  0.00  0.00     0.013 A 
HETATM   16  C   UNK N   1      21.268  12.372  11.333  0.00  0.00     0.030 A 
HETATM   17  C   UNK N   1      20.331  13.062  10.519  0.00  0.00     0.003 A 
HETATM   18  H   UNK N   1      23.693  11.328  12.371  0.00  0.00     0.165 HD
ENDROOT
BRANCH   6  19
HETATM   19  C   UNK N   1      21.910  16.075   4.797  0.00  0.00     0.229 C 
HETATM   20  O   UNK N   1      21.551  14.978   4.380  0.00  0.00    -0.273 OA
HETATM   21  N   UNK N   1      21.481  17.198   4.138  0.00  0.00    -0.352 N 
BRANCH  21  22
HETATM   22  C   UNK N   1      21.849  18.530   4.564  0.00  0.00     0.121 C 
HETATM   23  C   UNK N   1      23.107  18.989   3.849  0.00  0.00     0.026 C 
ENDBRANCH  21  22
BRANCH  21  24
HETATM   24  C   UNK N   1      20.663  17.053   2.950  0.00  0.00     0.121 C 
HETATM   25  C   UNK N   1      19.621  18.155   2.862  0.00  0.00     0.026 C 
ENDBRANCH  21  24
ENDBRANCH   6  19
TORSDOF 3
ENDMDL
MODEL 4
REMARK VINA RESULT:      -6.6      9.723     13.196
REMARK  3 active torsions:
REMARK  status: ('A' for Active; 'I' for Inactive)
REMARK       I    between atoms: N_4  and  C_16 
REMARK    1  A    between atoms: N_4  and  C_21 
REMARK    2  A    between atoms: N_4  and  C_22 
REMARK    3  A    between atoms: C_8  and  C_16 
ROOT
HETATM    1  N   UNK N   1      34.141  15.881   7.101  0.00  0.00     0.094 N 
HETATM    2  N   UNK N   1      28.675  18.050   5.524  0.00  0.00    -0.365 N 
HETATM    3  C   UNK N   1      32.840  16.592   7.009  0.00  0.00     0.260 C 
HETATM    4  C   UNK N   1      31.987  16.453   8.284  0.00  0.00    -0.017 C 
HETATM    5  C   UNK N   1      31.982  16.307   5.731  0.00  0.00     0.081 C 
HETATM    6  C   UNK N   1      33.615  14.880   9.305  0.00  0.00     0.129 C 
HETATM    7  C   UNK N   1      34.089  14.632   7.860  0.00  0.00     0.290 C 
HETATM    8  C   UNK N   1      30.672  17.064   5.843  0.00  0.00    -0.027 A 
HETATM    9  C   UNK N   1      30.670  17.115   8.282  0.00  0.00    -0.015 A 
HETATM   10  C   UNK N   1      30.135  17.380   7.046  0.00  0.00     0.009 A 
HETATM   11  C   UNK N   1      32.363  15.703   9.323  0.00  0.00    -0.001 C 
HETATM   12  C   UNK N   1      28.936  17.958   6.845  0.00  0.00     0.043 A 
HETATM   13  C   UNK N   1      34.734  15.621   5.794  0.00  0.00     0.310 C 
HETATM   14  C   UNK N   1      29.748  17.486   4.889  0.00  0.00     0.096 A 
HETATM   15  C   UNK N   1      29.891  17.437   9.412  0.00  0.00     0.013 A 
HETATM   16  C   UNK N   1      28.135  18.333   7.926  0.00  0.00     0.030 A 
HETATM   17  C   UNK N   1      28.627  18.061   9.230  0.00  0.00     0.003 A 
HETATM   18  H   UNK N   1      27.877  18.443   5.103  0.00  0.00     0.165 HD
ENDROOT
BRANCH   6  19
HETATM   19  C   UNK N   1      34.554  15.281  10.441  0.00  0.00     0.229 C 
HETATM   20  O   UNK N   1      34.776  16.481  10.571  0.00  0.00    -0.273 OA
HETATM   21  N   UNK N   1      35.122  14.410  11.334  0.00  0.00    -0.352 N 
BRANCH  21  22
HETATM   22  C   UNK N   1      34.910  12.981  11.261  0.00  0.00     0.121 C 
HETATM   23  C   UNK N   1      35.955  12.332  10.372  0.00  0.00     0.026 C 
ENDBRANCH  21  22
BRANCH  21  24
HETATM   24  C   UNK N   1      36.001  14.926  12.366  0.00  0.00     0.121 C 
HETATM   25  C   UNK N   1      35.983  14.038  13.599  0.00  0.00     0.026 C 
ENDBRANCH  21  24
ENDBRANCH   6  19
TORSDOF 3
ENDMDL
MODEL 5
REMARK VINA RESULT:      -6.5     14.209     16.863
REMARK  3 active torsions:
REMARK  status: ('A' for Active; 'I' for Inactive)
REMARK       I    between atoms: N_4  and  C_16 
REMARK    1  A    between atoms: N_4  and  C_21 
REMARK    2  A    between atoms: N_4  and  C_22 
REMARK    3  A    between atoms: C_8  and  C_16 
ROOT
HETATM    1  N   UNK N   1      35.740  12.425  13.954  0.00  0.00     0.094 N 
HETATM    2  N   UNK N   1      35.254  12.808  20.011  0.00  0.00    -0.365 N 
HETATM    3  C   UNK N   1      35.757  12.200  15.423  0.00  0.00     0.260 C 
HETATM    4  C   UNK N   1      35.068  10.887  15.838  0.00  0.00    -0.017 C 
HETATM    5  C   UNK N   1      35.270  13.392  16.314  0.00  0.00     0.081 C 
HETATM    6  C   UNK N   1      34.332  10.435  13.510  0.00  0.00     0.129 C 
HETATM    7  C   UNK N   1      34.528  11.948  13.289  0.00  0.00     0.290 C 
HETATM    8  C   UNK N   1      35.296  12.959  17.767  0.00  0.00    -0.027 A 
HETATM    9  C   UNK N   1      35.022  10.584  17.281  0.00  0.00    -0.015 A 
HETATM   10  C   UNK N   1      35.162  11.659  18.123  0.00  0.00     0.009 A 
HETATM   11  C   UNK N   1      34.456  10.086  14.962  0.00  0.00    -0.001 C 
HETATM   12  C   UNK N   1      35.126  11.580  19.466  0.00  0.00     0.043 A 
HETATM   13  C   UNK N   1      35.963  13.821  13.596  0.00  0.00     0.310 C 
HETATM   14  C   UNK N   1      35.352  13.677  18.959  0.00  0.00     0.096 A 
HETATM   15  C   UNK N   1      34.788   9.323  17.865  0.00  0.00     0.013 A 
HETATM   16  C   UNK N   1      34.933  10.353  20.104  0.00  0.00     0.030 A 
HETATM   17  C   UNK N   1      34.759   9.208  19.281  0.00  0.00     0.003 A 
HETATM   18  H   UNK N   1      35.274  13.033  20.969  0.00  0.00     0.165 HD
ENDROOT
BRANCH   6  19
HETATM   19  C   UNK N   1      34.977   9.367  12.630  0.00  0.00     0.229 C 
HETATM   20  O   UNK N   1      36.028   8.882  13.038  0.00  0.00    -0.273 OA
HETATM   21  N   UNK N   1      34.450   8.893  11.456  0.00  0.00    -0.352 N 
BRANCH  21  22
HETATM   22  C   UNK N   1      33.214   9.401  10.905  0.00  0.00     0.121 C 
HETATM   23  C   UNK N   1      33.494  10.488   9.882  0.00  0.00     0.026 C 
ENDBRANCH  21  22
BRANCH  21  24
HETATM   24  C   UNK N   1      35.172   7.876  10.715  0.00  0.00     0.121 C 
HETATM   25  C   UNK N   1      34.401   6.567  10.687  0.00  0.00     0.026 C 
ENDBRANCH  21  24
ENDBRANCH   6  19
TORSDOF 3
ENDMDL
MODEL 6
REMARK VINA RESULT:      -6.5     17.457     19.421
REMARK  3 active torsions:
REMARK  status: ('A' for Active; 'I' for Inactive)
REMARK       I    between atoms: N_4  and  C_16 
REMARK    1  A    between atoms: N_4  and  C_21 
REMARK    2  A    between atoms: N_4  and  C_22 
REMARK    3  A    between atoms: C_8  and  C_16 
ROOT
HETATM    1  N   UNK N   1      36.406   7.632  18.171  0.00  0.00     0.094 N 
HETATM    2  N   UNK N   1      37.902  11.923  14.118  0.00  0.00    -0.365 N 
HETATM    3  C   UNK N   1      36.723   8.892  17.451  0.00  0.00     0.260 C 
HETATM    4  C   UNK N   1      35.627   9.963  17.600  0.00  0.00    -0.017 C 
HETATM    5  C   UNK N   1      37.160   8.746  15.954  0.00  0.00     0.081 C 
HETATM    6  C   UNK N   1      34.142   8.396  18.828  0.00  0.00     0.129 C 
HETATM    7  C   UNK N   1      34.986   7.284  18.172  0.00  0.00     0.290 C 
HETATM    8  C   UNK N   1      37.378  10.129  15.371  0.00  0.00    -0.027 A 
HETATM    9  C   UNK N   1      35.847  11.246  16.907  0.00  0.00    -0.015 A 
HETATM   10  C   UNK N   1      36.728  11.214  15.855  0.00  0.00     0.009 A 
HETATM   11  C   UNK N   1      34.482   9.735  18.249  0.00  0.00    -0.001 C 
HETATM   12  C   UNK N   1      37.038  12.279  15.092  0.00  0.00     0.043 A 
HETATM   13  C   UNK N   1      37.176   6.495  17.681  0.00  0.00     0.310 C 
HETATM   14  C   UNK N   1      38.114  10.580  14.277  0.00  0.00     0.096 A 
HETATM   15  C   UNK N   1      35.199  12.467  17.178  0.00  0.00     0.013 A 
HETATM   16  C   UNK N   1      36.456  13.525  15.336  0.00  0.00     0.030 A 
HETATM   17  C   UNK N   1      35.517  13.611  16.398  0.00  0.00     0.003 A 
HETATM   18  H   UNK N   1      38.299  12.508  13.434  0.00  0.00     0.165 HD
ENDROOT
BRANCH   6  19
HETATM   19  C   UNK N   1      33.900   8.491  20.332  0.00  0.00     0.229 C 
HETATM   20  O   UNK N   1      34.893   8.441  21.051  0.00  0.00    -0.273 OA
HETATM   21  N   UNK N   1      32.674   8.666  20.921  0.00  0.00    -0.352 N 
BRANCH  21  22
HETATM   22  C   UNK N   1      31.453   8.742  20.151  0.00  0.00     0.121 C 
HETATM   23  C   UNK N   1      30.752   7.396  20.128  0.00  0.00     0.026 C 
ENDBRANCH  21  22
BRANCH  21  24
HETATM   24  C   UNK N   1      32.586   8.736  22.367  0.00  0.00     0.121 C 
HETATM   25  C   UNK N   1      32.518  10.177  22.844  0.00  0.00     0.026 C 
ENDBRANCH  21  24
ENDBRANCH   6  19
TORSDOF 3
ENDMDL
MODEL 7
REMARK VINA RESULT:      -6.4      7.689     10.809
REMARK  3 active torsions:
REMARK  status: ('A' for Active; 'I' for Inactive)
REMARK       I    between atoms: N_4  and  C_16 
REMARK    1  A    between atoms: N_4  and  C_21 
REMARK    2  A    between atoms: N_4  and  C_22 
REMARK    3  A    between atoms: C_8  and  C_16 
ROOT
HETATM    1  N   UNK N   1      29.775  16.104   3.894  0.00  0.00     0.094 N 
HETATM    2  N   UNK N   1      24.841  19.670   4.010  0.00  0.00    -0.365 N 
HETATM    3  C   UNK N   1      28.799  17.219   4.009  0.00  0.00     0.260 C 
HETATM    4  C   UNK N   1      28.892  17.962   5.354  0.00  0.00    -0.017 C 
HETATM    5  C   UNK N   1      27.311  16.879   3.661  0.00  0.00     0.081 C 
HETATM    6  C   UNK N   1      30.571  16.354   6.226  0.00  0.00     0.129 C 
HETATM    7  C   UNK N   1      30.026  15.396   5.148  0.00  0.00     0.290 C 
HETATM    8  C   UNK N   1      26.460  18.112   3.897  0.00  0.00    -0.027 A 
HETATM    9  C   UNK N   1      27.952  19.078   5.567  0.00  0.00    -0.015 A 
HETATM   10  C   UNK N   1      26.817  19.060   4.795  0.00  0.00     0.009 A 
HETATM   11  C   UNK N   1      29.716  17.579   6.333  0.00  0.00    -0.001 C 
HETATM   12  C   UNK N   1      25.838  19.981   4.865  0.00  0.00     0.043 A 
HETATM   13  C   UNK N   1      29.405  15.138   2.866  0.00  0.00     0.310 C 
HETATM   14  C   UNK N   1      25.215  18.500   3.407  0.00  0.00     0.096 A 
HETATM   15  C   UNK N   1      28.077  20.109   6.520  0.00  0.00     0.013 A 
HETATM   16  C   UNK N   1      25.922  21.047   5.763  0.00  0.00     0.030 A 
HETATM   17  C   UNK N   1      27.064  21.103   6.605  0.00  0.00     0.003 A 
HETATM   18  H   UNK N   1      24.014  20.180   3.851  0.00  0.00     0.165 HD
ENDROOT
BRANCH   6  19
HETATM   19  C   UNK N   1      32.051  16.699   6.373  0.00  0.00     0.229 C 
HETATM   20  O   UNK N   1      32.605  17.168   5.384  0.00  0.00    -0.273 OA
HETATM   21  N   UNK N   1      32.779  16.562   7.527  0.00  0.00    -0.352 N 
BRANCH  21  22
HETATM   22  C   UNK N   1      32.205  16.026   8.742  0.00  0.00     0.121 C 
HETATM   23  C   UNK N   1      33.073  14.908   9.293  0.00  0.00     0.026 C 
ENDBRANCH  21  22
BRANCH  21  24
HETATM   24  C   UNK N   1      34.183  16.926   7.528  0.00  0.00     0.121 C 
HETATM   25  C   UNK N   1      34.395  18.295   8.150  0.00  0.00     0.026 C 
ENDBRANCH  21  24
ENDBRANCH   6  19
TORSDOF 3
ENDMDL
MODEL 8
REMARK VINA RESULT:      -6.2     17.406     20.243
REMARK  3 active torsions:
REMARK  status: ('A' for Active; 'I' for Inactive)
REMARK       I    between atoms: N_4  and  C_16 
REMARK    1  A    between atoms: N_4  and  C_21 
REMARK    2  A    between atoms: N_4  and  C_22 
REMARK    3  A    between atoms: C_8  and  C_16 
ROOT
HETATM    1  N   UNK N   1      28.262  26.183  -8.982  0.00  0.00     0.094 N 
HETATM    2  N   UNK N   1      28.628  30.959  -5.224  0.00  0.00    -0.365 N 
HETATM    3  C   UNK N   1      28.251  27.118  -7.827  0.00  0.00     0.260 C 
HETATM    4  C   UNK N   1      26.919  27.104  -7.054  0.00  0.00    -0.017 C 
HETATM    5  C   UNK N   1      28.712  28.586  -8.117  0.00  0.00     0.081 C 
HETATM    6  C   UNK N   1      25.878  25.568  -8.705  0.00  0.00     0.129 C 
HETATM    7  C   UNK N   1      26.976  26.063  -9.667  0.00  0.00     0.290 C 
HETATM    8  C   UNK N   1      28.574  29.402  -6.846  0.00  0.00    -0.027 A 
HETATM    9  C   UNK N   1      26.808  28.011  -5.897  0.00  0.00    -0.015 A 
HETATM   10  C   UNK N   1      27.670  29.080  -5.890  0.00  0.00     0.009 A 
HETATM   11  C   UNK N   1      25.868  26.377  -7.444  0.00  0.00    -0.001 C 
HETATM   12  C   UNK N   1      27.701  30.023  -4.931  0.00  0.00     0.043 A 
HETATM   13  C   UNK N   1      29.295  26.507  -9.958  0.00  0.00     0.310 C 
HETATM   14  C   UNK N   1      29.172  30.586  -6.422  0.00  0.00     0.096 A 
HETATM   15  C   UNK N   1      25.871  27.922  -4.849  0.00  0.00     0.013 A 
HETATM   16  C   UNK N   1      26.822  29.968  -3.847  0.00  0.00     0.030 A 
HETATM   17  C   UNK N   1      25.891  28.896  -3.814  0.00  0.00     0.003 A 
HETATM   18  H   UNK N   1      28.865  31.749  -4.686  0.00  0.00     0.165 HD
ENDROOT
BRANCH   6  19
HETATM   19  C   UNK N   1      25.618  24.092  -8.414  0.00  0.00     0.229 C 
HETATM   20  O   UNK N   1      24.567  23.626  -8.843  0.00  0.00    -0.273 OA
HETATM   21  N   UNK N   1      26.482  23.257  -7.753  0.00  0.00    -0.352 N 
BRANCH  21  22
HETATM   22  C   UNK N   1      27.744  23.719  -7.219  0.00  0.00     0.121 C 
HETATM   23  C   UNK N   1      27.732  23.668  -5.702  0.00  0.00     0.026 C 
ENDBRANCH  21  22
BRANCH  21  24
HETATM   24  C   UNK N   1      26.107  21.872  -7.540  0.00  0.00     0.121 C 
HETATM   25  C   UNK N   1      27.050  20.930  -8.268  0.00  0.00     0.026 C 
ENDBRANCH  21  24
ENDBRANCH   6  19
TORSDOF 3
ENDMDL
MODEL 9
REMARK VINA RESULT:      -6.2     12.197     15.321
REMARK  3 active torsions:
REMARK  status: ('A' for Active; 'I' for Inactive)
REMARK       I    between atoms: N_4  and  C_16 
REMARK    1  A    between atoms: N_4  and  C_21 
REMARK    2  A    between atoms: N_4  and  C_22 
REMARK    3  A    between atoms: C_8  and  C_16 
ROOT
HETATM    1  N   UNK N   1      34.145  10.840  12.220  0.00  0.00     0.094 N 
HETATM    2  N   UNK N   1      35.066  10.106  18.194  0.00  0.00    -0.365 N 
HETATM    3  C   UNK N   1      34.224  10.974  13.698  0.00  0.00     0.260 C 
HETATM    4  C   UNK N   1      34.897  12.283  14.148  0.00  0.00    -0.017 C 
HETATM    5  C   UNK N   1      34.810   9.749  14.476  0.00  0.00     0.081 C 
HETATM    6  C   UNK N   1      35.453  12.903  11.809  0.00  0.00     0.129 C 
HETATM    7  C   UNK N   1      35.292  11.401  11.506  0.00  0.00     0.290 C 
HETATM    8  C   UNK N   1      34.871  10.091  15.953  0.00  0.00    -0.027 A 
HETATM    9  C   UNK N   1      35.033  12.500  15.600  0.00  0.00    -0.015 A 
HETATM   10  C   UNK N   1      34.988  11.371  16.380  0.00  0.00     0.009 A 
HETATM   11  C   UNK N   1      35.420  13.158  13.285  0.00  0.00    -0.001 C 
HETATM   12  C   UNK N   1      35.116  11.369  17.720  0.00  0.00     0.043 A 
HETATM   13  C   UNK N   1      33.943   9.461  11.790  0.00  0.00     0.310 C 
HETATM   14  C   UNK N   1      34.922   9.299  17.098  0.00  0.00     0.096 A 
HETATM   15  C   UNK N   1      35.267  13.730  16.246  0.00  0.00     0.013 A 
HETATM   16  C   UNK N   1      35.312  12.561  18.420  0.00  0.00     0.030 A 
HETATM   17  C   UNK N   1      35.392  13.759  17.662  0.00  0.00     0.003 A 
HETATM   18  H   UNK N   1      35.120   9.822  19.135  0.00  0.00     0.165 HD
ENDROOT
BRANCH   6  19
HETATM   19  C   UNK N   1      34.714  13.999  11.044  0.00  0.00     0.229 C 
HETATM   20  O   UNK N   1      34.218  14.898  11.717  0.00  0.00    -0.273 OA
HETATM   21  N   UNK N   1      34.604  14.066   9.679  0.00  0.00    -0.352 N 
BRANCH  21  22
HETATM   22  C   UNK N   1      35.162  13.056   8.809  0.00  0.00     0.121 C 
HETATM   23  C   UNK N   1      36.578  13.426   8.402  0.00  0.00     0.026 C 
ENDBRANCH  21  22
BRANCH  21  24
HETATM   24  C   UNK N   1      33.868  15.164   9.081  0.00  0.00     0.121 C 
HETATM   25  C   UNK N   1      32.508  14.706   8.582  0.00  0.00     0.026 C 
ENDBRANCH  21  24
ENDBRANCH   6  19
TORSDOF 3
ENDMDL
