MODEL 1
REMARK VINA RESULT:      -4.9      0.000      0.000
REMARK  3 active torsions:
REMARK  status: ('A' for Active; 'I' for Inactive)
REMARK    1  A    between atoms: N_1  and  C_10 
REMARK       I    between atoms: N_3  and  C_12 
REMARK       I    between atoms: N_5  and  C_12 
REMARK       I    between atoms: N_6  and  C_13 
REMARK       I    between atoms: N_7  and  C_13 
REMARK    2  A    between atoms: C_8  and  C_9 
REMARK    3  A    between atoms: C_8  and  C_10 
ROOT
HETATM    1  N   UNK N   1      33.224  17.018   9.065  0.00  0.00    -0.226 N 
ATOM      2  HN  UNK N   1      32.979  16.219   9.650  1.00  0.00     0.177 HD
HETATM    3  N   UNK N   1      35.330  17.032  10.145  0.00  0.00    -0.024 N 
ATOM      4  HN  UNK N   1      36.235  17.498  10.199  1.00  0.00     0.203 HD
HETATM    5  N   UNK N   1      34.768  18.658   8.403  0.00  0.00    -0.234 N 
HETATM    6  N   UNK N   1      36.169  15.641  11.821  0.00  0.00    -0.234 N 
HETATM    7  N   UNK N   1      33.920  15.307  10.951  0.00  0.00    -0.234 N 
HETATM    8  C   UNK N   1      34.392  17.549   9.198  0.00  0.00     0.686 C 
HETATM    9  C   UNK N   1      35.138  16.028  10.940  0.00  0.00     0.683 C 
HETATM   10  H   UNK N   1      34.136  19.029   7.745  0.00  0.00     0.174 HD
HETATM   11  H   UNK N   1      35.660  19.060   8.508  0.00  0.00     0.174 HD
HETATM   12  H   UNK N   1      37.023  16.132  11.825  0.00  0.00     0.174 HD
HETATM   13  H   UNK N   1      36.037  14.880  12.431  0.00  0.00     0.174 HD
HETATM   14  H   UNK N   1      33.803  14.548  11.567  0.00  0.00     0.174 HD
HETATM   15  H   UNK N   1      33.189  15.564  10.343  0.00  0.00     0.174 HD
ENDROOT
BRANCH   1  16
HETATM   16  C   UNK N   1      32.254  17.509   8.123  0.00  0.00     0.138 C 
BRANCH  16  17
HETATM   17  C   UNK N   1      30.867  17.255   8.668  0.00  0.00     0.020 C 
BRANCH  17  18
HETATM   18  C   UNK N   1      30.264  18.570   9.108  0.00  0.00    -0.003 C 
HETATM   19  C   UNK N   1      28.772  18.404   9.288  0.00  0.00     0.005 C 
ENDBRANCH  17  18
ENDBRANCH  16  17
ENDBRANCH   1  16
TORSDOF 3
ENDMDL
MODEL 2
REMARK VINA RESULT:      -4.7      4.459      7.401
REMARK  3 active torsions:
REMARK  status: ('A' for Active; 'I' for Inactive)
REMARK    1  A    between atoms: N_1  and  C_10 
REMARK       I    between atoms: N_3  and  C_12 
REMARK       I    between atoms: N_5  and  C_12 
REMARK       I    between atoms: N_6  and  C_13 
REMARK       I    between atoms: N_7  and  C_13 
REMARK    2  A    between atoms: C_8  and  C_9 
REMARK    3  A    between atoms: C_8  and  C_10 
ROOT
HETATM    1  N   UNK N   1      35.668  13.407  14.089  0.00  0.00    -0.226 N 
ATOM      2  HN  UNK N   1      35.015  13.124  13.358  1.00  0.00     0.177 HD
HETATM    3  N   UNK N   1      36.249  15.244  12.716  0.00  0.00    -0.024 N 
ATOM      4  HN  UNK N   1      36.838  16.074  12.641  1.00  0.00     0.203 HD
HETATM    5  N   UNK N   1      37.290  14.894  14.905  0.00  0.00    -0.234 N 
HETATM    6  N   UNK N   1      35.457  15.856  10.608  0.00  0.00    -0.234 N 
HETATM    7  N   UNK N   1      34.601  13.865  11.718  0.00  0.00    -0.234 N 
HETATM    8  C   UNK N   1      36.374  14.470  13.912  0.00  0.00     0.686 C 
HETATM    9  C   UNK N   1      35.461  14.990  11.721  0.00  0.00     0.683 C 
HETATM   10  H   UNK N   1      37.390  14.375  15.736  0.00  0.00     0.174 HD
HETATM   11  H   UNK N   1      37.827  15.707  14.766  0.00  0.00     0.174 HD
HETATM   12  H   UNK N   1      36.050  16.643  10.595  0.00  0.00     0.174 HD
HETATM   13  H   UNK N   1      34.863  15.675   9.844  0.00  0.00     0.174 HD
HETATM   14  H   UNK N   1      34.013  13.698  10.947  0.00  0.00     0.174 HD
HETATM   15  H   UNK N   1      34.592  13.251  12.487  0.00  0.00     0.174 HD
ENDROOT
BRANCH   1  16
HETATM   16  C   UNK N   1      35.764  12.602  15.278  0.00  0.00     0.138 C 
BRANCH  16  17
HETATM   17  C   UNK N   1      34.600  12.925  16.187  0.00  0.00     0.020 C 
BRANCH  17  18
HETATM   18  C   UNK N   1      35.076  12.901  17.621  0.00  0.00    -0.003 C 
HETATM   19  C   UNK N   1      35.390  14.310  18.070  0.00  0.00     0.005 C 
ENDBRANCH  17  18
ENDBRANCH  16  17
ENDBRANCH   1  16
TORSDOF 3
ENDMDL
MODEL 3
REMARK VINA RESULT:      -4.7      3.929      6.671
REMARK  3 active torsions:
REMARK  status: ('A' for Active; 'I' for Inactive)
REMARK    1  A    between atoms: N_1  and  C_10 
REMARK       I    between atoms: N_3  and  C_12 
REMARK       I    between atoms: N_5  and  C_12 
REMARK       I    between atoms: N_6  and  C_13 
REMARK       I    between atoms: N_7  and  C_13 
REMARK    2  A    between atoms: C_8  and  C_9 
REMARK    3  A    between atoms: C_8  and  C_10 
ROOT
HETATM    1  N   UNK N   1      34.845  13.196  12.159  0.00  0.00    -0.226 N 
ATOM      2  HN  UNK N   1      33.960  13.523  11.770  1.00  0.00     0.177 HD
HETATM    3  N   UNK N   1      35.799  15.236  11.433  0.00  0.00    -0.024 N 
ATOM      4  HN  UNK N   1      36.657  15.787  11.395  1.00  0.00     0.203 HD
HETATM    5  N   UNK N   1      37.126  13.537  12.595  0.00  0.00    -0.234 N 
HETATM    6  N   UNK N   1      34.826  17.038  10.315  0.00  0.00    -0.234 N 
HETATM    7  N   UNK N   1      33.496  15.085  10.900  0.00  0.00    -0.234 N 
HETATM    8  C   UNK N   1      35.881  13.957  12.067  0.00  0.00     0.686 C 
HETATM    9  C   UNK N   1      34.740  15.760  10.904  0.00  0.00     0.683 C 
HETATM   10  H   UNK N   1      37.203  12.659  13.035  0.00  0.00     0.174 HD
HETATM   11  H   UNK N   1      37.914  14.121  12.523  0.00  0.00     0.174 HD
HETATM   12  H   UNK N   1      35.685  17.521  10.309  0.00  0.00     0.174 HD
HETATM   13  H   UNK N   1      34.029  17.448   9.909  0.00  0.00     0.174 HD
HETATM   14  H   UNK N   1      32.708  15.508  10.490  0.00  0.00     0.174 HD
HETATM   15  H   UNK N   1      33.419  14.191  11.307  0.00  0.00     0.174 HD
ENDROOT
BRANCH   1  16
HETATM   16  C   UNK N   1      34.887  11.903  12.789  0.00  0.00     0.138 C 
BRANCH  16  17
HETATM   17  C   UNK N   1      34.421  12.038  14.220  0.00  0.00     0.020 C 
BRANCH  17  18
HETATM   18  C   UNK N   1      33.756  10.748  14.643  0.00  0.00    -0.003 C 
HETATM   19  C   UNK N   1      34.511  10.151  15.809  0.00  0.00     0.005 C 
ENDBRANCH  17  18
ENDBRANCH  16  17
ENDBRANCH   1  16
TORSDOF 3
ENDMDL
MODEL 4
REMARK VINA RESULT:      -4.7      1.542      2.450
REMARK  3 active torsions:
REMARK  status: ('A' for Active; 'I' for Inactive)
REMARK    1  A    between atoms: N_1  and  C_10 
REMARK       I    between atoms: N_3  and  C_12 
REMARK       I    between atoms: N_5  and  C_12 
REMARK       I    between atoms: N_6  and  C_13 
REMARK       I    between atoms: N_7  and  C_13 
REMARK    2  A    between atoms: C_8  and  C_9 
REMARK    3  A    between atoms: C_8  and  C_10 
ROOT
HETATM    1  N   UNK N   1      33.364  17.068   9.021  0.00  0.00    -0.226 N 
ATOM      2  HN  UNK N   1      33.077  16.246   9.554  1.00  0.00     0.177 HD
HETATM    3  N   UNK N   1      35.380  17.040  10.259  0.00  0.00    -0.024 N 
ATOM      4  HN  UNK N   1      36.277  17.504  10.400  1.00  0.00     0.203 HD
HETATM    5  N   UNK N   1      34.947  18.733   8.544  0.00  0.00    -0.234 N 
HETATM    6  N   UNK N   1      36.094  15.585  11.938  0.00  0.00    -0.234 N 
HETATM    7  N   UNK N   1      33.918  15.284  10.887  0.00  0.00    -0.234 N 
HETATM    8  C   UNK N   1      34.516  17.593   9.264  0.00  0.00     0.686 C 
HETATM    9  C   UNK N   1      35.131  16.005  10.997  0.00  0.00     0.683 C 
HETATM   10  H   UNK N   1      34.366  19.129   7.854  0.00  0.00     0.174 HD
HETATM   11  H   UNK N   1      35.827  19.131   8.732  0.00  0.00     0.174 HD
HETATM   12  H   UNK N   1      36.943  16.076  12.027  0.00  0.00     0.174 HD
HETATM   13  H   UNK N   1      35.918  14.800  12.506  0.00  0.00     0.174 HD
HETATM   14  H   UNK N   1      33.757  14.502  11.462  0.00  0.00     0.174 HD
HETATM   15  H   UNK N   1      33.236  15.565  10.235  0.00  0.00     0.174 HD
ENDROOT
BRANCH   1  16
HETATM   16  C   UNK N   1      32.466  17.595   8.028  0.00  0.00     0.138 C 
BRANCH  16  17
HETATM   17  C   UNK N   1      32.511  16.709   6.804  0.00  0.00     0.020 C 
BRANCH  17  18
HETATM   18  C   UNK N   1      33.292  17.414   5.718  0.00  0.00    -0.003 C 
HETATM   19  C   UNK N   1      32.435  17.530   4.477  0.00  0.00     0.005 C 
ENDBRANCH  17  18
ENDBRANCH  16  17
ENDBRANCH   1  16
TORSDOF 3
ENDMDL
MODEL 5
REMARK VINA RESULT:      -4.6      1.410      2.205
REMARK  3 active torsions:
REMARK  status: ('A' for Active; 'I' for Inactive)
REMARK    1  A    between atoms: N_1  and  C_10 
REMARK       I    between atoms: N_3  and  C_12 
REMARK       I    between atoms: N_5  and  C_12 
REMARK       I    between atoms: N_6  and  C_13 
REMARK       I    between atoms: N_7  and  C_13 
REMARK    2  A    between atoms: C_8  and  C_9 
REMARK    3  A    between atoms: C_8  and  C_10 
ROOT
HETATM    1  N   UNK N   1      33.064  16.141   9.371  0.00  0.00    -0.226 N 
ATOM      2  HN  UNK N   1      33.641  16.931   9.661  1.00  0.00     0.177 HD
HETATM    3  N   UNK N   1      34.395  14.784  10.780  0.00  0.00    -0.024 N 
ATOM      4  HN  UNK N   1      34.545  13.835  11.124  1.00  0.00     0.203 HD
HETATM    5  N   UNK N   1      32.543  13.854   9.475  0.00  0.00    -0.234 N 
HETATM    6  N   UNK N   1      36.208  15.348  12.138  0.00  0.00    -0.234 N 
HETATM    7  N   UNK N   1      35.079  17.052  10.814  0.00  0.00    -0.234 N 
HETATM    8  C   UNK N   1      33.322  14.974   9.855  0.00  0.00     0.686 C 
HETATM    9  C   UNK N   1      35.194  15.702  11.223  0.00  0.00     0.683 C 
HETATM   10  H   UNK N   1      31.800  13.965   8.839  0.00  0.00     0.174 HD
HETATM   11  H   UNK N   1      32.744  12.966   9.847  0.00  0.00     0.174 HD
HETATM   12  H   UNK N   1      36.301  14.413  12.433  0.00  0.00     0.174 HD
HETATM   13  H   UNK N   1      36.822  16.036  12.483  0.00  0.00     0.174 HD
HETATM   14  H   UNK N   1      35.701  17.728  11.168  0.00  0.00     0.174 HD
HETATM   15  H   UNK N   1      34.377  17.315  10.176  0.00  0.00     0.174 HD
ENDROOT
BRANCH   1  16
HETATM   16  C   UNK N   1      31.994  16.373   8.438  0.00  0.00     0.138 C 
BRANCH  16  17
HETATM   17  C   UNK N   1      31.576  17.823   8.519  0.00  0.00     0.020 C 
BRANCH  17  18
HETATM   18  C   UNK N   1      30.066  17.898   8.513  0.00  0.00    -0.003 C 
HETATM   19  C   UNK N   1      29.594  18.620   9.755  0.00  0.00     0.005 C 
ENDBRANCH  17  18
ENDBRANCH  16  17
ENDBRANCH   1  16
TORSDOF 3
ENDMDL
MODEL 6
REMARK VINA RESULT:      -4.5      3.853      5.448
REMARK  3 active torsions:
REMARK  status: ('A' for Active; 'I' for Inactive)
REMARK    1  A    between atoms: N_1  and  C_10 
REMARK       I    between atoms: N_3  and  C_12 
REMARK       I    between atoms: N_5  and  C_12 
REMARK       I    between atoms: N_6  and  C_13 
REMARK       I    between atoms: N_7  and  C_13 
REMARK    2  A    between atoms: C_8  and  C_9 
REMARK    3  A    between atoms: C_8  and  C_10 
ROOT
HETATM    1  N   UNK N   1      28.767  18.180   6.769  0.00  0.00    -0.226 N 
ATOM      2  HN  UNK N   1      29.584  17.822   6.272  1.00  0.00     0.177 HD
HETATM    3  N   UNK N   1      30.012  17.948   8.768  0.00  0.00    -0.024 N 
ATOM      4  HN  UNK N   1      29.991  18.071   9.781  1.00  0.00     0.203 HD
HETATM    5  N   UNK N   1      27.715  18.797   8.774  0.00  0.00    -0.234 N 
HETATM    6  N   UNK N   1      32.191  17.182   9.104  0.00  0.00    -0.234 N 
HETATM    7  N   UNK N   1      31.247  17.275   6.861  0.00  0.00    -0.234 N 
HETATM    8  C   UNK N   1      28.827  18.303   8.050  0.00  0.00     0.686 C 
HETATM    9  C   UNK N   1      31.107  17.486   8.254  0.00  0.00     0.683 C 
HETATM   10  H   UNK N   1      26.889  19.047   8.298  0.00  0.00     0.174 HD
HETATM   11  H   UNK N   1      27.765  18.890   9.752  0.00  0.00     0.174 HD
HETATM   12  H   UNK N   1      32.109  17.323  10.075  0.00  0.00     0.174 HD
HETATM   13  H   UNK N   1      33.029  16.830   8.726  0.00  0.00     0.174 HD
HETATM   14  H   UNK N   1      32.091  16.923   6.499  0.00  0.00     0.174 HD
HETATM   15  H   UNK N   1      30.499  17.482   6.255  0.00  0.00     0.174 HD
ENDROOT
BRANCH   1  16
HETATM   16  C   UNK N   1      27.594  18.526   6.011  0.00  0.00     0.138 C 
BRANCH  16  17
HETATM   17  C   UNK N   1      27.967  19.558   4.972  0.00  0.00     0.020 C 
BRANCH  17  18
HETATM   18  C   UNK N   1      26.986  20.706   5.047  0.00  0.00    -0.003 C 
HETATM   19  C   UNK N   1      27.259  21.519   6.293  0.00  0.00     0.005 C 
ENDBRANCH  17  18
ENDBRANCH  16  17
ENDBRANCH   1  16
TORSDOF 3
ENDMDL
MODEL 7
REMARK VINA RESULT:      -4.4      4.970      7.632
REMARK  3 active torsions:
REMARK  status: ('A' for Active; 'I' for Inactive)
REMARK    1  A    between atoms: N_1  and  C_10 
REMARK       I    between atoms: N_3  and  C_12 
REMARK       I    between atoms: N_5  and  C_12 
REMARK       I    between atoms: N_6  and  C_13 
REMARK       I    between atoms: N_7  and  C_13 
REMARK    2  A    between atoms: C_8  and  C_9 
REMARK    3  A    between atoms: C_8  and  C_10 
ROOT
HETATM    1  N   UNK N   1      35.102  13.233  14.105  0.00  0.00    -0.226 N 
ATOM      2  HN  UNK N   1      34.474  13.433  13.326  1.00  0.00     0.177 HD
HETATM    3  N   UNK N   1      36.747  14.499  12.970  0.00  0.00    -0.024 N 
ATOM      4  HN  UNK N   1      37.707  14.843  13.008  1.00  0.00     0.203 HD
HETATM    5  N   UNK N   1      37.199  13.451  15.137  0.00  0.00    -0.234 N 
HETATM    6  N   UNK N   1      36.641  15.612  10.921  0.00  0.00    -0.234 N 
HETATM    7  N   UNK N   1      34.708  14.399  11.768  0.00  0.00    -0.234 N 
HETATM    8  C   UNK N   1      36.300  13.708  14.073  0.00  0.00     0.686 C 
HETATM    9  C   UNK N   1      36.050  14.820  11.927  0.00  0.00     0.683 C 
HETATM   10  H   UNK N   1      36.910  12.908  15.906  0.00  0.00     0.174 HD
HETATM   11  H   UNK N   1      38.113  13.815  15.108  0.00  0.00     0.174 HD
HETATM   12  H   UNK N   1      37.574  15.913  11.017  0.00  0.00     0.174 HD
HETATM   13  H   UNK N   1      36.122  15.863  10.123  0.00  0.00     0.174 HD
HETATM   14  H   UNK N   1      34.202  14.658  10.965  0.00  0.00     0.174 HD
HETATM   15  H   UNK N   1      34.280  13.845  12.462  0.00  0.00     0.174 HD
ENDROOT
BRANCH   1  16
HETATM   16  C   UNK N   1      34.614  12.433  15.197  0.00  0.00     0.138 C 
BRANCH  16  17
HETATM   17  C   UNK N   1      33.960  11.189  14.642  0.00  0.00     0.020 C 
BRANCH  17  18
HETATM   18  C   UNK N   1      34.693   9.975  15.164  0.00  0.00    -0.003 C 
HETATM   19  C   UNK N   1      34.833  10.079  16.666  0.00  0.00     0.005 C 
ENDBRANCH  17  18
ENDBRANCH  16  17
ENDBRANCH   1  16
TORSDOF 3
ENDMDL
MODEL 8
REMARK VINA RESULT:      -4.3      4.637      6.007
REMARK  3 active torsions:
REMARK  status: ('A' for Active; 'I' for Inactive)
REMARK    1  A    between atoms: N_1  and  C_10 
REMARK       I    between atoms: N_3  and  C_12 
REMARK       I    between atoms: N_5  and  C_12 
REMARK       I    between atoms: N_6  and  C_13 
REMARK       I    between atoms: N_7  and  C_13 
REMARK    2  A    between atoms: C_8  and  C_9 
REMARK    3  A    between atoms: C_8  and  C_10 
ROOT
HETATM    1  N   UNK N   1      28.134  18.317   6.451  0.00  0.00    -0.226 N 
ATOM      2  HN  UNK N   1      27.565  18.644   7.234  1.00  0.00     0.177 HD
HETATM    3  N   UNK N   1      29.683  17.510   8.047  0.00  0.00    -0.024 N 
ATOM      4  HN  UNK N   1      30.573  17.028   8.174  1.00  0.00     0.203 HD
HETATM    5  N   UNK N   1      30.061  17.251   5.642  0.00  0.00    -0.234 N 
HETATM    6  N   UNK N   1      29.622  17.594  10.379  0.00  0.00    -0.234 N 
HETATM    7  N   UNK N   1      27.812  18.550   9.062  0.00  0.00    -0.234 N 
HETATM    8  C   UNK N   1      29.247  17.717   6.701  0.00  0.00     0.686 C 
HETATM    9  C   UNK N   1      29.054  17.875   9.119  0.00  0.00     0.683 C 
HETATM   10  H   UNK N   1      29.779  17.384   4.708  0.00  0.00     0.174 HD
HETATM   11  H   UNK N   1      30.910  16.793   5.837  0.00  0.00     0.174 HD
HETATM   12  H   UNK N   1      30.487  17.125  10.435  0.00  0.00     0.174 HD
HETATM   13  H   UNK N   1      29.155  17.866  11.201  0.00  0.00     0.174 HD
HETATM   14  H   UNK N   1      27.357  18.815   9.893  0.00  0.00     0.174 HD
HETATM   15  H   UNK N   1      27.401  18.754   8.190  0.00  0.00     0.174 HD
ENDROOT
BRANCH   1  16
HETATM   16  C   UNK N   1      27.661  18.545   5.112  0.00  0.00     0.138 C 
BRANCH  16  17
HETATM   17  C   UNK N   1      27.809  20.013   4.780  0.00  0.00     0.020 C 
BRANCH  17  18
HETATM   18  C   UNK N   1      26.614  20.761   5.326  0.00  0.00    -0.003 C 
HETATM   19  C   UNK N   1      27.063  21.683   6.437  0.00  0.00     0.005 C 
ENDBRANCH  17  18
ENDBRANCH  16  17
ENDBRANCH   1  16
TORSDOF 3
ENDMDL
MODEL 9
REMARK VINA RESULT:      -4.3      3.517      5.668
REMARK  3 active torsions:
REMARK  status: ('A' for Active; 'I' for Inactive)
REMARK    1  A    between atoms: N_1  and  C_10 
REMARK       I    between atoms: N_3  and  C_12 
REMARK       I    between atoms: N_5  and  C_12 
REMARK       I    between atoms: N_6  and  C_13 
REMARK       I    between atoms: N_7  and  C_13 
REMARK    2  A    between atoms: C_8  and  C_9 
REMARK    3  A    between atoms: C_8  and  C_10 
ROOT
HETATM    1  N   UNK N   1      31.219  17.058   6.926  0.00  0.00    -0.226 N 
ATOM      2  HN  UNK N   1      30.369  17.148   6.369  1.00  0.00     0.177 HD
HETATM    3  N   UNK N   1      30.012  17.998   8.732  0.00  0.00    -0.024 N 
ATOM      4  HN  UNK N   1      30.066  18.287   9.709  1.00  0.00     0.203 HD
HETATM    5  N   UNK N   1      32.360  17.339   8.958  0.00  0.00    -0.234 N 
HETATM    6  N   UNK N   1      27.797  18.722   8.846  0.00  0.00    -0.234 N 
HETATM    7  N   UNK N   1      28.689  17.798   6.777  0.00  0.00    -0.234 N 
HETATM    8  C   UNK N   1      31.199  17.448   8.154  0.00  0.00     0.686 C 
HETATM    9  C   UNK N   1      28.877  18.163   8.131  0.00  0.00     0.683 C 
HETATM   10  H   UNK N   1      33.188  16.963   8.579  0.00  0.00     0.174 HD
HETATM   11  H   UNK N   1      32.341  17.638   9.895  0.00  0.00     0.174 HD
HETATM   12  H   UNK N   1      27.912  18.981   9.789  0.00  0.00     0.174 HD
HETATM   13  H   UNK N   1      26.928  18.853   8.402  0.00  0.00     0.174 HD
HETATM   14  H   UNK N   1      27.814  17.936   6.347  0.00  0.00     0.174 HD
HETATM   15  H   UNK N   1      29.433  17.407   6.264  0.00  0.00     0.174 HD
ENDROOT
BRANCH   1  16
HETATM   16  C   UNK N   1      32.393  16.500   6.309  0.00  0.00     0.138 C 
BRANCH  16  17
HETATM   17  C   UNK N   1      32.978  17.516   5.355  0.00  0.00     0.020 C 
BRANCH  17  18
HETATM   18  C   UNK N   1      32.030  17.697   4.191  0.00  0.00    -0.003 C 
HETATM   19  C   UNK N   1      32.499  16.856   3.025  0.00  0.00     0.005 C 
ENDBRANCH  17  18
ENDBRANCH  16  17
ENDBRANCH   1  16
TORSDOF 3
ENDMDL
