REMARK  3 active torsions:
REMARK  status: ('A' for Active; 'I' for Inactive)
REMARK    1  A    between atoms: N_1  and  C_10 
REMARK       I    between atoms: N_3  and  C_12 
REMARK       I    between atoms: N_5  and  C_12 
REMARK       I    between atoms: N_6  and  C_13 
REMARK       I    between atoms: N_7  and  C_13 
REMARK    2  A    between atoms: C_8  and  C_9 
REMARK    3  A    between atoms: C_8  and  C_10 
ROOT
HETATM    1  N   UNK N   1       4.368   0.378  -0.000  0.00  0.00    -0.226 N 
ATOM      2  HN  UNK N   1       3.525  -0.197  -0.000  1.00  0.00     0.177 HD
HETATM    3  N   UNK N   1       2.951   2.273   0.000  0.00  0.00    -0.024 N 
ATOM      4  HN  UNK N   1       2.924   3.293   0.000  1.00  0.00     0.203 HD
HETATM    5  N   UNK N   1       5.390   2.491   0.000  0.00  0.00    -0.234 N 
HETATM    6  N   UNK N   1       0.621   2.409   0.000  0.00  0.00    -0.234 N 
HETATM    7  N   UNK N   1       1.731   0.242  -0.000  0.00  0.00    -0.234 N 
HETATM    8  C   UNK N   1       4.243   1.661  -0.000  0.00  0.00     0.686 C 
HETATM    9  C   UNK N   1       1.813   1.655   0.000  0.00  0.00     0.683 C 
HETATM   10  H   UNK N   1       6.289   2.089   0.000  0.00  0.00     0.174 HD
HETATM   11  H   UNK N   1       5.290   3.470   0.000  0.00  0.00     0.174 HD
HETATM   12  H   UNK N   1       0.661   3.393   0.000  0.00  0.00     0.174 HD
HETATM   13  H   UNK N   1      -0.251   1.952   0.000  0.00  0.00     0.174 HD
HETATM   14  H   UNK N   1       0.852  -0.200  -0.000  0.00  0.00     0.174 HD
HETATM   15  H   UNK N   1       2.554  -0.299  -0.000  0.00  0.00     0.174 HD
ENDROOT
BRANCH   1  16
HETATM   16  C   UNK N   1       5.650  -0.275  -0.000  0.00  0.00     0.138 C 
BRANCH  16  17
HETATM   17  C   UNK N   1       5.440  -1.772  -0.000  0.00  0.00     0.020 C 
BRANCH  17  18
HETATM   18  C   UNK N   1       6.788  -2.456   0.000  0.00  0.00    -0.003 C 
HETATM   19  C   UNK N   1       6.591  -3.955   0.000  0.00  0.00     0.005 C 
ENDBRANCH  17  18
ENDBRANCH  16  17
ENDBRANCH   1  16
TORSDOF 3
