MODEL 1
REMARK VINA RESULT:      -6.1      0.000      0.000
REMARK  6 active torsions:
REMARK  status: ('A' for Active; 'I' for Inactive)
REMARK    1  A    between atoms: O_4  and  C_9 
REMARK    2  A    between atoms: O_4  and  C_17 
REMARK    3  A    between atoms: O_6  and  C_20 
REMARK    4  A    between atoms: C_8  and  C_12 
REMARK    5  A    between atoms: C_12  and  C_15 
REMARK    6  A    between atoms: C_17  and  C_20 
ROOT
HETATM    1 Cl   UNK N   1      30.680  16.846   4.228  0.00  0.00    -0.081 Cl
HETATM    2 Cl   UNK N   1      33.708  16.835   5.142  0.00  0.00    -0.080 Cl
HETATM    3  C   UNK N   1      30.061  17.499   6.878  0.00  0.00     0.039 A 
HETATM    4  C   UNK N   1      32.788  17.475   7.641  0.00  0.00     0.092 A 
HETATM    5  C   UNK N   1      31.073  17.204   5.914  0.00  0.00     0.072 A 
HETATM    6  C   UNK N   1      30.456  17.771   8.188  0.00  0.00     0.020 A 
HETATM    7  C   UNK N   1      32.436  17.195   6.309  0.00  0.00     0.090 A 
HETATM    8  C   UNK N   1      31.784  17.761   8.568  0.00  0.00     0.039 A 
ENDROOT
BRANCH   3   9
HETATM    9  C   UNK N   1      28.589  17.534   6.561  0.00  0.00     0.200 C 
HETATM   10  O   UNK N   1      27.905  16.539   6.724  0.00  0.00    -0.286 OA
BRANCH   9  11
HETATM   11  C   UNK N   1      27.920  18.766   6.046  0.00  0.00     0.055 A 
HETATM   12  S   UNK N   1      27.354  18.977   4.505  0.00  0.00    -0.098 SA
HETATM   13  C   UNK N   1      26.752  20.521   4.620  0.00  0.00     0.050 A 
HETATM   14  C   UNK N   1      26.992  20.930   5.937  0.00  0.00     0.009 A 
HETATM   15  C   UNK N   1      27.645  19.951   6.735  0.00  0.00     0.023 A 
ENDBRANCH   9  11
ENDBRANCH   3   9
BRANCH   4  16
HETATM   16  O   UNK N   1      34.090  17.470   8.030  0.00  0.00    -0.339 OA
BRANCH  16  17
HETATM   17  C   UNK N   1      34.652  16.369   8.648  0.00  0.00     0.285 C 
BRANCH  17  18
HETATM   18  C   UNK N   1      34.988  16.617  10.082  0.00  0.00     0.164 C 
HETATM   19  O   UNK N   1      35.825  17.448  10.395  0.00  0.00    -0.648 OA
BRANCH  18  20
HETATM   20  O   UNK N   1      34.355  15.912  11.038  0.00  0.00    -0.775 OA
HETATM   21  H   UNK N   1      33.425  15.802  11.002  0.00  0.00     0.167 HD
ENDBRANCH  18  20
ENDBRANCH  17  18
ENDBRANCH  16  17
ENDBRANCH   4  16
TORSDOF 6
ENDMDL
MODEL 2
REMARK VINA RESULT:      -6.1      9.235     10.017
REMARK  6 active torsions:
REMARK  status: ('A' for Active; 'I' for Inactive)
REMARK    1  A    between atoms: O_4  and  C_9 
REMARK    2  A    between atoms: O_4  and  C_17 
REMARK    3  A    between atoms: O_6  and  C_20 
REMARK    4  A    between atoms: C_8  and  C_12 
REMARK    5  A    between atoms: C_12  and  C_15 
REMARK    6  A    between atoms: C_17  and  C_20 
ROOT
HETATM    1 Cl   UNK N   1      19.474  16.456   8.790  0.00  0.00    -0.081 Cl
HETATM    2 Cl   UNK N   1      20.547  13.736   9.993  0.00  0.00    -0.080 Cl
HETATM    3  C   UNK N   1      21.648  16.338   7.032  0.00  0.00     0.039 A 
HETATM    4  C   UNK N   1      22.565  13.902   8.147  0.00  0.00     0.092 A 
HETATM    5  C   UNK N   1      20.936  15.730   8.111  0.00  0.00     0.072 A 
HETATM    6  C   UNK N   1      22.793  15.700   6.554  0.00  0.00     0.020 A 
HETATM    7  C   UNK N   1      21.406  14.509   8.661  0.00  0.00     0.090 A 
HETATM    8  C   UNK N   1      23.246  14.512   7.093  0.00  0.00     0.039 A 
ENDROOT
BRANCH   3   9
HETATM    9  C   UNK N   1      21.234  17.630   6.379  0.00  0.00     0.200 C 
HETATM   10  O   UNK N   1      21.147  18.650   7.040  0.00  0.00    -0.286 OA
BRANCH   9  11
HETATM   11  C   UNK N   1      20.919  17.714   4.921  0.00  0.00     0.055 A 
HETATM   12  S   UNK N   1      20.055  16.596   4.061  0.00  0.00    -0.098 SA
HETATM   13  C   UNK N   1      20.084  17.295   2.553  0.00  0.00     0.050 A 
HETATM   14  C   UNK N   1      20.810  18.484   2.696  0.00  0.00     0.009 A 
HETATM   15  C   UNK N   1      21.277  18.719   4.018  0.00  0.00     0.023 A 
ENDBRANCH   9  11
ENDBRANCH   3   9
BRANCH   4  16
HETATM   16  O   UNK N   1      23.023  12.733   8.667  0.00  0.00    -0.339 OA
BRANCH  16  17
HETATM   17  C   UNK N   1      24.276  12.643   9.244  0.00  0.00     0.285 C 
BRANCH  17  18
HETATM   18  C   UNK N   1      24.227  12.192  10.667  0.00  0.00     0.164 C 
HETATM   19  O   UNK N   1      23.274  11.559  11.092  0.00  0.00    -0.648 OA
BRANCH  18  20
HETATM   20  O   UNK N   1      25.252  12.491  11.487  0.00  0.00    -0.775 OA
HETATM   21  H   UNK N   1      25.212  12.255  12.393  0.00  0.00     0.167 HD
ENDBRANCH  18  20
ENDBRANCH  17  18
ENDBRANCH  16  17
ENDBRANCH   4  16
TORSDOF 6
ENDMDL
MODEL 3
REMARK VINA RESULT:      -6.0     11.708     14.627
REMARK  6 active torsions:
REMARK  status: ('A' for Active; 'I' for Inactive)
REMARK    1  A    between atoms: O_4  and  C_9 
REMARK    2  A    between atoms: O_4  and  C_17 
REMARK    3  A    between atoms: O_6  and  C_20 
REMARK    4  A    between atoms: C_8  and  C_12 
REMARK    5  A    between atoms: C_12  and  C_15 
REMARK    6  A    between atoms: C_17  and  C_20 
ROOT
HETATM    1 Cl   UNK N   1      31.515  25.295  -4.410  0.00  0.00    -0.081 Cl
HETATM    2 Cl   UNK N   1      29.400  27.334  -5.583  0.00  0.00    -0.080 Cl
HETATM    3  C   UNK N   1      29.343  23.996  -3.215  0.00  0.00     0.039 A 
HETATM    4  C   UNK N   1      27.494  25.850  -4.291  0.00  0.00     0.092 A 
HETATM    5  C   UNK N   1      29.801  25.072  -4.034  0.00  0.00     0.072 A 
HETATM    6  C   UNK N   1      27.974  23.891  -2.967  0.00  0.00     0.020 A 
HETATM    7  C   UNK N   1      28.864  25.995  -4.568  0.00  0.00     0.090 A 
HETATM    8  C   UNK N   1      27.067  24.791  -3.488  0.00  0.00     0.039 A 
ENDROOT
BRANCH   3   9
HETATM    9  C   UNK N   1      30.254  22.965  -2.601  0.00  0.00     0.200 C 
HETATM   10  O   UNK N   1      30.453  22.962  -1.399  0.00  0.00    -0.286 OA
BRANCH   9  11
HETATM   11  C   UNK N   1      30.938  21.923  -3.425  0.00  0.00     0.055 A 
HETATM   12  S   UNK N   1      32.507  21.432  -3.242  0.00  0.00    -0.098 SA
HETATM   13  C   UNK N   1      32.602  20.290  -4.445  0.00  0.00     0.050 A 
HETATM   14  C   UNK N   1      31.341  20.264  -5.051  0.00  0.00     0.009 A 
HETATM   15  C   UNK N   1      30.409  21.176  -4.482  0.00  0.00     0.023 A 
ENDBRANCH   9  11
ENDBRANCH   3   9
BRANCH   4  16
HETATM   16  O   UNK N   1      26.588  26.728  -4.797  0.00  0.00    -0.339 OA
BRANCH  16  17
HETATM   17  C   UNK N   1      25.677  27.373  -3.982  0.00  0.00     0.285 C 
BRANCH  17  18
HETATM   18  C   UNK N   1      26.225  28.623  -3.376  0.00  0.00     0.164 C 
HETATM   19  O   UNK N   1      26.933  28.580  -2.382  0.00  0.00    -0.648 OA
BRANCH  18  20
HETATM   20  O   UNK N   1      25.932  29.810  -3.938  0.00  0.00    -0.775 OA
HETATM   21  H   UNK N   1      26.082  29.946  -4.853  0.00  0.00     0.167 HD
ENDBRANCH  18  20
ENDBRANCH  17  18
ENDBRANCH  16  17
ENDBRANCH   4  16
TORSDOF 6
ENDMDL
MODEL 4
REMARK VINA RESULT:      -6.0      2.600      7.064
REMARK  6 active torsions:
REMARK  status: ('A' for Active; 'I' for Inactive)
REMARK    1  A    between atoms: O_4  and  C_9 
REMARK    2  A    between atoms: O_4  and  C_17 
REMARK    3  A    between atoms: O_6  and  C_20 
REMARK    4  A    between atoms: C_8  and  C_12 
REMARK    5  A    between atoms: C_12  and  C_15 
REMARK    6  A    between atoms: C_17  and  C_20 
ROOT
HETATM    1 Cl   UNK N   1      33.875  16.898   5.364  0.00  0.00    -0.081 Cl
HETATM    2 Cl   UNK N   1      30.914  16.591   4.296  0.00  0.00    -0.080 Cl
HETATM    3  C   UNK N   1      32.735  17.653   7.805  0.00  0.00     0.039 A 
HETATM    4  C   UNK N   1      30.104  17.362   6.796  0.00  0.00     0.092 A 
HETATM    5  C   UNK N   1      32.525  17.240   6.453  0.00  0.00     0.072 A 
HETATM    6  C   UNK N   1      31.615  17.904   8.599  0.00  0.00     0.020 A 
HETATM    7  C   UNK N   1      31.203  17.099   5.960  0.00  0.00     0.090 A 
HETATM    8  C   UNK N   1      30.329  17.764   8.114  0.00  0.00     0.039 A 
ENDROOT
BRANCH   3   9
HETATM    9  C   UNK N   1      34.095  17.833   8.424  0.00  0.00     0.200 C 
HETATM   10  O   UNK N   1      34.693  18.886   8.291  0.00  0.00    -0.286 OA
BRANCH   9  11
HETATM   11  C   UNK N   1      34.756  16.749   9.212  0.00  0.00     0.055 A 
HETATM   12  S   UNK N   1      34.980  15.192   8.699  0.00  0.00    -0.098 SA
HETATM   13  C   UNK N   1      35.750  14.552  10.026  0.00  0.00     0.050 A 
HETATM   14  C   UNK N   1      35.855  15.598  10.950  0.00  0.00     0.009 A 
HETATM   15  C   UNK N   1      35.300  16.826  10.497  0.00  0.00     0.023 A 
ENDBRANCH   9  11
ENDBRANCH   3   9
BRANCH   4  16
HETATM   16  O   UNK N   1      28.834  17.229   6.334  0.00  0.00    -0.339 OA
BRANCH  16  17
HETATM   17  C   UNK N   1      27.932  18.276   6.394  0.00  0.00     0.285 C 
BRANCH  17  18
HETATM   18  C   UNK N   1      28.025  19.189   5.216  0.00  0.00     0.164 C 
HETATM   19  O   UNK N   1      27.856  20.391   5.339  0.00  0.00    -0.648 OA
BRANCH  18  20
HETATM   20  O   UNK N   1      28.298  18.672   4.003  0.00  0.00    -0.775 OA
HETATM   21  H   UNK N   1      29.184  18.495   3.757  0.00  0.00     0.167 HD
ENDBRANCH  18  20
ENDBRANCH  17  18
ENDBRANCH  16  17
ENDBRANCH   4  16
TORSDOF 6
ENDMDL
MODEL 5
REMARK VINA RESULT:      -5.8     10.681     14.080
REMARK  6 active torsions:
REMARK  status: ('A' for Active; 'I' for Inactive)
REMARK    1  A    between atoms: O_4  and  C_9 
REMARK    2  A    between atoms: O_4  and  C_17 
REMARK    3  A    between atoms: O_6  and  C_20 
REMARK    4  A    between atoms: C_8  and  C_12 
REMARK    5  A    between atoms: C_12  and  C_15 
REMARK    6  A    between atoms: C_17  and  C_20 
ROOT
HETATM    1 Cl   UNK N   1      35.117   8.842  17.417  0.00  0.00    -0.081 Cl
HETATM    2 Cl   UNK N   1      34.846  10.432  14.697  0.00  0.00    -0.080 Cl
HETATM    3  C   UNK N   1      35.256  11.342  18.666  0.00  0.00     0.039 A 
HETATM    4  C   UNK N   1      35.010  12.715  16.202  0.00  0.00     0.092 A 
HETATM    5  C   UNK N   1      35.128  10.610  17.446  0.00  0.00     0.072 A 
HETATM    6  C   UNK N   1      35.256  12.736  18.603  0.00  0.00     0.020 A 
HETATM    7  C   UNK N   1      35.005  11.309  16.218  0.00  0.00     0.090 A 
HETATM    8  C   UNK N   1      35.136  13.412  17.405  0.00  0.00     0.039 A 
ENDROOT
BRANCH   3   9
HETATM    9  C   UNK N   1      35.392  10.696  20.020  0.00  0.00     0.200 C 
HETATM   10  O   UNK N   1      36.490  10.575  20.533  0.00  0.00    -0.286 OA
BRANCH   9  11
HETATM   11  C   UNK N   1      34.208  10.186  20.775  0.00  0.00     0.055 A 
HETATM   12  S   UNK N   1      33.573   8.663  20.650  0.00  0.00    -0.098 SA
HETATM   13  C   UNK N   1      32.316   8.777  21.730  0.00  0.00     0.050 A 
HETATM   14  C   UNK N   1      32.366  10.079  22.242  0.00  0.00     0.009 A 
HETATM   15  C   UNK N   1      33.423  10.868  21.710  0.00  0.00     0.023 A 
ENDBRANCH   9  11
ENDBRANCH   3   9
BRANCH   4  16
HETATM   16  O   UNK N   1      34.893  13.395  15.032  0.00  0.00    -0.339 OA
BRANCH  16  17
HETATM   17  C   UNK N   1      36.006  13.824  14.333  0.00  0.00     0.285 C 
BRANCH  17  18
HETATM   18  C   UNK N   1      35.701  14.175  12.914  0.00  0.00     0.164 C 
HETATM   19  O   UNK N   1      34.616  13.911  12.423  0.00  0.00    -0.648 OA
BRANCH  18  20
HETATM   20  O   UNK N   1      36.640  14.790  12.172  0.00  0.00    -0.775 OA
HETATM   21  H   UNK N   1      36.423  15.559  11.683  0.00  0.00     0.167 HD
ENDBRANCH  18  20
ENDBRANCH  17  18
ENDBRANCH  16  17
ENDBRANCH   4  16
TORSDOF 6
ENDMDL
MODEL 6
REMARK VINA RESULT:      -5.8     10.876     14.148
REMARK  6 active torsions:
REMARK  status: ('A' for Active; 'I' for Inactive)
REMARK    1  A    between atoms: O_4  and  C_9 
REMARK    2  A    between atoms: O_4  and  C_17 
REMARK    3  A    between atoms: O_6  and  C_20 
REMARK    4  A    between atoms: C_8  and  C_12 
REMARK    5  A    between atoms: C_12  and  C_15 
REMARK    6  A    between atoms: C_17  and  C_20 
ROOT
HETATM    1 Cl   UNK N   1      35.522  11.791  20.016  0.00  0.00    -0.081 Cl
HETATM    2 Cl   UNK N   1      35.336  14.171  17.943  0.00  0.00    -0.080 Cl
HETATM    3  C   UNK N   1      35.048  10.090  17.845  0.00  0.00     0.039 A 
HETATM    4  C   UNK N   1      34.891  12.259  16.032  0.00  0.00     0.092 A 
HETATM    5  C   UNK N   1      35.215  11.429  18.313  0.00  0.00     0.072 A 
HETATM    6  C   UNK N   1      34.809   9.890  16.485  0.00  0.00     0.020 A 
HETATM    7  C   UNK N   1      35.134  12.508  17.394  0.00  0.00     0.090 A 
HETATM    8  C   UNK N   1      34.731  10.943  15.595  0.00  0.00     0.039 A 
ENDROOT
BRANCH   3   9
HETATM    9  C   UNK N   1      35.116   8.877  18.736  0.00  0.00     0.200 C 
HETATM   10  O   UNK N   1      36.194   8.462  19.124  0.00  0.00    -0.286 OA
BRANCH   9  11
HETATM   11  C   UNK N   1      33.888   8.148  19.174  0.00  0.00     0.055 A 
HETATM   12  S   UNK N   1      33.711   6.503  19.211  0.00  0.00    -0.098 SA
HETATM   13  C   UNK N   1      32.154   6.386  19.780  0.00  0.00     0.050 A 
HETATM   14  C   UNK N   1      31.712   7.702  19.964  0.00  0.00     0.009 A 
HETATM   15  C   UNK N   1      32.680   8.688  19.626  0.00  0.00     0.023 A 
ENDBRANCH   9  11
ENDBRANCH   3   9
BRANCH   4  16
HETATM   16  O   UNK N   1      34.812  13.284  15.144  0.00  0.00    -0.339 OA
BRANCH  16  17
HETATM   17  C   UNK N   1      35.944  13.816  14.554  0.00  0.00     0.285 C 
BRANCH  17  18
HETATM   18  C   UNK N   1      35.874  13.814  13.062  0.00  0.00     0.164 C 
HETATM   19  O   UNK N   1      34.799  13.813  12.485  0.00  0.00    -0.648 OA
BRANCH  18  20
HETATM   20  O   UNK N   1      37.017  13.814  12.350  0.00  0.00    -0.775 OA
HETATM   21  H   UNK N   1      37.049  14.237  11.515  0.00  0.00     0.167 HD
ENDBRANCH  18  20
ENDBRANCH  17  18
ENDBRANCH  16  17
ENDBRANCH   4  16
TORSDOF 6
ENDMDL
MODEL 7
REMARK VINA RESULT:      -5.7      9.636     10.465
REMARK  6 active torsions:
REMARK  status: ('A' for Active; 'I' for Inactive)
REMARK    1  A    between atoms: O_4  and  C_9 
REMARK    2  A    between atoms: O_4  and  C_17 
REMARK    3  A    between atoms: O_6  and  C_20 
REMARK    4  A    between atoms: C_8  and  C_12 
REMARK    5  A    between atoms: C_12  and  C_15 
REMARK    6  A    between atoms: C_17  and  C_20 
ROOT
HETATM    1 Cl   UNK N   1      23.288  15.493   5.684  0.00  0.00    -0.081 Cl
HETATM    2 Cl   UNK N   1      23.198  12.776   7.300  0.00  0.00    -0.080 Cl
HETATM    3  C   UNK N   1      21.100  16.290   7.236  0.00  0.00     0.039 A 
HETATM    4  C   UNK N   1      21.065  13.837   8.652  0.00  0.00     0.092 A 
HETATM    5  C   UNK N   1      22.057  15.273   6.934  0.00  0.00     0.072 A 
HETATM    6  C   UNK N   1      20.162  16.037   8.237  0.00  0.00     0.020 A 
HETATM    7  C   UNK N   1      22.029  14.049   7.651  0.00  0.00     0.090 A 
HETATM    8  C   UNK N   1      20.139  14.843   8.932  0.00  0.00     0.039 A 
ENDROOT
BRANCH   3   9
HETATM    9  C   UNK N   1      21.044  17.621   6.535  0.00  0.00     0.200 C 
HETATM   10  O   UNK N   1      21.214  18.651   7.163  0.00  0.00    -0.286 OA
BRANCH   9  11
HETATM   11  C   UNK N   1      20.784  17.733   5.068  0.00  0.00     0.055 A 
HETATM   12  S   UNK N   1      21.222  19.009   4.110  0.00  0.00    -0.098 SA
HETATM   13  C   UNK N   1      20.642  18.490   2.642  0.00  0.00     0.050 A 
HETATM   14  C   UNK N   1      20.061  17.238   2.879  0.00  0.00     0.009 A 
HETATM   15  C   UNK N   1      20.140  16.814   4.234  0.00  0.00     0.023 A 
ENDBRANCH   9  11
ENDBRANCH   3   9
BRANCH   4  16
HETATM   16  O   UNK N   1      21.030  12.669   9.344  0.00  0.00    -0.339 OA
BRANCH  16  17
HETATM   17  C   UNK N   1      21.031  12.650  10.727  0.00  0.00     0.285 C 
BRANCH  17  18
HETATM   18  C   UNK N   1      22.354  12.260  11.300  0.00  0.00     0.164 C 
HETATM   19  O   UNK N   1      23.395  12.588  10.753  0.00  0.00    -0.648 OA
BRANCH  18  20
HETATM   20  O   UNK N   1      22.392  11.538  12.435  0.00  0.00    -0.775 OA
HETATM   21  H   UNK N   1      23.129  11.606  13.010  0.00  0.00     0.167 HD
ENDBRANCH  18  20
ENDBRANCH  17  18
ENDBRANCH  16  17
ENDBRANCH   4  16
TORSDOF 6
ENDMDL
MODEL 8
REMARK VINA RESULT:      -5.7     11.572     14.886
REMARK  6 active torsions:
REMARK  status: ('A' for Active; 'I' for Inactive)
REMARK    1  A    between atoms: O_4  and  C_9 
REMARK    2  A    between atoms: O_4  and  C_17 
REMARK    3  A    between atoms: O_6  and  C_20 
REMARK    4  A    between atoms: C_8  and  C_12 
REMARK    5  A    between atoms: C_12  and  C_15 
REMARK    6  A    between atoms: C_17  and  C_20 
ROOT
HETATM    1 Cl   UNK N   1      31.404  25.316  -4.359  0.00  0.00    -0.081 Cl
HETATM    2 Cl   UNK N   1      29.176  27.172  -5.621  0.00  0.00    -0.080 Cl
HETATM    3  C   UNK N   1      29.307  23.914  -3.148  0.00  0.00     0.039 A 
HETATM    4  C   UNK N   1      27.354  25.607  -4.304  0.00  0.00     0.092 A 
HETATM    5  C   UNK N   1      29.704  24.992  -3.996  0.00  0.00     0.072 A 
HETATM    6  C   UNK N   1      27.945  23.726  -2.912  0.00  0.00     0.020 A 
HETATM    7  C   UNK N   1      28.715  25.833  -4.569  0.00  0.00     0.090 A 
HETATM    8  C   UNK N   1      26.987  24.548  -3.472  0.00  0.00     0.039 A 
ENDROOT
BRANCH   3   9
HETATM    9  C   UNK N   1      30.276  22.965  -2.491  0.00  0.00     0.200 C 
HETATM   10  O   UNK N   1      30.434  22.991  -1.284  0.00  0.00    -0.286 OA
BRANCH   9  11
HETATM   11  C   UNK N   1      31.068  21.973  -3.279  0.00  0.00     0.055 A 
HETATM   12  S   UNK N   1      30.521  21.142  -4.602  0.00  0.00    -0.098 SA
HETATM   13  C   UNK N   1      31.871  20.245  -4.966  0.00  0.00     0.050 A 
HETATM   14  C   UNK N   1      32.833  20.593  -4.010  0.00  0.00     0.009 A 
HETATM   15  C   UNK N   1      32.386  21.558  -3.066  0.00  0.00     0.023 A 
ENDBRANCH   9  11
ENDBRANCH   3   9
BRANCH   4  16
HETATM   16  O   UNK N   1      26.399  26.406  -4.847  0.00  0.00    -0.339 OA
BRANCH  16  17
HETATM   17  C   UNK N   1      25.345  25.880  -5.571  0.00  0.00     0.285 C 
BRANCH  17  18
HETATM   18  C   UNK N   1      25.753  25.403  -6.926  0.00  0.00     0.164 C 
HETATM   19  O   UNK N   1      26.352  26.138  -7.695  0.00  0.00    -0.648 OA
BRANCH  18  20
HETATM   20  O   UNK N   1      25.453  24.145  -7.299  0.00  0.00    -0.775 OA
HETATM   21  H   UNK N   1      26.004  23.434  -7.037  0.00  0.00     0.167 HD
ENDBRANCH  18  20
ENDBRANCH  17  18
ENDBRANCH  16  17
ENDBRANCH   4  16
TORSDOF 6
ENDMDL
MODEL 9
REMARK VINA RESULT:      -5.6      3.184      5.207
REMARK  6 active torsions:
REMARK  status: ('A' for Active; 'I' for Inactive)
REMARK    1  A    between atoms: O_4  and  C_9 
REMARK    2  A    between atoms: O_4  and  C_17 
REMARK    3  A    between atoms: O_6  and  C_20 
REMARK    4  A    between atoms: C_8  and  C_12 
REMARK    5  A    between atoms: C_12  and  C_15 
REMARK    6  A    between atoms: C_17  and  C_20 
ROOT
HETATM    1 Cl   UNK N   1      34.269  14.176   7.078  0.00  0.00    -0.081 Cl
HETATM    2 Cl   UNK N   1      35.708  12.634   9.434  0.00  0.00    -0.080 Cl
HETATM    3  C   UNK N   1      34.531  16.475   8.651  0.00  0.00     0.039 A 
HETATM    4  C   UNK N   1      35.816  15.045  10.731  0.00  0.00     0.092 A 
HETATM    5  C   UNK N   1      34.764  15.072   8.520  0.00  0.00     0.072 A 
HETATM    6  C   UNK N   1      34.953  17.107   9.822  0.00  0.00     0.020 A 
HETATM    7  C   UNK N   1      35.408  14.366   9.569  0.00  0.00     0.090 A 
HETATM    8  C   UNK N   1      35.580  16.416  10.840  0.00  0.00     0.039 A 
ENDROOT
BRANCH   3   9
HETATM    9  C   UNK N   1      33.857  17.314   7.598  0.00  0.00     0.200 C 
HETATM   10  O   UNK N   1      34.525  17.966   6.815  0.00  0.00    -0.286 OA
BRANCH   9  11
HETATM   11  C   UNK N   1      32.370  17.380   7.472  0.00  0.00     0.055 A 
HETATM   12  S   UNK N   1      31.502  16.973   6.123  0.00  0.00    -0.098 SA
HETATM   13  C   UNK N   1      29.959  17.275   6.662  0.00  0.00     0.050 A 
HETATM   14  C   UNK N   1      30.094  17.726   7.980  0.00  0.00     0.009 A 
HETATM   15  C   UNK N   1      31.440  17.785   8.435  0.00  0.00     0.023 A 
ENDBRANCH   9  11
ENDBRANCH   3   9
BRANCH   4  16
HETATM   16  O   UNK N   1      36.434  14.379  11.741  0.00  0.00    -0.339 OA
BRANCH  16  17
HETATM   17  C   UNK N   1      36.133  14.638  13.065  0.00  0.00     0.285 C 
BRANCH  17  18
HETATM   18  C   UNK N   1      35.827  13.401  13.843  0.00  0.00     0.164 C 
HETATM   19  O   UNK N   1      36.705  12.598  14.114  0.00  0.00    -0.648 OA
BRANCH  18  20
HETATM   20  O   UNK N   1      34.563  13.174  14.247  0.00  0.00    -0.775 OA
HETATM   21  H   UNK N   1      34.400  12.814  15.097  0.00  0.00     0.167 HD
ENDBRANCH  18  20
ENDBRANCH  17  18
ENDBRANCH  16  17
ENDBRANCH   4  16
TORSDOF 6
ENDMDL
