MODEL 1
REMARK VINA RESULT:      -5.7      0.000      0.000
REMARK  4 active torsions:
REMARK  status: ('A' for Active; 'I' for Inactive)
REMARK    1  A    between atoms: N_2  and  C_6 
REMARK    2  A    between atoms: C_5  and  C_8 
REMARK    3  A    between atoms: C_5  and  C_9 
REMARK    4  A    between atoms: C_6  and  C_7 
ROOT
HETATM    1  C   UNK N   1      30.845  16.515   6.502  0.00  0.00    -0.016 C 
HETATM    2  C   UNK N   1      30.711  15.366   5.787  0.00  0.00     0.016 C 
ENDROOT
BRANCH   1   3
HETATM    3  C   UNK N   1      29.727  17.526   6.365  0.00  0.00    -0.025 A 
HETATM    4  C   UNK N   1      29.118  18.114   7.487  0.00  0.00     0.013 A 
HETATM    5  C   UNK N   1      28.134  19.093   7.348  0.00  0.00     0.020 A 
HETATM    6  C   UNK N   1      27.735  19.504   6.077  0.00  0.00     0.011 A 
HETATM    7 Br   UNK N   1      26.421  20.872   5.894  0.00  0.00    -0.051 Br
HETATM    8  C   UNK N   1      28.313  18.925   4.945  0.00  0.00     0.020 A 
HETATM    9  C   UNK N   1      29.302  17.946   5.087  0.00  0.00     0.013 A 
ENDBRANCH   1   3
BRANCH   1  10
HETATM   10  C   UNK N   1      32.077  16.794   7.353  0.00  0.00    -0.010 A 
HETATM   11  C   UNK N   1      33.140  17.582   6.880  0.00  0.00     0.015 A 
HETATM   12  C   UNK N   1      34.260  17.831   7.671  0.00  0.00     0.018 A 
HETATM   13  C   UNK N   1      34.322  17.288   8.951  0.00  0.00     0.087 A 
HETATM   14  N   UNK N   1      33.300  16.523   9.412  0.00  0.00    -0.374 N 
HETATM   15  C   UNK N   1      32.202  16.270   8.652  0.00  0.00     0.099 A 
ATOM     16  HN  UNK N   1      33.358  16.128  10.351  1.00  0.00     0.164 HD
ENDBRANCH   1  10
BRANCH   2  17
HETATM   17  C   UNK N   1      31.720  14.258   5.677  0.00  0.00     0.299 C 
BRANCH  17  18
HETATM   18  N   UNK N   1      32.156  14.073   4.304  0.00  0.00     0.083 N 
HETATM   19  C   UNK N   1      33.249  15.004   4.090  0.00  0.00     0.309 C 
HETATM   20  C   UNK N   1      31.071  14.497   3.436  0.00  0.00     0.309 C 
ENDBRANCH  17  18
ENDBRANCH   2  17
TORSDOF 4
ENDMDL
MODEL 2
REMARK VINA RESULT:      -5.5     12.399     14.663
REMARK  4 active torsions:
REMARK  status: ('A' for Active; 'I' for Inactive)
REMARK    1  A    between atoms: N_2  and  C_6 
REMARK    2  A    between atoms: C_5  and  C_8 
REMARK    3  A    between atoms: C_5  and  C_9 
REMARK    4  A    between atoms: C_6  and  C_7 
ROOT
HETATM    1  C   UNK N   1      26.841  24.890  -4.868  0.00  0.00    -0.016 C 
HETATM    2  C   UNK N   1      25.952  24.333  -5.733  0.00  0.00     0.016 C 
ENDROOT
BRANCH   1   3
HETATM    3  C   UNK N   1      26.733  26.386  -4.663  0.00  0.00    -0.025 A 
HETATM    4  C   UNK N   1      26.274  26.938  -3.455  0.00  0.00     0.013 A 
HETATM    5  C   UNK N   1      26.240  28.318  -3.255  0.00  0.00     0.020 A 
HETATM    6  C   UNK N   1      26.666  29.179  -4.265  0.00  0.00     0.011 A 
HETATM    7 Br   UNK N   1      26.658  31.062  -3.970  0.00  0.00    -0.051 Br
HETATM    8  C   UNK N   1      27.112  28.658  -5.481  0.00  0.00     0.020 A 
HETATM    9  C   UNK N   1      27.147  27.273  -5.679  0.00  0.00     0.013 A 
ENDBRANCH   1   3
BRANCH   1  10
HETATM   10  C   UNK N   1      27.921  24.064  -4.181  0.00  0.00    -0.010 A 
HETATM   11  C   UNK N   1      27.827  23.707  -2.825  0.00  0.00     0.015 A 
HETATM   12  C   UNK N   1      28.820  22.948  -2.209  0.00  0.00     0.018 A 
HETATM   13  C   UNK N   1      29.923  22.539  -2.955  0.00  0.00     0.087 A 
HETATM   14  N   UNK N   1      30.021  22.884  -4.264  0.00  0.00    -0.374 N 
HETATM   15  C   UNK N   1      29.060  23.625  -4.878  0.00  0.00     0.099 A 
ATOM     16  HN  UNK N   1      30.834  22.582  -4.800  1.00  0.00     0.164 HD
ENDBRANCH   1  10
BRANCH   2  17
HETATM   17  C   UNK N   1      25.915  22.898  -6.176  0.00  0.00     0.299 C 
BRANCH  17  18
HETATM   18  N   UNK N   1      26.099  22.783  -7.612  0.00  0.00     0.083 N 
HETATM   19  C   UNK N   1      25.564  24.001  -8.194  0.00  0.00     0.309 C 
HETATM   20  C   UNK N   1      25.258  21.694  -8.079  0.00  0.00     0.309 C 
ENDBRANCH  17  18
ENDBRANCH   2  17
TORSDOF 4
ENDMDL
MODEL 3
REMARK VINA RESULT:      -5.4     15.748     18.369
REMARK  4 active torsions:
REMARK  status: ('A' for Active; 'I' for Inactive)
REMARK    1  A    between atoms: N_2  and  C_6 
REMARK    2  A    between atoms: C_5  and  C_8 
REMARK    3  A    between atoms: C_5  and  C_9 
REMARK    4  A    between atoms: C_6  and  C_7 
ROOT
HETATM    1  C   UNK N   1      25.989  25.632  -8.315  0.00  0.00    -0.016 C 
HETATM    2  C   UNK N   1      25.892  24.314  -7.996  0.00  0.00     0.016 C 
ENDROOT
BRANCH   1   3
HETATM    3  C   UNK N   1      26.163  26.593  -7.159  0.00  0.00    -0.025 A 
HETATM    4  C   UNK N   1      27.240  27.493  -7.099  0.00  0.00     0.013 A 
HETATM    5  C   UNK N   1      27.354  28.419  -6.062  0.00  0.00     0.020 A 
HETATM    6  C   UNK N   1      26.390  28.462  -5.057  0.00  0.00     0.011 A 
HETATM    7 Br   UNK N   1      26.528  29.757  -3.666  0.00  0.00    -0.051 Br
HETATM    8  C   UNK N   1      25.317  27.568  -5.084  0.00  0.00     0.020 A 
HETATM    9  C   UNK N   1      25.203  26.642  -6.127  0.00  0.00     0.013 A 
ENDBRANCH   1   3
BRANCH   1  10
HETATM   10  C   UNK N   1      25.876  26.121  -9.753  0.00  0.00    -0.010 A 
HETATM   11  C   UNK N   1      24.630  26.304 -10.377  0.00  0.00     0.015 A 
HETATM   12  C   UNK N   1      24.542  26.755 -11.692  0.00  0.00     0.018 A 
HETATM   13  C   UNK N   1      25.711  27.028 -12.397  0.00  0.00     0.087 A 
HETATM   14  N   UNK N   1      26.918  26.850 -11.802  0.00  0.00    -0.374 N 
HETATM   15  C   UNK N   1      27.019  26.409 -10.519  0.00  0.00     0.099 A 
ATOM     16  HN  UNK N   1      27.768  27.050 -12.328  1.00  0.00     0.164 HD
ENDBRANCH   1  10
BRANCH   2  17
HETATM   17  C   UNK N   1      25.620  23.181  -8.945  0.00  0.00     0.299 C 
BRANCH  17  18
HETATM   18  N   UNK N   1      25.971  21.901  -8.355  0.00  0.00     0.083 N 
HETATM   19  C   UNK N   1      24.867  21.533  -7.486  0.00  0.00     0.309 C 
HETATM   20  C   UNK N   1      27.124  22.111  -7.497  0.00  0.00     0.309 C 
ENDBRANCH  17  18
ENDBRANCH   2  17
TORSDOF 4
ENDMDL
MODEL 4
REMARK VINA RESULT:      -5.4      1.931      4.265
REMARK  4 active torsions:
REMARK  status: ('A' for Active; 'I' for Inactive)
REMARK    1  A    between atoms: N_2  and  C_6 
REMARK    2  A    between atoms: C_5  and  C_8 
REMARK    3  A    between atoms: C_5  and  C_9 
REMARK    4  A    between atoms: C_6  and  C_7 
ROOT
HETATM    1  C   UNK N   1      29.723  17.416   5.420  0.00  0.00    -0.016 C 
HETATM    2  C   UNK N   1      29.704  17.265   6.771  0.00  0.00     0.016 C 
ENDROOT
BRANCH   1   3
HETATM    3  C   UNK N   1      28.526  18.108   4.804  0.00  0.00    -0.025 A 
HETATM    4  C   UNK N   1      27.483  17.388   4.198  0.00  0.00     0.013 A 
HETATM    5  C   UNK N   1      26.354  18.033   3.692  0.00  0.00     0.020 A 
HETATM    6  C   UNK N   1      26.245  19.419   3.782  0.00  0.00     0.011 A 
HETATM    7 Br   UNK N   1      24.682  20.291   3.128  0.00  0.00    -0.051 Br
HETATM    8  C   UNK N   1      27.274  20.161   4.365  0.00  0.00     0.020 A 
HETATM    9  C   UNK N   1      28.405  19.512   4.874  0.00  0.00     0.013 A 
ENDBRANCH   1   3
BRANCH   1  10
HETATM   10  C   UNK N   1      30.861  16.872   4.566  0.00  0.00    -0.010 A 
HETATM   11  C   UNK N   1      30.827  15.574   4.028  0.00  0.00     0.015 A 
HETATM   12  C   UNK N   1      31.873  15.091   3.246  0.00  0.00     0.018 A 
HETATM   13  C   UNK N   1      32.970  15.911   2.996  0.00  0.00     0.087 A 
HETATM   14  N   UNK N   1      33.010  17.164   3.515  0.00  0.00    -0.374 N 
HETATM   15  C   UNK N   1      31.996  17.650   4.281  0.00  0.00     0.099 A 
ATOM     16  HN  UNK N   1      33.819  17.756   3.327  1.00  0.00     0.164 HD
ENDBRANCH   1  10
BRANCH   2  17
HETATM   17  C   UNK N   1      30.718  16.533   7.604  0.00  0.00     0.299 C 
BRANCH  17  18
HETATM   18  N   UNK N   1      31.235  17.373   8.669  0.00  0.00     0.083 N 
HETATM   19  C   UNK N   1      30.245  18.412   8.890  0.00  0.00     0.309 C 
HETATM   20  C   UNK N   1      32.428  18.035   8.169  0.00  0.00     0.309 C 
ENDBRANCH  17  18
ENDBRANCH   2  17
TORSDOF 4
ENDMDL
MODEL 5
REMARK VINA RESULT:      -5.4     12.290     15.212
REMARK  4 active torsions:
REMARK  status: ('A' for Active; 'I' for Inactive)
REMARK    1  A    between atoms: N_2  and  C_6 
REMARK    2  A    between atoms: C_5  and  C_8 
REMARK    3  A    between atoms: C_5  and  C_9 
REMARK    4  A    between atoms: C_6  and  C_7 
ROOT
HETATM    1  C   UNK N   1      27.740  24.245  -4.602  0.00  0.00    -0.016 C 
HETATM    2  C   UNK N   1      27.338  25.195  -3.716  0.00  0.00     0.016 C 
ENDROOT
BRANCH   1   3
HETATM    3  C   UNK N   1      28.962  23.440  -4.215  0.00  0.00    -0.025 A 
HETATM    4  C   UNK N   1      29.552  22.519  -5.097  0.00  0.00     0.013 A 
HETATM    5  C   UNK N   1      30.716  21.831  -4.755  0.00  0.00     0.020 A 
HETATM    6  C   UNK N   1      31.316  22.051  -3.516  0.00  0.00     0.011 A 
HETATM    7 Br   UNK N   1      32.931  21.141  -3.071  0.00  0.00    -0.051 Br
HETATM    8  C   UNK N   1      30.742  22.950  -2.615  0.00  0.00     0.020 A 
HETATM    9  C   UNK N   1      29.576  23.640  -2.961  0.00  0.00     0.013 A 
ENDBRANCH   1   3
BRANCH   1  10
HETATM   10  C   UNK N   1      27.031  24.036  -5.933  0.00  0.00    -0.010 A 
HETATM   11  C   UNK N   1      27.483  24.646  -7.116  0.00  0.00     0.015 A 
HETATM   12  C   UNK N   1      26.827  24.444  -8.328  0.00  0.00     0.018 A 
HETATM   13  C   UNK N   1      25.704  23.622  -8.364  0.00  0.00     0.087 A 
HETATM   14  N   UNK N   1      25.260  23.032  -7.225  0.00  0.00    -0.374 N 
HETATM   15  C   UNK N   1      25.890  23.221  -6.034  0.00  0.00     0.099 A 
ATOM     16  HN  UNK N   1      24.435  22.434  -7.262  1.00  0.00     0.164 HD
ENDBRANCH   1  10
BRANCH   2  17
HETATM   17  C   UNK N   1      26.221  26.182  -3.908  0.00  0.00     0.299 C 
BRANCH  17  18
HETATM   18  N   UNK N   1      26.718  27.453  -4.405  0.00  0.00     0.083 N 
HETATM   19  C   UNK N   1      26.202  28.474  -3.510  0.00  0.00     0.309 C 
HETATM   20  C   UNK N   1      26.108  27.690  -5.702  0.00  0.00     0.309 C 
ENDBRANCH  17  18
ENDBRANCH   2  17
TORSDOF 4
ENDMDL
MODEL 6
REMARK VINA RESULT:      -5.3     11.188     13.967
REMARK  4 active torsions:
REMARK  status: ('A' for Active; 'I' for Inactive)
REMARK    1  A    between atoms: N_2  and  C_6 
REMARK    2  A    between atoms: C_5  and  C_8 
REMARK    3  A    between atoms: C_5  and  C_9 
REMARK    4  A    between atoms: C_6  and  C_7 
ROOT
HETATM    1  C   UNK N   1      35.145  11.323  16.916  0.00  0.00    -0.016 C 
HETATM    2  C   UNK N   1      35.284  12.658  17.128  0.00  0.00     0.016 C 
ENDROOT
BRANCH   1   3
HETATM    3  C   UNK N   1      35.179  10.440  18.144  0.00  0.00    -0.025 A 
HETATM    4  C   UNK N   1      35.980  10.748  19.257  0.00  0.00     0.013 A 
HETATM    5  C   UNK N   1      35.953   9.962  20.409  0.00  0.00     0.020 A 
HETATM    6  C   UNK N   1      35.122   8.845  20.472  0.00  0.00     0.011 A 
HETATM    7 Br   UNK N   1      35.058   7.801  22.065  0.00  0.00    -0.051 Br
HETATM    8  C   UNK N   1      34.327   8.507  19.375  0.00  0.00     0.020 A 
HETATM    9  C   UNK N   1      34.353   9.298  18.221  0.00  0.00     0.013 A 
ENDBRANCH   1   3
BRANCH   1  10
HETATM   10  C   UNK N   1      35.012  10.741  15.514  0.00  0.00    -0.010 A 
HETATM   11  C   UNK N   1      33.837  10.892  14.759  0.00  0.00     0.015 A 
HETATM   12  C   UNK N   1      33.730  10.358  13.477  0.00  0.00     0.018 A 
HETATM   13  C   UNK N   1      34.810   9.662  12.939  0.00  0.00     0.087 A 
HETATM   14  N   UNK N   1      35.946   9.509  13.665  0.00  0.00    -0.374 N 
HETATM   15  C   UNK N   1      36.065  10.025  14.918  0.00  0.00     0.099 A 
ATOM     16  HN  UNK N   1      36.730   8.995  13.262  1.00  0.00     0.164 HD
ENDBRANCH   1  10
BRANCH   2  17
HETATM   17  C   UNK N   1      35.380  13.727  16.075  0.00  0.00     0.299 C 
BRANCH  17  18
HETATM   18  N   UNK N   1      36.704  13.766  15.480  0.00  0.00     0.083 N 
HETATM   19  C   UNK N   1      37.254  15.074  15.789  0.00  0.00     0.309 C 
HETATM   20  C   UNK N   1      36.541  13.712  14.038  0.00  0.00     0.309 C 
ENDBRANCH  17  18
ENDBRANCH   2  17
TORSDOF 4
ENDMDL
MODEL 7
REMARK VINA RESULT:      -5.3      3.545      5.764
REMARK  4 active torsions:
REMARK  status: ('A' for Active; 'I' for Inactive)
REMARK    1  A    between atoms: N_2  and  C_6 
REMARK    2  A    between atoms: C_5  and  C_8 
REMARK    3  A    between atoms: C_5  and  C_9 
REMARK    4  A    between atoms: C_6  and  C_7 
ROOT
HETATM    1  C   UNK N   1      28.972  17.366   5.885  0.00  0.00    -0.016 C 
HETATM    2  C   UNK N   1      28.527  16.148   5.475  0.00  0.00     0.016 C 
ENDROOT
BRANCH   1   3
HETATM    3  C   UNK N   1      30.348  17.402   6.514  0.00  0.00    -0.025 A 
HETATM    4  C   UNK N   1      31.518  17.278   5.747  0.00  0.00     0.013 A 
HETATM    5  C   UNK N   1      32.781  17.378   6.329  0.00  0.00     0.020 A 
HETATM    6  C   UNK N   1      32.901  17.605   7.699  0.00  0.00     0.011 A 
HETATM    7 Br   UNK N   1      34.629  17.784   8.482  0.00  0.00    -0.051 Br
HETATM    8  C   UNK N   1      31.754  17.717   8.488  0.00  0.00     0.020 A 
HETATM    9  C   UNK N   1      30.488  17.618   7.901  0.00  0.00     0.013 A 
ENDBRANCH   1   3
BRANCH   1  10
HETATM   10  C   UNK N   1      28.113  18.618   5.764  0.00  0.00    -0.010 A 
HETATM   11  C   UNK N   1      27.909  19.259   4.530  0.00  0.00     0.015 A 
HETATM   12  C   UNK N   1      27.119  20.401   4.434  0.00  0.00     0.018 A 
HETATM   13  C   UNK N   1      26.522  20.914   5.582  0.00  0.00     0.087 A 
HETATM   14  N   UNK N   1      26.718  20.302   6.778  0.00  0.00    -0.374 N 
HETATM   15  C   UNK N   1      27.488  19.186   6.888  0.00  0.00     0.099 A 
ATOM     16  HN  UNK N   1      26.278  20.688   7.613  1.00  0.00     0.164 HD
ENDBRANCH   1  10
BRANCH   2  17
HETATM   17  C   UNK N   1      27.169  15.834   4.913  0.00  0.00     0.299 C 
BRANCH  17  18
HETATM   18  N   UNK N   1      27.164  15.914   3.463  0.00  0.00     0.083 N 
HETATM   19  C   UNK N   1      25.832  16.346   3.080  0.00  0.00     0.309 C 
HETATM   20  C   UNK N   1      27.330  14.567   2.946  0.00  0.00     0.309 C 
ENDBRANCH  17  18
ENDBRANCH   2  17
TORSDOF 4
ENDMDL
MODEL 8
REMARK VINA RESULT:      -5.3     13.049     15.856
REMARK  4 active torsions:
REMARK  status: ('A' for Active; 'I' for Inactive)
REMARK    1  A    between atoms: N_2  and  C_6 
REMARK    2  A    between atoms: C_5  and  C_8 
REMARK    3  A    between atoms: C_5  and  C_9 
REMARK    4  A    between atoms: C_6  and  C_7 
ROOT
HETATM    1  C   UNK N   1      35.671  10.255  19.333  0.00  0.00    -0.016 C 
HETATM    2  C   UNK N   1      36.867   9.949  19.903  0.00  0.00     0.016 C 
ENDROOT
BRANCH   1   3
HETATM    3  C   UNK N   1      35.722  11.091  18.073  0.00  0.00    -0.025 A 
HETATM    4  C   UNK N   1      35.215  12.401  18.030  0.00  0.00     0.013 A 
HETATM    5  C   UNK N   1      35.326  13.186  16.882  0.00  0.00     0.020 A 
HETATM    6  C   UNK N   1      35.950  12.673  15.746  0.00  0.00     0.011 A 
HETATM    7 Br   UNK N   1      36.138  13.764  14.195  0.00  0.00    -0.051 Br
HETATM    8  C   UNK N   1      36.450  11.369  15.756  0.00  0.00     0.020 A 
HETATM    9  C   UNK N   1      36.339  10.585  16.909  0.00  0.00     0.013 A 
ENDBRANCH   1   3
BRANCH   1  10
HETATM   10  C   UNK N   1      34.350   9.825  19.956  0.00  0.00    -0.010 A 
HETATM   11  C   UNK N   1      33.519   8.873  19.342  0.00  0.00     0.015 A 
HETATM   12  C   UNK N   1      32.314   8.485  19.924  0.00  0.00     0.018 A 
HETATM   13  C   UNK N   1      31.930   9.055  21.136  0.00  0.00     0.087 A 
HETATM   14  N   UNK N   1      32.727   9.978  21.732  0.00  0.00    -0.374 N 
HETATM   15  C   UNK N   1      33.906  10.366  21.175  0.00  0.00     0.099 A 
ATOM     16  HN  UNK N   1      32.435  10.391  22.618  1.00  0.00     0.164 HD
ENDBRANCH   1  10
BRANCH   2  17
HETATM   17  C   UNK N   1      37.080   9.220  21.200  0.00  0.00     0.299 C 
BRANCH  17  18
HETATM   18  N   UNK N   1      37.391  10.140  22.279  0.00  0.00     0.083 N 
HETATM   19  C   UNK N   1      38.827  10.353  22.236  0.00  0.00     0.309 C 
HETATM   20  C   UNK N   1      37.109   9.461  23.533  0.00  0.00     0.309 C 
ENDBRANCH  17  18
ENDBRANCH   2  17
TORSDOF 4
ENDMDL
MODEL 9
REMARK VINA RESULT:      -5.3      8.695     10.964
REMARK  4 active torsions:
REMARK  status: ('A' for Active; 'I' for Inactive)
REMARK    1  A    between atoms: N_2  and  C_6 
REMARK    2  A    between atoms: C_5  and  C_8 
REMARK    3  A    between atoms: C_5  and  C_9 
REMARK    4  A    between atoms: C_6  and  C_7 
ROOT
HETATM    1  C   UNK N   1      34.833  11.494  13.738  0.00  0.00    -0.016 C 
HETATM    2  C   UNK N   1      34.064  10.472  13.276  0.00  0.00     0.016 C 
ENDROOT
BRANCH   1   3
HETATM    3  C   UNK N   1      34.906  11.653  15.241  0.00  0.00    -0.025 A 
HETATM    4  C   UNK N   1      35.054  10.548  16.097  0.00  0.00     0.013 A 
HETATM    5  C   UNK N   1      35.187  10.712  17.476  0.00  0.00     0.020 A 
HETATM    6  C   UNK N   1      35.173  11.991  18.030  0.00  0.00     0.011 A 
HETATM    7 Br   UNK N   1      35.398  12.212  19.910  0.00  0.00    -0.051 Br
HETATM    8  C   UNK N   1      35.012  13.105  17.204  0.00  0.00     0.020 A 
HETATM    9  C   UNK N   1      34.881  12.939  15.821  0.00  0.00     0.013 A 
ENDBRANCH   1   3
BRANCH   1  10
HETATM   10  C   UNK N   1      35.540  12.458  12.795  0.00  0.00    -0.010 A 
HETATM   11  C   UNK N   1      34.845  13.476  12.121  0.00  0.00     0.015 A 
HETATM   12  C   UNK N   1      35.505  14.354  11.263  0.00  0.00     0.018 A 
HETATM   13  C   UNK N   1      36.878  14.214  11.073  0.00  0.00     0.087 A 
HETATM   14  N   UNK N   1      37.554  13.230  11.718  0.00  0.00    -0.374 N 
HETATM   15  C   UNK N   1      36.923  12.366  12.558  0.00  0.00     0.099 A 
ATOM     16  HN  UNK N   1      38.558  13.136  11.570  1.00  0.00     0.164 HD
ENDBRANCH   1  10
BRANCH   2  17
HETATM   17  C   UNK N   1      33.753  10.165  11.838  0.00  0.00     0.299 C 
BRANCH  17  18
HETATM   18  N   UNK N   1      34.187   8.827  11.476  0.00  0.00     0.083 N 
HETATM   19  C   UNK N   1      35.496   8.971  10.865  0.00  0.00     0.309 C 
HETATM   20  C   UNK N   1      33.294   8.339  10.439  0.00  0.00     0.309 C 
ENDBRANCH  17  18
ENDBRANCH   2  17
TORSDOF 4
ENDMDL
