MODEL 1
REMARK VINA RESULT:      -7.1      0.000      0.000
REMARK  1 active torsions:
REMARK  status: ('A' for Active; 'I' for Inactive)
REMARK    1  A    between atoms: N_2  and  C_5 
ROOT
HETATM    1  O   UNK N   1      36.535  14.454  14.903  0.00  0.00    -0.267 OA
HETATM    2  N   UNK N   1      35.222  12.556  14.743  0.00  0.00    -0.267 N 
HETATM    3  N   UNK N   1      34.390  12.173  12.516  0.00  0.00    -0.345 N 
ATOM      4  HN  UNK N   1      33.838  11.591  11.886  1.00  0.00     0.167 HD
HETATM    5  C   UNK N   1      34.478  11.803  13.815  0.00  0.00     0.087 A 
HETATM    6  C   UNK N   1      35.741  14.060  12.849  0.00  0.00     0.059 A 
HETATM    7  C   UNK N   1      35.860  13.715  14.207  0.00  0.00     0.266 A 
HETATM    8  C   UNK N   1      34.987  13.255  12.014  0.00  0.00     0.049 A 
HETATM    9  C   UNK N   1      36.369  15.202  12.316  0.00  0.00     0.019 A 
HETATM   10  C   UNK N   1      33.729  10.578  14.094  0.00  0.00     0.089 C 
HETATM   11  C   UNK N   1      34.842  13.561  10.658  0.00  0.00     0.030 A 
HETATM   12  C   UNK N   1      36.228  15.515  10.958  0.00  0.00     0.001 A 
HETATM   13  C   UNK N   1      35.463  14.692  10.129  0.00  0.00     0.002 A 
ENDROOT
BRANCH   2  14
HETATM   14  C   UNK N   1      35.400  12.250  16.226  0.00  0.00     0.050 A 
HETATM   15  C   UNK N   1      36.011  11.083  16.866  0.00  0.00    -0.035 A 
HETATM   16  C   UNK N   1      36.075  10.995  18.263  0.00  0.00     0.009 A 
HETATM   17  C   UNK N   1      36.617   9.893  16.246  0.00  0.00     0.050 C 
HETATM   18  C   UNK N   1      35.578  11.981  19.092  0.00  0.00     0.001 A 
HETATM   19  C   UNK N   1      34.995  13.096  18.534  0.00  0.00     0.002 A 
HETATM   20  C   UNK N   1      34.915  13.214  17.152  0.00  0.00     0.031 A 
ENDBRANCH   2  14
TORSDOF 1
ENDMDL
MODEL 2
REMARK VINA RESULT:      -7.0      1.556      2.531
REMARK  1 active torsions:
REMARK  status: ('A' for Active; 'I' for Inactive)
REMARK    1  A    between atoms: N_2  and  C_5 
ROOT
HETATM    1  O   UNK N   1      34.815  11.780  13.100  0.00  0.00    -0.267 OA
HETATM    2  N   UNK N   1      36.014  13.210  14.465  0.00  0.00    -0.267 N 
HETATM    3  N   UNK N   1      36.507  15.321  13.414  0.00  0.00    -0.345 N 
ATOM      4  HN  UNK N   1      36.940  16.241  13.481  1.00  0.00     0.167 HD
HETATM    5  C   UNK N   1      36.588  14.496  14.485  0.00  0.00     0.087 A 
HETATM    6  C   UNK N   1      35.295  13.753  12.162  0.00  0.00     0.059 A 
HETATM    7  C   UNK N   1      35.354  12.863  13.249  0.00  0.00     0.266 A 
HETATM    8  C   UNK N   1      35.890  14.996  12.277  0.00  0.00     0.049 A 
HETATM    9  C   UNK N   1      34.645  13.414  10.959  0.00  0.00     0.019 A 
HETATM   10  C   UNK N   1      37.319  15.103  15.597  0.00  0.00     0.089 C 
HETATM   11  C   UNK N   1      35.855  15.912  11.222  0.00  0.00     0.030 A 
HETATM   12  C   UNK N   1      34.605  14.326   9.897  0.00  0.00     0.001 A 
HETATM   13  C   UNK N   1      35.212  15.577  10.030  0.00  0.00     0.002 A 
ENDROOT
BRANCH   2  14
HETATM   14  C   UNK N   1      36.035  12.190  15.597  0.00  0.00     0.050 A 
HETATM   15  C   UNK N   1      36.783  10.935  15.701  0.00  0.00    -0.035 A 
HETATM   16  C   UNK N   1      36.660  10.131  16.842  0.00  0.00     0.009 A 
HETATM   17  C   UNK N   1      37.715  10.325  14.739  0.00  0.00     0.050 C 
HETATM   18  C   UNK N   1      35.846  10.469  17.905  0.00  0.00     0.001 A 
HETATM   19  C   UNK N   1      35.124  11.640  17.850  0.00  0.00     0.002 A 
HETATM   20  C   UNK N   1      35.224  12.461  16.733  0.00  0.00     0.031 A 
ENDBRANCH   2  14
TORSDOF 1
ENDMDL
MODEL 3
REMARK VINA RESULT:      -6.8     10.664     14.200
REMARK  1 active torsions:
REMARK  status: ('A' for Active; 'I' for Inactive)
REMARK    1  A    between atoms: N_2  and  C_5 
ROOT
HETATM    1  O   UNK N   1      27.238  19.777   6.946  0.00  0.00    -0.267 OA
HETATM    2  N   UNK N   1      27.550  18.379   5.130  0.00  0.00    -0.267 N 
HETATM    3  N   UNK N   1      29.341  16.802   5.455  0.00  0.00    -0.345 N 
ATOM      4  HN  UNK N   1      29.894  16.031   5.082  1.00  0.00     0.167 HD
HETATM    5  C   UNK N   1      28.355  17.314   4.682  0.00  0.00     0.087 A 
HETATM    6  C   UNK N   1      28.893  18.296   7.205  0.00  0.00     0.059 A 
HETATM    7  C   UNK N   1      27.858  18.859   6.438  0.00  0.00     0.266 A 
HETATM    8  C   UNK N   1      29.630  17.251   6.677  0.00  0.00     0.049 A 
HETATM    9  C   UNK N   1      29.201  18.767   8.496  0.00  0.00     0.019 A 
HETATM   10  C   UNK N   1      28.256  16.636   3.389  0.00  0.00     0.089 C 
HETATM   11  C   UNK N   1      30.667  16.661   7.405  0.00  0.00     0.030 A 
HETATM   12  C   UNK N   1      30.239  18.181   9.232  0.00  0.00     0.001 A 
HETATM   13  C   UNK N   1      30.972  17.126   8.683  0.00  0.00     0.002 A 
ENDROOT
BRANCH   2  14
HETATM   14  C   UNK N   1      26.413  19.043   4.362  0.00  0.00     0.050 A 
HETATM   15  C   UNK N   1      24.988  18.706   4.340  0.00  0.00    -0.035 A 
HETATM   16  C   UNK N   1      24.097  19.452   3.557  0.00  0.00     0.009 A 
HETATM   17  C   UNK N   1      24.273  17.635   5.054  0.00  0.00     0.050 C 
HETATM   18  C   UNK N   1      24.504  20.520   2.782  0.00  0.00     0.001 A 
HETATM   19  C   UNK N   1      25.835  20.872   2.773  0.00  0.00     0.002 A 
HETATM   20  C   UNK N   1      26.745  20.153   3.538  0.00  0.00     0.031 A 
ENDBRANCH   2  14
TORSDOF 1
ENDMDL
MODEL 4
REMARK VINA RESULT:      -6.8     13.793     16.303
REMARK  1 active torsions:
REMARK  status: ('A' for Active; 'I' for Inactive)
REMARK    1  A    between atoms: N_2  and  C_5 
ROOT
HETATM    1  O   UNK N   1      20.137  13.373   9.377  0.00  0.00    -0.267 OA
HETATM    2  N   UNK N   1      21.750  13.945   7.823  0.00  0.00    -0.267 N 
HETATM    3  N   UNK N   1      23.984  13.407   8.544  0.00  0.00    -0.345 N 
ATOM      4  HN  UNK N   1      24.984  13.409   8.342  1.00  0.00     0.167 HD
HETATM    5  C   UNK N   1      23.142  13.915   7.613  0.00  0.00     0.087 A 
HETATM    6  C   UNK N   1      22.228  12.890  10.008  0.00  0.00     0.059 A 
HETATM    7  C   UNK N   1      21.316  13.407   9.071  0.00  0.00     0.266 A 
HETATM    8  C   UNK N   1      23.578  12.904   9.711  0.00  0.00     0.049 A 
HETATM    9  C   UNK N   1      21.803  12.357  11.241  0.00  0.00     0.019 A 
HETATM   10  C   UNK N   1      23.853  14.398   6.429  0.00  0.00     0.089 C 
HETATM   11  C   UNK N   1      24.519  12.400  10.614  0.00  0.00     0.030 A 
HETATM   12  C   UNK N   1      22.740  11.851  12.150  0.00  0.00     0.001 A 
HETATM   13  C   UNK N   1      24.100  11.873  11.834  0.00  0.00     0.002 A 
ENDROOT
BRANCH   2  14
HETATM   14  C   UNK N   1      20.699  14.487   6.860  0.00  0.00     0.050 A 
HETATM   15  C   UNK N   1      20.048  15.798   6.841  0.00  0.00    -0.035 A 
HETATM   16  C   UNK N   1      19.096  16.100   5.858  0.00  0.00     0.009 A 
HETATM   17  C   UNK N   1      20.233  16.944   7.747  0.00  0.00     0.050 C 
HETATM   18  C   UNK N   1      18.730  15.199   4.877  0.00  0.00     0.001 A 
HETATM   19  C   UNK N   1      19.317  13.955   4.857  0.00  0.00     0.002 A 
HETATM   20  C   UNK N   1      20.265  13.623   5.818  0.00  0.00     0.031 A 
ENDBRANCH   2  14
TORSDOF 1
ENDMDL
MODEL 5
REMARK VINA RESULT:      -6.7      2.291      5.876
REMARK  1 active torsions:
REMARK  status: ('A' for Active; 'I' for Inactive)
REMARK    1  A    between atoms: N_2  and  C_5 
ROOT
HETATM    1  O   UNK N   1      34.779  13.072  14.739  0.00  0.00    -0.267 OA
HETATM    2  N   UNK N   1      35.224  10.802  14.759  0.00  0.00    -0.267 N 
HETATM    3  N   UNK N   1      35.613   9.940  16.974  0.00  0.00    -0.345 N 
ATOM      4  HN  UNK N   1      35.828   9.138  17.566  1.00  0.00     0.167 HD
HETATM    5  C   UNK N   1      35.518   9.742  15.638  0.00  0.00     0.087 A 
HETATM    6  C   UNK N   1      35.147  12.229  16.778  0.00  0.00     0.059 A 
HETATM    7  C   UNK N   1      35.039  12.071  15.385  0.00  0.00     0.266 A 
HETATM    8  C   UNK N   1      35.440  11.126  17.559  0.00  0.00     0.049 A 
HETATM    9  C   UNK N   1      34.965  13.480  17.400  0.00  0.00     0.019 A 
HETATM   10  C   UNK N   1      35.753   8.347  15.267  0.00  0.00     0.089 C 
HETATM   11  C   UNK N   1      35.556  11.238  18.948  0.00  0.00     0.030 A 
HETATM   12  C   UNK N   1      35.080  13.599  18.790  0.00  0.00     0.001 A 
HETATM   13  C   UNK N   1      35.377  12.475  19.564  0.00  0.00     0.002 A 
ENDROOT
BRANCH   2  14
HETATM   14  C   UNK N   1      35.090  10.714  13.243  0.00  0.00     0.050 A 
HETATM   15  C   UNK N   1      36.060  11.065  12.205  0.00  0.00    -0.035 A 
HETATM   16  C   UNK N   1      35.736  10.906  10.850  0.00  0.00     0.009 A 
HETATM   17  C   UNK N   1      37.426  11.597  12.348  0.00  0.00     0.050 C 
HETATM   18  C   UNK N   1      34.512  10.422  10.433  0.00  0.00     0.001 A 
HETATM   19  C   UNK N   1      33.569  10.079  11.375  0.00  0.00     0.002 A 
HETATM   20  C   UNK N   1      33.860  10.225  12.726  0.00  0.00     0.031 A 
ENDBRANCH   2  14
TORSDOF 1
ENDMDL
MODEL 6
REMARK VINA RESULT:      -6.7      9.055     11.974
REMARK  1 active torsions:
REMARK  status: ('A' for Active; 'I' for Inactive)
REMARK    1  A    between atoms: N_2  and  C_5 
ROOT
HETATM    1  O   UNK N   1      30.230  16.871   4.883  0.00  0.00    -0.267 OA
HETATM    2  N   UNK N   1      29.173  17.435   6.861  0.00  0.00    -0.267 N 
HETATM    3  N   UNK N   1      30.716  17.892   8.654  0.00  0.00    -0.345 N 
ATOM      4  HN  UNK N   1      30.857  18.156   9.629  1.00  0.00     0.167 HD
HETATM    5  C   UNK N   1      29.446  17.794   8.195  0.00  0.00     0.087 A 
HETATM    6  C   UNK N   1      31.627  17.304   6.575  0.00  0.00     0.059 A 
HETATM    7  C   UNK N   1      30.325  17.190   6.055  0.00  0.00     0.266 A 
HETATM    8  C   UNK N   1      31.793  17.663   7.901  0.00  0.00     0.049 A 
HETATM    9  C   UNK N   1      32.766  17.062   5.783  0.00  0.00     0.019 A 
HETATM   10  C   UNK N   1      28.458  18.099   9.231  0.00  0.00     0.089 C 
HETATM   11  C   UNK N   1      33.068  17.787   8.458  0.00  0.00     0.030 A 
HETATM   12  C   UNK N   1      34.047  17.185   6.335  0.00  0.00     0.001 A 
HETATM   13  C   UNK N   1      34.197  17.549   7.675  0.00  0.00     0.002 A 
ENDROOT
BRANCH   2  14
HETATM   14  C   UNK N   1      27.796  17.291   6.223  0.00  0.00     0.050 A 
HETATM   15  C   UNK N   1      27.083  18.213   5.338  0.00  0.00    -0.035 A 
HETATM   16  C   UNK N   1      25.809  17.887   4.855  0.00  0.00     0.009 A 
HETATM   17  C   UNK N   1      27.506  19.528   4.827  0.00  0.00     0.050 C 
HETATM   18  C   UNK N   1      25.172  16.706   5.180  0.00  0.00     0.001 A 
HETATM   19  C   UNK N   1      25.805  15.809   6.010  0.00  0.00     0.002 A 
HETATM   20  C   UNK N   1      27.070  16.102   6.506  0.00  0.00     0.031 A 
ENDBRANCH   2  14
TORSDOF 1
ENDMDL
MODEL 7
REMARK VINA RESULT:      -6.6      2.408      3.446
REMARK  1 active torsions:
REMARK  status: ('A' for Active; 'I' for Inactive)
REMARK    1  A    between atoms: N_2  and  C_5 
ROOT
HETATM    1  O   UNK N   1      35.209  11.663  11.383  0.00  0.00    -0.267 OA
HETATM    2  N   UNK N   1      36.017  12.677  13.299  0.00  0.00    -0.267 N 
HETATM    3  N   UNK N   1      36.205  15.068  13.088  0.00  0.00    -0.345 N 
ATOM      4  HN  UNK N   1      36.459  15.958  13.517  1.00  0.00     0.167 HD
HETATM    5  C   UNK N   1      36.347  13.941  13.824  0.00  0.00     0.087 A 
HETATM    6  C   UNK N   1      35.400  13.886  11.231  0.00  0.00     0.059 A 
HETATM    7  C   UNK N   1      35.531  12.689  11.957  0.00  0.00     0.266 A 
HETATM    8  C   UNK N   1      35.751  15.080  11.834  0.00  0.00     0.049 A 
HETATM    9  C   UNK N   1      34.922  13.902   9.906  0.00  0.00     0.019 A 
HETATM   10  C   UNK N   1      36.864  14.216  15.164  0.00  0.00     0.089 C 
HETATM   11  C   UNK N   1      35.637  16.293  11.149  0.00  0.00     0.030 A 
HETATM   12  C   UNK N   1      34.805  15.113   9.214  0.00  0.00     0.001 A 
HETATM   13  C   UNK N   1      35.164  16.310   9.838  0.00  0.00     0.002 A 
ENDROOT
BRANCH   2  14
HETATM   14  C   UNK N   1      36.129  11.337  14.018  0.00  0.00     0.050 A 
HETATM   15  C   UNK N   1      35.075  10.512  14.612  0.00  0.00    -0.035 A 
HETATM   16  C   UNK N   1      35.394   9.298  15.235  0.00  0.00     0.009 A 
HETATM   17  C   UNK N   1      33.624  10.756  14.672  0.00  0.00     0.050 C 
HETATM   18  C   UNK N   1      36.689   8.826  15.321  0.00  0.00     0.001 A 
HETATM   19  C   UNK N   1      37.711   9.569  14.777  0.00  0.00     0.002 A 
HETATM   20  C   UNK N   1      37.429  10.778  14.152  0.00  0.00     0.031 A 
ENDBRANCH   2  14
TORSDOF 1
ENDMDL
MODEL 8
REMARK VINA RESULT:      -6.6      4.886      9.540
REMARK  1 active torsions:
REMARK  status: ('A' for Active; 'I' for Inactive)
REMARK    1  A    between atoms: N_2  and  C_5 
ROOT
HETATM    1  O   UNK N   1      33.039  14.379   8.061  0.00  0.00    -0.267 OA
HETATM    2  N   UNK N   1      33.691  16.597   8.008  0.00  0.00    -0.267 N 
HETATM    3  N   UNK N   1      35.110  17.203   9.858  0.00  0.00    -0.345 N 
ATOM      4  HN  UNK N   1      35.651  17.925  10.334  1.00  0.00     0.167 HD
HETATM    5  C   UNK N   1      34.458  17.539   8.720  0.00  0.00     0.087 A 
HETATM    6  C   UNK N   1      34.358  14.985   9.762  0.00  0.00     0.059 A 
HETATM    7  C   UNK N   1      33.664  15.288   8.577  0.00  0.00     0.266 A 
HETATM    8  C   UNK N   1      35.085  15.980  10.390  0.00  0.00     0.049 A 
HETATM    9  C   UNK N   1      34.334  13.695  10.327  0.00  0.00     0.019 A 
HETATM   10  C   UNK N   1      34.656  18.944   8.363  0.00  0.00     0.089 C 
HETATM   11  C   UNK N   1      35.789  15.722  11.569  0.00  0.00     0.030 A 
HETATM   12  C   UNK N   1      35.037  13.429  11.508  0.00  0.00     0.001 A 
HETATM   13  C   UNK N   1      35.766  14.446  12.129  0.00  0.00     0.002 A 
ENDROOT
BRANCH   2  14
HETATM   14  C   UNK N   1      32.913  16.845   6.722  0.00  0.00     0.050 A 
HETATM   15  C   UNK N   1      31.473  17.028   6.530  0.00  0.00    -0.035 A 
HETATM   16  C   UNK N   1      30.952  17.248   5.248  0.00  0.00     0.009 A 
HETATM   17  C   UNK N   1      30.391  17.020   7.530  0.00  0.00     0.050 C 
HETATM   18  C   UNK N   1      31.750  17.303   4.122  0.00  0.00     0.001 A 
HETATM   19  C   UNK N   1      33.110  17.137   4.256  0.00  0.00     0.002 A 
HETATM   20  C   UNK N   1      33.658  16.917   5.514  0.00  0.00     0.031 A 
ENDBRANCH   2  14
TORSDOF 1
ENDMDL
MODEL 9
REMARK VINA RESULT:      -6.5      9.140     11.772
REMARK  1 active torsions:
REMARK  status: ('A' for Active; 'I' for Inactive)
REMARK    1  A    between atoms: N_2  and  C_5 
ROOT
HETATM    1  O   UNK N   1      29.851  17.727   4.491  0.00  0.00    -0.267 OA
HETATM    2  N   UNK N   1      29.682  17.656   6.796  0.00  0.00    -0.267 N 
HETATM    3  N   UNK N   1      27.907  19.041   7.652  0.00  0.00    -0.345 N 
ATOM      4  HN  UNK N   1      27.394  19.390   8.461  1.00  0.00     0.167 HD
HETATM    5  C   UNK N   1      28.928  18.179   7.865  0.00  0.00     0.087 A 
HETATM    6  C   UNK N   1      28.214  19.000   5.328  0.00  0.00     0.059 A 
HETATM    7  C   UNK N   1      29.283  18.103   5.501  0.00  0.00     0.266 A 
HETATM    8  C   UNK N   1      27.534  19.459   6.441  0.00  0.00     0.049 A 
HETATM    9  C   UNK N   1      27.817  19.444   4.052  0.00  0.00     0.019 A 
HETATM   10  C   UNK N   1      29.121  17.889   9.286  0.00  0.00     0.089 C 
HETATM   11  C   UNK N   1      26.465  20.352   6.315  0.00  0.00     0.030 A 
HETATM   12  C   UNK N   1      26.748  20.338   3.917  0.00  0.00     0.001 A 
HETATM   13  C   UNK N   1      26.072  20.792   5.052  0.00  0.00     0.002 A 
ENDROOT
BRANCH   2  14
HETATM   14  C   UNK N   1      30.850  16.682   6.900  0.00  0.00     0.050 A 
HETATM   15  C   UNK N   1      32.174  16.883   7.494  0.00  0.00    -0.035 A 
HETATM   16  C   UNK N   1      33.117  15.846   7.486  0.00  0.00     0.009 A 
HETATM   17  C   UNK N   1      32.729  18.079   8.150  0.00  0.00     0.050 C 
HETATM   18  C   UNK N   1      32.855  14.609   6.931  0.00  0.00     0.001 A 
HETATM   19  C   UNK N   1      31.624  14.376   6.362  0.00  0.00     0.002 A 
HETATM   20  C   UNK N   1      30.666  15.384   6.353  0.00  0.00     0.031 A 
ENDBRANCH   2  14
TORSDOF 1
ENDMDL
