MODEL 1
REMARK VINA RESULT:      -5.9      0.000      0.000
REMARK  5 active torsions:
REMARK  status: ('A' for Active; 'I' for Inactive)
REMARK    1  A    between atoms: N_3  and  C_6 
REMARK    2  A    between atoms: C_4  and  C_5 
REMARK    3  A    between atoms: C_4  and  C_7 
REMARK    4  A    between atoms: C_4  and  C_8 
REMARK    5  A    between atoms: C_5  and  C_6 
ROOT
HETATM    1  O   UNK N   1      37.737  12.207  14.427  0.00  0.00    -0.380 OA
HETATM    2  C   UNK N   1      36.347  12.330  14.555  0.00  0.00     0.115 C 
HETATM    3  H   UNK N   1      38.705  12.150  14.404  0.00  0.00     0.211 HD
ENDROOT
BRANCH   2   4
HETATM    4  C   UNK N   1      35.951  13.771  14.179  0.00  0.00     0.078 C 
BRANCH   4   5
HETATM    5  C   UNK N   1      36.336  14.172  12.757  0.00  0.00     0.275 C 
BRANCH   5   6
HETATM    6  N   UNK N   1      35.170  14.658  12.035  0.00  0.00     0.080 N 
HETATM    7  C   UNK N   1      34.910  13.713  10.966  0.00  0.00     0.309 C 
HETATM    8  C   UNK N   1      35.507  15.924  11.401  0.00  0.00     0.309 C 
ENDBRANCH   5   6
ENDBRANCH   4   5
ENDBRANCH   2   4
BRANCH   2   9
HETATM    9  C   UNK N   1      36.004  12.202  16.048  0.00  0.00     0.002 A 
HETATM   10  C   UNK N   1      36.156  11.035  16.863  0.00  0.00     0.043 A 
HETATM   11 Cl   UNK N   1      36.731   9.477  16.290  0.00  0.00    -0.084 Cl
HETATM   12  C   UNK N   1      35.770  11.078  18.210  0.00  0.00     0.024 A 
HETATM   13  C   UNK N   1      35.241  12.237  18.773  0.00  0.00     0.002 A 
HETATM   14  C   UNK N   1      35.075  13.374  17.990  0.00  0.00     0.001 A 
HETATM   15  C   UNK N   1      35.448  13.352  16.648  0.00  0.00     0.012 A 
ENDBRANCH   2   9
BRANCH   2  16
HETATM   16  C   UNK N   1      35.734  11.300  13.614  0.00  0.00    -0.019 A 
HETATM   17  C   UNK N   1      34.337  11.123  13.595  0.00  0.00     0.010 A 
HETATM   18  C   UNK N   1      33.755  10.156  12.769  0.00  0.00     0.001 A 
HETATM   19  C   UNK N   1      34.559   9.348  11.963  0.00  0.00     0.000 A 
HETATM   20  C   UNK N   1      35.946   9.504  11.980  0.00  0.00     0.001 A 
HETATM   21  C   UNK N   1      36.531  10.471  12.801  0.00  0.00     0.010 A 
ENDBRANCH   2  16
TORSDOF 5
ENDMDL
MODEL 2
REMARK VINA RESULT:      -5.7      9.944     12.888
REMARK  5 active torsions:
REMARK  status: ('A' for Active; 'I' for Inactive)
REMARK    1  A    between atoms: N_3  and  C_6 
REMARK    2  A    between atoms: C_4  and  C_5 
REMARK    3  A    between atoms: C_4  and  C_7 
REMARK    4  A    between atoms: C_4  and  C_8 
REMARK    5  A    between atoms: C_5  and  C_6 
ROOT
HETATM    1  O   UNK N   1      27.588  17.307   8.191  0.00  0.00    -0.380 OA
HETATM    2  C   UNK N   1      28.264  17.459   6.972  0.00  0.00     0.115 C 
HETATM    3  H   UNK N   1      27.174  17.159   9.056  0.00  0.00     0.211 HD
ENDROOT
BRANCH   2   4
HETATM    4  C   UNK N   1      27.937  16.244   6.082  0.00  0.00     0.078 C 
BRANCH   4   5
HETATM    5  C   UNK N   1      26.662  15.505   6.479  0.00  0.00     0.275 C 
BRANCH   5   6
HETATM    6  N   UNK N   1      25.779  15.367   5.331  0.00  0.00     0.080 N 
HETATM    7  C   UNK N   1      26.612  15.430   4.145  0.00  0.00     0.309 C 
HETATM    8  C   UNK N   1      24.892  16.520   5.281  0.00  0.00     0.309 C 
ENDBRANCH   5   6
ENDBRANCH   4   5
ENDBRANCH   2   4
BRANCH   2   9
HETATM    9  C   UNK N   1      29.770  17.347   7.259  0.00  0.00     0.002 A 
HETATM   10  C   UNK N   1      30.462  17.854   8.406  0.00  0.00     0.043 A 
HETATM   11 Cl   UNK N   1      29.714  18.760   9.711  0.00  0.00    -0.084 Cl
HETATM   12  C   UNK N   1      31.850  17.689   8.503  0.00  0.00     0.024 A 
HETATM   13  C   UNK N   1      32.572  17.039   7.504  0.00  0.00     0.002 A 
HETATM   14  C   UNK N   1      31.916  16.555   6.379  0.00  0.00     0.001 A 
HETATM   15  C   UNK N   1      30.536  16.712   6.259  0.00  0.00     0.012 A 
ENDBRANCH   2   9
BRANCH   2  16
HETATM   16  C   UNK N   1      27.770  18.767   6.365  0.00  0.00    -0.019 A 
HETATM   17  C   UNK N   1      27.731  18.910   4.965  0.00  0.00     0.010 A 
HETATM   18  C   UNK N   1      27.320  20.115   4.386  0.00  0.00     0.001 A 
HETATM   19  C   UNK N   1      26.956  21.193   5.195  0.00  0.00     0.000 A 
HETATM   20  C   UNK N   1      27.002  21.069   6.585  0.00  0.00     0.001 A 
HETATM   21  C   UNK N   1      27.409  19.866   7.168  0.00  0.00     0.010 A 
ENDBRANCH   2  16
TORSDOF 5
ENDMDL
MODEL 3
REMARK VINA RESULT:      -5.7     10.717     13.369
REMARK  5 active torsions:
REMARK  status: ('A' for Active; 'I' for Inactive)
REMARK    1  A    between atoms: N_3  and  C_6 
REMARK    2  A    between atoms: C_4  and  C_5 
REMARK    3  A    between atoms: C_4  and  C_7 
REMARK    4  A    between atoms: C_4  and  C_8 
REMARK    5  A    between atoms: C_5  and  C_6 
ROOT
HETATM    1  O   UNK N   1      29.052  17.218   3.493  0.00  0.00    -0.380 OA
HETATM    2  C   UNK N   1      29.158  17.381   4.882  0.00  0.00     0.115 C 
HETATM    3  H   UNK N   1      28.914  17.135   2.537  0.00  0.00     0.211 HD
ENDROOT
BRANCH   2   4
HETATM    4  C   UNK N   1      28.426  16.210   5.565  0.00  0.00     0.078 C 
BRANCH   4   5
HETATM    5  C   UNK N   1      27.361  15.548   4.695  0.00  0.00     0.275 C 
BRANCH   5   6
HETATM    6  N   UNK N   1      26.096  15.474   5.411  0.00  0.00     0.080 N 
HETATM    7  C   UNK N   1      25.303  16.613   4.989  0.00  0.00     0.309 C 
HETATM    8  C   UNK N   1      26.353  15.646   6.833  0.00  0.00     0.309 C 
ENDBRANCH   5   6
ENDBRANCH   4   5
ENDBRANCH   2   4
BRANCH   2   9
HETATM    9  C   UNK N   1      28.352  18.632   5.266  0.00  0.00     0.002 A 
HETATM   10  C   UNK N   1      28.085  19.103   6.591  0.00  0.00     0.043 A 
HETATM   11 Cl   UNK N   1      28.600  18.301   8.066  0.00  0.00    -0.084 Cl
HETATM   12  C   UNK N   1      27.306  20.255   6.770  0.00  0.00     0.024 A 
HETATM   13  C   UNK N   1      26.785  20.951   5.682  0.00  0.00     0.002 A 
HETATM   14  C   UNK N   1      27.024  20.496   4.390  0.00  0.00     0.001 A 
HETATM   15  C   UNK N   1      27.792  19.351   4.189  0.00  0.00     0.012 A 
ENDBRANCH   2   9
BRANCH   2  16
HETATM   16  C   UNK N   1      30.649  17.393   5.202  0.00  0.00    -0.019 A 
HETATM   17  C   UNK N   1      31.574  17.700   4.185  0.00  0.00     0.010 A 
HETATM   18  C   UNK N   1      32.948  17.678   4.445  0.00  0.00     0.001 A 
HETATM   19  C   UNK N   1      33.415  17.338   5.716  0.00  0.00     0.000 A 
HETATM   20  C   UNK N   1      32.510  17.019   6.731  0.00  0.00     0.001 A 
HETATM   21  C   UNK N   1      31.136  17.044   6.476  0.00  0.00     0.010 A 
ENDBRANCH   2  16
TORSDOF 5
ENDMDL
MODEL 4
REMARK VINA RESULT:      -5.7     21.609     24.723
REMARK  5 active torsions:
REMARK  status: ('A' for Active; 'I' for Inactive)
REMARK    1  A    between atoms: N_3  and  C_6 
REMARK    2  A    between atoms: C_4  and  C_5 
REMARK    3  A    between atoms: C_4  and  C_7 
REMARK    4  A    between atoms: C_4  and  C_8 
REMARK    5  A    between atoms: C_5  and  C_6 
ROOT
HETATM    1  O   UNK N   1      26.576  24.079  -3.282  0.00  0.00    -0.380 OA
HETATM    2  C   UNK N   1      27.392  24.588  -4.302  0.00  0.00     0.115 C 
HETATM    3  H   UNK N   1      26.013  23.792  -2.547  0.00  0.00     0.211 HD
ENDROOT
BRANCH   2   4
HETATM    4  C   UNK N   1      28.851  24.575  -3.808  0.00  0.00     0.078 C 
BRANCH   4   5
HETATM    5  C   UNK N   1      29.127  23.556  -2.706  0.00  0.00     0.275 C 
BRANCH   5   6
HETATM    6  N   UNK N   1      30.481  23.035  -2.826  0.00  0.00     0.080 N 
HETATM    7  C   UNK N   1      31.163  23.850  -3.814  0.00  0.00     0.309 C 
HETATM    8  C   UNK N   1      30.418  21.686  -3.368  0.00  0.00     0.309 C 
ENDBRANCH   5   6
ENDBRANCH   4   5
ENDBRANCH   2   4
BRANCH   2   9
HETATM    9  C   UNK N   1      27.045  26.075  -4.476  0.00  0.00     0.002 A 
HETATM   10  C   UNK N   1      27.476  26.935  -5.536  0.00  0.00     0.043 A 
HETATM   11 Cl   UNK N   1      28.544  26.458  -6.847  0.00  0.00    -0.084 Cl
HETATM   12  C   UNK N   1      27.088  28.282  -5.534  0.00  0.00     0.024 A 
HETATM   13  C   UNK N   1      26.290  28.802  -4.517  0.00  0.00     0.002 A 
HETATM   14  C   UNK N   1      25.877  27.983  -3.474  0.00  0.00     0.001 A 
HETATM   15  C   UNK N   1      26.254  26.641  -3.454  0.00  0.00     0.012 A 
ENDBRANCH   2   9
BRANCH   2  16
HETATM   16  C   UNK N   1      27.185  23.683  -5.511  0.00  0.00    -0.019 A 
HETATM   17  C   UNK N   1      25.880  23.445  -5.985  0.00  0.00     0.010 A 
HETATM   18  C   UNK N   1      25.663  22.587  -7.067  0.00  0.00     0.001 A 
HETATM   19  C   UNK N   1      26.742  21.947  -7.681  0.00  0.00     0.000 A 
HETATM   20  C   UNK N   1      28.040  22.164  -7.215  0.00  0.00     0.001 A 
HETATM   21  C   UNK N   1      28.262  23.024  -6.136  0.00  0.00     0.010 A 
ENDBRANCH   2  16
TORSDOF 5
ENDMDL
MODEL 5
REMARK VINA RESULT:      -5.7     21.533     24.808
REMARK  5 active torsions:
REMARK  status: ('A' for Active; 'I' for Inactive)
REMARK    1  A    between atoms: N_3  and  C_6 
REMARK    2  A    between atoms: C_4  and  C_5 
REMARK    3  A    between atoms: C_4  and  C_7 
REMARK    4  A    between atoms: C_4  and  C_8 
REMARK    5  A    between atoms: C_5  and  C_6 
ROOT
HETATM    1  O   UNK N   1      25.994  24.233  -3.652  0.00  0.00    -0.380 OA
HETATM    2  C   UNK N   1      27.058  24.731  -4.417  0.00  0.00     0.115 C 
HETATM    3  H   UNK N   1      25.299  23.831  -3.108  0.00  0.00     0.211 HD
ENDROOT
BRANCH   2   4
HETATM    4  C   UNK N   1      27.006  24.070  -5.808  0.00  0.00     0.078 C 
BRANCH   4   5
HETATM    5  C   UNK N   1      25.712  23.312  -6.090  0.00  0.00     0.275 C 
BRANCH   5   6
HETATM    6  N   UNK N   1      25.898  22.389  -7.200  0.00  0.00     0.080 N 
HETATM    7  C   UNK N   1      25.798  23.168  -8.420  0.00  0.00     0.309 C 
HETATM    8  C   UNK N   1      24.790  21.446  -7.215  0.00  0.00     0.309 C 
ENDBRANCH   5   6
ENDBRANCH   4   5
ENDBRANCH   2   4
BRANCH   2   9
HETATM    9  C   UNK N   1      28.363  24.222  -3.785  0.00  0.00     0.002 A 
HETATM   10  C   UNK N   1      29.691  24.434  -4.276  0.00  0.00     0.043 A 
HETATM   11 Cl   UNK N   1      30.090  25.297  -5.753  0.00  0.00    -0.084 Cl
HETATM   12  C   UNK N   1      30.779  23.877  -3.590  0.00  0.00     0.024 A 
HETATM   13  C   UNK N   1      30.593  23.119  -2.437  0.00  0.00     0.002 A 
HETATM   14  C   UNK N   1      29.309  22.892  -1.956  0.00  0.00     0.001 A 
HETATM   15  C   UNK N   1      28.213  23.433  -2.625  0.00  0.00     0.012 A 
ENDBRANCH   2   9
BRANCH   2  16
HETATM   16  C   UNK N   1      26.867  26.241  -4.489  0.00  0.00    -0.019 A 
HETATM   17  C   UNK N   1      26.378  26.933  -3.364  0.00  0.00     0.010 A 
HETATM   18  C   UNK N   1      26.157  28.313  -3.420  0.00  0.00     0.001 A 
HETATM   19  C   UNK N   1      26.407  29.015  -4.600  0.00  0.00     0.000 A 
HETATM   20  C   UNK N   1      26.881  28.341  -5.727  0.00  0.00     0.001 A 
HETATM   21  C   UNK N   1      27.107  26.963  -5.674  0.00  0.00     0.010 A 
ENDBRANCH   2  16
TORSDOF 5
ENDMDL
MODEL 6
REMARK VINA RESULT:      -5.7      2.296      4.491
REMARK  5 active torsions:
REMARK  status: ('A' for Active; 'I' for Inactive)
REMARK    1  A    between atoms: N_3  and  C_6 
REMARK    2  A    between atoms: C_4  and  C_5 
REMARK    3  A    between atoms: C_4  and  C_7 
REMARK    4  A    between atoms: C_4  and  C_8 
REMARK    5  A    between atoms: C_5  and  C_6 
ROOT
HETATM    1  O   UNK N   1      34.588  12.516  14.508  0.00  0.00    -0.380 OA
HETATM    2  C   UNK N   1      35.959  12.752  14.684  0.00  0.00     0.115 C 
HETATM    3  H   UNK N   1      33.657  12.290  14.356  0.00  0.00     0.211 HD
ENDROOT
BRANCH   2   4
HETATM    4  C   UNK N   1      36.528  13.311  13.365  0.00  0.00     0.078 C 
BRANCH   4   5
HETATM    5  C   UNK N   1      35.490  13.476  12.259  0.00  0.00     0.275 C 
BRANCH   5   6
HETATM    6  N   UNK N   1      35.956  12.852  11.029  0.00  0.00     0.080 N 
HETATM    7  C   UNK N   1      37.393  13.043  10.976  0.00  0.00     0.309 C 
HETATM    8  C   UNK N   1      35.396  13.573   9.897  0.00  0.00     0.309 C 
ENDBRANCH   5   6
ENDBRANCH   4   5
ENDBRANCH   2   4
BRANCH   2   9
HETATM    9  C   UNK N   1      36.645  11.389  14.866  0.00  0.00     0.002 A 
HETATM   10  C   UNK N   1      36.121  10.255  15.565  0.00  0.00     0.043 A 
HETATM   11 Cl   UNK N   1      34.579  10.216  16.405  0.00  0.00    -0.084 Cl
HETATM   12  C   UNK N   1      36.891   9.087  15.661  0.00  0.00     0.024 A 
HETATM   13  C   UNK N   1      38.158   9.009  15.089  0.00  0.00     0.002 A 
HETATM   14  C   UNK N   1      38.686  10.107  14.420  0.00  0.00     0.001 A 
HETATM   15  C   UNK N   1      37.940  11.279  14.316  0.00  0.00     0.012 A 
ENDBRANCH   2   9
BRANCH   2  16
HETATM   16  C   UNK N   1      36.081  13.748  15.832  0.00  0.00    -0.019 A 
HETATM   17  C   UNK N   1      37.031  14.785  15.751  0.00  0.00     0.010 A 
HETATM   18  C   UNK N   1      37.189  15.686  16.809  0.00  0.00     0.001 A 
HETATM   19  C   UNK N   1      36.412  15.556  17.962  0.00  0.00     0.000 A 
HETATM   20  C   UNK N   1      35.476  14.525  18.061  0.00  0.00     0.001 A 
HETATM   21  C   UNK N   1      35.312  13.625  17.005  0.00  0.00     0.010 A 
ENDBRANCH   2  16
TORSDOF 5
ENDMDL
MODEL 7
REMARK VINA RESULT:      -5.6      7.019     10.213
REMARK  5 active torsions:
REMARK  status: ('A' for Active; 'I' for Inactive)
REMARK    1  A    between atoms: N_3  and  C_6 
REMARK    2  A    between atoms: C_4  and  C_5 
REMARK    3  A    between atoms: C_4  and  C_7 
REMARK    4  A    between atoms: C_4  and  C_8 
REMARK    5  A    between atoms: C_5  and  C_6 
ROOT
HETATM    1  O   UNK N   1      31.963  14.988   7.747  0.00  0.00    -0.380 OA
HETATM    2  C   UNK N   1      32.091  16.328   7.355  0.00  0.00     0.115 C 
HETATM    3  H   UNK N   1      31.833  14.084   8.072  0.00  0.00     0.211 HD
ENDROOT
BRANCH   2   4
HETATM    4  C   UNK N   1      33.190  16.982   8.215  0.00  0.00     0.078 C 
BRANCH   4   5
HETATM    5  C   UNK N   1      34.509  16.213   8.231  0.00  0.00     0.275 C 
BRANCH   5   6
HETATM    6  N   UNK N   1      34.740  15.631   9.545  0.00  0.00     0.080 N 
HETATM    7  C   UNK N   1      35.300  16.678  10.379  0.00  0.00     0.309 C 
HETATM    8  C   UNK N   1      35.759  14.599   9.427  0.00  0.00     0.309 C 
ENDBRANCH   5   6
ENDBRANCH   4   5
ENDBRANCH   2   4
BRANCH   2   9
HETATM    9  C   UNK N   1      30.795  17.053   7.751  0.00  0.00     0.002 A 
HETATM   10  C   UNK N   1      29.501  16.870   7.167  0.00  0.00     0.043 A 
HETATM   11 Cl   UNK N   1      29.146  15.791   5.827  0.00  0.00    -0.084 Cl
HETATM   12  C   UNK N   1      28.420  17.633   7.629  0.00  0.00     0.024 A 
HETATM   13  C   UNK N   1      28.581  18.569   8.648  0.00  0.00     0.002 A 
HETATM   14  C   UNK N   1      29.834  18.768   9.214  0.00  0.00     0.001 A 
HETATM   15  C   UNK N   1      30.923  18.023   8.767  0.00  0.00     0.012 A 
ENDBRANCH   2   9
BRANCH   2  16
HETATM   16  C   UNK N   1      32.451  16.312   5.874  0.00  0.00    -0.019 A 
HETATM   17  C   UNK N   1      32.482  17.523   5.155  0.00  0.00     0.010 A 
HETATM   18  C   UNK N   1      32.770  17.528   3.787  0.00  0.00     0.001 A 
HETATM   19  C   UNK N   1      33.017  16.328   3.118  0.00  0.00     0.000 A 
HETATM   20  C   UNK N   1      32.978  15.119   3.816  0.00  0.00     0.001 A 
HETATM   21  C   UNK N   1      32.694  15.109   5.184  0.00  0.00     0.010 A 
ENDBRANCH   2  16
TORSDOF 5
ENDMDL
MODEL 8
REMARK VINA RESULT:      -5.6     10.652     13.331
REMARK  5 active torsions:
REMARK  status: ('A' for Active; 'I' for Inactive)
REMARK    1  A    between atoms: N_3  and  C_6 
REMARK    2  A    between atoms: C_4  and  C_5 
REMARK    3  A    between atoms: C_4  and  C_7 
REMARK    4  A    between atoms: C_4  and  C_8 
REMARK    5  A    between atoms: C_5  and  C_6 
ROOT
HETATM    1  O   UNK N   1      28.598  16.363   6.408  0.00  0.00    -0.380 OA
HETATM    2  C   UNK N   1      29.051  17.233   5.405  0.00  0.00     0.115 C 
HETATM    3  H   UNK N   1      28.346  15.725   7.093  0.00  0.00     0.211 HD
ENDROOT
BRANCH   2   4
HETATM    4  C   UNK N   1      28.752  16.592   4.036  0.00  0.00     0.078 C 
BRANCH   4   5
HETATM    5  C   UNK N   1      27.617  15.573   4.059  0.00  0.00     0.275 C 
BRANCH   5   6
HETATM    6  N   UNK N   1      27.644  14.758   2.853  0.00  0.00     0.080 N 
HETATM    7  C   UNK N   1      28.937  14.967   2.229  0.00  0.00     0.309 C 
HETATM    8  C   UNK N   1      26.644  15.264   1.925  0.00  0.00     0.309 C 
ENDBRANCH   5   6
ENDBRANCH   4   5
ENDBRANCH   2   4
BRANCH   2   9
HETATM    9  C   UNK N   1      30.585  17.284   5.493  0.00  0.00     0.002 A 
HETATM   10  C   UNK N   1      31.374  17.254   6.688  0.00  0.00     0.043 A 
HETATM   11 Cl   UNK N   1      30.727  17.197   8.319  0.00  0.00    -0.084 Cl
HETATM   12  C   UNK N   1      32.770  17.335   6.594  0.00  0.00     0.024 A 
HETATM   13  C   UNK N   1      33.406  17.445   5.360  0.00  0.00     0.002 A 
HETATM   14  C   UNK N   1      32.653  17.490   4.194  0.00  0.00     0.001 A 
HETATM   15  C   UNK N   1      31.263  17.415   4.263  0.00  0.00     0.012 A 
ENDBRANCH   2   9
BRANCH   2  16
HETATM   16  C   UNK N   1      28.302  18.546   5.603  0.00  0.00    -0.019 A 
HETATM   17  C   UNK N   1      27.910  19.296   4.478  0.00  0.00     0.010 A 
HETATM   18  C   UNK N   1      27.257  20.523   4.635  0.00  0.00     0.001 A 
HETATM   19  C   UNK N   1      27.001  21.021   5.914  0.00  0.00     0.000 A 
HETATM   20  C   UNK N   1      27.395  20.294   7.039  0.00  0.00     0.001 A 
HETATM   21  C   UNK N   1      28.043  19.066   6.886  0.00  0.00     0.010 A 
ENDBRANCH   2  16
TORSDOF 5
ENDMDL
MODEL 9
REMARK VINA RESULT:      -5.4      6.673      9.596
REMARK  5 active torsions:
REMARK  status: ('A' for Active; 'I' for Inactive)
REMARK    1  A    between atoms: N_3  and  C_6 
REMARK    2  A    between atoms: C_4  and  C_5 
REMARK    3  A    between atoms: C_4  and  C_7 
REMARK    4  A    between atoms: C_4  and  C_8 
REMARK    5  A    between atoms: C_5  and  C_6 
ROOT
HETATM    1  O   UNK N   1      31.767  15.033   7.239  0.00  0.00    -0.380 OA
HETATM    2  C   UNK N   1      32.204  16.325   7.564  0.00  0.00     0.115 C 
HETATM    3  H   UNK N   1      31.529  14.115   7.034  0.00  0.00     0.211 HD
ENDROOT
BRANCH   2   4
HETATM    4  C   UNK N   1      33.021  16.873   6.378  0.00  0.00     0.078 C 
BRANCH   4   5
HETATM    5  C   UNK N   1      33.302  15.844   5.286  0.00  0.00     0.275 C 
BRANCH   5   6
HETATM    6  N   UNK N   1      32.542  16.161   4.085  0.00  0.00     0.080 N 
HETATM    7  C   UNK N   1      33.375  15.808   2.951  0.00  0.00     0.309 C 
HETATM    8  C   UNK N   1      32.340  17.601   4.025  0.00  0.00     0.309 C 
ENDBRANCH   5   6
ENDBRANCH   4   5
ENDBRANCH   2   4
BRANCH   2   9
HETATM    9  C   UNK N   1      33.213  16.197   8.716  0.00  0.00     0.002 A 
HETATM   10  C   UNK N   1      34.235  17.138   9.065  0.00  0.00     0.043 A 
HETATM   11 Cl   UNK N   1      34.569  18.628   8.198  0.00  0.00    -0.084 Cl
HETATM   12  C   UNK N   1      35.095  16.857  10.136  0.00  0.00     0.024 A 
HETATM   13  C   UNK N   1      34.974  15.678  10.869  0.00  0.00     0.002 A 
HETATM   14  C   UNK N   1      33.997  14.750  10.532  0.00  0.00     0.001 A 
HETATM   15  C   UNK N   1      33.134  15.007   9.468  0.00  0.00     0.012 A 
ENDBRANCH   2   9
BRANCH   2  16
HETATM   16  C   UNK N   1      30.950  17.150   7.830  0.00  0.00    -0.019 A 
HETATM   17  C   UNK N   1      29.919  17.172   6.871  0.00  0.00     0.010 A 
HETATM   18  C   UNK N   1      28.777  17.954   7.075  0.00  0.00     0.001 A 
HETATM   19  C   UNK N   1      28.657  18.731   8.229  0.00  0.00     0.000 A 
HETATM   20  C   UNK N   1      29.677  18.728   9.182  0.00  0.00     0.001 A 
HETATM   21  C   UNK N   1      30.818  17.945   8.984  0.00  0.00     0.010 A 
ENDBRANCH   2  16
TORSDOF 5
ENDMDL
