MODEL 1
REMARK VINA RESULT:      -5.9      0.000      0.000
REMARK  9 active torsions:
REMARK  status: ('A' for Active; 'I' for Inactive)
REMARK    1  A    between atoms: O_1  and  C_4 
REMARK    2  A    between atoms: N_2  and  C_6 
REMARK    3  A    between atoms: N_2  and  C_12 
REMARK    4  A    between atoms: N_2  and  C_13 
REMARK    5  A    between atoms: N_2  and  C_14 
REMARK    6  A    between atoms: C_3  and  C_4 
REMARK    7  A    between atoms: C_4  and  C_5 
REMARK    8  A    between atoms: C_4  and  C_15 
REMARK    9  A    between atoms: C_5  and  C_6 
ROOT
HETATM    1  C   UNK N   1      35.946  12.866  14.517  0.00  0.00     0.090 C 
ENDROOT
BRANCH   1   2
HETATM    2  O   UNK N   1      34.589  12.573  14.325  0.00  0.00    -0.385 OA
HETATM    3  H   UNK N   1      33.767  12.570  13.809  0.00  0.00     0.211 HD
ENDBRANCH   1   2
BRANCH   1   4
HETATM    4  C   UNK N   1      36.749  11.552  14.709  0.00  0.00     0.025 C 
HETATM    5  C   UNK N   1      37.129  10.835  13.402  0.00  0.00     0.008 C 
HETATM    6  C   UNK N   1      35.931  10.136  12.772  0.00  0.00     0.000 C 
HETATM    7  C   UNK N   1      35.360   9.120  13.752  0.00  0.00     0.000 C 
HETATM    8  C   UNK N   1      34.919   9.819  15.037  0.00  0.00     0.000 C 
HETATM    9  C   UNK N   1      36.095  10.558  15.684  0.00  0.00     0.008 C 
ENDBRANCH   1   4
BRANCH   1  10
HETATM   10  C   UNK N   1      36.474  13.586  13.274  0.00  0.00     0.071 C 
BRANCH  10  11
HETATM   11  C   UNK N   1      35.361  14.116  12.362  0.00  0.00     0.240 C 
BRANCH  11  12
HETATM   12  N   UNK N   1      35.816  14.411  10.993  0.00  0.00    -0.068 N 
BRANCH  12  13
HETATM   13  C   UNK N   1      36.143  15.841  10.795  0.00  0.00     0.233 C 
HETATM   14  C   UNK N   1      35.025  16.626  10.107  0.00  0.00     0.035 C 
ENDBRANCH  12  13
BRANCH  12  15
HETATM   15  C   UNK N   1      34.799  13.965  10.022  0.00  0.00     0.233 C 
HETATM   16  C   UNK N   1      34.627  12.450   9.941  0.00  0.00     0.035 C 
ENDBRANCH  12  15
BRANCH  12  17
HETATM   17  C   UNK N   1      37.014  13.583  10.783  0.00  0.00     0.233 C 
HETATM   18  C   UNK N   1      37.987  14.166   9.757  0.00  0.00     0.035 C 
ENDBRANCH  12  17
ENDBRANCH  11  12
ENDBRANCH  10  11
ENDBRANCH   1  10
BRANCH   1  19
HETATM   19  C   UNK N   1      36.141  13.770  15.723  0.00  0.00    -0.024 A 
HETATM   20  C   UNK N   1      37.091  14.806  15.671  0.00  0.00     0.010 A 
HETATM   21  C   UNK N   1      37.262  15.667  16.758  0.00  0.00     0.001 A 
HETATM   22  C   UNK N   1      36.488  15.502  17.908  0.00  0.00     0.000 A 
HETATM   23  C   UNK N   1      35.543  14.474  17.972  0.00  0.00     0.001 A 
HETATM   24  C   UNK N   1      35.368  13.612  16.885  0.00  0.00     0.010 A 
ENDBRANCH   1  19
TORSDOF 9
ENDMDL
MODEL 2
REMARK VINA RESULT:      -5.8      0.182      1.711
REMARK  9 active torsions:
REMARK  status: ('A' for Active; 'I' for Inactive)
REMARK    1  A    between atoms: O_1  and  C_4 
REMARK    2  A    between atoms: N_2  and  C_6 
REMARK    3  A    between atoms: N_2  and  C_12 
REMARK    4  A    between atoms: N_2  and  C_13 
REMARK    5  A    between atoms: N_2  and  C_14 
REMARK    6  A    between atoms: C_3  and  C_4 
REMARK    7  A    between atoms: C_4  and  C_5 
REMARK    8  A    between atoms: C_4  and  C_15 
REMARK    9  A    between atoms: C_5  and  C_6 
ROOT
HETATM    1  C   UNK N   1      35.985  12.874  14.411  0.00  0.00     0.090 C 
ENDROOT
BRANCH   1   2
HETATM    2  O   UNK N   1      34.633  12.582  14.183  0.00  0.00    -0.385 OA
HETATM    3  H   UNK N   1      33.697  12.820  14.099  0.00  0.00     0.211 HD
ENDBRANCH   1   2
BRANCH   1   4
HETATM    4  C   UNK N   1      36.790  11.557  14.577  0.00  0.00     0.025 C 
HETATM    5  C   UNK N   1      37.084  10.814  13.262  0.00  0.00     0.008 C 
HETATM    6  C   UNK N   1      35.845  10.114  12.720  0.00  0.00     0.000 C 
HETATM    7  C   UNK N   1      35.330   9.119  13.752  0.00  0.00     0.000 C 
HETATM    8  C   UNK N   1      34.973   9.844  15.049  0.00  0.00     0.000 C 
HETATM    9  C   UNK N   1      36.192  10.585  15.608  0.00  0.00     0.008 C 
ENDBRANCH   1   4
BRANCH   1  10
HETATM   10  C   UNK N   1      36.533  13.635  13.202  0.00  0.00     0.071 C 
BRANCH  10  11
HETATM   11  C   UNK N   1      35.450  14.026  12.190  0.00  0.00     0.240 C 
BRANCH  11  12
HETATM   12  N   UNK N   1      35.966  14.216  10.823  0.00  0.00    -0.068 N 
BRANCH  12  13
HETATM   13  C   UNK N   1      34.996  13.806   9.784  0.00  0.00     0.233 C 
HETATM   14  C   UNK N   1      34.584  12.337   9.889  0.00  0.00     0.035 C 
ENDBRANCH  12  13
BRANCH  12  15
HETATM   15  C   UNK N   1      37.242  13.492  10.667  0.00  0.00     0.233 C 
HETATM   16  C   UNK N   1      38.205  14.121   9.663  0.00  0.00     0.035 C 
ENDBRANCH  12  15
BRANCH  12  17
HETATM   17  C   UNK N   1      36.261  15.652  10.704  0.00  0.00     0.233 C 
HETATM   18  C   UNK N   1      35.021  16.509  10.439  0.00  0.00     0.035 C 
ENDBRANCH  12  17
ENDBRANCH  11  12
ENDBRANCH  10  11
ENDBRANCH   1  10
BRANCH   1  19
HETATM   19  C   UNK N   1      36.152  13.739  15.648  0.00  0.00    -0.024 A 
HETATM   20  C   UNK N   1      37.107  14.772  15.652  0.00  0.00     0.010 A 
HETATM   21  C   UNK N   1      37.254  15.599  16.770  0.00  0.00     0.001 A 
HETATM   22  C   UNK N   1      36.450  15.402  17.894  0.00  0.00     0.000 A 
HETATM   23  C   UNK N   1      35.500  14.377  17.902  0.00  0.00     0.001 A 
HETATM   24  C   UNK N   1      35.349  13.549  16.785  0.00  0.00     0.010 A 
ENDBRANCH   1  19
TORSDOF 9
ENDMDL
MODEL 3
REMARK VINA RESULT:      -5.7     20.150     24.786
REMARK  9 active torsions:
REMARK  status: ('A' for Active; 'I' for Inactive)
REMARK    1  A    between atoms: O_1  and  C_4 
REMARK    2  A    between atoms: N_2  and  C_6 
REMARK    3  A    between atoms: N_2  and  C_12 
REMARK    4  A    between atoms: N_2  and  C_13 
REMARK    5  A    between atoms: N_2  and  C_14 
REMARK    6  A    between atoms: C_3  and  C_4 
REMARK    7  A    between atoms: C_4  and  C_5 
REMARK    8  A    between atoms: C_4  and  C_15 
REMARK    9  A    between atoms: C_5  and  C_6 
ROOT
HETATM    1  C   UNK N   1      26.628  25.664  -5.672  0.00  0.00     0.090 C 
ENDROOT
BRANCH   1   2
HETATM    2  O   UNK N   1      26.246  25.462  -4.339  0.00  0.00    -0.385 OA
HETATM    3  H   UNK N   1      25.681  25.084  -3.646  0.00  0.00     0.211 HD
ENDBRANCH   1   2
BRANCH   1   4
HETATM    4  C   UNK N   1      26.095  27.033  -6.173  0.00  0.00     0.025 C 
HETATM    5  C   UNK N   1      27.184  28.082  -6.455  0.00  0.00     0.008 C 
HETATM    6  C   UNK N   1      27.760  28.658  -5.168  0.00  0.00     0.000 C 
HETATM    7  C   UNK N   1      26.645  29.301  -4.354  0.00  0.00     0.000 C 
HETATM    8  C   UNK N   1      25.579  28.262  -4.010  0.00  0.00     0.000 C 
HETATM    9  C   UNK N   1      24.997  27.639  -5.283  0.00  0.00     0.008 C 
ENDBRANCH   1   4
BRANCH   1  10
HETATM   10  C   UNK N   1      28.157  25.675  -5.748  0.00  0.00     0.071 C 
BRANCH  10  11
HETATM   11  C   UNK N   1      28.832  25.421  -4.395  0.00  0.00     0.240 C 
BRANCH  11  12
HETATM   12  N   UNK N   1      29.695  24.226  -4.387  0.00  0.00    -0.068 N 
BRANCH  12  13
HETATM   13  C   UNK N   1      29.907  23.666  -5.740  0.00  0.00     0.233 C 
HETATM   14  C   UNK N   1      29.476  22.204  -5.863  0.00  0.00     0.035 C 
ENDBRANCH  12  13
BRANCH  12  15
HETATM   15  C   UNK N   1      29.130  23.210  -3.479  0.00  0.00     0.233 C 
HETATM   16  C   UNK N   1      29.894  23.042  -2.168  0.00  0.00     0.035 C 
ENDBRANCH  12  15
BRANCH  12  17
HETATM   17  C   UNK N   1      30.976  24.664  -3.812  0.00  0.00     0.233 C 
HETATM   18  C   UNK N   1      31.074  26.179  -3.622  0.00  0.00     0.035 C 
ENDBRANCH  12  17
ENDBRANCH  11  12
ENDBRANCH  10  11
ENDBRANCH   1  10
BRANCH   1  19
HETATM   19  C   UNK N   1      26.104  24.550  -6.562  0.00  0.00    -0.024 A 
HETATM   20  C   UNK N   1      25.793  24.820  -7.907  0.00  0.00     0.010 A 
HETATM   21  C   UNK N   1      25.340  23.801  -8.749  0.00  0.00     0.001 A 
HETATM   22  C   UNK N   1      25.191  22.503  -8.257  0.00  0.00     0.000 A 
HETATM   23  C   UNK N   1      25.494  22.224  -6.921  0.00  0.00     0.001 A 
HETATM   24  C   UNK N   1      25.950  23.241  -6.077  0.00  0.00     0.010 A 
ENDBRANCH   1  19
TORSDOF 9
ENDMDL
MODEL 4
REMARK VINA RESULT:      -5.7     20.087     24.768
REMARK  9 active torsions:
REMARK  status: ('A' for Active; 'I' for Inactive)
REMARK    1  A    between atoms: O_1  and  C_4 
REMARK    2  A    between atoms: N_2  and  C_6 
REMARK    3  A    between atoms: N_2  and  C_12 
REMARK    4  A    between atoms: N_2  and  C_13 
REMARK    5  A    between atoms: N_2  and  C_14 
REMARK    6  A    between atoms: C_3  and  C_4 
REMARK    7  A    between atoms: C_4  and  C_5 
REMARK    8  A    between atoms: C_4  and  C_15 
REMARK    9  A    between atoms: C_5  and  C_6 
ROOT
HETATM    1  C   UNK N   1      26.517  25.533  -5.677  0.00  0.00     0.090 C 
ENDROOT
BRANCH   1   2
HETATM    2  O   UNK N   1      26.051  25.317  -4.373  0.00  0.00    -0.385 OA
HETATM    3  H   UNK N   1      26.173  25.146  -3.426  0.00  0.00     0.211 HD
ENDBRANCH   1   2
BRANCH   1   4
HETATM    4  C   UNK N   1      25.984  26.889  -6.210  0.00  0.00     0.025 C 
HETATM    5  C   UNK N   1      27.076  27.910  -6.575  0.00  0.00     0.008 C 
HETATM    6  C   UNK N   1      27.711  28.525  -5.334  0.00  0.00     0.000 C 
HETATM    7  C   UNK N   1      26.638  29.216  -4.503  0.00  0.00     0.000 C 
HETATM    8  C   UNK N   1      25.571  28.209  -4.078  0.00  0.00     0.000 C 
HETATM    9  C   UNK N   1      24.930  27.547  -5.303  0.00  0.00     0.008 C 
ENDBRANCH   1   4
BRANCH   1  10
HETATM   10  C   UNK N   1      28.046  25.582  -5.650  0.00  0.00     0.071 C 
BRANCH  10  11
HETATM   11  C   UNK N   1      28.639  25.245  -4.278  0.00  0.00     0.240 C 
BRANCH  11  12
HETATM   12  N   UNK N   1      29.704  24.228  -4.334  0.00  0.00    -0.068 N 
BRANCH  12  13
HETATM   13  C   UNK N   1      31.006  24.738  -3.850  0.00  0.00     0.233 C 
HETATM   14  C   UNK N   1      31.015  26.249  -3.620  0.00  0.00     0.035 C 
ENDBRANCH  12  13
BRANCH  12  15
HETATM   15  C   UNK N   1      29.821  23.704  -5.708  0.00  0.00     0.233 C 
HETATM   16  C   UNK N   1      29.443  22.232  -5.856  0.00  0.00     0.035 C 
ENDBRANCH  12  15
BRANCH  12  17
HETATM   17  C   UNK N   1      29.244  23.121  -3.481  0.00  0.00     0.233 C 
HETATM   18  C   UNK N   1      30.064  22.955  -2.201  0.00  0.00     0.035 C 
ENDBRANCH  12  17
ENDBRANCH  11  12
ENDBRANCH  10  11
ENDBRANCH   1  10
BRANCH   1  19
HETATM   19  C   UNK N   1      26.081  24.409  -6.602  0.00  0.00    -0.024 A 
HETATM   20  C   UNK N   1      25.791  23.140  -6.068  0.00  0.00     0.010 A 
HETATM   21  C   UNK N   1      25.359  22.102  -6.898  0.00  0.00     0.001 A 
HETATM   22  C   UNK N   1      25.214  22.320  -8.269  0.00  0.00     0.000 A 
HETATM   23  C   UNK N   1      25.502  23.575  -8.812  0.00  0.00     0.001 A 
HETATM   24  C   UNK N   1      25.933  24.617  -7.983  0.00  0.00     0.010 A 
ENDBRANCH   1  19
TORSDOF 9
ENDMDL
MODEL 5
REMARK VINA RESULT:      -5.6     20.047     24.201
REMARK  9 active torsions:
REMARK  status: ('A' for Active; 'I' for Inactive)
REMARK    1  A    between atoms: O_1  and  C_4 
REMARK    2  A    between atoms: N_2  and  C_6 
REMARK    3  A    between atoms: N_2  and  C_12 
REMARK    4  A    between atoms: N_2  and  C_13 
REMARK    5  A    between atoms: N_2  and  C_14 
REMARK    6  A    between atoms: C_3  and  C_4 
REMARK    7  A    between atoms: C_4  and  C_5 
REMARK    8  A    between atoms: C_4  and  C_15 
REMARK    9  A    between atoms: C_5  and  C_6 
ROOT
HETATM    1  C   UNK N   1      27.094  24.179  -6.038  0.00  0.00     0.090 C 
ENDROOT
BRANCH   1   2
HETATM    2  O   UNK N   1      26.350  24.383  -4.868  0.00  0.00    -0.385 OA
HETATM    3  H   UNK N   1      25.898  24.939  -4.214  0.00  0.00     0.211 HD
ENDBRANCH   1   2
BRANCH   1   4
HETATM    4  C   UNK N   1      27.050  25.454  -6.922  0.00  0.00     0.025 C 
HETATM    5  C   UNK N   1      28.013  26.571  -6.485  0.00  0.00     0.008 C 
HETATM    6  C   UNK N   1      27.515  27.289  -5.237  0.00  0.00     0.000 C 
HETATM    7  C   UNK N   1      26.143  27.890  -5.509  0.00  0.00     0.000 C 
HETATM    8  C   UNK N   1      25.152  26.790  -5.888  0.00  0.00     0.000 C 
HETATM    9  C   UNK N   1      25.637  26.026  -7.124  0.00  0.00     0.008 C 
ENDBRANCH   1   4
BRANCH   1  10
HETATM   10  C   UNK N   1      28.547  23.897  -5.653  0.00  0.00     0.071 C 
BRANCH  10  11
HETATM   11  C   UNK N   1      28.792  23.940  -4.140  0.00  0.00     0.240 C 
BRANCH  11  12
HETATM   12  N   UNK N   1      30.051  23.293  -3.732  0.00  0.00    -0.068 N 
BRANCH  12  13
HETATM   13  C   UNK N   1      30.037  22.858  -2.317  0.00  0.00     0.233 C 
HETATM   14  C   UNK N   1      28.674  23.029  -1.647  0.00  0.00     0.035 C 
ENDBRANCH  12  13
BRANCH  12  15
HETATM   15  C   UNK N   1      31.185  24.200  -3.992  0.00  0.00     0.233 C 
HETATM   16  C   UNK N   1      30.936  25.651  -3.590  0.00  0.00     0.035 C 
ENDBRANCH  12  15
BRANCH  12  17
HETATM   17  C   UNK N   1      30.207  22.130  -4.619  0.00  0.00     0.233 C 
HETATM   18  C   UNK N   1      30.823  20.912  -3.926  0.00  0.00     0.035 C 
ENDBRANCH  12  17
ENDBRANCH  11  12
ENDBRANCH  10  11
ENDBRANCH   1  10
BRANCH   1  19
HETATM   19  C   UNK N   1      26.559  22.991  -6.821  0.00  0.00    -0.024 A 
HETATM   20  C   UNK N   1      27.389  22.338  -7.750  0.00  0.00     0.010 A 
HETATM   21  C   UNK N   1      26.925  21.225  -8.456  0.00  0.00     0.001 A 
HETATM   22  C   UNK N   1      25.629  20.753  -8.243  0.00  0.00     0.000 A 
HETATM   23  C   UNK N   1      24.794  21.396  -7.325  0.00  0.00     0.001 A 
HETATM   24  C   UNK N   1      25.256  22.509  -6.615  0.00  0.00     0.010 A 
ENDBRANCH   1  19
TORSDOF 9
ENDMDL
MODEL 6
REMARK VINA RESULT:      -5.6      8.645     12.012
REMARK  9 active torsions:
REMARK  status: ('A' for Active; 'I' for Inactive)
REMARK    1  A    between atoms: O_1  and  C_4 
REMARK    2  A    between atoms: N_2  and  C_6 
REMARK    3  A    between atoms: N_2  and  C_12 
REMARK    4  A    between atoms: N_2  and  C_13 
REMARK    5  A    between atoms: N_2  and  C_14 
REMARK    6  A    between atoms: C_3  and  C_4 
REMARK    7  A    between atoms: C_4  and  C_5 
REMARK    8  A    between atoms: C_4  and  C_15 
REMARK    9  A    between atoms: C_5  and  C_6 
ROOT
HETATM    1  C   UNK N   1      29.099  17.351   4.754  0.00  0.00     0.090 C 
ENDROOT
BRANCH   1   2
HETATM    2  O   UNK N   1      29.582  17.490   3.446  0.00  0.00    -0.385 OA
HETATM    3  H   UNK N   1      29.594  17.279   2.499  0.00  0.00     0.211 HD
ENDBRANCH   1   2
BRANCH   1   4
HETATM    4  C   UNK N   1      28.180  16.104   4.848  0.00  0.00     0.025 C 
HETATM    5  C   UNK N   1      28.903  14.801   5.230  0.00  0.00     0.008 C 
HETATM    6  C   UNK N   1      29.717  14.245   4.068  0.00  0.00     0.000 C 
HETATM    7  C   UNK N   1      28.797  13.978   2.884  0.00  0.00     0.000 C 
HETATM    8  C   UNK N   1      28.112  15.272   2.448  0.00  0.00     0.000 C 
HETATM    9  C   UNK N   1      27.306  15.876   3.603  0.00  0.00     0.008 C 
ENDBRANCH   1   4
BRANCH   1  10
HETATM   10  C   UNK N   1      30.287  17.157   5.698  0.00  0.00     0.071 C 
BRANCH  10  11
HETATM   11  C   UNK N   1      31.642  17.407   5.026  0.00  0.00     0.240 C 
BRANCH  11  12
HETATM   12  N   UNK N   1      32.711  16.519   5.515  0.00  0.00    -0.068 N 
BRANCH  12  13
HETATM   13  C   UNK N   1      33.250  15.636   4.457  0.00  0.00     0.233 C 
HETATM   14  C   UNK N   1      32.833  16.058   3.048  0.00  0.00     0.035 C 
ENDBRANCH  12  13
BRANCH  12  15
HETATM   15  C   UNK N   1      32.218  15.729   6.660  0.00  0.00     0.233 C 
HETATM   16  C   UNK N   1      32.533  14.237   6.578  0.00  0.00     0.035 C 
ENDBRANCH  12  15
BRANCH  12  17
HETATM   17  C   UNK N   1      33.768  17.409   6.020  0.00  0.00     0.233 C 
HETATM   18  C   UNK N   1      33.507  17.926   7.436  0.00  0.00     0.035 C 
ENDBRANCH  12  17
ENDBRANCH  11  12
ENDBRANCH  10  11
ENDBRANCH   1  10
BRANCH   1  19
HETATM   19  C   UNK N   1      28.332  18.590   5.184  0.00  0.00    -0.024 A 
HETATM   20  C   UNK N   1      27.733  19.411   4.211  0.00  0.00     0.010 A 
HETATM   21  C   UNK N   1      26.998  20.538   4.588  0.00  0.00     0.001 A 
HETATM   22  C   UNK N   1      26.853  20.857   5.939  0.00  0.00     0.000 A 
HETATM   23  C   UNK N   1      27.445  20.050   6.914  0.00  0.00     0.001 A 
HETATM   24  C   UNK N   1      28.181  18.920   6.540  0.00  0.00     0.010 A 
ENDBRANCH   1  19
TORSDOF 9
ENDMDL
MODEL 7
REMARK VINA RESULT:      -5.5      8.813     12.406
REMARK  9 active torsions:
REMARK  status: ('A' for Active; 'I' for Inactive)
REMARK    1  A    between atoms: O_1  and  C_4 
REMARK    2  A    between atoms: N_2  and  C_6 
REMARK    3  A    between atoms: N_2  and  C_12 
REMARK    4  A    between atoms: N_2  and  C_13 
REMARK    5  A    between atoms: N_2  and  C_14 
REMARK    6  A    between atoms: C_3  and  C_4 
REMARK    7  A    between atoms: C_4  and  C_5 
REMARK    8  A    between atoms: C_4  and  C_15 
REMARK    9  A    between atoms: C_5  and  C_6 
ROOT
HETATM    1  C   UNK N   1      28.866  17.370   4.775  0.00  0.00     0.090 C 
ENDROOT
BRANCH   1   2
HETATM    2  O   UNK N   1      29.302  17.424   3.443  0.00  0.00    -0.385 OA
HETATM    3  H   UNK N   1      29.958  17.298   2.740  0.00  0.00     0.211 HD
ENDBRANCH   1   2
BRANCH   1   4
HETATM    4  C   UNK N   1      27.905  16.167   4.968  0.00  0.00     0.025 C 
HETATM    5  C   UNK N   1      28.443  14.825   4.444  0.00  0.00     0.008 C 
HETATM    6  C   UNK N   1      28.398  14.754   2.922  0.00  0.00     0.000 C 
HETATM    7  C   UNK N   1      26.963  14.937   2.447  0.00  0.00     0.000 C 
HETATM    8  C   UNK N   1      26.426  16.292   2.906  0.00  0.00     0.000 C 
HETATM    9  C   UNK N   1      26.484  16.411   4.432  0.00  0.00     0.008 C 
ENDBRANCH   1   4
BRANCH   1  10
HETATM   10  C   UNK N   1      30.084  17.178   5.681  0.00  0.00     0.071 C 
BRANCH  10  11
HETATM   11  C   UNK N   1      31.418  17.397   4.959  0.00  0.00     0.240 C 
BRANCH  11  12
HETATM   12  N   UNK N   1      32.503  16.534   5.458  0.00  0.00    -0.068 N 
BRANCH  12  13
HETATM   13  C   UNK N   1      32.077  15.676   6.586  0.00  0.00     0.233 C 
HETATM   14  C   UNK N   1      32.184  14.181   6.281  0.00  0.00     0.035 C 
ENDBRANCH  12  13
BRANCH  12  15
HETATM   15  C   UNK N   1      33.664  17.361   5.836  0.00  0.00     0.233 C 
HETATM   16  C   UNK N   1      33.664  17.819   7.293  0.00  0.00     0.035 C 
ENDBRANCH  12  15
BRANCH  12  17
HETATM   17  C   UNK N   1      32.910  15.704   4.314  0.00  0.00     0.233 C 
HETATM   18  C   UNK N   1      32.870  16.446   2.977  0.00  0.00     0.035 C 
ENDBRANCH  12  17
ENDBRANCH  11  12
ENDBRANCH  10  11
ENDBRANCH   1  10
BRANCH   1  19
HETATM   19  C   UNK N   1      28.164  18.659   5.168  0.00  0.00    -0.024 A 
HETATM   20  C   UNK N   1      27.650  19.506   4.169  0.00  0.00     0.010 A 
HETATM   21  C   UNK N   1      26.974  20.679   4.512  0.00  0.00     0.001 A 
HETATM   22  C   UNK N   1      26.806  21.021   5.855  0.00  0.00     0.000 A 
HETATM   23  C   UNK N   1      27.316  20.190   6.857  0.00  0.00     0.001 A 
HETATM   24  C   UNK N   1      27.991  19.013   6.516  0.00  0.00     0.010 A 
ENDBRANCH   1  19
TORSDOF 9
ENDMDL
MODEL 8
REMARK VINA RESULT:      -5.5      8.850     12.463
REMARK  9 active torsions:
REMARK  status: ('A' for Active; 'I' for Inactive)
REMARK    1  A    between atoms: O_1  and  C_4 
REMARK    2  A    between atoms: N_2  and  C_6 
REMARK    3  A    between atoms: N_2  and  C_12 
REMARK    4  A    between atoms: N_2  and  C_13 
REMARK    5  A    between atoms: N_2  and  C_14 
REMARK    6  A    between atoms: C_3  and  C_4 
REMARK    7  A    between atoms: C_4  and  C_5 
REMARK    8  A    between atoms: C_4  and  C_15 
REMARK    9  A    between atoms: C_5  and  C_6 
ROOT
HETATM    1  C   UNK N   1      28.751  17.428   4.693  0.00  0.00     0.090 C 
ENDROOT
BRANCH   1   2
HETATM    2  O   UNK N   1      29.149  17.554   3.354  0.00  0.00    -0.385 OA
HETATM    3  H   UNK N   1      29.548  17.225   2.534  0.00  0.00     0.211 HD
ENDBRANCH   1   2
BRANCH   1   4
HETATM    4  C   UNK N   1      27.760  16.243   4.840  0.00  0.00     0.025 C 
HETATM    5  C   UNK N   1      28.233  14.927   4.200  0.00  0.00     0.008 C 
HETATM    6  C   UNK N   1      28.126  14.966   2.681  0.00  0.00     0.000 C 
HETATM    7  C   UNK N   1      26.680  15.226   2.279  0.00  0.00     0.000 C 
HETATM    8  C   UNK N   1      26.206  16.560   2.854  0.00  0.00     0.000 C 
HETATM    9  C   UNK N   1      26.327  16.566   4.382  0.00  0.00     0.008 C 
ENDBRANCH   1   4
BRANCH   1  10
HETATM   10  C   UNK N   1      29.988  17.143   5.547  0.00  0.00     0.071 C 
BRANCH  10  11
HETATM   11  C   UNK N   1      31.307  17.394   4.807  0.00  0.00     0.240 C 
BRANCH  11  12
HETATM   12  N   UNK N   1      32.439  16.623   5.351  0.00  0.00    -0.068 N 
BRANCH  12  13
HETATM   13  C   UNK N   1      33.541  17.488   5.828  0.00  0.00     0.233 C 
HETATM   14  C   UNK N   1      33.421  17.856   7.308  0.00  0.00     0.035 C 
ENDBRANCH  12  13
BRANCH  12  15
HETATM   15  C   UNK N   1      32.923  15.666   4.337  0.00  0.00     0.233 C 
HETATM   16  C   UNK N   1      33.104  16.263   2.943  0.00  0.00     0.035 C 
ENDBRANCH  12  15
BRANCH  12  17
HETATM   17  C   UNK N   1      31.889  15.839   6.466  0.00  0.00     0.233 C 
HETATM   18  C   UNK N   1      32.244  14.352   6.400  0.00  0.00     0.035 C 
ENDBRANCH  12  17
ENDBRANCH  11  12
ENDBRANCH  10  11
ENDBRANCH   1  10
BRANCH   1  19
HETATM   19  C   UNK N   1      28.101  18.709   5.188  0.00  0.00    -0.024 A 
HETATM   20  C   UNK N   1      27.975  18.936   6.571  0.00  0.00     0.010 A 
HETATM   21  C   UNK N   1      27.408  20.122   7.046  0.00  0.00     0.001 A 
HETATM   22  C   UNK N   1      26.960  21.091   6.147  0.00  0.00     0.000 A 
HETATM   23  C   UNK N   1      27.076  20.874   4.772  0.00  0.00     0.001 A 
HETATM   24  C   UNK N   1      27.645  19.689   4.292  0.00  0.00     0.010 A 
ENDBRANCH   1  19
TORSDOF 9
ENDMDL
MODEL 9
REMARK VINA RESULT:      -5.4      1.527      4.583
REMARK  9 active torsions:
REMARK  status: ('A' for Active; 'I' for Inactive)
REMARK    1  A    between atoms: O_1  and  C_4 
REMARK    2  A    between atoms: N_2  and  C_6 
REMARK    3  A    between atoms: N_2  and  C_12 
REMARK    4  A    between atoms: N_2  and  C_13 
REMARK    5  A    between atoms: N_2  and  C_14 
REMARK    6  A    between atoms: C_3  and  C_4 
REMARK    7  A    between atoms: C_4  and  C_5 
REMARK    8  A    between atoms: C_4  and  C_15 
REMARK    9  A    between atoms: C_5  and  C_6 
ROOT
HETATM    1  C   UNK N   1      35.497  12.016  14.172  0.00  0.00     0.090 C 
ENDROOT
BRANCH   1   2
HETATM    2  O   UNK N   1      36.768  12.068  14.761  0.00  0.00    -0.385 OA
HETATM    3  H   UNK N   1      37.403  12.373  15.430  0.00  0.00     0.211 HD
ENDBRANCH   1   2
BRANCH   1   4
HETATM    4  C   UNK N   1      34.413  11.843  15.269  0.00  0.00     0.025 C 
HETATM    5  C   UNK N   1      34.253  13.050  16.209  0.00  0.00     0.008 C 
HETATM    6  C   UNK N   1      35.399  13.145  17.207  0.00  0.00     0.000 C 
HETATM    7  C   UNK N   1      35.459  11.870  18.037  0.00  0.00     0.000 C 
HETATM    8  C   UNK N   1      35.679  10.661  17.129  0.00  0.00     0.000 C 
HETATM    9  C   UNK N   1      34.557  10.551  16.091  0.00  0.00     0.008 C 
ENDBRANCH   1   4
BRANCH   1  10
HETATM   10  C   UNK N   1      35.244  13.333  13.435  0.00  0.00     0.071 C 
BRANCH  10  11
HETATM   11  C   UNK N   1      36.465  13.835  12.655  0.00  0.00     0.240 C 
BRANCH  11  12
HETATM   12  N   UNK N   1      36.135  14.335  11.309  0.00  0.00    -0.068 N 
BRANCH  12  13
HETATM   13  C   UNK N   1      37.053  13.821  10.268  0.00  0.00     0.233 C 
HETATM   14  C   UNK N   1      38.169  12.940  10.829  0.00  0.00     0.035 C 
ENDBRANCH  12  13
BRANCH  12  15
HETATM   15  C   UNK N   1      36.120  15.810  11.315  0.00  0.00     0.233 C 
HETATM   16  C   UNK N   1      35.109  16.434  10.355  0.00  0.00     0.035 C 
ENDBRANCH  12  15
BRANCH  12  17
HETATM   17  C   UNK N   1      34.761  13.884  11.041  0.00  0.00     0.233 C 
HETATM   18  C   UNK N   1      34.660  12.883   9.888  0.00  0.00     0.035 C 
ENDBRANCH  12  17
ENDBRANCH  11  12
ENDBRANCH  10  11
ENDBRANCH   1  10
BRANCH   1  19
HETATM   19  C   UNK N   1      35.408  10.873  13.174  0.00  0.00    -0.024 A 
HETATM   20  C   UNK N   1      34.160  10.516  12.634  0.00  0.00     0.010 A 
HETATM   21  C   UNK N   1      34.062   9.489  11.692  0.00  0.00     0.001 A 
HETATM   22  C   UNK N   1      35.208   8.807  11.281  0.00  0.00     0.000 A 
HETATM   23  C   UNK N   1      36.454   9.152  11.813  0.00  0.00     0.001 A 
HETATM   24  C   UNK N   1      36.556  10.181  12.755  0.00  0.00     0.010 A 
ENDBRANCH   1  19
TORSDOF 9
ENDMDL
