MODEL 1
REMARK VINA RESULT:      -6.5      0.000      0.000
REMARK  2 active torsions:
REMARK  status: ('A' for Active; 'I' for Inactive)
REMARK    1  A    between atoms: C_5  and  C_6 
REMARK    2  A    between atoms: C_5  and  C_8 
ROOT
HETATM    1  O   UNK N   1      32.943  15.336   9.190  0.00  0.00    -0.270 OA
HETATM    2  O   UNK N   1      35.268  19.072   8.508  0.00  0.00    -0.247 OA
HETATM    3  N   UNK N   1      33.446  18.278   7.433  0.00  0.00    -0.320 N 
HETATM    4  N   UNK N   1      34.328  17.118   9.121  0.00  0.00    -0.272 N 
HETATM    5  C   UNK N   1      32.588  17.096   7.528  0.00  0.00     0.143 A 
HETATM    6  C   UNK N   1      33.275  16.406   8.698  0.00  0.00     0.260 A 
HETATM    7  C   UNK N   1      34.410  18.214   8.370  0.00  0.00     0.326 A 
HETATM    8  C   UNK N   1      35.224  16.755  10.191  0.00  0.00     0.164 C 
HETATM    9  H   UNK N   1      33.334  19.009   6.783  0.00  0.00     0.165 HD
ENDROOT
BRANCH   5  10
HETATM   10  C   UNK N   1      32.731  16.299   6.220  0.00  0.00     0.042 C 
HETATM   11  C   UNK N   1      33.229  17.125   5.042  0.00  0.00     0.008 C 
ENDBRANCH   5  10
BRANCH   5  12
HETATM   12  C   UNK N   1      31.151  17.510   7.839  0.00  0.00    -0.021 A 
HETATM   13  C   UNK N   1      30.093  17.075   7.020  0.00  0.00     0.010 A 
HETATM   14  C   UNK N   1      28.770  17.399   7.333  0.00  0.00     0.001 A 
HETATM   15  C   UNK N   1      28.486  18.158   8.470  0.00  0.00     0.000 A 
HETATM   16  C   UNK N   1      29.525  18.599   9.292  0.00  0.00     0.001 A 
HETATM   17  C   UNK N   1      30.849  18.277   8.979  0.00  0.00     0.010 A 
ENDBRANCH   5  12
TORSDOF 2
ENDMDL
MODEL 2
REMARK VINA RESULT:      -6.4      0.114      1.215
REMARK  2 active torsions:
REMARK  status: ('A' for Active; 'I' for Inactive)
REMARK    1  A    between atoms: C_5  and  C_6 
REMARK    2  A    between atoms: C_5  and  C_8 
ROOT
HETATM    1  O   UNK N   1      33.027  15.289   9.185  0.00  0.00    -0.270 OA
HETATM    2  O   UNK N   1      35.268  19.079   8.518  0.00  0.00    -0.247 OA
HETATM    3  N   UNK N   1      33.483  18.233   7.420  0.00  0.00    -0.320 N 
HETATM    4  N   UNK N   1      34.368  17.104   9.127  0.00  0.00    -0.272 N 
HETATM    5  C   UNK N   1      32.654  17.031   7.508  0.00  0.00     0.143 A 
HETATM    6  C   UNK N   1      33.339  16.364   8.693  0.00  0.00     0.260 A 
HETATM    7  C   UNK N   1      34.434  18.199   8.372  0.00  0.00     0.326 A 
HETATM    8  C   UNK N   1      35.256  16.770  10.214  0.00  0.00     0.164 C 
HETATM    9  H   UNK N   1      33.363  18.958   6.764  0.00  0.00     0.165 HD
ENDROOT
BRANCH   5  10
HETATM   10  C   UNK N   1      32.837  16.230   6.207  0.00  0.00     0.042 C 
HETATM   11  C   UNK N   1      33.278  17.073   5.018  0.00  0.00     0.008 C 
ENDBRANCH   5  10
BRANCH   5  12
HETATM   12  C   UNK N   1      31.202  17.410   7.795  0.00  0.00    -0.021 A 
HETATM   13  C   UNK N   1      30.884  18.211   8.908  0.00  0.00     0.010 A 
HETATM   14  C   UNK N   1      29.565  18.612   9.142  0.00  0.00     0.001 A 
HETATM   15  C   UNK N   1      28.549  18.224   8.266  0.00  0.00     0.000 A 
HETATM   16  C   UNK N   1      28.850  17.428   7.158  0.00  0.00     0.001 A 
HETATM   17  C   UNK N   1      30.168  17.025   6.924  0.00  0.00     0.010 A 
ENDBRANCH   5  12
TORSDOF 2
ENDMDL
MODEL 3
REMARK VINA RESULT:      -5.4      1.849      2.335
REMARK  2 active torsions:
REMARK  status: ('A' for Active; 'I' for Inactive)
REMARK    1  A    between atoms: C_5  and  C_6 
REMARK    2  A    between atoms: C_5  and  C_8 
ROOT
HETATM    1  O   UNK N   1      31.333  14.424   6.639  0.00  0.00    -0.270 OA
HETATM    2  O   UNK N   1      34.880  17.066   7.163  0.00  0.00    -0.247 OA
HETATM    3  N   UNK N   1      32.743  17.587   6.641  0.00  0.00    -0.320 N 
HETATM    4  N   UNK N   1      33.312  15.457   6.976  0.00  0.00    -0.272 N 
HETATM    5  C   UNK N   1      31.493  16.856   6.432  0.00  0.00     0.143 A 
HETATM    6  C   UNK N   1      32.003  15.446   6.694  0.00  0.00     0.260 A 
HETATM    7  C   UNK N   1      33.728  16.721   6.945  0.00  0.00     0.326 A 
HETATM    8  C   UNK N   1      34.132  14.302   7.252  0.00  0.00     0.164 C 
HETATM    9  H   UNK N   1      32.848  18.564   6.572  0.00  0.00     0.165 HD
ENDROOT
BRANCH   5  10
HETATM   10  C   UNK N   1      31.066  17.055   4.967  0.00  0.00     0.042 C 
HETATM   11  C   UNK N   1      32.146  17.665   4.084  0.00  0.00     0.008 C 
ENDBRANCH   5  10
BRANCH   5  12
HETATM   12  C   UNK N   1      30.441  17.308   7.443  0.00  0.00    -0.021 A 
HETATM   13  C   UNK N   1      30.824  18.012   8.600  0.00  0.00     0.010 A 
HETATM   14  C   UNK N   1      29.862  18.482   9.499  0.00  0.00     0.001 A 
HETATM   15  C   UNK N   1      28.506  18.259   9.252  0.00  0.00     0.000 A 
HETATM   16  C   UNK N   1      28.110  17.560   8.109  0.00  0.00     0.001 A 
HETATM   17  C   UNK N   1      29.072  17.089   7.210  0.00  0.00     0.010 A 
ENDBRANCH   5  12
TORSDOF 2
ENDMDL
MODEL 4
REMARK VINA RESULT:      -5.4      7.540      9.893
REMARK  2 active torsions:
REMARK  status: ('A' for Active; 'I' for Inactive)
REMARK    1  A    between atoms: C_5  and  C_6 
REMARK    2  A    between atoms: C_5  and  C_8 
ROOT
HETATM    1  O   UNK N   1      37.573  11.075  13.994  0.00  0.00    -0.270 OA
HETATM    2  O   UNK N   1      34.581  13.712  12.013  0.00  0.00    -0.247 OA
HETATM    3  N   UNK N   1      34.346  12.313  13.773  0.00  0.00    -0.320 N 
HETATM    4  N   UNK N   1      36.329  12.508  12.771  0.00  0.00    -0.272 N 
HETATM    5  C   UNK N   1      35.206  11.397  14.523  0.00  0.00     0.143 A 
HETATM    6  C   UNK N   1      36.505  11.626  13.764  0.00  0.00     0.260 A 
HETATM    7  C   UNK N   1      35.058  12.904  12.795  0.00  0.00     0.326 A 
HETATM    8  C   UNK N   1      37.335  12.944  11.833  0.00  0.00     0.164 C 
HETATM    9  H   UNK N   1      33.392  12.474  13.956  0.00  0.00     0.165 HD
ENDROOT
BRANCH   5  10
HETATM   10  C   UNK N   1      34.664   9.970  14.328  0.00  0.00     0.042 C 
HETATM   11  C   UNK N   1      34.651   9.505  12.878  0.00  0.00     0.008 C 
ENDBRANCH   5  10
BRANCH   5  12
HETATM   12  C   UNK N   1      35.286  11.827  15.987  0.00  0.00    -0.021 A 
HETATM   13  C   UNK N   1      35.142  13.182  16.338  0.00  0.00     0.010 A 
HETATM   14  C   UNK N   1      35.154  13.575  17.680  0.00  0.00     0.001 A 
HETATM   15  C   UNK N   1      35.304  12.620  18.687  0.00  0.00     0.000 A 
HETATM   16  C   UNK N   1      35.450  11.271  18.354  0.00  0.00     0.001 A 
HETATM   17  C   UNK N   1      35.440  10.878  17.012  0.00  0.00     0.010 A 
ENDBRANCH   5  12
TORSDOF 2
ENDMDL
MODEL 5
REMARK VINA RESULT:      -5.4     15.301     16.824
REMARK  2 active torsions:
REMARK  status: ('A' for Active; 'I' for Inactive)
REMARK    1  A    between atoms: C_5  and  C_6 
REMARK    2  A    between atoms: C_5  and  C_8 
ROOT
HETATM    1  O   UNK N   1      28.948  25.018  -6.203  0.00  0.00    -0.270 OA
HETATM    2  O   UNK N   1      26.887  24.047  -2.377  0.00  0.00    -0.247 OA
HETATM    3  N   UNK N   1      26.029  24.665  -4.374  0.00  0.00    -0.320 N 
HETATM    4  N   UNK N   1      28.237  24.468  -4.132  0.00  0.00    -0.272 N 
HETATM    5  C   UNK N   1      26.555  25.016  -5.693  0.00  0.00     0.143 A 
HETATM    6  C   UNK N   1      28.039  24.836  -5.405  0.00  0.00     0.260 A 
HETATM    7  C   UNK N   1      27.046  24.368  -3.544  0.00  0.00     0.326 A 
HETATM    8  C   UNK N   1      29.514  24.233  -3.504  0.00  0.00     0.164 C 
HETATM    9  H   UNK N   1      25.075  24.648  -4.130  0.00  0.00     0.165 HD
ENDROOT
BRANCH   5  10
HETATM   10  C   UNK N   1      26.194  26.484  -5.974  0.00  0.00     0.042 C 
HETATM   11  C   UNK N   1      24.775  26.862  -5.569  0.00  0.00     0.008 C 
ENDBRANCH   5  10
BRANCH   5  12
HETATM   12  C   UNK N   1      26.030  24.043  -6.748  0.00  0.00    -0.021 A 
HETATM   13  C   UNK N   1      26.022  24.406  -8.107  0.00  0.00     0.010 A 
HETATM   14  C   UNK N   1      25.599  23.499  -9.084  0.00  0.00     0.001 A 
HETATM   15  C   UNK N   1      25.184  22.217  -8.715  0.00  0.00     0.000 A 
HETATM   16  C   UNK N   1      25.184  21.844  -7.370  0.00  0.00     0.001 A 
HETATM   17  C   UNK N   1      25.605  22.751  -6.393  0.00  0.00     0.010 A 
ENDBRANCH   5  12
TORSDOF 2
ENDMDL
MODEL 6
REMARK VINA RESULT:      -5.1     10.005     11.490
REMARK  2 active torsions:
REMARK  status: ('A' for Active; 'I' for Inactive)
REMARK    1  A    between atoms: C_5  and  C_6 
REMARK    2  A    between atoms: C_5  and  C_8 
ROOT
HETATM    1  O   UNK N   1      24.074  14.776   7.150  0.00  0.00    -0.270 OA
HETATM    2  O   UNK N   1      19.633  14.968   6.895  0.00  0.00    -0.247 OA
HETATM    3  N   UNK N   1      20.981  13.265   7.517  0.00  0.00    -0.320 N 
HETATM    4  N   UNK N   1      21.873  15.216   6.911  0.00  0.00    -0.272 N 
HETATM    5  C   UNK N   1      22.421  13.043   7.648  0.00  0.00     0.143 A 
HETATM    6  C   UNK N   1      22.906  14.423   7.224  0.00  0.00     0.260 A 
HETATM    7  C   UNK N   1      20.752  14.521   7.093  0.00  0.00     0.326 A 
HETATM    8  C   UNK N   1      21.959  16.578   6.446  0.00  0.00     0.164 C 
HETATM    9  H   UNK N   1      20.284  12.596   7.711  0.00  0.00     0.165 HD
ENDROOT
BRANCH   5  10
HETATM   10  C   UNK N   1      22.827  11.952   6.641  0.00  0.00     0.042 C 
HETATM   11  C   UNK N   1      21.678  11.053   6.205  0.00  0.00     0.008 C 
ENDBRANCH   5  10
BRANCH   5  12
HETATM   12  C   UNK N   1      22.775  12.704   9.095  0.00  0.00    -0.021 A 
HETATM   13  C   UNK N   1      21.760  12.551  10.057  0.00  0.00     0.010 A 
HETATM   14  C   UNK N   1      22.072  12.181  11.369  0.00  0.00     0.001 A 
HETATM   15  C   UNK N   1      23.400  11.955  11.734  0.00  0.00     0.000 A 
HETATM   16  C   UNK N   1      24.419  12.105  10.791  0.00  0.00     0.001 A 
HETATM   17  C   UNK N   1      24.108  12.476   9.479  0.00  0.00     0.010 A 
ENDBRANCH   5  12
TORSDOF 2
ENDMDL
MODEL 7
REMARK VINA RESULT:      -5.1      9.372     11.611
REMARK  2 active torsions:
REMARK  status: ('A' for Active; 'I' for Inactive)
REMARK    1  A    between atoms: C_5  and  C_6 
REMARK    2  A    between atoms: C_5  and  C_8 
ROOT
HETATM    1  O   UNK N   1      21.608  18.680   6.526  0.00  0.00    -0.270 OA
HETATM    2  O   UNK N   1      20.635  15.354   3.730  0.00  0.00    -0.247 OA
HETATM    3  N   UNK N   1      21.357  17.451   3.298  0.00  0.00    -0.320 N 
HETATM    4  N   UNK N   1      21.038  16.804   5.408  0.00  0.00    -0.272 N 
HETATM    5  C   UNK N   1      21.709  18.635   4.082  0.00  0.00     0.143 A 
HETATM    6  C   UNK N   1      21.464  18.072   5.475  0.00  0.00     0.260 A 
HETATM    7  C   UNK N   1      20.986  16.455   4.124  0.00  0.00     0.326 A 
HETATM    8  C   UNK N   1      20.685  15.966   6.527  0.00  0.00     0.164 C 
HETATM    9  H   UNK N   1      21.389  17.391   2.315  0.00  0.00     0.165 HD
ENDROOT
BRANCH   5  10
HETATM   10  C   UNK N   1      20.714  19.753   3.726  0.00  0.00     0.042 C 
HETATM   11  C   UNK N   1      19.688  19.358   2.672  0.00  0.00     0.008 C 
ENDBRANCH   5  10
BRANCH   5  12
HETATM   12  C   UNK N   1      23.169  19.015   3.840  0.00  0.00    -0.021 A 
HETATM   13  C   UNK N   1      23.489  20.171   3.104  0.00  0.00     0.010 A 
HETATM   14  C   UNK N   1      24.822  20.558   2.930  0.00  0.00     0.001 A 
HETATM   15  C   UNK N   1      25.850  19.798   3.493  0.00  0.00     0.000 A 
HETATM   16  C   UNK N   1      25.547  18.647   4.224  0.00  0.00     0.001 A 
HETATM   17  C   UNK N   1      24.215  18.259   4.396  0.00  0.00     0.010 A 
ENDBRANCH   5  12
TORSDOF 2
ENDMDL
MODEL 8
REMARK VINA RESULT:      -5.0     10.391     11.876
REMARK  2 active torsions:
REMARK  status: ('A' for Active; 'I' for Inactive)
REMARK    1  A    between atoms: C_5  and  C_6 
REMARK    2  A    between atoms: C_5  and  C_8 
ROOT
HETATM    1  O   UNK N   1      20.032  13.078   6.472  0.00  0.00    -0.270 OA
HETATM    2  O   UNK N   1      23.136  16.197   5.786  0.00  0.00    -0.247 OA
HETATM    3  N   UNK N   1      22.090  15.581   7.693  0.00  0.00    -0.320 N 
HETATM    4  N   UNK N   1      21.593  14.553   5.777  0.00  0.00    -0.272 N 
HETATM    5  C   UNK N   1      21.071  14.604   8.077  0.00  0.00     0.143 A 
HETATM    6  C   UNK N   1      20.828  13.975   6.712  0.00  0.00     0.260 A 
HETATM    7  C   UNK N   1      22.330  15.489   6.371  0.00  0.00     0.326 A 
HETATM    8  C   UNK N   1      21.608  14.229   4.372  0.00  0.00     0.164 C 
HETATM    9  H   UNK N   1      22.535  16.209   8.308  0.00  0.00     0.165 HD
ENDROOT
BRANCH   5  10
HETATM   10  C   UNK N   1      19.841  15.377   8.585  0.00  0.00     0.042 C 
HETATM   11  C   UNK N   1      20.061  16.879   8.711  0.00  0.00     0.008 C 
ENDBRANCH   5  10
BRANCH   5  12
HETATM   12  C   UNK N   1      21.639  13.619   9.096  0.00  0.00    -0.021 A 
HETATM   13  C   UNK N   1      22.983  13.209   9.014  0.00  0.00     0.010 A 
HETATM   14  C   UNK N   1      23.527  12.355   9.978  0.00  0.00     0.001 A 
HETATM   15  C   UNK N   1      22.738  11.904  11.039  0.00  0.00     0.000 A 
HETATM   16  C   UNK N   1      21.402  12.301  11.132  0.00  0.00     0.001 A 
HETATM   17  C   UNK N   1      20.857  13.153  10.167  0.00  0.00     0.010 A 
ENDBRANCH   5  12
TORSDOF 2
ENDMDL
MODEL 9
REMARK VINA RESULT:      -5.0      9.329     11.720
REMARK  2 active torsions:
REMARK  status: ('A' for Active; 'I' for Inactive)
REMARK    1  A    between atoms: C_5  and  C_6 
REMARK    2  A    between atoms: C_5  and  C_8 
ROOT
HETATM    1  O   UNK N   1      22.757  15.946   3.211  0.00  0.00    -0.270 OA
HETATM    2  O   UNK N   1      19.275  18.690   2.801  0.00  0.00    -0.247 OA
HETATM    3  N   UNK N   1      21.118  18.864   4.097  0.00  0.00    -0.320 N 
HETATM    4  N   UNK N   1      20.867  17.096   2.761  0.00  0.00    -0.272 N 
HETATM    5  C   UNK N   1      22.320  18.068   4.345  0.00  0.00     0.143 A 
HETATM    6  C   UNK N   1      22.039  16.919   3.387  0.00  0.00     0.260 A 
HETATM    7  C   UNK N   1      20.344  18.244   3.186  0.00  0.00     0.326 A 
HETATM    8  C   UNK N   1      20.271  16.196   1.805  0.00  0.00     0.164 C 
HETATM    9  H   UNK N   1      20.907  19.724   4.529  0.00  0.00     0.165 HD
ENDROOT
BRANCH   5  10
HETATM   10  C   UNK N   1      22.294  17.616   5.816  0.00  0.00     0.042 C 
HETATM   11  C   UNK N   1      21.148  18.205   6.626  0.00  0.00     0.008 C 
ENDBRANCH   5  10
BRANCH   5  12
HETATM   12  C   UNK N   1      23.568  18.865   3.972  0.00  0.00    -0.021 A 
HETATM   13  C   UNK N   1      24.841  18.421   4.374  0.00  0.00     0.010 A 
HETATM   14  C   UNK N   1      25.993  19.113   3.985  0.00  0.00     0.001 A 
HETATM   15  C   UNK N   1      25.887  20.252   3.184  0.00  0.00     0.000 A 
HETATM   16  C   UNK N   1      24.630  20.706   2.779  0.00  0.00     0.001 A 
HETATM   17  C   UNK N   1      23.479  20.017   3.170  0.00  0.00     0.010 A 
ENDBRANCH   5  12
TORSDOF 2
ENDMDL
