REMARK  2 active torsions:
REMARK  status: ('A' for Active; 'I' for Inactive)
REMARK    1  A    between atoms: C_5  and  C_6 
REMARK    2  A    between atoms: C_5  and  C_8 
ROOT
HETATM    1  O   UNK N   1       2.166   1.584  -1.385  0.00  0.00    -0.270 OA
HETATM    2  O   UNK N   1       5.865   2.257   1.001  0.00  0.00    -0.247 OA
HETATM    3  N   UNK N   1       4.231   0.717   1.256  0.00  0.00    -0.320 N 
HETATM    4  N   UNK N   1       4.107   2.196  -0.408  0.00  0.00    -0.272 N 
HETATM    5  C   UNK N   1       2.980   0.374   0.579  0.00  0.00     0.143 A 
HETATM    6  C   UNK N   1       3.016   1.427  -0.520  0.00  0.00     0.260 A 
HETATM    7  C   UNK N   1       4.810   1.762   0.636  0.00  0.00     0.326 A 
HETATM    8  C   UNK N   1       4.454   3.307  -1.260  0.00  0.00     0.164 C 
HETATM    9  H   UNK N   1       4.595   0.253   2.045  0.00  0.00     0.165 HD
ENDROOT
BRANCH   5  10
HETATM   10  C   UNK N   1       1.825   0.608   1.568  0.00  0.00     0.042 C 
HETATM   11  C   UNK N   1       0.445   0.596   0.924  0.00  0.00     0.008 C 
ENDBRANCH   5  10
BRANCH   5  12
HETATM   12  C   UNK N   1       3.045  -1.054   0.040  0.00  0.00    -0.021 A 
HETATM   13  C   UNK N   1       4.288  -1.652  -0.238  0.00  0.00     0.010 A 
HETATM   14  C   UNK N   1       4.358  -2.979  -0.674  0.00  0.00     0.001 A 
HETATM   15  C   UNK N   1       3.189  -3.726  -0.832  0.00  0.00     0.000 A 
HETATM   16  C   UNK N   1       1.948  -3.145  -0.562  0.00  0.00     0.001 A 
HETATM   17  C   UNK N   1       1.877  -1.818  -0.128  0.00  0.00     0.010 A 
ENDBRANCH   5  12
TORSDOF 2
