MODEL 1
REMARK VINA RESULT:      -7.0      0.000      0.000
REMARK  3 active torsions:
REMARK  status: ('A' for Active; 'I' for Inactive)
REMARK    1  A    between atoms: S_1  and  C_10 
REMARK    2  A    between atoms: C_6  and  C_7 
REMARK    3  A    between atoms: C_8  and  C_11 
ROOT
HETATM    1  O   UNK N   1      28.592  18.232   7.314  0.00  0.00    -0.313 OA
HETATM    2  O   UNK N   1      28.380  17.784   5.115  0.00  0.00    -0.259 OA
HETATM    3  C   UNK N   1      30.700  17.409   7.573  0.00  0.00    -0.007 A 
HETATM    4  C   UNK N   1      30.377  17.238   6.276  0.00  0.00     0.059 A 
HETATM    5  C   UNK N   1      29.559  18.099   8.300  0.00  0.00     0.219 A 
HETATM    6  C   UNK N   1      29.031  17.746   6.142  0.00  0.00     0.295 A 
ENDROOT
BRANCH   3   7
HETATM    7  C   UNK N   1      31.952  16.984   8.255  0.00  0.00    -0.027 A 
HETATM    8  C   UNK N   1      33.090  17.813   8.319  0.00  0.00     0.013 A 
HETATM    9  C   UNK N   1      34.280  17.330   8.907  0.00  0.00     0.024 A 
HETATM   10  C   UNK N   1      34.307  16.035   9.455  0.00  0.00     0.058 A 
HETATM   11  C   UNK N   1      33.153  15.265   9.455  0.00  0.00     0.024 A 
HETATM   12  C   UNK N   1      31.995  15.737   8.872  0.00  0.00     0.013 A 
BRANCH  10  13
HETATM   13  S   UNK N   1      35.770  15.271  10.151  0.00  0.00     0.171 S 
HETATM   14  O   UNK N   1      35.297  14.706  11.500  0.00  0.00    -0.223 OA
HETATM   15  O   UNK N   1      36.501  16.488  10.733  0.00  0.00    -0.223 OA
HETATM   16  C   UNK N   1      37.147  14.202   9.646  0.00  0.00     0.167 C 
ENDBRANCH  10  13
ENDBRANCH   3   7
BRANCH   4  17
HETATM   17  C   UNK N   1      31.203  16.711   5.133  0.00  0.00    -0.019 A 
HETATM   18  C   UNK N   1      31.307  15.333   4.879  0.00  0.00     0.012 A 
HETATM   19  C   UNK N   1      32.103  14.842   3.845  0.00  0.00     0.001 A 
HETATM   20  C   UNK N   1      32.833  15.726   3.054  0.00  0.00     0.000 A 
HETATM   21  C   UNK N   1      32.773  17.099   3.310  0.00  0.00     0.001 A 
HETATM   22  C   UNK N   1      31.971  17.587   4.350  0.00  0.00     0.012 A 
ENDBRANCH   4  17
TORSDOF 3
ENDMDL
MODEL 2
REMARK VINA RESULT:      -6.8      2.860      4.990
REMARK  3 active torsions:
REMARK  status: ('A' for Active; 'I' for Inactive)
REMARK    1  A    between atoms: S_1  and  C_10 
REMARK    2  A    between atoms: C_6  and  C_7 
REMARK    3  A    between atoms: C_8  and  C_11 
ROOT
HETATM    1  O   UNK N   1      27.151  15.723   2.921  0.00  0.00    -0.313 OA
HETATM    2  O   UNK N   1      25.629  17.363   3.196  0.00  0.00    -0.259 OA
HETATM    3  C   UNK N   1      28.765  16.601   4.266  0.00  0.00    -0.007 A 
HETATM    4  C   UNK N   1      27.726  17.459   4.302  0.00  0.00     0.059 A 
HETATM    5  C   UNK N   1      28.420  15.411   3.388  0.00  0.00     0.219 A 
HETATM    6  C   UNK N   1      26.727  16.893   3.426  0.00  0.00     0.295 A 
ENDROOT
BRANCH   3   7
HETATM    7  C   UNK N   1      30.084  16.753   4.936  0.00  0.00    -0.027 A 
HETATM    8  C   UNK N   1      31.163  17.427   4.328  0.00  0.00     0.013 A 
HETATM    9  C   UNK N   1      32.418  17.473   4.973  0.00  0.00     0.024 A 
HETATM   10  C   UNK N   1      32.571  16.874   6.237  0.00  0.00     0.058 A 
HETATM   11  C   UNK N   1      31.477  16.287   6.855  0.00  0.00     0.024 A 
HETATM   12  C   UNK N   1      30.255  16.236   6.218  0.00  0.00     0.013 A 
BRANCH  10  13
HETATM   13  S   UNK N   1      34.125  16.786   7.123  0.00  0.00     0.171 S 
HETATM   14  O   UNK N   1      34.647  18.232   7.117  0.00  0.00    -0.223 OA
HETATM   15  O   UNK N   1      35.070  16.270   6.030  0.00  0.00    -0.223 OA
HETATM   16  C   UNK N   1      34.824  16.036   8.620  0.00  0.00     0.167 C 
ENDBRANCH  10  13
ENDBRANCH   3   7
BRANCH   4  17
HETATM   17  C   UNK N   1      27.535  18.716   5.108  0.00  0.00    -0.019 A 
HETATM   18  C   UNK N   1      27.284  19.951   4.489  0.00  0.00     0.012 A 
HETATM   19  C   UNK N   1      27.145  21.123   5.231  0.00  0.00     0.001 A 
HETATM   20  C   UNK N   1      27.277  21.082   6.618  0.00  0.00     0.000 A 
HETATM   21  C   UNK N   1      27.560  19.870   7.253  0.00  0.00     0.001 A 
HETATM   22  C   UNK N   1      27.699  18.696   6.501  0.00  0.00     0.012 A 
ENDBRANCH   4  17
TORSDOF 3
ENDMDL
MODEL 3
REMARK VINA RESULT:      -6.6      7.602     10.361
REMARK  3 active torsions:
REMARK  status: ('A' for Active; 'I' for Inactive)
REMARK    1  A    between atoms: S_1  and  C_10 
REMARK    2  A    between atoms: C_6  and  C_7 
REMARK    3  A    between atoms: C_8  and  C_11 
ROOT
HETATM    1  O   UNK N   1      22.736  20.640   2.340  0.00  0.00    -0.313 OA
HETATM    2  O   UNK N   1      24.938  21.120   2.261  0.00  0.00    -0.259 OA
HETATM    3  C   UNK N   1      22.844  19.068   3.984  0.00  0.00    -0.007 A 
HETATM    4  C   UNK N   1      24.104  19.503   3.786  0.00  0.00     0.059 A 
HETATM    5  C   UNK N   1      21.891  19.817   3.070  0.00  0.00     0.219 A 
HETATM    6  C   UNK N   1      24.013  20.481   2.726  0.00  0.00     0.295 A 
ENDROOT
BRANCH   3   7
HETATM    7  C   UNK N   1      22.395  17.999   4.917  0.00  0.00    -0.027 A 
HETATM    8  C   UNK N   1      21.533  18.262   6.000  0.00  0.00     0.013 A 
HETATM    9  C   UNK N   1      21.202  17.229   6.904  0.00  0.00     0.024 A 
HETATM   10  C   UNK N   1      21.711  15.934   6.693  0.00  0.00     0.058 A 
HETATM   11  C   UNK N   1      22.492  15.677   5.576  0.00  0.00     0.024 A 
HETATM   12  C   UNK N   1      22.820  16.691   4.700  0.00  0.00     0.013 A 
BRANCH  10  13
HETATM   13  S   UNK N   1      21.440  14.557   7.807  0.00  0.00     0.171 S 
HETATM   14  O   UNK N   1      22.416  13.476   7.316  0.00  0.00    -0.223 OA
HETATM   15  O   UNK N   1      20.180  13.923   7.206  0.00  0.00    -0.223 OA
HETATM   16  C   UNK N   1      21.225  14.232   9.579  0.00  0.00     0.167 C 
ENDBRANCH  10  13
ENDBRANCH   3   7
BRANCH   4  17
HETATM   17  C   UNK N   1      25.375  19.157   4.514  0.00  0.00    -0.019 A 
HETATM   18  C   UNK N   1      25.961  20.050   5.427  0.00  0.00     0.012 A 
HETATM   19  C   UNK N   1      27.159  19.748   6.073  0.00  0.00     0.001 A 
HETATM   20  C   UNK N   1      27.809  18.546   5.799  0.00  0.00     0.000 A 
HETATM   21  C   UNK N   1      27.262  17.657   4.869  0.00  0.00     0.001 A 
HETATM   22  C   UNK N   1      26.058  17.966   4.223  0.00  0.00     0.012 A 
ENDBRANCH   4  17
TORSDOF 3
ENDMDL
MODEL 4
REMARK VINA RESULT:      -6.6     12.855     15.344
REMARK  3 active torsions:
REMARK  status: ('A' for Active; 'I' for Inactive)
REMARK    1  A    between atoms: S_1  and  C_10 
REMARK    2  A    between atoms: C_6  and  C_7 
REMARK    3  A    between atoms: C_8  and  C_11 
ROOT
HETATM    1  O   UNK N   1      25.899  27.896  -4.104  0.00  0.00    -0.313 OA
HETATM    2  O   UNK N   1      24.287  27.277  -5.554  0.00  0.00    -0.259 OA
HETATM    3  C   UNK N   1      27.269  26.103  -4.415  0.00  0.00    -0.007 A 
HETATM    4  C   UNK N   1      26.209  25.923  -5.230  0.00  0.00     0.059 A 
HETATM    5  C   UNK N   1      27.127  27.418  -3.670  0.00  0.00     0.219 A 
HETATM    6  C   UNK N   1      25.347  27.059  -4.998  0.00  0.00     0.295 A 
ENDROOT
BRANCH   3   7
HETATM    7  C   UNK N   1      28.416  25.179  -4.212  0.00  0.00    -0.027 A 
HETATM    8  C   UNK N   1      29.648  25.353  -4.876  0.00  0.00     0.013 A 
HETATM    9  C   UNK N   1      30.678  24.401  -4.710  0.00  0.00     0.024 A 
HETATM   10  C   UNK N   1      30.476  23.304  -3.853  0.00  0.00     0.058 A 
HETATM   11  C   UNK N   1      29.288  23.194  -3.146  0.00  0.00     0.024 A 
HETATM   12  C   UNK N   1      28.281  24.120  -3.317  0.00  0.00     0.013 A 
BRANCH  10  13
HETATM   13  S   UNK N   1      31.664  21.984  -3.620  0.00  0.00     0.171 S 
HETATM   14  O   UNK N   1      30.825  20.699  -3.709  0.00  0.00    -0.223 OA
HETATM   15  O   UNK N   1      31.813  21.974  -2.093  0.00  0.00    -0.223 OA
HETATM   16  C   UNK N   1      33.326  21.503  -4.169  0.00  0.00     0.167 C 
ENDBRANCH  10  13
ENDBRANCH   3   7
BRANCH   4  17
HETATM   17  C   UNK N   1      25.939  24.845  -6.245  0.00  0.00    -0.019 A 
HETATM   18  C   UNK N   1      25.804  23.499  -5.864  0.00  0.00     0.012 A 
HETATM   19  C   UNK N   1      25.593  22.494  -6.806  0.00  0.00     0.001 A 
HETATM   20  C   UNK N   1      25.533  22.817  -8.160  0.00  0.00     0.000 A 
HETATM   21  C   UNK N   1      25.699  24.144  -8.565  0.00  0.00     0.001 A 
HETATM   22  C   UNK N   1      25.911  25.150  -7.614  0.00  0.00     0.012 A 
ENDBRANCH   4  17
TORSDOF 3
ENDMDL
MODEL 5
REMARK VINA RESULT:      -6.6     14.218     17.545
REMARK  3 active torsions:
REMARK  status: ('A' for Active; 'I' for Inactive)
REMARK    1  A    between atoms: S_1  and  C_10 
REMARK    2  A    between atoms: C_6  and  C_7 
REMARK    3  A    between atoms: C_8  and  C_11 
ROOT
HETATM    1  O   UNK N   1      25.089  27.954  -4.350  0.00  0.00    -0.313 OA
HETATM    2  O   UNK N   1      26.569  27.886  -2.650  0.00  0.00    -0.259 OA
HETATM    3  C   UNK N   1      25.783  26.062  -5.410  0.00  0.00    -0.007 A 
HETATM    4  C   UNK N   1      26.565  26.200  -4.321  0.00  0.00     0.059 A 
HETATM    5  C   UNK N   1      24.762  27.184  -5.457  0.00  0.00     0.219 A 
HETATM    6  C   UNK N   1      26.121  27.417  -3.679  0.00  0.00     0.295 A 
ENDROOT
BRANCH   3   7
HETATM    7  C   UNK N   1      25.875  25.010  -6.458  0.00  0.00    -0.027 A 
HETATM    8  C   UNK N   1      25.773  23.637  -6.155  0.00  0.00     0.013 A 
HETATM    9  C   UNK N   1      25.948  22.676  -7.175  0.00  0.00     0.024 A 
HETATM   10  C   UNK N   1      26.190  23.101  -8.494  0.00  0.00     0.058 A 
HETATM   11  C   UNK N   1      26.207  24.457  -8.787  0.00  0.00     0.024 A 
HETATM   12  C   UNK N   1      26.044  25.393  -7.787  0.00  0.00     0.013 A 
BRANCH  10  13
HETATM   13  S   UNK N   1      26.515  21.990  -9.861  0.00  0.00     0.171 S 
HETATM   14  O   UNK N   1      25.632  22.523 -11.001  0.00  0.00    -0.223 OA
HETATM   15  O   UNK N   1      25.618  20.799  -9.505  0.00  0.00    -0.223 OA
HETATM   16  C   UNK N   1      27.916  21.182 -10.685  0.00  0.00     0.167 C 
ENDBRANCH  10  13
ENDBRANCH   3   7
BRANCH   4  17
HETATM   17  C   UNK N   1      27.637  25.295  -3.776  0.00  0.00    -0.019 A 
HETATM   18  C   UNK N   1      28.991  25.489  -4.097  0.00  0.00     0.012 A 
HETATM   19  C   UNK N   1      29.982  24.629  -3.625  0.00  0.00     0.001 A 
HETATM   20  C   UNK N   1      29.630  23.537  -2.834  0.00  0.00     0.000 A 
HETATM   21  C   UNK N   1      28.286  23.305  -2.529  0.00  0.00     0.001 A 
HETATM   22  C   UNK N   1      27.295  24.173  -3.006  0.00  0.00     0.012 A 
ENDBRANCH   4  17
TORSDOF 3
ENDMDL
MODEL 6
REMARK VINA RESULT:      -6.5      7.510     11.895
REMARK  3 active torsions:
REMARK  status: ('A' for Active; 'I' for Inactive)
REMARK    1  A    between atoms: S_1  and  C_10 
REMARK    2  A    between atoms: C_6  and  C_7 
REMARK    3  A    between atoms: C_8  and  C_11 
ROOT
HETATM    1  O   UNK N   1      35.149  13.256  19.764  0.00  0.00    -0.313 OA
HETATM    2  O   UNK N   1      35.465  11.171  20.561  0.00  0.00    -0.259 OA
HETATM    3  C   UNK N   1      35.359  12.752  17.553  0.00  0.00    -0.007 A 
HETATM    4  C   UNK N   1      35.512  11.595  18.227  0.00  0.00     0.059 A 
HETATM    5  C   UNK N   1      35.080  13.882  18.527  0.00  0.00     0.219 A 
HETATM    6  C   UNK N   1      35.398  11.943  19.624  0.00  0.00     0.295 A 
ENDROOT
BRANCH   3   7
HETATM    7  C   UNK N   1      35.464  12.961  16.084  0.00  0.00    -0.027 A 
HETATM    8  C   UNK N   1      36.443  13.798  15.512  0.00  0.00     0.013 A 
HETATM    9  C   UNK N   1      36.449  14.025  14.118  0.00  0.00     0.024 A 
HETATM   10  C   UNK N   1      35.494  13.385  13.307  0.00  0.00     0.058 A 
HETATM   11  C   UNK N   1      34.589  12.502  13.878  0.00  0.00     0.024 A 
HETATM   12  C   UNK N   1      34.582  12.288  15.241  0.00  0.00     0.013 A 
BRANCH  10  13
HETATM   13  S   UNK N   1      35.336  13.652  11.543  0.00  0.00     0.171 S 
HETATM   14  O   UNK N   1      36.462  14.643  11.208  0.00  0.00    -0.223 OA
HETATM   15  O   UNK N   1      34.198  14.678  11.491  0.00  0.00    -0.223 OA
HETATM   16  C   UNK N   1      35.069  12.705  10.018  0.00  0.00     0.167 C 
ENDBRANCH  10  13
ENDBRANCH   3   7
BRANCH   4  17
HETATM   17  C   UNK N   1      35.691  10.191  17.714  0.00  0.00    -0.019 A 
HETATM   18  C   UNK N   1      36.777   9.845  16.892  0.00  0.00     0.012 A 
HETATM   19  C   UNK N   1      36.924   8.555  16.384  0.00  0.00     0.001 A 
HETATM   20  C   UNK N   1      35.966   7.585  16.674  0.00  0.00     0.000 A 
HETATM   21  C   UNK N   1      34.860   7.915  17.462  0.00  0.00     0.001 A 
HETATM   22  C   UNK N   1      34.718   9.213  17.969  0.00  0.00     0.012 A 
ENDBRANCH   4  17
TORSDOF 3
ENDMDL
MODEL 7
REMARK VINA RESULT:      -6.3     15.485     17.599
REMARK  3 active torsions:
REMARK  status: ('A' for Active; 'I' for Inactive)
REMARK    1  A    between atoms: S_1  and  C_10 
REMARK    2  A    between atoms: C_6  and  C_7 
REMARK    3  A    between atoms: C_8  and  C_11 
ROOT
HETATM    1  O   UNK N   1      26.535  28.784  -2.872  0.00  0.00    -0.313 OA
HETATM    2  O   UNK N   1      28.731  29.217  -2.599  0.00  0.00    -0.259 OA
HETATM    3  C   UNK N   1      26.764  27.049  -4.330  0.00  0.00    -0.007 A 
HETATM    4  C   UNK N   1      28.010  27.461  -4.024  0.00  0.00     0.059 A 
HETATM    5  C   UNK N   1      25.747  27.875  -3.563  0.00  0.00     0.219 A 
HETATM    6  C   UNK N   1      27.839  28.573  -3.118  0.00  0.00     0.295 A 
ENDROOT
BRANCH   3   7
HETATM    7  C   UNK N   1      26.378  25.977  -5.285  0.00  0.00    -0.027 A 
HETATM    8  C   UNK N   1      26.245  24.630  -4.890  0.00  0.00     0.013 A 
HETATM    9  C   UNK N   1      25.955  23.639  -5.853  0.00  0.00     0.024 A 
HETATM   10  C   UNK N   1      25.768  24.011  -7.197  0.00  0.00     0.058 A 
HETATM   11  C   UNK N   1      25.823  25.351  -7.552  0.00  0.00     0.024 A 
HETATM   12  C   UNK N   1      26.114  26.315  -6.611  0.00  0.00     0.013 A 
BRANCH  10  13
HETATM   13  S   UNK N   1      25.482  22.847  -8.528  0.00  0.00     0.171 S 
HETATM   14  O   UNK N   1      25.047  23.726  -9.712  0.00  0.00    -0.223 OA
HETATM   15  O   UNK N   1      24.079  22.332  -8.186  0.00  0.00    -0.223 OA
HETATM   16  C   UNK N   1      26.254  21.387  -9.280  0.00  0.00     0.167 C 
ENDBRANCH  10  13
ENDBRANCH   3   7
BRANCH   4  17
HETATM   17  C   UNK N   1      29.345  26.896  -4.431  0.00  0.00    -0.019 A 
HETATM   18  C   UNK N   1      29.926  27.211  -5.671  0.00  0.00     0.012 A 
HETATM   19  C   UNK N   1      31.143  26.658  -6.066  0.00  0.00     0.001 A 
HETATM   20  C   UNK N   1      31.796  25.755  -5.230  0.00  0.00     0.000 A 
HETATM   21  C   UNK N   1      31.221  25.400  -4.007  0.00  0.00     0.001 A 
HETATM   22  C   UNK N   1      29.997  25.959  -3.614  0.00  0.00     0.012 A 
ENDBRANCH   4  17
TORSDOF 3
ENDMDL
MODEL 8
REMARK VINA RESULT:      -6.3      3.558      6.554
REMARK  3 active torsions:
REMARK  status: ('A' for Active; 'I' for Inactive)
REMARK    1  A    between atoms: S_1  and  C_10 
REMARK    2  A    between atoms: C_6  and  C_7 
REMARK    3  A    between atoms: C_8  and  C_11 
ROOT
HETATM    1  O   UNK N   1      32.796  18.254   8.682  0.00  0.00    -0.313 OA
HETATM    2  O   UNK N   1      34.599  18.108   7.336  0.00  0.00    -0.259 OA
HETATM    3  C   UNK N   1      31.281  17.371   7.228  0.00  0.00    -0.007 A 
HETATM    4  C   UNK N   1      32.470  17.364   6.594  0.00  0.00     0.059 A 
HETATM    5  C   UNK N   1      31.449  17.921   8.633  0.00  0.00     0.219 A 
HETATM    6  C   UNK N   1      33.408  17.948   7.526  0.00  0.00     0.295 A 
ENDROOT
BRANCH   3   7
HETATM    7  C   UNK N   1      29.965  16.947   6.680  0.00  0.00    -0.027 A 
HETATM    8  C   UNK N   1      29.784  15.705   6.036  0.00  0.00     0.013 A 
HETATM    9  C   UNK N   1      28.535  15.385   5.462  0.00  0.00     0.024 A 
HETATM   10  C   UNK N   1      27.469  16.297   5.568  0.00  0.00     0.058 A 
HETATM   11  C   UNK N   1      27.642  17.477   6.276  0.00  0.00     0.024 A 
HETATM   12  C   UNK N   1      28.867  17.791   6.828  0.00  0.00     0.013 A 
BRANCH  10  13
HETATM   13  S   UNK N   1      25.862  16.053   4.814  0.00  0.00     0.171 S 
HETATM   14  O   UNK N   1      25.650  14.531   4.858  0.00  0.00    -0.223 OA
HETATM   15  O   UNK N   1      26.213  16.123   3.322  0.00  0.00    -0.223 OA
HETATM   16  C   UNK N   1      24.194  16.765   4.849  0.00  0.00     0.167 C 
ENDBRANCH  10  13
ENDBRANCH   3   7
BRANCH   4  17
HETATM   17  C   UNK N   1      32.845  16.819   5.242  0.00  0.00    -0.019 A 
HETATM   18  C   UNK N   1      32.421  17.444   4.058  0.00  0.00     0.012 A 
HETATM   19  C   UNK N   1      32.734  16.918   2.805  0.00  0.00     0.001 A 
HETATM   20  C   UNK N   1      33.465  15.736   2.714  0.00  0.00     0.000 A 
HETATM   21  C   UNK N   1      33.869  15.078   3.880  0.00  0.00     0.001 A 
HETATM   22  C   UNK N   1      33.552  15.611   5.136  0.00  0.00     0.012 A 
ENDBRANCH   4  17
TORSDOF 3
ENDMDL
MODEL 9
REMARK VINA RESULT:      -6.2      1.548      3.819
REMARK  3 active torsions:
REMARK  status: ('A' for Active; 'I' for Inactive)
REMARK    1  A    between atoms: S_1  and  C_10 
REMARK    2  A    between atoms: C_6  and  C_7 
REMARK    3  A    between atoms: C_8  and  C_11 
ROOT
HETATM    1  O   UNK N   1      31.479  16.909   3.898  0.00  0.00    -0.313 OA
HETATM    2  O   UNK N   1      29.447  17.809   4.275  0.00  0.00    -0.259 OA
HETATM    3  C   UNK N   1      32.076  16.625   6.078  0.00  0.00    -0.007 A 
HETATM    4  C   UNK N   1      30.840  17.164   6.085  0.00  0.00     0.059 A 
HETATM    5  C   UNK N   1      32.532  16.403   4.647  0.00  0.00     0.219 A 
HETATM    6  C   UNK N   1      30.494  17.355   4.695  0.00  0.00     0.295 A 
ENDROOT
BRANCH   3   7
HETATM    7  C   UNK N   1      32.924  16.301   7.256  0.00  0.00    -0.027 A 
HETATM    8  C   UNK N   1      32.774  15.103   7.984  0.00  0.00     0.013 A 
HETATM    9  C   UNK N   1      33.550  14.881   9.143  0.00  0.00     0.024 A 
HETATM   10  C   UNK N   1      34.493  15.846   9.541  0.00  0.00     0.058 A 
HETATM   11  C   UNK N   1      34.684  16.981   8.766  0.00  0.00     0.024 A 
HETATM   12  C   UNK N   1      33.918  17.198   7.640  0.00  0.00     0.013 A 
BRANCH  10  13
HETATM   13  S   UNK N   1      35.478  15.729  11.032  0.00  0.00     0.171 S 
HETATM   14  O   UNK N   1      35.304  17.097  11.710  0.00  0.00    -0.223 OA
HETATM   15  O   UNK N   1      36.887  15.996  10.489  0.00  0.00    -0.223 OA
HETATM   16  C   UNK N   1      35.804  14.567  12.388  0.00  0.00     0.167 C 
ENDBRANCH  10  13
ENDBRANCH   3   7
BRANCH   4  17
HETATM   17  C   UNK N   1      29.919  17.464   7.238  0.00  0.00    -0.019 A 
HETATM   18  C   UNK N   1      30.357  18.202   8.350  0.00  0.00     0.012 A 
HETATM   19  C   UNK N   1      29.518  18.447   9.436  0.00  0.00     0.001 A 
HETATM   20  C   UNK N   1      28.222  17.936   9.438  0.00  0.00     0.000 A 
HETATM   21  C   UNK N   1      27.776  17.170   8.358  0.00  0.00     0.001 A 
HETATM   22  C   UNK N   1      28.624  16.927   7.269  0.00  0.00     0.012 A 
ENDBRANCH   4  17
TORSDOF 3
ENDMDL
