REMARK  5 active torsions:
REMARK  status: ('A' for Active; 'I' for Inactive)
REMARK    1  A    between atoms: Hg_1  and  C_9 
REMARK    2  A    between atoms: O_3  and  C_7 
REMARK    3  A    between atoms: N_5  and  C_8 
REMARK       I    between atoms: N_5  and  C_10 
REMARK       I    between atoms: N_6  and  C_10 
REMARK    4  A    between atoms: C_7  and  C_8 
REMARK    5  A    between atoms: C_7  and  C_9 
ROOT
HETATM    1  O   UNK N   1       1.805  -0.523  -0.793  0.00  0.00    -0.248 OA
HETATM    2  N   UNK N   1       3.366  -1.695   0.317  0.00  0.00    -0.341 N 
HETATM    3  N   UNK N   1       1.089  -1.891   0.800  0.00  0.00    -0.352 N 
HETATM    4  C   UNK N   1       2.079  -1.334   0.075  0.00  0.00     0.313 C 
HETATM    5  H   UNK N   1       3.535  -2.349   1.033  0.00  0.00     0.164 HD
HETATM    6  H   UNK N   1       0.374  -1.468   1.329  0.00  0.00     0.160 HD
HETATM    7  H   UNK N   1       1.078  -2.876   0.800  0.00  0.00     0.160 HD
ENDROOT
BRANCH   2   8
HETATM    8  C   UNK N   1       4.506  -1.176  -0.414  0.00  0.00     0.156 C 
BRANCH   8   9
HETATM    9  C   UNK N   1       4.783   0.284  -0.071  0.00  0.00     0.137 C 
BRANCH   9  10
HETATM   10  O   UNK N   1       6.156   0.527  -0.161  0.00  0.00    -0.389 OA
HETATM   11  C   UNK N   1       6.467   1.310   0.952  0.00  0.00     0.202 C 
ENDBRANCH   9  10
BRANCH   9  12
HETATM   12  C   UNK N   1       4.060   1.177  -1.062  0.00  0.00     0.032 C 
BRANCH  12  13
HETATM   13 Hg   UNK N   1       3.430   2.972  -0.194  0.00  0.00     0.150 Hg
HETATM   14 Cl   UNK N   1       2.328   4.932   0.551  0.00  0.00    -0.143 Cl
ENDBRANCH  12  13
ENDBRANCH   9  12
ENDBRANCH   8   9
ENDBRANCH   2   8
TORSDOF 5
