MODEL 1
REMARK VINA RESULT:      -4.4      0.000      0.000
REMARK  5 active torsions:
REMARK  status: ('A' for Active; 'I' for Inactive)
REMARK    1  A    between atoms: Hg_1  and  C_9 
REMARK    2  A    between atoms: O_3  and  C_7 
REMARK    3  A    between atoms: N_5  and  C_8 
REMARK       I    between atoms: N_5  and  C_10 
REMARK       I    between atoms: N_6  and  C_10 
REMARK    4  A    between atoms: C_7  and  C_8 
REMARK    5  A    between atoms: C_7  and  C_9 
ROOT
HETATM    1  O   UNK N   1      20.595  16.193   0.411  0.00  0.00    -0.248 OA
HETATM    2  N   UNK N   1      19.440  17.829   1.428  0.00  0.00    -0.341 N 
HETATM    3  N   UNK N   1      18.509  16.520  -0.268  0.00  0.00    -0.352 N 
HETATM    4  C   UNK N   1      19.559  16.826   0.519  0.00  0.00     0.313 C 
HETATM    5  H   UNK N   1      18.585  18.313   1.471  0.00  0.00     0.164 HD
HETATM    6  H   UNK N   1      18.447  16.460  -1.249  0.00  0.00     0.160 HD
HETATM    7  H   UNK N   1      17.672  16.325   0.214  0.00  0.00     0.160 HD
ENDROOT
BRANCH   2   8
HETATM    8  C   UNK N   1      20.497  18.229   2.337  0.00  0.00     0.156 C 
BRANCH   8   9
HETATM    9  C   UNK N   1      20.331  19.673   2.798  0.00  0.00     0.137 C 
BRANCH   9  10
HETATM   10  O   UNK N   1      20.937  19.832   4.047  0.00  0.00    -0.389 OA
HETATM   11  C   UNK N   1      21.184  18.537   4.506  0.00  0.00     0.202 C 
ENDBRANCH   9  10
BRANCH   9  12
HETATM   12  C   UNK N   1      21.009  20.597   1.803  0.00  0.00     0.032 C 
BRANCH  12  13
HETATM   13 Hg   UNK N   1      23.058  20.791   2.175  0.00  0.00     0.150 Hg
HETATM   14 Cl   UNK N   1      25.389  20.556   2.520  0.00  0.00    -0.143 Cl
ENDBRANCH  12  13
ENDBRANCH   9  12
ENDBRANCH   8   9
ENDBRANCH   2   8
TORSDOF 5
ENDMDL
MODEL 2
REMARK VINA RESULT:      -4.2     15.822     16.903
REMARK  5 active torsions:
REMARK  status: ('A' for Active; 'I' for Inactive)
REMARK    1  A    between atoms: Hg_1  and  C_9 
REMARK    2  A    between atoms: O_3  and  C_7 
REMARK    3  A    between atoms: N_5  and  C_8 
REMARK       I    between atoms: N_5  and  C_10 
REMARK       I    between atoms: N_6  and  C_10 
REMARK    4  A    between atoms: C_7  and  C_8 
REMARK    5  A    between atoms: C_7  and  C_9 
ROOT
HETATM    1  O   UNK N   1      35.257  13.760  12.108  0.00  0.00    -0.248 OA
HETATM    2  N   UNK N   1      36.334  15.628  11.482  0.00  0.00    -0.341 N 
HETATM    3  N   UNK N   1      36.635  14.669  13.591  0.00  0.00    -0.352 N 
HETATM    4  C   UNK N   1      36.040  14.653  12.381  0.00  0.00     0.313 C 
HETATM    5  H   UNK N   1      36.968  16.330  11.753  0.00  0.00     0.164 HD
HETATM    6  H   UNK N   1      36.240  14.650  14.493  0.00  0.00     0.160 HD
HETATM    7  H   UNK N   1      37.619  14.703  13.569  0.00  0.00     0.160 HD
ENDROOT
BRANCH   2   8
HETATM    8  C   UNK N   1      35.770  15.698  10.148  0.00  0.00     0.156 C 
BRANCH   8   9
HETATM    9  C   UNK N   1      34.755  16.830  10.019  0.00  0.00     0.137 C 
BRANCH   9  10
HETATM   10  O   UNK N   1      35.372  17.939   9.436  0.00  0.00    -0.389 OA
HETATM   11  C   UNK N   1      34.602  18.243   8.313  0.00  0.00     0.202 C 
ENDBRANCH   9  10
BRANCH   9  12
HETATM   12  C   UNK N   1      33.612  16.379   9.129  0.00  0.00     0.032 C 
BRANCH  12  13
HETATM   13 Hg   UNK N   1      31.827  17.374   9.570  0.00  0.00     0.150 Hg
HETATM   14 Cl   UNK N   1      29.871  18.706   9.661  0.00  0.00    -0.143 Cl
ENDBRANCH  12  13
ENDBRANCH   9  12
ENDBRANCH   8   9
ENDBRANCH   2   8
TORSDOF 5
ENDMDL
MODEL 3
REMARK VINA RESULT:      -4.2     11.610     12.710
REMARK  5 active torsions:
REMARK  status: ('A' for Active; 'I' for Inactive)
REMARK    1  A    between atoms: Hg_1  and  C_9 
REMARK    2  A    between atoms: O_3  and  C_7 
REMARK    3  A    between atoms: N_5  and  C_8 
REMARK       I    between atoms: N_5  and  C_10 
REMARK       I    between atoms: N_6  and  C_10 
REMARK    4  A    between atoms: C_7  and  C_8 
REMARK    5  A    between atoms: C_7  and  C_9 
ROOT
HETATM    1  O   UNK N   1      34.431  18.074   6.668  0.00  0.00    -0.248 OA
HETATM    2  N   UNK N   1      32.916  17.913   8.317  0.00  0.00    -0.341 N 
HETATM    3  N   UNK N   1      35.034  18.835   8.662  0.00  0.00    -0.352 N 
HETATM    4  C   UNK N   1      34.138  18.262   7.836  0.00  0.00     0.313 C 
HETATM    5  H   UNK N   1      32.731  18.079   9.270  0.00  0.00     0.164 HD
HETATM    6  H   UNK N   1      35.963  18.579   8.868  0.00  0.00     0.160 HD
HETATM    7  H   UNK N   1      34.711  19.638   9.133  0.00  0.00     0.160 HD
ENDROOT
BRANCH   2   8
HETATM    8  C   UNK N   1      31.870  17.309   7.515  0.00  0.00     0.156 C 
BRANCH   8   9
HETATM    9  C   UNK N   1      30.502  17.435   8.179  0.00  0.00     0.137 C 
BRANCH   9  10
HETATM   10  O   UNK N   1      30.417  18.668   8.831  0.00  0.00    -0.389 OA
HETATM   11  C   UNK N   1      29.474  18.487   9.844  0.00  0.00     0.202 C 
ENDBRANCH   9  10
BRANCH   9  12
HETATM   12  C   UNK N   1      29.422  17.364   7.117  0.00  0.00     0.032 C 
BRANCH  12  13
HETATM   13 Hg   UNK N   1      28.447  19.196   6.859  0.00  0.00     0.150 Hg
HETATM   14 Cl   UNK N   1      27.585  21.294   6.176  0.00  0.00    -0.143 Cl
ENDBRANCH  12  13
ENDBRANCH   9  12
ENDBRANCH   8   9
ENDBRANCH   2   8
TORSDOF 5
ENDMDL
MODEL 4
REMARK VINA RESULT:      -4.1     18.504     19.585
REMARK  5 active torsions:
REMARK  status: ('A' for Active; 'I' for Inactive)
REMARK    1  A    between atoms: Hg_1  and  C_9 
REMARK    2  A    between atoms: O_3  and  C_7 
REMARK    3  A    between atoms: N_5  and  C_8 
REMARK       I    between atoms: N_5  and  C_10 
REMARK       I    between atoms: N_6  and  C_10 
REMARK    4  A    between atoms: C_7  and  C_8 
REMARK    5  A    between atoms: C_7  and  C_9 
ROOT
HETATM    1  O   UNK N   1      34.253  14.996  11.016  0.00  0.00    -0.248 OA
HETATM    2  N   UNK N   1      36.210  15.314  12.071  0.00  0.00    -0.341 N 
HETATM    3  N   UNK N   1      35.168  17.010  10.849  0.00  0.00    -0.352 N 
HETATM    4  C   UNK N   1      35.177  15.740  11.299  0.00  0.00     0.313 C 
HETATM    5  H   UNK N   1      36.934  15.951  12.266  0.00  0.00     0.164 HD
HETATM    6  H   UNK N   1      35.083  17.358   9.932  0.00  0.00     0.160 HD
HETATM    7  H   UNK N   1      35.262  17.699  11.548  0.00  0.00     0.160 HD
ENDROOT
BRANCH   2   8
HETATM    8  C   UNK N   1      36.312  13.977  12.625  0.00  0.00     0.156 C 
BRANCH   8   9
HETATM    9  C   UNK N   1      35.726  13.900  14.031  0.00  0.00     0.137 C 
BRANCH   9  10
HETATM   10  O   UNK N   1      34.687  12.966  14.047  0.00  0.00    -0.389 OA
HETATM   11  C   UNK N   1      34.913  12.141  12.944  0.00  0.00     0.202 C 
ENDBRANCH   9  10
BRANCH   9  12
HETATM   12  C   UNK N   1      36.804  13.452  14.999  0.00  0.00     0.032 C 
BRANCH  12  13
HETATM   13 Hg   UNK N   1      36.126  13.420  16.977  0.00  0.00     0.150 Hg
HETATM   14 Cl   UNK N   1      35.201  12.963  19.110  0.00  0.00    -0.143 Cl
ENDBRANCH  12  13
ENDBRANCH   9  12
ENDBRANCH   8   9
ENDBRANCH   2   8
TORSDOF 5
ENDMDL
MODEL 5
REMARK VINA RESULT:      -4.1      7.041      8.016
REMARK  5 active torsions:
REMARK  status: ('A' for Active; 'I' for Inactive)
REMARK    1  A    between atoms: Hg_1  and  C_9 
REMARK    2  A    between atoms: O_3  and  C_7 
REMARK    3  A    between atoms: N_5  and  C_8 
REMARK       I    between atoms: N_5  and  C_10 
REMARK       I    between atoms: N_6  and  C_10 
REMARK    4  A    between atoms: C_7  and  C_8 
REMARK    5  A    between atoms: C_7  and  C_9 
ROOT
HETATM    1  O   UNK N   1      20.184  19.297   9.787  0.00  0.00    -0.248 OA
HETATM    2  N   UNK N   1      18.582  17.801   9.300  0.00  0.00    -0.341 N 
HETATM    3  N   UNK N   1      18.272  19.476  10.899  0.00  0.00    -0.352 N 
HETATM    4  C   UNK N   1      19.060  18.871   9.988  0.00  0.00     0.313 C 
HETATM    5  H   UNK N   1      17.670  17.492   9.504  0.00  0.00     0.164 HD
HETATM    6  H   UNK N   1      18.438  19.675  11.849  0.00  0.00     0.160 HD
HETATM    7  H   UNK N   1      17.394  19.767  10.560  0.00  0.00     0.160 HD
ENDROOT
BRANCH   2   8
HETATM    8  C   UNK N   1      19.332  17.087   8.286  0.00  0.00     0.156 C 
BRANCH   8   9
HETATM    9  C   UNK N   1      20.187  15.977   8.888  0.00  0.00     0.137 C 
BRANCH   9  10
HETATM   10  O   UNK N   1      19.390  14.852   9.115  0.00  0.00    -0.389 OA
HETATM   11  C   UNK N   1      20.203  13.957   9.812  0.00  0.00     0.202 C 
ENDBRANCH   9  10
BRANCH   9  12
HETATM   12  C   UNK N   1      21.291  15.609   7.914  0.00  0.00     0.032 C 
BRANCH  12  13
HETATM   13 Hg   UNK N   1      21.164  16.695   6.131  0.00  0.00     0.150 Hg
HETATM   14 Cl   UNK N   1      20.917  18.280   4.388  0.00  0.00    -0.143 Cl
ENDBRANCH  12  13
ENDBRANCH   9  12
ENDBRANCH   8   9
ENDBRANCH   2   8
TORSDOF 5
ENDMDL
MODEL 6
REMARK VINA RESULT:      -3.9     17.058     18.191
REMARK  5 active torsions:
REMARK  status: ('A' for Active; 'I' for Inactive)
REMARK    1  A    between atoms: Hg_1  and  C_9 
REMARK    2  A    between atoms: O_3  and  C_7 
REMARK    3  A    between atoms: N_5  and  C_8 
REMARK       I    between atoms: N_5  and  C_10 
REMARK       I    between atoms: N_6  and  C_10 
REMARK    4  A    between atoms: C_7  and  C_8 
REMARK    5  A    between atoms: C_7  and  C_9 
ROOT
HETATM    1  O   UNK N   1      35.137  13.672  13.974  0.00  0.00    -0.248 OA
HETATM    2  N   UNK N   1      36.834  14.146  12.582  0.00  0.00    -0.341 N 
HETATM    3  N   UNK N   1      37.135  13.969  14.892  0.00  0.00    -0.352 N 
HETATM    4  C   UNK N   1      36.320  13.923  13.820  0.00  0.00     0.313 C 
HETATM    5  H   UNK N   1      37.794  14.351  12.511  0.00  0.00     0.164 HD
HETATM    6  H   UNK N   1      37.064  14.496  15.721  0.00  0.00     0.160 HD
HETATM    7  H   UNK N   1      37.925  13.383  14.838  0.00  0.00     0.160 HD
ENDROOT
BRANCH   2   8
HETATM    8  C   UNK N   1      36.055  14.102  11.359  0.00  0.00     0.156 C 
BRANCH   8   9
HETATM    9  C   UNK N   1      36.165  15.402  10.569  0.00  0.00     0.137 C 
BRANCH   9  10
HETATM   10  O   UNK N   1      35.633  15.212   9.291  0.00  0.00    -0.389 OA
HETATM   11  C   UNK N   1      34.483  14.443   9.480  0.00  0.00     0.202 C 
ENDBRANCH   9  10
BRANCH   9  12
HETATM   12  C   UNK N   1      35.372  16.485  11.275  0.00  0.00     0.032 C 
BRANCH  12  13
HETATM   13 Hg   UNK N   1      34.012  17.429   9.997  0.00  0.00     0.150 Hg
HETATM   14 Cl   UNK N   1      32.247  18.095   8.564  0.00  0.00    -0.143 Cl
ENDBRANCH  12  13
ENDBRANCH   9  12
ENDBRANCH   8   9
ENDBRANCH   2   8
TORSDOF 5
ENDMDL
MODEL 7
REMARK VINA RESULT:      -3.9     13.618     14.613
REMARK  5 active torsions:
REMARK  status: ('A' for Active; 'I' for Inactive)
REMARK    1  A    between atoms: Hg_1  and  C_9 
REMARK    2  A    between atoms: O_3  and  C_7 
REMARK    3  A    between atoms: N_5  and  C_8 
REMARK       I    between atoms: N_5  and  C_10 
REMARK       I    between atoms: N_6  and  C_10 
REMARK    4  A    between atoms: C_7  and  C_8 
REMARK    5  A    between atoms: C_7  and  C_9 
ROOT
HETATM    1  O   UNK N   1      35.167  15.072   9.401  0.00  0.00    -0.248 OA
HETATM    2  N   UNK N   1      33.783  16.833   9.562  0.00  0.00    -0.341 N 
HETATM    3  N   UNK N   1      33.551  14.943  10.915  0.00  0.00    -0.352 N 
HETATM    4  C   UNK N   1      34.204  15.596   9.933  0.00  0.00     0.313 C 
HETATM    5  H   UNK N   1      32.997  17.210  10.019  0.00  0.00     0.164 HD
HETATM    6  H   UNK N   1      33.148  14.044  10.921  0.00  0.00     0.160 HD
HETATM    7  H   UNK N   1      33.463  15.442  11.759  0.00  0.00     0.160 HD
ENDROOT
BRANCH   2   8
HETATM    8  C   UNK N   1      34.422  17.633   8.535  0.00  0.00     0.156 C 
BRANCH   8   9
HETATM    9  C   UNK N   1      33.472  17.937   7.381  0.00  0.00     0.137 C 
BRANCH   9  10
HETATM   10  O   UNK N   1      34.180  17.895   6.177  0.00  0.00    -0.389 OA
HETATM   11  C   UNK N   1      34.107  16.568   5.751  0.00  0.00     0.202 C 
ENDBRANCH   9  10
BRANCH   9  12
HETATM   12  C   UNK N   1      32.377  16.887   7.344  0.00  0.00     0.032 C 
BRANCH  12  13
HETATM   13 Hg   UNK N   1      30.568  17.606   8.108  0.00  0.00     0.150 Hg
HETATM   14 Cl   UNK N   1      28.770  18.521   9.348  0.00  0.00    -0.143 Cl
ENDBRANCH  12  13
ENDBRANCH   9  12
ENDBRANCH   8   9
ENDBRANCH   2   8
TORSDOF 5
ENDMDL
MODEL 8
REMARK VINA RESULT:      -3.9     18.445     19.429
REMARK  5 active torsions:
REMARK  status: ('A' for Active; 'I' for Inactive)
REMARK    1  A    between atoms: Hg_1  and  C_9 
REMARK    2  A    between atoms: O_3  and  C_7 
REMARK    3  A    between atoms: N_5  and  C_8 
REMARK       I    between atoms: N_5  and  C_10 
REMARK       I    between atoms: N_6  and  C_10 
REMARK    4  A    between atoms: C_7  and  C_8 
REMARK    5  A    between atoms: C_7  and  C_9 
ROOT
HETATM    1  O   UNK N   1      35.068  13.574  14.277  0.00  0.00    -0.248 OA
HETATM    2  N   UNK N   1      36.681  14.648  13.143  0.00  0.00    -0.341 N 
HETATM    3  N   UNK N   1      37.145  13.340  15.021  0.00  0.00    -0.352 N 
HETATM    4  C   UNK N   1      36.249  13.848  14.152  0.00  0.00     0.313 C 
HETATM    5  H   UNK N   1      37.644  14.845  13.089  0.00  0.00     0.164 HD
HETATM    6  H   UNK N   1      37.171  13.385  16.005  0.00  0.00     0.160 HD
HETATM    7  H   UNK N   1      37.890  12.845  14.608  0.00  0.00     0.160 HD
ENDROOT
BRANCH   2   8
HETATM    8  C   UNK N   1      35.811  15.232  12.140  0.00  0.00     0.156 C 
BRANCH   8   9
HETATM    9  C   UNK N   1      35.916  14.504  10.804  0.00  0.00     0.137 C 
BRANCH   9  10
HETATM   10  O   UNK N   1      36.979  13.599  10.854  0.00  0.00    -0.389 OA
HETATM   11  C   UNK N   1      37.828  13.967   9.809  0.00  0.00     0.202 C 
ENDBRANCH   9  10
BRANCH   9  12
HETATM   12  C   UNK N   1      34.631  13.739  10.548  0.00  0.00     0.032 C 
BRANCH  12  13
HETATM   13 Hg   UNK N   1      34.164  12.434  12.113  0.00  0.00     0.150 Hg
HETATM   14 Cl   UNK N   1      33.790  10.628  13.600  0.00  0.00    -0.143 Cl
ENDBRANCH  12  13
ENDBRANCH   9  12
ENDBRANCH   8   9
ENDBRANCH   2   8
TORSDOF 5
ENDMDL
MODEL 9
REMARK VINA RESULT:      -3.9      3.731      4.027
REMARK  5 active torsions:
REMARK  status: ('A' for Active; 'I' for Inactive)
REMARK    1  A    between atoms: Hg_1  and  C_9 
REMARK    2  A    between atoms: O_3  and  C_7 
REMARK    3  A    between atoms: N_5  and  C_8 
REMARK       I    between atoms: N_5  and  C_10 
REMARK       I    between atoms: N_6  and  C_10 
REMARK    4  A    between atoms: C_7  and  C_8 
REMARK    5  A    between atoms: C_7  and  C_9 
ROOT
HETATM    1  O   UNK N   1      20.371  17.308  -0.199  0.00  0.00    -0.248 OA
HETATM    2  N   UNK N   1      19.665  16.204   1.624  0.00  0.00    -0.341 N 
HETATM    3  N   UNK N   1      18.352  16.393  -0.298  0.00  0.00    -0.352 N 
HETATM    4  C   UNK N   1      19.498  16.664   0.357  0.00  0.00     0.313 C 
HETATM    5  H   UNK N   1      18.928  15.695   2.031  0.00  0.00     0.164 HD
HETATM    6  H   UNK N   1      17.715  17.000  -0.740  0.00  0.00     0.160 HD
HETATM    7  H   UNK N   1      18.116  15.438  -0.344  0.00  0.00     0.160 HD
ENDROOT
BRANCH   2   8
HETATM    8  C   UNK N   1      20.862  16.418   2.415  0.00  0.00     0.156 C 
BRANCH   8   9
HETATM    9  C   UNK N   1      20.560  17.158   3.714  0.00  0.00     0.137 C 
BRANCH   9  10
HETATM   10  O   UNK N   1      20.111  18.447   3.418  0.00  0.00    -0.389 OA
HETATM   11  C   UNK N   1      21.247  19.153   3.019  0.00  0.00     0.202 C 
ENDBRANCH   9  10
BRANCH   9  12
HETATM   12  C   UNK N   1      19.470  16.419   4.468  0.00  0.00     0.032 C 
BRANCH  12  13
HETATM   13 Hg   UNK N   1      19.979  16.089   6.469  0.00  0.00     0.150 Hg
HETATM   14 Cl   UNK N   1      20.624  16.172   8.747  0.00  0.00    -0.143 Cl
ENDBRANCH  12  13
ENDBRANCH   9  12
ENDBRANCH   8   9
ENDBRANCH   2   8
TORSDOF 5
ENDMDL
