MODEL 1
REMARK VINA RESULT:      -5.6      0.000      0.000
REMARK  5 active torsions:
REMARK  status: ('A' for Active; 'I' for Inactive)
REMARK    1  A    between atoms: N_4  and  C_5 
REMARK    2  A    between atoms: N_4  and  C_9 
REMARK    3  A    between atoms: C_5  and  C_6 
REMARK    4  A    between atoms: C_6  and  C_7 
REMARK    5  A    between atoms: C_12  and  C_16 
ROOT
HETATM    1  C   UNK N   1      35.353  12.891  17.025  0.00  0.00    -0.056 A 
HETATM    2  C   UNK N   1      35.267  11.500  16.952  0.00  0.00     0.023 A 
HETATM    3  C   UNK N   1      35.325  13.519  18.282  0.00  0.00     0.007 A 
HETATM    4  C   UNK N   1      35.147  10.727  18.112  0.00  0.00     0.048 A 
HETATM    5  C   UNK N   1      35.208  12.755  19.446  0.00  0.00     0.001 A 
HETATM    6  C   UNK N   1      35.118  11.362  19.364  0.00  0.00     0.016 A 
ENDROOT
BRANCH   1   7
HETATM    7  C   UNK N   1      35.455  13.665  15.742  0.00  0.00     0.062 C 
BRANCH   7   8
HETATM    8  C   UNK N   1      36.871  13.982  15.273  0.00  0.00     0.076 C 
HETATM    9  C   UNK N   1      37.321  15.309  15.869  0.00  0.00     0.032 C 
BRANCH   8  10
HETATM   10  N   UNK N   1      36.866  14.087  13.823  0.00  0.00    -0.417 N 
HETATM   11  H   UNK N   1      37.638  14.413  13.240  0.00  0.00     0.153 HD
BRANCH  10  12
HETATM   12  C   UNK N   1      35.564  13.646  13.350  0.00  0.00     0.110 C 
HETATM   13  C   UNK N   1      35.231  14.350  12.052  0.00  0.00     0.026 C 
ENDBRANCH  10  12
ENDBRANCH   8  10
ENDBRANCH   7   8
ENDBRANCH   1   7
BRANCH   4  14
HETATM   14  C   UNK N   1      35.044   9.236  17.999  0.00  0.00     0.417 C 
HETATM   15  F   UNK N   1      33.852   8.813  18.559  0.00  0.00    -0.166 F 
HETATM   16  F   UNK N   1      35.087   8.828  16.678  0.00  0.00    -0.166 F 
HETATM   17  F   UNK N   1      36.096   8.649  18.682  0.00  0.00    -0.166 F 
ENDBRANCH   4  14
TORSDOF 5
ENDMDL
MODEL 2
REMARK VINA RESULT:      -5.5     10.927     13.015
REMARK  5 active torsions:
REMARK  status: ('A' for Active; 'I' for Inactive)
REMARK    1  A    between atoms: N_4  and  C_5 
REMARK    2  A    between atoms: N_4  and  C_9 
REMARK    3  A    between atoms: C_5  and  C_6 
REMARK    4  A    between atoms: C_6  and  C_7 
REMARK    5  A    between atoms: C_12  and  C_16 
ROOT
HETATM    1  C   UNK N   1      30.642  17.253   6.415  0.00  0.00    -0.056 A 
HETATM    2  C   UNK N   1      31.668  17.303   7.359  0.00  0.00     0.023 A 
HETATM    3  C   UNK N   1      30.958  17.335   5.047  0.00  0.00     0.007 A 
HETATM    4  C   UNK N   1      33.002  17.440   6.961  0.00  0.00     0.048 A 
HETATM    5  C   UNK N   1      32.288  17.468   4.641  0.00  0.00     0.001 A 
HETATM    6  C   UNK N   1      33.310  17.522   5.594  0.00  0.00     0.016 A 
ENDROOT
BRANCH   1   7
HETATM    7  C   UNK N   1      29.228  17.131   6.907  0.00  0.00     0.062 C 
BRANCH   7   8
HETATM    8  C   UNK N   1      28.628  18.397   7.510  0.00  0.00     0.076 C 
HETATM    9  C   UNK N   1      28.302  18.159   8.979  0.00  0.00     0.032 C 
BRANCH   8  10
HETATM   10  N   UNK N   1      27.403  18.714   6.794  0.00  0.00    -0.417 N 
HETATM   11  H   UNK N   1      26.470  18.363   7.012  0.00  0.00     0.153 HD
BRANCH  10  12
HETATM   12  C   UNK N   1      27.744  19.621   5.711  0.00  0.00     0.110 C 
HETATM   13  C   UNK N   1      27.503  21.050   6.151  0.00  0.00     0.026 C 
ENDBRANCH  10  12
ENDBRANCH   8  10
ENDBRANCH   7   8
ENDBRANCH   1   7
BRANCH   4  14
HETATM   14  C   UNK N   1      34.081  17.503   8.001  0.00  0.00     0.417 C 
HETATM   15  F   UNK N   1      33.513  17.408   9.259  0.00  0.00    -0.166 F 
HETATM   16  F   UNK N   1      34.992  16.475   7.843  0.00  0.00    -0.166 F 
HETATM   17  F   UNK N   1      34.748  18.712   7.898  0.00  0.00    -0.166 F 
ENDBRANCH   4  14
TORSDOF 5
ENDMDL
MODEL 3
REMARK VINA RESULT:      -5.5      1.754      2.505
REMARK  5 active torsions:
REMARK  status: ('A' for Active; 'I' for Inactive)
REMARK    1  A    between atoms: N_4  and  C_5 
REMARK    2  A    between atoms: N_4  and  C_9 
REMARK    3  A    between atoms: C_5  and  C_6 
REMARK    4  A    between atoms: C_6  and  C_7 
REMARK    5  A    between atoms: C_12  and  C_16 
ROOT
HETATM    1  C   UNK N   1      35.193  12.172  16.157  0.00  0.00    -0.056 A 
HETATM    2  C   UNK N   1      35.252  12.413  17.530  0.00  0.00     0.023 A 
HETATM    3  C   UNK N   1      35.049  10.853  15.693  0.00  0.00     0.007 A 
HETATM    4  C   UNK N   1      35.174  11.359  18.447  0.00  0.00     0.048 A 
HETATM    5  C   UNK N   1      34.968   9.795  16.602  0.00  0.00     0.001 A 
HETATM    6  C   UNK N   1      35.031  10.044  17.976  0.00  0.00     0.016 A 
ENDROOT
BRANCH   1   7
HETATM    7  C   UNK N   1      35.307  13.344  15.225  0.00  0.00     0.062 C 
BRANCH   7   8
HETATM    8  C   UNK N   1      36.727  13.749  14.843  0.00  0.00     0.076 C 
HETATM    9  C   UNK N   1      37.181  14.910  15.718  0.00  0.00     0.032 C 
BRANCH   8  10
HETATM   10  N   UNK N   1      36.730  14.170  13.451  0.00  0.00    -0.417 N 
HETATM   11  H   UNK N   1      37.467  14.700  12.984  0.00  0.00     0.153 HD
BRANCH  10  12
HETATM   12  C   UNK N   1      35.496  13.701  12.843  0.00  0.00     0.110 C 
HETATM   13  C   UNK N   1      35.088  14.645  11.732  0.00  0.00     0.026 C 
ENDBRANCH  10  12
ENDBRANCH   8  10
ENDBRANCH   7   8
ENDBRANCH   1   7
BRANCH   4  14
HETATM   14  C   UNK N   1      35.253  11.650  19.916  0.00  0.00     0.417 C 
HETATM   15  F   UNK N   1      34.930  12.976  20.140  0.00  0.00    -0.166 F 
HETATM   16  F   UNK N   1      34.382  10.850  20.633  0.00  0.00    -0.166 F 
HETATM   17  F   UNK N   1      36.543  11.418  20.362  0.00  0.00    -0.166 F 
ENDBRANCH   4  14
TORSDOF 5
ENDMDL
MODEL 4
REMARK VINA RESULT:      -5.5      7.996     11.238
REMARK  5 active torsions:
REMARK  status: ('A' for Active; 'I' for Inactive)
REMARK    1  A    between atoms: N_4  and  C_5 
REMARK    2  A    between atoms: N_4  and  C_9 
REMARK    3  A    between atoms: C_5  and  C_6 
REMARK    4  A    between atoms: C_6  and  C_7 
REMARK    5  A    between atoms: C_12  and  C_16 
ROOT
HETATM    1  C   UNK N   1      32.509  17.716   7.654  0.00  0.00    -0.056 A 
HETATM    2  C   UNK N   1      31.574  18.024   8.643  0.00  0.00     0.023 A 
HETATM    3  C   UNK N   1      32.068  17.182   6.430  0.00  0.00     0.007 A 
HETATM    4  C   UNK N   1      30.209  17.803   8.433  0.00  0.00     0.048 A 
HETATM    5  C   UNK N   1      30.706  16.962   6.210  0.00  0.00     0.001 A 
HETATM    6  C   UNK N   1      29.777  17.269   7.208  0.00  0.00     0.016 A 
ENDROOT
BRANCH   1   7
HETATM    7  C   UNK N   1      33.962  17.953   7.951  0.00  0.00     0.062 C 
BRANCH   7   8
HETATM    8  C   UNK N   1      34.685  16.814   8.661  0.00  0.00     0.076 C 
HETATM    9  C   UNK N   1      34.031  15.487   8.298  0.00  0.00     0.032 C 
BRANCH   8  10
HETATM   10  N   UNK N   1      34.578  17.021  10.097  0.00  0.00    -0.417 N 
HETATM   11  H   UNK N   1      34.480  17.920  10.569  0.00  0.00     0.153 HD
BRANCH  10  12
HETATM   12  C   UNK N   1      34.635  15.718  10.739  0.00  0.00     0.110 C 
HETATM   13  C   UNK N   1      35.840  15.656  11.654  0.00  0.00     0.026 C 
ENDBRANCH  10  12
ENDBRANCH   8  10
ENDBRANCH   7   8
ENDBRANCH   1   7
BRANCH   4  14
HETATM   14  C   UNK N   1      29.231  18.133   9.520  0.00  0.00     0.417 C 
HETATM   15  F   UNK N   1      28.084  18.667   8.961  0.00  0.00    -0.166 F 
HETATM   16  F   UNK N   1      28.891  17.007  10.249  0.00  0.00    -0.166 F 
HETATM   17  F   UNK N   1      29.792  19.066  10.375  0.00  0.00    -0.166 F 
ENDBRANCH   4  14
TORSDOF 5
ENDMDL
MODEL 5
REMARK VINA RESULT:      -5.3      1.786      2.657
REMARK  5 active torsions:
REMARK  status: ('A' for Active; 'I' for Inactive)
REMARK    1  A    between atoms: N_4  and  C_5 
REMARK    2  A    between atoms: N_4  and  C_9 
REMARK    3  A    between atoms: C_5  and  C_6 
REMARK    4  A    between atoms: C_6  and  C_7 
REMARK    5  A    between atoms: C_12  and  C_16 
ROOT
HETATM    1  C   UNK N   1      35.590  12.230  16.559  0.00  0.00    -0.056 A 
HETATM    2  C   UNK N   1      35.509  11.281  17.578  0.00  0.00     0.023 A 
HETATM    3  C   UNK N   1      35.456  13.593  16.874  0.00  0.00     0.007 A 
HETATM    4  C   UNK N   1      35.290  11.669  18.904  0.00  0.00     0.048 A 
HETATM    5  C   UNK N   1      35.241  13.991  18.196  0.00  0.00     0.001 A 
HETATM    6  C   UNK N   1      35.156  13.032  19.211  0.00  0.00     0.016 A 
ENDROOT
BRANCH   1   7
HETATM    7  C   UNK N   1      35.802  11.747  15.153  0.00  0.00     0.062 C 
BRANCH   7   8
HETATM    8  C   UNK N   1      34.627  11.950  14.202  0.00  0.00     0.076 C 
HETATM    9  C   UNK N   1      33.768  10.693  14.173  0.00  0.00     0.032 C 
BRANCH   8  10
HETATM   10  N   UNK N   1      35.150  12.201  12.868  0.00  0.00    -0.417 N 
HETATM   11  H   UNK N   1      34.764  11.845  11.993  0.00  0.00     0.153 HD
BRANCH  10  12
HETATM   12  C   UNK N   1      36.321  13.051  13.003  0.00  0.00     0.110 C 
HETATM   13  C   UNK N   1      35.937  14.491  12.733  0.00  0.00     0.026 C 
ENDBRANCH  10  12
ENDBRANCH   8  10
ENDBRANCH   7   8
ENDBRANCH   1   7
BRANCH   4  14
HETATM   14  C   UNK N   1      35.196  10.623  19.975  0.00  0.00     0.417 C 
HETATM   15  F   UNK N   1      34.802   9.423  19.411  0.00  0.00    -0.166 F 
HETATM   16  F   UNK N   1      36.412  10.442  20.609  0.00  0.00    -0.166 F 
HETATM   17  F   UNK N   1      34.256  11.011  20.914  0.00  0.00    -0.166 F 
ENDBRANCH   4  14
TORSDOF 5
ENDMDL
MODEL 6
REMARK VINA RESULT:      -5.3     27.805     28.986
REMARK  5 active torsions:
REMARK  status: ('A' for Active; 'I' for Inactive)
REMARK    1  A    between atoms: N_4  and  C_5 
REMARK    2  A    between atoms: N_4  and  C_9 
REMARK    3  A    between atoms: C_5  and  C_6 
REMARK    4  A    between atoms: C_6  and  C_7 
REMARK    5  A    between atoms: C_12  and  C_16 
ROOT
HETATM    1  C   UNK N   1      26.692  26.988  -7.147  0.00  0.00    -0.056 A 
HETATM    2  C   UNK N   1      26.264  27.401  -5.885  0.00  0.00     0.023 A 
HETATM    3  C   UNK N   1      27.714  27.702  -7.797  0.00  0.00     0.007 A 
HETATM    4  C   UNK N   1      26.834  28.518  -5.265  0.00  0.00     0.048 A 
HETATM    5  C   UNK N   1      28.291  28.816  -7.184  0.00  0.00     0.001 A 
HETATM    6  C   UNK N   1      27.853  29.226  -5.921  0.00  0.00     0.016 A 
ENDROOT
BRANCH   1   7
HETATM    7  C   UNK N   1      26.022  25.797  -7.770  0.00  0.00     0.062 C 
BRANCH   7   8
HETATM    8  C   UNK N   1      25.997  24.533  -6.917  0.00  0.00     0.076 C 
HETATM    9  C   UNK N   1      27.406  23.965  -6.804  0.00  0.00     0.032 C 
BRANCH   8  10
HETATM   10  N   UNK N   1      25.138  23.554  -7.565  0.00  0.00    -0.417 N 
HETATM   11  H   UNK N   1      24.452  23.745  -8.296  0.00  0.00     0.153 HD
BRANCH  10  12
HETATM   12  C   UNK N   1      25.430  22.254  -6.984  0.00  0.00     0.110 C 
HETATM   13  C   UNK N   1      25.263  21.179  -8.037  0.00  0.00     0.026 C 
ENDBRANCH  10  12
ENDBRANCH   8  10
ENDBRANCH   7   8
ENDBRANCH   1   7
BRANCH   4  14
HETATM   14  C   UNK N   1      26.343  28.944  -3.914  0.00  0.00     0.417 C 
HETATM   15  F   UNK N   1      27.343  28.751  -2.979  0.00  0.00    -0.166 F 
HETATM   16  F   UNK N   1      25.978  30.278  -3.909  0.00  0.00    -0.166 F 
HETATM   17  F   UNK N   1      25.243  28.179  -3.563  0.00  0.00    -0.166 F 
ENDBRANCH   4  14
TORSDOF 5
ENDMDL
MODEL 7
REMARK VINA RESULT:      -5.2     24.023     26.444
REMARK  5 active torsions:
REMARK  status: ('A' for Active; 'I' for Inactive)
REMARK    1  A    between atoms: N_4  and  C_5 
REMARK    2  A    between atoms: N_4  and  C_9 
REMARK    3  A    between atoms: C_5  and  C_6 
REMARK    4  A    between atoms: C_6  and  C_7 
REMARK    5  A    between atoms: C_12  and  C_16 
ROOT
HETATM    1  C   UNK N   1      27.999  24.711  -4.515  0.00  0.00    -0.056 A 
HETATM    2  C   UNK N   1      27.329  25.930  -4.403  0.00  0.00     0.023 A 
HETATM    3  C   UNK N   1      27.459  23.699  -5.328  0.00  0.00     0.007 A 
HETATM    4  C   UNK N   1      26.128  26.153  -5.085  0.00  0.00     0.048 A 
HETATM    5  C   UNK N   1      26.262  23.915  -6.015  0.00  0.00     0.001 A 
HETATM    6  C   UNK N   1      25.595  25.137  -5.894  0.00  0.00     0.016 A 
ENDROOT
BRANCH   1   7
HETATM    7  C   UNK N   1      29.271  24.526  -3.738  0.00  0.00     0.062 C 
BRANCH   7   8
HETATM    8  C   UNK N   1      29.415  23.190  -3.017  0.00  0.00     0.076 C 
HETATM    9  C   UNK N   1      28.470  23.149  -1.823  0.00  0.00     0.032 C 
BRANCH   8  10
HETATM   10  N   UNK N   1      30.785  23.063  -2.546  0.00  0.00    -0.417 N 
HETATM   11  H   UNK N   1      31.167  23.467  -1.690  0.00  0.00     0.153 HD
BRANCH  10  12
HETATM   12  C   UNK N   1      31.514  22.260  -3.513  0.00  0.00     0.110 C 
HETATM   13  C   UNK N   1      30.761  20.972  -3.773  0.00  0.00     0.026 C 
ENDBRANCH  10  12
ENDBRANCH   8  10
ENDBRANCH   7   8
ENDBRANCH   1   7
BRANCH   4  14
HETATM   14  C   UNK N   1      25.426  27.470  -4.934  0.00  0.00     0.417 C 
HETATM   15  F   UNK N   1      25.233  27.736  -3.591  0.00  0.00    -0.166 F 
HETATM   16  F   UNK N   1      26.162  28.498  -5.493  0.00  0.00    -0.166 F 
HETATM   17  F   UNK N   1      24.194  27.408  -5.563  0.00  0.00    -0.166 F 
ENDBRANCH   4  14
TORSDOF 5
ENDMDL
MODEL 8
REMARK VINA RESULT:      -5.2      3.986      6.458
REMARK  5 active torsions:
REMARK  status: ('A' for Active; 'I' for Inactive)
REMARK    1  A    between atoms: N_4  and  C_5 
REMARK    2  A    between atoms: N_4  and  C_9 
REMARK    3  A    between atoms: C_5  and  C_6 
REMARK    4  A    between atoms: C_6  and  C_7 
REMARK    5  A    between atoms: C_12  and  C_16 
ROOT
HETATM    1  C   UNK N   1      35.232  10.421  19.613  0.00  0.00    -0.056 A 
HETATM    2  C   UNK N   1      35.024  11.709  19.119  0.00  0.00     0.023 A 
HETATM    3  C   UNK N   1      35.837   9.455  18.789  0.00  0.00     0.007 A 
HETATM    4  C   UNK N   1      35.405  12.047  17.816  0.00  0.00     0.048 A 
HETATM    5  C   UNK N   1      36.224   9.785  17.488  0.00  0.00     0.001 A 
HETATM    6  C   UNK N   1      36.008  11.078  17.000  0.00  0.00     0.016 A 
ENDROOT
BRANCH   1   7
HETATM    7  C   UNK N   1      34.778  10.114  21.011  0.00  0.00     0.062 C 
BRANCH   7   8
HETATM    8  C   UNK N   1      33.269  10.057  21.218  0.00  0.00     0.076 C 
HETATM    9  C   UNK N   1      32.923  10.569  22.610  0.00  0.00     0.032 C 
BRANCH   8  10
HETATM   10  N   UNK N   1      32.836   8.674  21.096  0.00  0.00    -0.417 N 
HETATM   11  H   UNK N   1      33.082   7.909  21.725  0.00  0.00     0.153 HD
BRANCH  10  12
HETATM   12  C   UNK N   1      31.990   8.576  19.918  0.00  0.00     0.110 C 
HETATM   13  C   UNK N   1      30.709   7.852  20.273  0.00  0.00     0.026 C 
ENDBRANCH  10  12
ENDBRANCH   8  10
ENDBRANCH   7   8
ENDBRANCH   1   7
BRANCH   4  14
HETATM   14  C   UNK N   1      35.157  13.437  17.311  0.00  0.00     0.417 C 
HETATM   15  F   UNK N   1      33.999  13.452  16.555  0.00  0.00    -0.166 F 
HETATM   16  F   UNK N   1      35.020  14.334  18.355  0.00  0.00    -0.166 F 
HETATM   17  F   UNK N   1      36.219  13.834  16.517  0.00  0.00    -0.166 F 
ENDBRANCH   4  14
TORSDOF 5
ENDMDL
MODEL 9
REMARK VINA RESULT:      -5.2     23.974     26.939
REMARK  5 active torsions:
REMARK  status: ('A' for Active; 'I' for Inactive)
REMARK    1  A    between atoms: N_4  and  C_5 
REMARK    2  A    between atoms: N_4  and  C_9 
REMARK    3  A    between atoms: C_5  and  C_6 
REMARK    4  A    between atoms: C_6  and  C_7 
REMARK    5  A    between atoms: C_12  and  C_16 
ROOT
HETATM    1  C   UNK N   1      27.164  24.351  -4.217  0.00  0.00    -0.056 A 
HETATM    2  C   UNK N   1      26.620  25.633  -4.144  0.00  0.00     0.023 A 
HETATM    3  C   UNK N   1      26.929  23.565  -5.359  0.00  0.00     0.007 A 
HETATM    4  C   UNK N   1      25.840  26.142  -5.188  0.00  0.00     0.048 A 
HETATM    5  C   UNK N   1      26.155  24.066  -6.408  0.00  0.00     0.001 A 
HETATM    6  C   UNK N   1      25.610  25.351  -6.325  0.00  0.00     0.016 A 
ENDROOT
BRANCH   1   7
HETATM    7  C   UNK N   1      27.971  23.854  -3.051  0.00  0.00     0.062 C 
BRANCH   7   8
HETATM    8  C   UNK N   1      29.453  23.622  -3.325  0.00  0.00     0.076 C 
HETATM    9  C   UNK N   1      30.082  22.889  -2.148  0.00  0.00     0.032 C 
BRANCH   8  10
HETATM   10  N   UNK N   1      30.101  24.914  -3.485  0.00  0.00    -0.417 N 
HETATM   11  H   UNK N   1      30.081  25.685  -2.816  0.00  0.00     0.153 HD
BRANCH  10  12
HETATM   12  C   UNK N   1      30.782  24.913  -4.768  0.00  0.00     0.110 C 
HETATM   13  C   UNK N   1      30.091  25.876  -5.711  0.00  0.00     0.026 C 
ENDBRANCH  10  12
ENDBRANCH   8  10
ENDBRANCH   7   8
ENDBRANCH   1   7
BRANCH   4  14
HETATM   14  C   UNK N   1      25.259  27.519  -5.074  0.00  0.00     0.417 C 
HETATM   15  F   UNK N   1      24.034  27.556  -5.714  0.00  0.00    -0.166 F 
HETATM   16  F   UNK N   1      25.083  27.882  -3.751  0.00  0.00    -0.166 F 
HETATM   17  F   UNK N   1      26.111  28.429  -5.677  0.00  0.00    -0.166 F 
ENDBRANCH   4  14
TORSDOF 5
ENDMDL
