MODEL 1
REMARK VINA RESULT:      -7.1      0.000      0.000
REMARK  4 active torsions:
REMARK  status: ('A' for Active; 'I' for Inactive)
REMARK    1  A    between atoms: S_1  and  N_7 
REMARK    2  A    between atoms: S_1  and  C_12 
REMARK    3  A    between atoms: C_8  and  C_9 
REMARK    4  A    between atoms: C_10  and  C_15 
ROOT
HETATM    1  O   UNK N   1      28.447  18.036   6.916  0.00  0.00    -0.241 OA
HETATM    2  N   UNK N   1      28.966  17.580   5.814  0.00  0.00    -0.259 N 
ATOM      3  HN  UNK N   1      28.511  17.553   4.902  1.00  0.00     0.195 HD
HETATM    4  C   UNK N   1      30.447  17.335   7.456  0.00  0.00     0.035 A 
HETATM    5  C   UNK N   1      30.216  17.148   6.091  0.00  0.00     0.078 A 
HETATM    6  C   UNK N   1      29.290  17.931   7.920  0.00  0.00     0.086 A 
HETATM    7  C   UNK N   1      28.982  18.349   9.314  0.00  0.00     0.079 C 
ENDROOT
BRANCH   4   8
HETATM    8  C   UNK N   1      31.663  16.986   8.228  0.00  0.00    -0.021 A 
HETATM    9  C   UNK N   1      31.726  15.759   8.893  0.00  0.00     0.014 A 
HETATM   10  C   UNK N   1      32.900  15.329   9.493  0.00  0.00     0.026 A 
HETATM   11  C   UNK N   1      34.069  16.134   9.440  0.00  0.00     0.079 A 
HETATM   12  C   UNK N   1      33.976  17.400   8.839  0.00  0.00     0.026 A 
HETATM   13  C   UNK N   1      32.778  17.832   8.249  0.00  0.00     0.014 A 
BRANCH  11  14
HETATM   14  S   UNK N   1      35.731  15.603  10.051  0.00  0.00     0.256 S 
HETATM   15  O   UNK N   1      34.744  14.905  11.006  0.00  0.00    -0.201 OA
HETATM   16  O   UNK N   1      35.602  17.085  10.435  0.00  0.00    -0.201 OA
BRANCH  14  17
HETATM   17  N   UNK N   1      36.508  15.719  11.631  0.00  0.00    -0.324 N 
HETATM   18  H   UNK N   1      36.868  16.573  12.057  0.00  0.00     0.169 HD
HETATM   19  H   UNK N   1      36.607  14.856  12.164  0.00  0.00     0.169 HD
ENDBRANCH  14  17
ENDBRANCH  11  14
ENDBRANCH   4   8
BRANCH   5  20
HETATM   20  C   UNK N   1      31.159  16.685   5.035  0.00  0.00    -0.007 A 
HETATM   21  C   UNK N   1      31.857  17.619   4.257  0.00  0.00     0.014 A 
HETATM   22  C   UNK N   1      32.774  17.188   3.288  0.00  0.00     0.001 A 
HETATM   23  C   UNK N   1      33.014  15.824   3.103  0.00  0.00     0.000 A 
HETATM   24  C   UNK N   1      32.349  14.889   3.892  0.00  0.00     0.001 A 
HETATM   25  C   UNK N   1      31.438  15.323   4.854  0.00  0.00     0.014 A 
ENDBRANCH   5  20
TORSDOF 4
ENDMDL
MODEL 2
REMARK VINA RESULT:      -7.0      3.032      4.899
REMARK  4 active torsions:
REMARK  status: ('A' for Active; 'I' for Inactive)
REMARK    1  A    between atoms: S_1  and  N_7 
REMARK    2  A    between atoms: S_1  and  C_12 
REMARK    3  A    between atoms: C_8  and  C_9 
REMARK    4  A    between atoms: C_10  and  C_15 
ROOT
HETATM    1  O   UNK N   1      27.763  15.839   2.722  0.00  0.00    -0.241 OA
HETATM    2  N   UNK N   1      27.326  16.964   3.206  0.00  0.00    -0.259 N 
ATOM      3  HN  UNK N   1      26.461  17.437   2.941  1.00  0.00     0.195 HD
HETATM    4  C   UNK N   1      29.272  16.480   4.170  0.00  0.00     0.035 A 
HETATM    5  C   UNK N   1      28.219  17.396   4.123  0.00  0.00     0.078 A 
HETATM    6  C   UNK N   1      28.908  15.496   3.271  0.00  0.00     0.086 A 
HETATM    7  C   UNK N   1      29.669  14.269   2.912  0.00  0.00     0.079 C 
ENDROOT
BRANCH   4   8
HETATM    8  C   UNK N   1      30.496  16.544   5.002  0.00  0.00    -0.021 A 
HETATM    9  C   UNK N   1      31.574  17.327   4.581  0.00  0.00     0.014 A 
HETATM   10  C   UNK N   1      32.671  17.537   5.403  0.00  0.00     0.026 A 
HETATM   11  C   UNK N   1      32.717  16.957   6.698  0.00  0.00     0.079 A 
HETATM   12  C   UNK N   1      31.667  16.108   7.083  0.00  0.00     0.026 A 
HETATM   13  C   UNK N   1      30.570  15.889   6.237  0.00  0.00     0.014 A 
BRANCH  11  14
HETATM   14  S   UNK N   1      34.038  17.296   7.947  0.00  0.00     0.256 S 
HETATM   15  O   UNK N   1      32.891  18.240   8.354  0.00  0.00    -0.201 OA
HETATM   16  O   UNK N   1      34.544  17.907   6.631  0.00  0.00    -0.201 OA
BRANCH  14  17
HETATM   17  N   UNK N   1      34.857  18.781   8.435  0.00  0.00    -0.324 N 
HETATM   18  H   UNK N   1      35.515  18.872   9.209  0.00  0.00     0.169 HD
HETATM   19  H   UNK N   1      34.654  19.622   7.896  0.00  0.00     0.169 HD
ENDBRANCH  14  17
ENDBRANCH  11  14
ENDBRANCH   4   8
BRANCH   5  20
HETATM   20  C   UNK N   1      27.975  18.589   4.981  0.00  0.00    -0.007 A 
HETATM   21  C   UNK N   1      27.565  19.799   4.405  0.00  0.00     0.014 A 
HETATM   22  C   UNK N   1      27.298  20.913   5.212  0.00  0.00     0.001 A 
HETATM   23  C   UNK N   1      27.421  20.822   6.602  0.00  0.00     0.000 A 
HETATM   24  C   UNK N   1      27.798  19.616   7.187  0.00  0.00     0.001 A 
HETATM   25  C   UNK N   1      28.063  18.511   6.379  0.00  0.00     0.014 A 
ENDBRANCH   5  20
TORSDOF 4
ENDMDL
MODEL 3
REMARK VINA RESULT:      -6.7     13.199     15.536
REMARK  4 active torsions:
REMARK  status: ('A' for Active; 'I' for Inactive)
REMARK    1  A    between atoms: S_1  and  N_7 
REMARK    2  A    between atoms: S_1  and  C_12 
REMARK    3  A    between atoms: C_8  and  C_9 
REMARK    4  A    between atoms: C_10  and  C_15 
ROOT
HETATM    1  O   UNK N   1      25.048  27.695  -4.702  0.00  0.00    -0.241 OA
HETATM    2  N   UNK N   1      24.755  26.795  -5.593  0.00  0.00    -0.259 N 
ATOM      3  HN  UNK N   1      23.939  26.799  -6.205  1.00  0.00     0.195 HD
HETATM    4  C   UNK N   1      26.641  26.203  -4.573  0.00  0.00     0.035 A 
HETATM    5  C   UNK N   1      25.724  25.853  -5.566  0.00  0.00     0.078 A 
HETATM    6  C   UNK N   1      26.168  27.402  -4.076  0.00  0.00     0.086 A 
HETATM    7  C   UNK N   1      26.756  28.230  -2.989  0.00  0.00     0.079 C 
ENDROOT
BRANCH   4   8
HETATM    8  C   UNK N   1      27.854  25.461  -4.153  0.00  0.00    -0.021 A 
HETATM    9  C   UNK N   1      27.726  24.357  -3.307  0.00  0.00     0.014 A 
HETATM   10  C   UNK N   1      28.813  23.546  -3.020  0.00  0.00     0.026 A 
HETATM   11  C   UNK N   1      30.085  23.824  -3.587  0.00  0.00     0.079 A 
HETATM   12  C   UNK N   1      30.223  24.980  -4.372  0.00  0.00     0.026 A 
HETATM   13  C   UNK N   1      29.120  25.803  -4.643  0.00  0.00     0.014 A 
BRANCH  11  14
HETATM   14  S   UNK N   1      31.565  22.729  -3.417  0.00  0.00     0.256 S 
HETATM   15  O   UNK N   1      30.615  21.930  -4.329  0.00  0.00    -0.201 OA
HETATM   16  O   UNK N   1      30.860  22.688  -2.053  0.00  0.00    -0.201 OA
BRANCH  14  17
HETATM   17  N   UNK N   1      31.752  21.061  -2.874  0.00  0.00    -0.324 N 
HETATM   18  H   UNK N   1      32.362  20.744  -2.120  0.00  0.00     0.169 HD
HETATM   19  H   UNK N   1      31.202  20.351  -3.356  0.00  0.00     0.169 HD
ENDBRANCH  14  17
ENDBRANCH  11  14
ENDBRANCH   4   8
BRANCH   5  20
HETATM   20  C   UNK N   1      25.787  24.737  -6.550  0.00  0.00    -0.007 A 
HETATM   21  C   UNK N   1      25.707  23.408  -6.113  0.00  0.00     0.014 A 
HETATM   22  C   UNK N   1      25.727  22.356  -7.039  0.00  0.00     0.001 A 
HETATM   23  C   UNK N   1      25.809  22.625  -8.409  0.00  0.00     0.000 A 
HETATM   24  C   UNK N   1      25.858  23.943  -8.855  0.00  0.00     0.001 A 
HETATM   25  C   UNK N   1      25.838  24.985  -7.930  0.00  0.00     0.014 A 
ENDBRANCH   5  20
TORSDOF 4
ENDMDL
MODEL 4
REMARK VINA RESULT:      -6.7      1.444      4.069
REMARK  4 active torsions:
REMARK  status: ('A' for Active; 'I' for Inactive)
REMARK    1  A    between atoms: S_1  and  N_7 
REMARK    2  A    between atoms: S_1  and  C_12 
REMARK    3  A    between atoms: C_8  and  C_9 
REMARK    4  A    between atoms: C_10  and  C_15 
ROOT
HETATM    1  O   UNK N   1      30.921  17.321   3.679  0.00  0.00    -0.241 OA
HETATM    2  N   UNK N   1      29.968  17.633   4.507  0.00  0.00    -0.259 N 
ATOM      3  HN  UNK N   1      29.035  17.960   4.254  1.00  0.00     0.195 HD
HETATM    4  C   UNK N   1      31.758  17.019   5.676  0.00  0.00     0.035 A 
HETATM    5  C   UNK N   1      30.431  17.446   5.762  0.00  0.00     0.078 A 
HETATM    6  C   UNK N   1      32.003  16.933   4.319  0.00  0.00     0.086 A 
HETATM    7  C   UNK N   1      33.268  16.530   3.649  0.00  0.00     0.079 C 
ENDROOT
BRANCH   4   8
HETATM    8  C   UNK N   1      32.689  16.716   6.789  0.00  0.00    -0.021 A 
HETATM    9  C   UNK N   1      33.481  17.736   7.321  0.00  0.00     0.014 A 
HETATM   10  C   UNK N   1      34.245  17.530   8.459  0.00  0.00     0.026 A 
HETATM   11  C   UNK N   1      34.236  16.269   9.110  0.00  0.00     0.079 A 
HETATM   12  C   UNK N   1      33.500  15.225   8.525  0.00  0.00     0.026 A 
HETATM   13  C   UNK N   1      32.743  15.440   7.363  0.00  0.00     0.014 A 
BRANCH  11  14
HETATM   14  S   UNK N   1      35.074  15.919  10.720  0.00  0.00     0.256 S 
HETATM   15  O   UNK N   1      35.665  17.272  10.281  0.00  0.00    -0.201 OA
HETATM   16  O   UNK N   1      35.679  14.928   9.713  0.00  0.00    -0.201 OA
BRANCH  14  17
HETATM   17  N   UNK N   1      36.776  15.812  11.174  0.00  0.00    -0.324 N 
HETATM   18  H   UNK N   1      37.564  15.770  10.527  0.00  0.00     0.169 HD
HETATM   19  H   UNK N   1      36.991  15.788  12.170  0.00  0.00     0.169 HD
ENDBRANCH  14  17
ENDBRANCH  11  14
ENDBRANCH   4   8
BRANCH   5  20
HETATM   20  C   UNK N   1      29.563  17.575   6.966  0.00  0.00    -0.007 A 
HETATM   21  C   UNK N   1      28.352  16.873   7.039  0.00  0.00     0.014 A 
HETATM   22  C   UNK N   1      27.551  16.961   8.186  0.00  0.00     0.001 A 
HETATM   23  C   UNK N   1      27.963  17.735   9.275  0.00  0.00     0.000 A 
HETATM   24  C   UNK N   1      29.180  18.411   9.225  0.00  0.00     0.001 A 
HETATM   25  C   UNK N   1      29.972  18.321   8.081  0.00  0.00     0.014 A 
ENDBRANCH   5  20
TORSDOF 4
ENDMDL
MODEL 5
REMARK VINA RESULT:      -6.5      8.543     12.139
REMARK  4 active torsions:
REMARK  status: ('A' for Active; 'I' for Inactive)
REMARK    1  A    between atoms: S_1  and  N_7 
REMARK    2  A    between atoms: S_1  and  C_12 
REMARK    3  A    between atoms: C_8  and  C_9 
REMARK    4  A    between atoms: C_10  and  C_15 
ROOT
HETATM    1  O   UNK N   1      35.229  13.358  19.860  0.00  0.00    -0.241 OA
HETATM    2  N   UNK N   1      35.272  12.063  19.975  0.00  0.00    -0.259 N 
ATOM      3  HN  UNK N   1      35.255  11.537  20.849  1.00  0.00     0.195 HD
HETATM    4  C   UNK N   1      35.369  12.592  17.816  0.00  0.00     0.035 A 
HETATM    5  C   UNK N   1      35.342  11.538  18.732  0.00  0.00     0.078 A 
HETATM    6  C   UNK N   1      35.268  13.727  18.598  0.00  0.00     0.086 A 
HETATM    7  C   UNK N   1      35.254  15.143  18.143  0.00  0.00     0.079 C 
ENDROOT
BRANCH   4   8
HETATM    8  C   UNK N   1      35.473  12.511  16.340  0.00  0.00    -0.021 A 
HETATM    9  C   UNK N   1      34.441  11.917  15.610  0.00  0.00     0.014 A 
HETATM   10  C   UNK N   1      34.426  11.963  14.224  0.00  0.00     0.026 A 
HETATM   11  C   UNK N   1      35.468  12.620  13.517  0.00  0.00     0.079 A 
HETATM   12  C   UNK N   1      36.541  13.145  14.255  0.00  0.00     0.026 A 
HETATM   13  C   UNK N   1      36.554  13.080  15.656  0.00  0.00     0.014 A 
BRANCH  11  14
HETATM   14  S   UNK N   1      35.477  12.894  11.689  0.00  0.00     0.256 S 
HETATM   15  O   UNK N   1      34.601  14.039  12.231  0.00  0.00    -0.201 OA
HETATM   16  O   UNK N   1      34.608  11.647  11.917  0.00  0.00    -0.201 OA
BRANCH  14  17
HETATM   17  N   UNK N   1      34.178  13.038  10.503  0.00  0.00    -0.324 N 
HETATM   18  H   UNK N   1      33.331  12.470  10.475  0.00  0.00     0.169 HD
HETATM   19  H   UNK N   1      34.284  13.751   9.782  0.00  0.00     0.169 HD
ENDBRANCH  14  17
ENDBRANCH  11  14
ENDBRANCH   4   8
BRANCH   5  20
HETATM   20  C   UNK N   1      35.268  10.073  18.474  0.00  0.00    -0.007 A 
HETATM   21  C   UNK N   1      36.320   9.420  17.817  0.00  0.00     0.014 A 
HETATM   22  C   UNK N   1      36.272   8.035  17.606  0.00  0.00     0.001 A 
HETATM   23  C   UNK N   1      35.182   7.290  18.066  0.00  0.00     0.000 A 
HETATM   24  C   UNK N   1      34.145   7.924  18.747  0.00  0.00     0.001 A 
HETATM   25  C   UNK N   1      34.198   9.302  18.953  0.00  0.00     0.014 A 
ENDBRANCH   5  20
TORSDOF 4
ENDMDL
MODEL 6
REMARK VINA RESULT:      -6.5     13.614     16.208
REMARK  4 active torsions:
REMARK  status: ('A' for Active; 'I' for Inactive)
REMARK    1  A    between atoms: S_1  and  N_7 
REMARK    2  A    between atoms: S_1  and  C_12 
REMARK    3  A    between atoms: C_8  and  C_9 
REMARK    4  A    between atoms: C_10  and  C_15 
ROOT
HETATM    1  O   UNK N   1      25.131  24.212  -8.063  0.00  0.00    -0.241 OA
HETATM    2  N   UNK N   1      25.198  25.481  -7.786  0.00  0.00    -0.259 N 
ATOM      3  HN  UNK N   1      24.632  26.218  -8.206  1.00  0.00     0.195 HD
HETATM    4  C   UNK N   1      26.707  24.401  -6.559  0.00  0.00     0.035 A 
HETATM    5  C   UNK N   1      26.151  25.650  -6.843  0.00  0.00     0.078 A 
HETATM    6  C   UNK N   1      25.994  23.521  -7.350  0.00  0.00     0.086 A 
HETATM    7  C   UNK N   1      26.170  22.048  -7.454  0.00  0.00     0.079 C 
ENDROOT
BRANCH   4   8
HETATM    8  C   UNK N   1      27.805  24.089  -5.613  0.00  0.00    -0.021 A 
HETATM    9  C   UNK N   1      27.567  24.149  -4.238  0.00  0.00     0.014 A 
HETATM   10  C   UNK N   1      28.517  23.714  -3.327  0.00  0.00     0.026 A 
HETATM   11  C   UNK N   1      29.759  23.194  -3.779  0.00  0.00     0.079 A 
HETATM   12  C   UNK N   1      30.022  23.210  -5.159  0.00  0.00     0.026 A 
HETATM   13  C   UNK N   1      29.059  23.668  -6.071  0.00  0.00     0.014 A 
BRANCH  11  14
HETATM   14  S   UNK N   1      31.033  22.431  -2.679  0.00  0.00     0.256 S 
HETATM   15  O   UNK N   1      31.849  22.986  -3.862  0.00  0.00    -0.201 OA
HETATM   16  O   UNK N   1      30.266  21.254  -3.304  0.00  0.00    -0.201 OA
BRANCH  14  17
HETATM   17  N   UNK N   1      32.266  21.201  -2.966  0.00  0.00    -0.324 N 
HETATM   18  H   UNK N   1      32.660  20.951  -3.873  0.00  0.00     0.169 HD
HETATM   19  H   UNK N   1      32.614  20.694  -2.152  0.00  0.00     0.169 HD
ENDBRANCH  14  17
ENDBRANCH  11  14
ENDBRANCH   4   8
BRANCH   5  20
HETATM   20  C   UNK N   1      26.407  26.962  -6.186  0.00  0.00    -0.007 A 
HETATM   21  C   UNK N   1      25.709  27.315  -5.023  0.00  0.00     0.014 A 
HETATM   22  C   UNK N   1      25.974  28.532  -4.380  0.00  0.00     0.001 A 
HETATM   23  C   UNK N   1      26.951  29.396  -4.883  0.00  0.00     0.000 A 
HETATM   24  C   UNK N   1      27.672  29.042  -6.021  0.00  0.00     0.001 A 
HETATM   25  C   UNK N   1      27.404  27.830  -6.657  0.00  0.00     0.014 A 
ENDBRANCH   5  20
TORSDOF 4
ENDMDL
MODEL 7
REMARK VINA RESULT:      -6.4     14.551     17.395
REMARK  4 active torsions:
REMARK  status: ('A' for Active; 'I' for Inactive)
REMARK    1  A    between atoms: S_1  and  N_7 
REMARK    2  A    between atoms: S_1  and  C_12 
REMARK    3  A    between atoms: C_8  and  C_9 
REMARK    4  A    between atoms: C_10  and  C_15 
ROOT
HETATM    1  O   UNK N   1      26.297  23.713  -8.266  0.00  0.00    -0.241 OA
HETATM    2  N   UNK N   1      26.824  23.159  -7.214  0.00  0.00    -0.259 N 
ATOM      3  HN  UNK N   1      27.075  22.175  -7.115  1.00  0.00     0.195 HD
HETATM    4  C   UNK N   1      26.490  25.318  -6.794  0.00  0.00     0.035 A 
HETATM    5  C   UNK N   1      26.981  24.118  -6.275  0.00  0.00     0.078 A 
HETATM    6  C   UNK N   1      26.093  24.999  -8.078  0.00  0.00     0.086 A 
HETATM    7  C   UNK N   1      25.484  25.902  -9.091  0.00  0.00     0.079 C 
ENDROOT
BRANCH   4   8
HETATM    8  C   UNK N   1      26.421  26.638  -6.123  0.00  0.00    -0.021 A 
HETATM    9  C   UNK N   1      25.388  26.897  -5.219  0.00  0.00     0.014 A 
HETATM   10  C   UNK N   1      25.377  28.055  -4.457  0.00  0.00     0.026 A 
HETATM   11  C   UNK N   1      26.426  29.005  -4.581  0.00  0.00     0.079 A 
HETATM   12  C   UNK N   1      27.418  28.775  -5.547  0.00  0.00     0.026 A 
HETATM   13  C   UNK N   1      27.411  27.608  -6.325  0.00  0.00     0.014 A 
BRANCH  11  14
HETATM   14  S   UNK N   1      26.614  30.498  -3.507  0.00  0.00     0.256 S 
HETATM   15  O   UNK N   1      27.825  30.569  -4.456  0.00  0.00    -0.201 OA
HETATM   16  O   UNK N   1      26.942  29.296  -2.607  0.00  0.00    -0.201 OA
BRANCH  14  17
HETATM   17  N   UNK N   1      27.932  31.062  -2.478  0.00  0.00    -0.324 N 
HETATM   18  H   UNK N   1      28.805  31.478  -2.802  0.00  0.00     0.169 HD
HETATM   19  H   UNK N   1      27.810  30.964  -1.471  0.00  0.00     0.169 HD
ENDBRANCH  14  17
ENDBRANCH  11  14
ENDBRANCH   4   8
BRANCH   5  20
HETATM   20  C   UNK N   1      27.685  23.872  -4.985  0.00  0.00    -0.007 A 
HETATM   21  C   UNK N   1      27.010  24.054  -3.770  0.00  0.00     0.014 A 
HETATM   22  C   UNK N   1      27.656  23.787  -2.555  0.00  0.00     0.001 A 
HETATM   23  C   UNK N   1      28.974  23.319  -2.546  0.00  0.00     0.000 A 
HETATM   24  C   UNK N   1      29.643  23.105  -3.749  0.00  0.00     0.001 A 
HETATM   25  C   UNK N   1      28.995  23.373  -4.954  0.00  0.00     0.014 A 
ENDBRANCH   5  20
TORSDOF 4
ENDMDL
MODEL 8
REMARK VINA RESULT:      -6.3     17.083     19.095
REMARK  4 active torsions:
REMARK  status: ('A' for Active; 'I' for Inactive)
REMARK    1  A    between atoms: S_1  and  N_7 
REMARK    2  A    between atoms: S_1  and  C_12 
REMARK    3  A    between atoms: C_8  and  C_9 
REMARK    4  A    between atoms: C_10  and  C_15 
ROOT
HETATM    1  O   UNK N   1      29.128  29.202  -8.696  0.00  0.00    -0.241 OA
HETATM    2  N   UNK N   1      28.740  29.389  -7.469  0.00  0.00    -0.259 N 
ATOM      3  HN  UNK N   1      28.917  30.219  -6.903  1.00  0.00     0.195 HD
HETATM    4  C   UNK N   1      28.065  27.376  -8.132  0.00  0.00     0.035 A 
HETATM    5  C   UNK N   1      28.059  28.290  -7.076  0.00  0.00     0.078 A 
HETATM    6  C   UNK N   1      28.740  28.028  -9.146  0.00  0.00     0.086 A 
HETATM    7  C   UNK N   1      29.047  27.515 -10.508  0.00  0.00     0.079 C 
ENDROOT
BRANCH   4   8
HETATM    8  C   UNK N   1      27.472  26.018  -8.162  0.00  0.00    -0.021 A 
HETATM    9  C   UNK N   1      28.205  24.936  -7.667  0.00  0.00     0.014 A 
HETATM   10  C   UNK N   1      27.628  23.683  -7.533  0.00  0.00     0.026 A 
HETATM   11  C   UNK N   1      26.272  23.474  -7.897  0.00  0.00     0.079 A 
HETATM   12  C   UNK N   1      25.566  24.546  -8.467  0.00  0.00     0.026 A 
HETATM   13  C   UNK N   1      26.164  25.807  -8.614  0.00  0.00     0.014 A 
BRANCH  11  14
HETATM   14  S   UNK N   1      25.344  21.901  -7.611  0.00  0.00     0.256 S 
HETATM   15  O   UNK N   1      24.391  22.740  -8.483  0.00  0.00    -0.201 OA
HETATM   16  O   UNK N   1      25.331  22.641  -6.264  0.00  0.00    -0.201 OA
BRANCH  14  17
HETATM   17  N   UNK N   1      23.746  21.571  -6.940  0.00  0.00    -0.324 N 
HETATM   18  H   UNK N   1      23.150  22.244  -6.458  0.00  0.00     0.169 HD
HETATM   19  H   UNK N   1      23.386  20.622  -7.043  0.00  0.00     0.169 HD
ENDBRANCH  14  17
ENDBRANCH  11  14
ENDBRANCH   4   8
BRANCH   5  20
HETATM   20  C   UNK N   1      27.349  28.209  -5.770  0.00  0.00    -0.007 A 
HETATM   21  C   UNK N   1      26.004  27.818  -5.723  0.00  0.00     0.014 A 
HETATM   22  C   UNK N   1      25.343  27.703  -4.492  0.00  0.00     0.001 A 
HETATM   23  C   UNK N   1      26.025  27.960  -3.299  0.00  0.00     0.000 A 
HETATM   24  C   UNK N   1      27.370  28.320  -3.333  0.00  0.00     0.001 A 
HETATM   25  C   UNK N   1      28.022  28.433  -4.559  0.00  0.00     0.014 A 
ENDBRANCH   5  20
TORSDOF 4
ENDMDL
MODEL 9
REMARK VINA RESULT:      -6.2      3.477      5.126
REMARK  4 active torsions:
REMARK  status: ('A' for Active; 'I' for Inactive)
REMARK    1  A    between atoms: S_1  and  N_7 
REMARK    2  A    between atoms: S_1  and  C_12 
REMARK    3  A    between atoms: C_8  and  C_9 
REMARK    4  A    between atoms: C_10  and  C_15 
ROOT
HETATM    1  O   UNK N   1      35.325  17.932   9.717  0.00  0.00    -0.241 OA
HETATM    2  N   UNK N   1      34.549  18.342   8.757  0.00  0.00    -0.259 N 
ATOM      3  HN  UNK N   1      34.400  19.312   8.478  1.00  0.00     0.195 HD
HETATM    4  C   UNK N   1      34.421  16.125   8.881  0.00  0.00     0.035 A 
HETATM    5  C   UNK N   1      33.976  17.256   8.193  0.00  0.00     0.078 A 
HETATM    6  C   UNK N   1      35.300  16.621   9.824  0.00  0.00     0.086 A 
HETATM    7  C   UNK N   1      36.068  15.854  10.842  0.00  0.00     0.079 C 
ENDROOT
BRANCH   4   8
HETATM    8  C   UNK N   1      34.043  14.711   8.646  0.00  0.00    -0.021 A 
HETATM    9  C   UNK N   1      34.955  13.849   8.032  0.00  0.00     0.014 A 
HETATM   10  C   UNK N   1      34.702  12.489   7.937  0.00  0.00     0.026 A 
HETATM   11  C   UNK N   1      33.503  11.944   8.466  0.00  0.00     0.079 A 
HETATM   12  C   UNK N   1      32.556  12.827   9.010  0.00  0.00     0.026 A 
HETATM   13  C   UNK N   1      32.815  14.204   9.087  0.00  0.00     0.014 A 
BRANCH  11  14
HETATM   14  S   UNK N   1      33.127  10.136   8.552  0.00  0.00     0.256 S 
HETATM   15  O   UNK N   1      32.691  10.539   7.130  0.00  0.00    -0.201 OA
HETATM   16  O   UNK N   1      32.081  10.820   9.447  0.00  0.00    -0.201 OA
BRANCH  14  17
HETATM   17  N   UNK N   1      31.645   9.218   8.281  0.00  0.00    -0.324 N 
HETATM   18  H   UNK N   1      31.011   8.880   9.006  0.00  0.00     0.169 HD
HETATM   19  H   UNK N   1      31.400   9.006   7.314  0.00  0.00     0.169 HD
ENDBRANCH  14  17
ENDBRANCH  11  14
ENDBRANCH   4   8
BRANCH   5  20
HETATM   20  C   UNK N   1      33.130  17.338   6.971  0.00  0.00    -0.007 A 
HETATM   21  C   UNK N   1      33.726  17.471   5.709  0.00  0.00     0.014 A 
HETATM   22  C   UNK N   1      32.935  17.509   4.553  0.00  0.00     0.001 A 
HETATM   23  C   UNK N   1      31.544  17.397   4.647  0.00  0.00     0.000 A 
HETATM   24  C   UNK N   1      30.944  17.234   5.893  0.00  0.00     0.001 A 
HETATM   25  C   UNK N   1      31.736  17.197   7.040  0.00  0.00     0.014 A 
ENDBRANCH   5  20
TORSDOF 4
ENDMDL
