REMARK  4 active torsions:
REMARK  status: ('A' for Active; 'I' for Inactive)
REMARK    1  A    between atoms: S_1  and  N_7 
REMARK    2  A    between atoms: S_1  and  C_12 
REMARK    3  A    between atoms: C_8  and  C_9 
REMARK    4  A    between atoms: C_10  and  C_15 
ROOT
HETATM    1  O   UNK N   1       2.110   4.425   0.261  0.00  0.00    -0.241 OA
HETATM    2  N   UNK N   1       3.409   4.362   0.256  0.00  0.00    -0.259 N 
ATOM      3  HN  UNK N   1       4.049   5.155   0.303  1.00  0.00     0.195 HD
HETATM    4  C   UNK N   1       2.593   2.298   0.105  0.00  0.00     0.035 A 
HETATM    5  C   UNK N   1       3.761   3.060   0.178  0.00  0.00     0.078 A 
HETATM    6  C   UNK N   1       1.573   3.226   0.190  0.00  0.00     0.086 A 
HETATM    7  C   UNK N   1       0.108   2.970   0.157  0.00  0.00     0.079 C 
ENDROOT
BRANCH   4   8
HETATM    8  C   UNK N   1       2.474   0.826  -0.023  0.00  0.00    -0.021 A 
HETATM    9  C   UNK N   1       3.416   0.123  -0.778  0.00  0.00     0.014 A 
HETATM   10  C   UNK N   1       3.431  -1.263  -0.793  0.00  0.00     0.026 A 
HETATM   11  C   UNK N   1       2.483  -1.999  -0.034  0.00  0.00     0.079 A 
HETATM   12  C   UNK N   1       1.491  -1.286   0.659  0.00  0.00     0.026 A 
HETATM   13  C   UNK N   1       1.475   0.117   0.654  0.00  0.00     0.014 A 
BRANCH  11  14
HETATM   14  S   UNK N   1       2.503  -3.837   0.162  0.00  0.00     0.256 S 
HETATM   15  O   UNK N   1       3.946  -3.413   0.494  0.00  0.00    -0.201 OA
HETATM   16  O   UNK N   1       2.401  -3.582  -1.350  0.00  0.00    -0.201 OA
BRANCH  14  17
HETATM   17  N   UNK N   1       3.499  -5.098  -0.567  0.00  0.00    -0.324 N 
HETATM   18  H   UNK N   1       3.155  -5.961  -0.988  0.00  0.00     0.169 HD
HETATM   19  H   UNK N   1       4.508  -4.951  -0.567  0.00  0.00     0.169 HD
ENDBRANCH  14  17
ENDBRANCH  11  14
ENDBRANCH   4   8
BRANCH   5  20
HETATM   20  C   UNK N   1       5.174   2.602   0.287  0.00  0.00    -0.007 A 
HETATM   21  C   UNK N   1       6.224   3.521   0.154  0.00  0.00     0.014 A 
HETATM   22  C   UNK N   1       7.554   3.101   0.294  0.00  0.00     0.001 A 
HETATM   23  C   UNK N   1       7.844   1.765   0.586  0.00  0.00     0.000 A 
HETATM   24  C   UNK N   1       6.807   0.850   0.751  0.00  0.00     0.001 A 
HETATM   25  C   UNK N   1       5.486   1.273   0.610  0.00  0.00     0.014 A 
ENDBRANCH   5  20
TORSDOF 4
