REMARK  6 active torsions:
REMARK  status: ('A' for Active; 'I' for Inactive)
REMARK    1  A    between atoms: S_2  and  N_10 
REMARK    2  A    between atoms: S_2  and  C_16 
REMARK    3  A    between atoms: N_10  and  C_27 
REMARK    4  A    between atoms: C_13  and  C_14 
REMARK    5  A    between atoms: C_14  and  C_19 
REMARK    6  A    between atoms: C_17  and  C_19 
ROOT
HETATM    1  S   UNK N   1       4.639   4.095  -0.943  0.00  0.00    -0.097 SA
HETATM    2  C   UNK N   1       3.810   2.099   0.221  0.00  0.00     0.101 A 
HETATM    3  C   UNK N   1       4.911   2.507  -0.556  0.00  0.00     0.074 A 
HETATM    4  C   UNK N   1       2.846   3.128   0.418  0.00  0.00     0.034 A 
HETATM    5  C   UNK N   1       3.173   4.340  -0.201  0.00  0.00     0.052 A 
ENDROOT
BRANCH   2   6
HETATM    6  S   UNK N   1       3.634   0.510   1.046  0.00  0.00     0.266 S 
HETATM    7  O   UNK N   1       2.609   0.602   2.187  0.00  0.00    -0.200 OA
HETATM    8  O   UNK N   1       4.893   0.196   1.866  0.00  0.00    -0.200 OA
BRANCH   6   9
HETATM    9  N   UNK N   1       3.268  -1.010   0.245  0.00  0.00    -0.257 N 
HETATM   10  H   UNK N   1       3.984  -1.488  -0.232  0.00  0.00     0.181 HD
BRANCH   9  11
HETATM   11  C   UNK N   1       1.968  -1.559   0.272  0.00  0.00     0.203 A 
HETATM   12  O   UNK N   1       0.855  -0.869   0.382  0.00  0.00    -0.217 OA
HETATM   13  N   UNK N   1      -0.176  -1.663   0.437  0.00  0.00    -0.262 N 
HETATM   14  C   UNK N   1       0.288  -2.930   0.373  0.00  0.00     0.055 A 
ATOM     15  HN  UNK N   1      -1.153  -1.381   0.515  1.00  0.00     0.194 HD
HETATM   16  C   UNK N   1       1.658  -2.897   0.263  0.00  0.00     0.112 A 
HETATM   17  C   UNK N   1      -0.570  -4.142   0.454  0.00  0.00     0.072 C 
HETATM   18 Cl   UNK N   1       2.767  -4.257   0.205  0.00  0.00    -0.077 Cl
ENDBRANCH   9  11
ENDBRANCH   6   9
ENDBRANCH   2   6
BRANCH   3  19
HETATM   19  C   UNK N   1       6.091   1.729  -1.004  0.00  0.00     0.172 C 
HETATM   20  O   UNK N   1       7.006   2.298  -1.580  0.00  0.00    -0.291 OA
BRANCH  19  21
HETATM   21  C   UNK N   1       6.063   0.230  -0.942  0.00  0.00     0.123 C 
BRANCH  21  22
HETATM   22  C   UNK N   1       7.292  -0.519  -0.496  0.00  0.00    -0.042 A 
HETATM   23  C   UNK N   1       7.189  -1.922  -0.268  0.00  0.00    -0.052 A 
HETATM   24  C   UNK N   1       8.321  -2.663   0.113  0.00  0.00     0.047 A 
HETATM   25  C   UNK N   1       5.892  -2.638  -0.433  0.00  0.00     0.049 C 
HETATM   26  C   UNK N   1       9.524  -1.985   0.247  0.00  0.00     0.105 A 
HETATM   27  O   UNK N   1      10.713  -2.479   0.582  0.00  0.00    -0.323 OA
HETATM   28  C   UNK N   1       9.633  -0.670   0.034  0.00  0.00     0.105 A 
HETATM   29  C   UNK N   1      11.641  -1.433   0.582  0.00  0.00     0.352 A 
HETATM   30  O   UNK N   1      10.898  -0.301   0.227  0.00  0.00    -0.323 OA
HETATM   31  C   UNK N   1       8.544   0.120  -0.339  0.00  0.00     0.047 A 
ENDBRANCH  21  22
ENDBRANCH  19  21
ENDBRANCH   3  19
TORSDOF 6
