MODEL 1
REMARK VINA RESULT:      -8.0      0.000      0.000
REMARK  6 active torsions:
REMARK  status: ('A' for Active; 'I' for Inactive)
REMARK    1  A    between atoms: S_2  and  N_10 
REMARK    2  A    between atoms: S_2  and  C_16 
REMARK    3  A    between atoms: N_10  and  C_27 
REMARK    4  A    between atoms: C_13  and  C_14 
REMARK    5  A    between atoms: C_14  and  C_19 
REMARK    6  A    between atoms: C_17  and  C_19 
ROOT
HETATM    1  S   UNK N   1      36.621  10.103  13.638  0.00  0.00    -0.097 SA
HETATM    2  C   UNK N   1      36.417  12.357  12.685  0.00  0.00     0.101 A 
HETATM    3  C   UNK N   1      35.889  11.586  13.739  0.00  0.00     0.074 A 
HETATM    4  C   UNK N   1      37.367  11.652  11.892  0.00  0.00     0.034 A 
HETATM    5  C   UNK N   1      37.588  10.334  12.307  0.00  0.00     0.052 A 
ENDROOT
BRANCH   2   6
HETATM    6  S   UNK N   1      36.095  14.102  12.393  0.00  0.00     0.266 S 
HETATM    7  O   UNK N   1      36.395  14.928  13.653  0.00  0.00    -0.200 OA
HETATM    8  O   UNK N   1      34.585  14.352  12.284  0.00  0.00    -0.200 OA
BRANCH   6   9
HETATM    9  N   UNK N   1      36.770  15.048  11.075  0.00  0.00    -0.257 N 
HETATM   10  H   UNK N   1      37.738  15.007  10.899  0.00  0.00     0.181 HD
BRANCH   9  11
HETATM   11  C   UNK N   1      35.953  15.865  10.265  0.00  0.00     0.203 A 
HETATM   12  O   UNK N   1      35.673  17.127  10.499  0.00  0.00    -0.217 OA
HETATM   13  N   UNK N   1      34.847  17.589   9.604  0.00  0.00    -0.262 N 
HETATM   14  C   UNK N   1      34.567  16.577   8.754  0.00  0.00     0.055 A 
ATOM     15  HN  UNK N   1      34.479  18.539   9.554  1.00  0.00     0.194 HD
HETATM   16  C   UNK N   1      35.263  15.460   9.149  0.00  0.00     0.112 A 
HETATM   17  C   UNK N   1      33.620  16.680   7.612  0.00  0.00     0.072 C 
HETATM   18 Cl   UNK N   1      35.219  13.856   8.435  0.00  0.00    -0.077 Cl
ENDBRANCH   9  11
ENDBRANCH   6   9
ENDBRANCH   2   6
BRANCH   3  19
HETATM   19  C   UNK N   1      34.866  11.945  14.750  0.00  0.00     0.172 C 
HETATM   20  O   UNK N   1      33.687  11.716  14.524  0.00  0.00    -0.291 OA
BRANCH  19  21
HETATM   21  C   UNK N   1      35.252  12.772  15.941  0.00  0.00     0.123 C 
BRANCH  21  22
HETATM   22  C   UNK N   1      35.271  12.142  17.310  0.00  0.00    -0.042 A 
HETATM   23  C   UNK N   1      35.281  12.995  18.452  0.00  0.00    -0.052 A 
HETATM   24  C   UNK N   1      35.261  12.446  19.746  0.00  0.00     0.047 A 
HETATM   25  C   UNK N   1      35.306  14.478  18.308  0.00  0.00     0.049 C 
HETATM   26  C   UNK N   1      35.222  11.065  19.863  0.00  0.00     0.105 A 
HETATM   27  O   UNK N   1      35.185  10.335  20.975  0.00  0.00    -0.323 OA
HETATM   28  C   UNK N   1      35.210  10.255  18.800  0.00  0.00     0.105 A 
HETATM   29  C   UNK N   1      35.143   8.984  20.615  0.00  0.00     0.352 A 
HETATM   30  O   UNK N   1      35.162   8.991  19.215  0.00  0.00    -0.323 OA
HETATM   31  C   UNK N   1      35.236  10.740  17.491  0.00  0.00     0.047 A 
ENDBRANCH  21  22
ENDBRANCH  19  21
ENDBRANCH   3  19
TORSDOF 6
ENDMDL
MODEL 2
REMARK VINA RESULT:      -7.9      3.947     10.524
REMARK  6 active torsions:
REMARK  status: ('A' for Active; 'I' for Inactive)
REMARK    1  A    between atoms: S_2  and  N_10 
REMARK    2  A    between atoms: S_2  and  C_16 
REMARK    3  A    between atoms: N_10  and  C_27 
REMARK    4  A    between atoms: C_13  and  C_14 
REMARK    5  A    between atoms: C_14  and  C_19 
REMARK    6  A    between atoms: C_17  and  C_19 
ROOT
HETATM    1  S   UNK N   1      34.878  15.221   6.191  0.00  0.00    -0.097 SA
HETATM    2  C   UNK N   1      35.447  15.328   8.577  0.00  0.00     0.101 A 
HETATM    3  C   UNK N   1      34.752  16.074   7.606  0.00  0.00     0.074 A 
HETATM    4  C   UNK N   1      36.022  14.131   8.064  0.00  0.00     0.034 A 
HETATM    5  C   UNK N   1      35.792  13.929   6.698  0.00  0.00     0.052 A 
ENDROOT
BRANCH   2   6
HETATM    6  S   UNK N   1      35.521  15.698  10.336  0.00  0.00     0.266 S 
HETATM    7  O   UNK N   1      34.108  15.758  10.937  0.00  0.00    -0.200 OA
HETATM    8  O   UNK N   1      35.947  17.156  10.554  0.00  0.00    -0.200 OA
BRANCH   6   9
HETATM    9  N   UNK N   1      36.466  14.806  11.518  0.00  0.00    -0.257 N 
HETATM   10  H   UNK N   1      37.439  14.944  11.560  0.00  0.00     0.181 HD
BRANCH   9  11
HETATM   11  C   UNK N   1      35.857  13.895  12.407  0.00  0.00     0.203 A 
HETATM   12  O   UNK N   1      35.030  12.934  12.061  0.00  0.00    -0.217 OA
HETATM   13  N   UNK N   1      34.592  12.302  13.113  0.00  0.00    -0.262 N 
HETATM   14  C   UNK N   1      35.149  12.887  14.195  0.00  0.00     0.055 A 
ATOM     15  HN  UNK N   1      33.947  11.512  13.118  1.00  0.00     0.194 HD
HETATM   16  C   UNK N   1      35.967  13.909  13.776  0.00  0.00     0.112 A 
HETATM   17  C   UNK N   1      34.866  12.492  15.601  0.00  0.00     0.072 C 
HETATM   18 Cl   UNK N   1      36.884  15.031  14.769  0.00  0.00    -0.077 Cl
ENDBRANCH   9  11
ENDBRANCH   6   9
ENDBRANCH   2   6
BRANCH   3  19
HETATM   19  C   UNK N   1      34.055  17.376   7.736  0.00  0.00     0.172 C 
HETATM   20  O   UNK N   1      34.666  18.412   7.520  0.00  0.00    -0.291 OA
BRANCH  19  21
HETATM   21  C   UNK N   1      32.680  17.429   8.333  0.00  0.00     0.123 C 
BRANCH  21  22
HETATM   22  C   UNK N   1      31.474  17.385   7.430  0.00  0.00    -0.042 A 
HETATM   23  C   UNK N   1      30.216  17.804   7.953  0.00  0.00    -0.052 A 
HETATM   24  C   UNK N   1      29.075  17.813   7.132  0.00  0.00     0.047 A 
HETATM   25  C   UNK N   1      30.077  18.247   9.370  0.00  0.00     0.049 C 
HETATM   26  C   UNK N   1      29.224  17.413   5.812  0.00  0.00     0.105 A 
HETATM   27  O   UNK N   1      28.295  17.355   4.861  0.00  0.00    -0.323 OA
HETATM   28  C   UNK N   1      30.399  17.021   5.310  0.00  0.00     0.105 A 
HETATM   29  C   UNK N   1      28.899  16.906   3.682  0.00  0.00     0.352 A 
HETATM   30  O   UNK N   1      30.241  16.707   4.025  0.00  0.00    -0.323 OA
HETATM   31  C   UNK N   1      31.565  16.983   6.077  0.00  0.00     0.047 A 
ENDBRANCH  21  22
ENDBRANCH  19  21
ENDBRANCH   3  19
TORSDOF 6
ENDMDL
MODEL 3
REMARK VINA RESULT:      -7.6     16.139     18.933
REMARK  6 active torsions:
REMARK  status: ('A' for Active; 'I' for Inactive)
REMARK    1  A    between atoms: S_2  and  N_10 
REMARK    2  A    between atoms: S_2  and  C_16 
REMARK    3  A    between atoms: N_10  and  C_27 
REMARK    4  A    between atoms: C_13  and  C_14 
REMARK    5  A    between atoms: C_14  and  C_19 
REMARK    6  A    between atoms: C_17  and  C_19 
ROOT
HETATM    1  S   UNK N   1      22.694  15.040   7.071  0.00  0.00    -0.097 SA
HETATM    2  C   UNK N   1      20.584  14.723   5.857  0.00  0.00     0.101 A 
HETATM    3  C   UNK N   1      21.419  15.766   6.301  0.00  0.00     0.074 A 
HETATM    4  C   UNK N   1      21.069  13.428   6.198  0.00  0.00     0.034 A 
HETATM    5  C   UNK N   1      22.273  13.441   6.911  0.00  0.00     0.052 A 
ENDROOT
BRANCH   2   6
HETATM    6  S   UNK N   1      19.121  14.911   4.828  0.00  0.00     0.266 S 
HETATM    7  O   UNK N   1      18.097  15.836   5.504  0.00  0.00    -0.200 OA
HETATM    8  O   UNK N   1      18.310  13.608   4.816  0.00  0.00    -0.200 OA
BRANCH   6   9
HETATM    9  N   UNK N   1      19.126  15.414   3.145  0.00  0.00    -0.257 N 
HETATM   10  H   UNK N   1      18.699  16.264   2.894  0.00  0.00     0.181 HD
BRANCH   9  11
HETATM   11  C   UNK N   1      19.732  14.622   2.145  0.00  0.00     0.203 A 
HETATM   12  O   UNK N   1      19.096  13.803   1.338  0.00  0.00    -0.217 OA
HETATM   13  N   UNK N   1      19.935  13.172   0.567  0.00  0.00    -0.262 N 
HETATM   14  C   UNK N   1      21.177  13.590   0.896  0.00  0.00     0.055 A 
ATOM     15  HN  UNK N   1      19.700  12.487  -0.152  1.00  0.00     0.194 HD
HETATM   16  C   UNK N   1      21.080  14.523   1.902  0.00  0.00     0.112 A 
HETATM   17  C   UNK N   1      22.427  13.073   0.279  0.00  0.00     0.072 C 
HETATM   18 Cl   UNK N   1      22.386  15.343   2.740  0.00  0.00    -0.077 Cl
ENDBRANCH   9  11
ENDBRANCH   6   9
ENDBRANCH   2   6
BRANCH   3  19
HETATM   19  C   UNK N   1      21.247  17.233   6.173  0.00  0.00     0.172 C 
HETATM   20  O   UNK N   1      21.188  17.924   7.180  0.00  0.00    -0.291 OA
BRANCH  19  21
HETATM   21  C   UNK N   1      20.934  17.833   4.834  0.00  0.00     0.123 C 
BRANCH  21  22
HETATM   22  C   UNK N   1      21.970  18.677   4.137  0.00  0.00    -0.042 A 
HETATM   23  C   UNK N   1      21.532  19.652   3.194  0.00  0.00    -0.052 A 
HETATM   24  C   UNK N   1      22.464  20.484   2.550  0.00  0.00     0.047 A 
HETATM   25  C   UNK N   1      20.086  19.821   2.874  0.00  0.00     0.049 C 
HETATM   26  C   UNK N   1      23.804  20.324   2.870  0.00  0.00     0.105 A 
HETATM   27  O   UNK N   1      24.848  21.001   2.399  0.00  0.00    -0.323 OA
HETATM   28  C   UNK N   1      24.226  19.414   3.754  0.00  0.00     0.105 A 
HETATM   29  C   UNK N   1      26.005  20.509   3.011  0.00  0.00     0.352 A 
HETATM   30  O   UNK N   1      25.551  19.497   3.865  0.00  0.00    -0.323 OA
HETATM   31  C   UNK N   1      23.350  18.556   4.420  0.00  0.00     0.047 A 
ENDBRANCH  21  22
ENDBRANCH  19  21
ENDBRANCH   3  19
TORSDOF 6
ENDMDL
MODEL 4
REMARK VINA RESULT:      -7.6      3.460      6.089
REMARK  6 active torsions:
REMARK  status: ('A' for Active; 'I' for Inactive)
REMARK    1  A    between atoms: S_2  and  N_10 
REMARK    2  A    between atoms: S_2  and  C_16 
REMARK    3  A    between atoms: N_10  and  C_27 
REMARK    4  A    between atoms: C_13  and  C_14 
REMARK    5  A    between atoms: C_14  and  C_19 
REMARK    6  A    between atoms: C_17  and  C_19 
ROOT
HETATM    1  S   UNK N   1      35.811  13.457   7.308  0.00  0.00    -0.097 SA
HETATM    2  C   UNK N   1      34.862  15.694   7.655  0.00  0.00     0.101 A 
HETATM    3  C   UNK N   1      35.211  14.551   8.399  0.00  0.00     0.074 A 
HETATM    4  C   UNK N   1      35.115  15.560   6.261  0.00  0.00     0.034 A 
HETATM    5  C   UNK N   1      35.653  14.320   5.897  0.00  0.00     0.052 A 
ENDROOT
BRANCH   2   6
HETATM    6  S   UNK N   1      34.295  17.260   8.335  0.00  0.00     0.266 S 
HETATM    7  O   UNK N   1      34.552  18.407   7.345  0.00  0.00    -0.200 OA
HETATM    8  O   UNK N   1      35.216  17.707   9.479  0.00  0.00    -0.200 OA
BRANCH   6   9
HETATM    9  N   UNK N   1      32.680  17.567   8.956  0.00  0.00    -0.257 N 
HETATM   10  H   UNK N   1      32.569  17.836   9.896  0.00  0.00     0.181 HD
BRANCH   9  11
HETATM   11  C   UNK N   1      31.541  17.435   8.134  0.00  0.00     0.203 A 
HETATM   12  O   UNK N   1      31.533  16.919   6.925  0.00  0.00    -0.217 OA
HETATM   13  N   UNK N   1      30.343  16.991   6.401  0.00  0.00    -0.262 N 
HETATM   14  C   UNK N   1      29.541  17.595   7.305  0.00  0.00     0.055 A 
ATOM     15  HN  UNK N   1      30.067  16.656   5.478  1.00  0.00     0.194 HD
HETATM   16  C   UNK N   1      30.278  17.888   8.428  0.00  0.00     0.112 A 
HETATM   17  C   UNK N   1      28.106  17.913   7.074  0.00  0.00     0.072 C 
HETATM   18 Cl   UNK N   1      29.747  18.724   9.877  0.00  0.00    -0.077 Cl
ENDBRANCH   9  11
ENDBRANCH   6   9
ENDBRANCH   2   6
BRANCH   3  19
HETATM   19  C   UNK N   1      35.072  14.291   9.852  0.00  0.00     0.172 C 
HETATM   20  O   UNK N   1      33.966  14.077  10.324  0.00  0.00    -0.291 OA
BRANCH  19  21
HETATM   21  C   UNK N   1      36.247  14.500  10.763  0.00  0.00     0.123 C 
BRANCH  21  22
HETATM   22  C   UNK N   1      36.367  13.681  12.022  0.00  0.00    -0.042 A 
HETATM   23  C   UNK N   1      37.219  12.539  12.012  0.00  0.00    -0.052 A 
HETATM   24  C   UNK N   1      37.387  11.770  13.177  0.00  0.00     0.047 A 
HETATM   25  C   UNK N   1      37.956  12.135  10.781  0.00  0.00     0.049 C 
HETATM   26  C   UNK N   1      36.707  12.168  14.319  0.00  0.00     0.105 A 
HETATM   27  O   UNK N   1      36.725  11.605  15.524  0.00  0.00    -0.323 OA
HETATM   28  C   UNK N   1      35.906  13.238  14.340  0.00  0.00     0.105 A 
HETATM   29  C   UNK N   1      35.899  12.350  16.372  0.00  0.00     0.352 A 
HETATM   30  O   UNK N   1      35.401  13.379  15.564  0.00  0.00    -0.323 OA
HETATM   31  C   UNK N   1      35.694  14.036  13.214  0.00  0.00     0.047 A 
ENDBRANCH  21  22
ENDBRANCH  19  21
ENDBRANCH   3  19
TORSDOF 6
ENDMDL
MODEL 5
REMARK VINA RESULT:      -7.4      4.268      6.169
REMARK  6 active torsions:
REMARK  status: ('A' for Active; 'I' for Inactive)
REMARK    1  A    between atoms: S_2  and  N_10 
REMARK    2  A    between atoms: S_2  and  C_16 
REMARK    3  A    between atoms: N_10  and  C_27 
REMARK    4  A    between atoms: C_13  and  C_14 
REMARK    5  A    between atoms: C_14  and  C_19 
REMARK    6  A    between atoms: C_17  and  C_19 
ROOT
HETATM    1  S   UNK N   1      36.351  13.744   8.392  0.00  0.00    -0.097 SA
HETATM    2  C   UNK N   1      35.040  15.791   8.048  0.00  0.00     0.101 A 
HETATM    3  C   UNK N   1      35.708  15.107   9.082  0.00  0.00     0.074 A 
HETATM    4  C   UNK N   1      35.114  15.127   6.791  0.00  0.00     0.034 A 
HETATM    5  C   UNK N   1      35.829  13.924   6.825  0.00  0.00     0.052 A 
ENDROOT
BRANCH   2   6
HETATM    6  S   UNK N   1      34.277  17.415   8.182  0.00  0.00     0.266 S 
HETATM    7  O   UNK N   1      34.272  18.125   6.819  0.00  0.00    -0.200 OA
HETATM    8  O   UNK N   1      35.195  18.369   8.958  0.00  0.00    -0.200 OA
BRANCH   6   9
HETATM    9  N   UNK N   1      32.684  17.732   8.851  0.00  0.00    -0.257 N 
HETATM   10  H   UNK N   1      32.607  18.204   9.710  0.00  0.00     0.181 HD
BRANCH   9  11
HETATM   11  C   UNK N   1      31.512  17.322   8.180  0.00  0.00     0.203 A 
HETATM   12  O   UNK N   1      31.478  16.570   7.102  0.00  0.00    -0.217 OA
HETATM   13  N   UNK N   1      30.253  16.416   6.687  0.00  0.00    -0.262 N 
HETATM   14  C   UNK N   1      29.453  17.109   7.525  0.00  0.00     0.055 A 
ATOM     15  HN  UNK N   1      29.953  15.872   5.877  1.00  0.00     0.194 HD
HETATM   16  C   UNK N   1      30.229  17.698   8.495  0.00  0.00     0.112 A 
HETATM   17  C   UNK N   1      27.979  17.229   7.370  0.00  0.00     0.072 C 
HETATM   18 Cl   UNK N   1      29.709  18.757   9.796  0.00  0.00    -0.077 Cl
ENDBRANCH   9  11
ENDBRANCH   6   9
ENDBRANCH   2   6
BRANCH   3  19
HETATM   19  C   UNK N   1      35.830  15.452  10.518  0.00  0.00     0.172 C 
HETATM   20  O   UNK N   1      36.760  16.149  10.895  0.00  0.00    -0.291 OA
BRANCH  19  21
HETATM   21  C   UNK N   1      34.946  14.776  11.525  0.00  0.00     0.123 C 
BRANCH  21  22
HETATM   22  C   UNK N   1      35.335  13.426  12.070  0.00  0.00    -0.042 A 
HETATM   23  C   UNK N   1      36.050  13.369  13.301  0.00  0.00    -0.052 A 
HETATM   24  C   UNK N   1      36.399  12.128  13.861  0.00  0.00     0.047 A 
HETATM   25  C   UNK N   1      36.438  14.612  14.027  0.00  0.00     0.049 C 
HETATM   26  C   UNK N   1      36.018  10.981  13.181  0.00  0.00     0.105 A 
HETATM   27  O   UNK N   1      36.227   9.713  13.526  0.00  0.00    -0.323 OA
HETATM   28  C   UNK N   1      35.345  11.022  12.026  0.00  0.00     0.105 A 
HETATM   29  C   UNK N   1      35.658   8.890  12.549  0.00  0.00     0.352 A 
HETATM   30  O   UNK N   1      35.110   9.777  11.615  0.00  0.00    -0.323 OA
HETATM   31  C   UNK N   1      34.977  12.223  11.418  0.00  0.00     0.047 A 
ENDBRANCH  21  22
ENDBRANCH  19  21
ENDBRANCH   3  19
TORSDOF 6
ENDMDL
MODEL 6
REMARK VINA RESULT:      -7.4      1.684      2.506
REMARK  6 active torsions:
REMARK  status: ('A' for Active; 'I' for Inactive)
REMARK    1  A    between atoms: S_2  and  N_10 
REMARK    2  A    between atoms: S_2  and  C_16 
REMARK    3  A    between atoms: N_10  and  C_27 
REMARK    4  A    between atoms: C_13  and  C_14 
REMARK    5  A    between atoms: C_14  and  C_19 
REMARK    6  A    between atoms: C_17  and  C_19 
ROOT
HETATM    1  S   UNK N   1      36.376  10.700  11.534  0.00  0.00    -0.097 SA
HETATM    2  C   UNK N   1      36.063  13.089  11.061  0.00  0.00     0.101 A 
HETATM    3  C   UNK N   1      35.949  12.185  12.134  0.00  0.00     0.074 A 
HETATM    4  C   UNK N   1      36.483  12.474   9.848  0.00  0.00     0.034 A 
HETATM    5  C   UNK N   1      36.696  11.095   9.952  0.00  0.00     0.052 A 
ENDROOT
BRANCH   2   6
HETATM    6  S   UNK N   1      35.865  14.874  11.162  0.00  0.00     0.266 S 
HETATM    7  O   UNK N   1      37.010  15.589  10.427  0.00  0.00    -0.200 OA
HETATM    8  O   UNK N   1      36.146  15.358  12.592  0.00  0.00    -0.200 OA
BRANCH   6   9
HETATM    9  N   UNK N   1      34.421  15.760  10.698  0.00  0.00    -0.257 N 
HETATM   10  H   UNK N   1      33.608  15.677  11.246  0.00  0.00     0.181 HD
BRANCH   9  11
HETATM   11  C   UNK N   1      34.404  16.587   9.555  0.00  0.00     0.203 A 
HETATM   12  O   UNK N   1      34.797  17.841   9.520  0.00  0.00    -0.217 OA
HETATM   13  N   UNK N   1      34.603  18.352   8.337  0.00  0.00    -0.262 N 
HETATM   14  C   UNK N   1      34.047  17.389   7.569  0.00  0.00     0.055 A 
ATOM     15  HN  UNK N   1      34.829  19.302   8.044  1.00  0.00     0.194 HD
HETATM   16  C   UNK N   1      33.910  16.246   8.320  0.00  0.00     0.112 A 
HETATM   17  C   UNK N   1      33.625  17.584   6.157  0.00  0.00     0.072 C 
HETATM   18 Cl   UNK N   1      33.192  14.719   7.834  0.00  0.00    -0.077 Cl
ENDBRANCH   9  11
ENDBRANCH   6   9
ENDBRANCH   2   6
BRANCH   3  19
HETATM   19  C   UNK N   1      35.514  12.426  13.531  0.00  0.00     0.172 C 
HETATM   20  O   UNK N   1      34.362  12.768  13.754  0.00  0.00    -0.291 OA
BRANCH  19  21
HETATM   21  C   UNK N   1      36.531  12.460  14.634  0.00  0.00     0.123 C 
BRANCH  21  22
HETATM   22  C   UNK N   1      36.098  12.203  16.054  0.00  0.00    -0.042 A 
HETATM   23  C   UNK N   1      36.207  10.878  16.569  0.00  0.00    -0.052 A 
HETATM   24  C   UNK N   1      35.848  10.604  17.900  0.00  0.00     0.047 A 
HETATM   25  C   UNK N   1      36.706   9.758  15.721  0.00  0.00     0.049 C 
HETATM   26  C   UNK N   1      35.400  11.660  18.681  0.00  0.00     0.105 A 
HETATM   27  O   UNK N   1      35.022  11.637  19.956  0.00  0.00    -0.323 OA
HETATM   28  C   UNK N   1      35.296  12.906  18.209  0.00  0.00     0.105 A 
HETATM   29  C   UNK N   1      34.659  12.934  20.332  0.00  0.00     0.352 A 
HETATM   30  O   UNK N   1      34.851  13.703  19.179  0.00  0.00    -0.323 OA
HETATM   31  C   UNK N   1      35.630  13.239  16.895  0.00  0.00     0.047 A 
ENDBRANCH  21  22
ENDBRANCH  19  21
ENDBRANCH   3  19
TORSDOF 6
ENDMDL
MODEL 7
REMARK VINA RESULT:      -7.3     12.845     15.231
REMARK  6 active torsions:
REMARK  status: ('A' for Active; 'I' for Inactive)
REMARK    1  A    between atoms: S_2  and  N_10 
REMARK    2  A    between atoms: S_2  and  C_16 
REMARK    3  A    between atoms: N_10  and  C_27 
REMARK    4  A    between atoms: C_13  and  C_14 
REMARK    5  A    between atoms: C_14  and  C_19 
REMARK    6  A    between atoms: C_17  and  C_19 
ROOT
HETATM    1  S   UNK N   1      20.216  15.558   8.701  0.00  0.00    -0.097 SA
HETATM    2  C   UNK N   1      20.938  16.204   6.445  0.00  0.00     0.101 A 
HETATM    3  C   UNK N   1      20.750  15.043   7.219  0.00  0.00     0.074 A 
HETATM    4  C   UNK N   1      20.632  17.405   7.145  0.00  0.00     0.034 A 
HETATM    5  C   UNK N   1      20.210  17.203   8.465  0.00  0.00     0.052 A 
ENDROOT
BRANCH   2   6
HETATM    6  S   UNK N   1      21.369  16.247   4.699  0.00  0.00     0.266 S 
HETATM    7  O   UNK N   1      20.146  15.915   3.830  0.00  0.00    -0.200 OA
HETATM    8  O   UNK N   1      22.261  15.049   4.343  0.00  0.00    -0.200 OA
BRANCH   6   9
HETATM    9  N   UNK N   1      22.140  17.597   3.881  0.00  0.00    -0.257 N 
HETATM   10  H   UNK N   1      21.677  18.032   3.128  0.00  0.00     0.181 HD
BRANCH   9  11
HETATM   11  C   UNK N   1      23.407  18.071   4.281  0.00  0.00     0.203 A 
HETATM   12  O   UNK N   1      24.211  17.467   5.128  0.00  0.00    -0.217 OA
HETATM   13  N   UNK N   1      25.280  18.180   5.338  0.00  0.00    -0.262 N 
HETATM   14  C   UNK N   1      25.161  19.308   4.605  0.00  0.00     0.055 A 
ATOM     15  HN  UNK N   1      26.061  17.934   5.946  1.00  0.00     0.194 HD
HETATM   16  C   UNK N   1      23.974  19.266   3.913  0.00  0.00     0.112 A 
HETATM   17  C   UNK N   1      26.155  20.415   4.603  0.00  0.00     0.072 C 
HETATM   18 Cl   UNK N   1      23.297  20.498   2.860  0.00  0.00    -0.077 Cl
ENDBRANCH   9  11
ENDBRANCH   6   9
ENDBRANCH   2   6
BRANCH   3  19
HETATM   19  C   UNK N   1      20.988  13.623   6.866  0.00  0.00     0.172 C 
HETATM   20  O   UNK N   1      20.038  12.895   6.619  0.00  0.00    -0.291 OA
BRANCH  19  21
HETATM   21  C   UNK N   1      22.361  13.036   7.020  0.00  0.00     0.123 C 
BRANCH  21  22
HETATM   22  C   UNK N   1      22.903  12.765   8.399  0.00  0.00    -0.042 A 
HETATM   23  C   UNK N   1      24.302  12.923   8.624  0.00  0.00    -0.052 A 
HETATM   24  C   UNK N   1      24.841  12.715   9.905  0.00  0.00     0.047 A 
HETATM   25  C   UNK N   1      25.222  13.316   7.519  0.00  0.00     0.049 C 
HETATM   26  C   UNK N   1      23.970  12.365  10.926  0.00  0.00     0.105 A 
HETATM   27  O   UNK N   1      24.253  12.134  12.205  0.00  0.00    -0.323 OA
HETATM   28  C   UNK N   1      22.656  12.216  10.727  0.00  0.00     0.105 A 
HETATM   29  C   UNK N   1      23.063  11.824  12.871  0.00  0.00     0.352 A 
HETATM   30  O   UNK N   1      22.076  11.889  11.881  0.00  0.00    -0.323 OA
HETATM   31  C   UNK N   1      22.063  12.401   9.477  0.00  0.00     0.047 A 
ENDBRANCH  21  22
ENDBRANCH  19  21
ENDBRANCH   3  19
TORSDOF 6
ENDMDL
MODEL 8
REMARK VINA RESULT:      -7.3     20.865     23.568
REMARK  6 active torsions:
REMARK  status: ('A' for Active; 'I' for Inactive)
REMARK    1  A    between atoms: S_2  and  N_10 
REMARK    2  A    between atoms: S_2  and  C_16 
REMARK    3  A    between atoms: N_10  and  C_27 
REMARK    4  A    between atoms: C_13  and  C_14 
REMARK    5  A    between atoms: C_14  and  C_19 
REMARK    6  A    between atoms: C_17  and  C_19 
ROOT
HETATM    1  S   UNK N   1      30.757  25.750  -5.368  0.00  0.00    -0.097 SA
HETATM    2  C   UNK N   1      28.507  25.636  -4.391  0.00  0.00     0.101 A 
HETATM    3  C   UNK N   1      29.373  24.858  -5.184  0.00  0.00     0.074 A 
HETATM    4  C   UNK N   1      29.062  26.893  -4.017  0.00  0.00     0.034 A 
HETATM    5  C   UNK N   1      30.352  27.115  -4.512  0.00  0.00     0.052 A 
ENDROOT
BRANCH   2   6
HETATM    6  S   UNK N   1      26.913  25.111  -3.745  0.00  0.00     0.266 S 
HETATM    7  O   UNK N   1      26.297  26.209  -2.864  0.00  0.00    -0.200 OA
HETATM    8  O   UNK N   1      27.104  24.018  -2.685  0.00  0.00    -0.200 OA
BRANCH   6   9
HETATM    9  N   UNK N   1      25.573  24.521  -4.716  0.00  0.00    -0.257 N 
HETATM   10  H   UNK N   1      24.778  24.153  -4.267  0.00  0.00     0.181 HD
BRANCH   9  11
HETATM   11  C   UNK N   1      25.614  24.564  -6.126  0.00  0.00     0.203 A 
HETATM   12  O   UNK N   1      25.556  23.517  -6.919  0.00  0.00    -0.217 OA
HETATM   13  N   UNK N   1      25.677  23.876  -8.165  0.00  0.00    -0.262 N 
HETATM   14  C   UNK N   1      25.835  25.218  -8.184  0.00  0.00     0.055 A 
ATOM     15  HN  UNK N   1      25.657  23.259  -8.977  1.00  0.00     0.194 HD
HETATM   16  C   UNK N   1      25.796  25.688  -6.893  0.00  0.00     0.112 A 
HETATM   17  C   UNK N   1      26.056  26.019  -9.418  0.00  0.00     0.072 C 
HETATM   18 Cl   UNK N   1      26.009  27.342  -6.342  0.00  0.00    -0.077 Cl
ENDBRANCH   9  11
ENDBRANCH   6   9
ENDBRANCH   2   6
BRANCH   3  19
HETATM   19  C   UNK N   1      29.153  23.523  -5.791  0.00  0.00     0.172 C 
HETATM   20  O   UNK N   1      28.731  23.443  -6.935  0.00  0.00    -0.291 OA
BRANCH  19  21
HETATM   21  C   UNK N   1      29.242  22.292  -4.938  0.00  0.00     0.123 C 
BRANCH  21  22
HETATM   22  C   UNK N   1      30.594  21.728  -4.585  0.00  0.00    -0.042 A 
HETATM   23  C   UNK N   1      31.140  22.020  -3.302  0.00  0.00    -0.052 A 
HETATM   24  C   UNK N   1      32.382  21.483  -2.921  0.00  0.00     0.047 A 
HETATM   25  C   UNK N   1      30.413  22.890  -2.333  0.00  0.00     0.049 C 
HETATM   26  C   UNK N   1      33.038  20.663  -3.827  0.00  0.00     0.105 A 
HETATM   27  O   UNK N   1      34.205  20.042  -3.678  0.00  0.00    -0.323 OA
HETATM   28  C   UNK N   1      32.535  20.380  -5.032  0.00  0.00     0.105 A 
HETATM   29  C   UNK N   1      34.470  19.316  -4.843  0.00  0.00     0.352 A 
HETATM   30  O   UNK N   1      33.373  19.569  -5.675  0.00  0.00    -0.323 OA
HETATM   31  C   UNK N   1      31.311  20.889  -5.470  0.00  0.00     0.047 A 
ENDBRANCH  21  22
ENDBRANCH  19  21
ENDBRANCH   3  19
TORSDOF 6
ENDMDL
MODEL 9
REMARK VINA RESULT:      -7.3      4.093      9.645
REMARK  6 active torsions:
REMARK  status: ('A' for Active; 'I' for Inactive)
REMARK    1  A    between atoms: S_2  and  N_10 
REMARK    2  A    between atoms: S_2  and  C_16 
REMARK    3  A    between atoms: N_10  and  C_27 
REMARK    4  A    between atoms: C_13  and  C_14 
REMARK    5  A    between atoms: C_14  and  C_19 
REMARK    6  A    between atoms: C_17  and  C_19 
ROOT
HETATM    1  S   UNK N   1      33.236  13.553   7.665  0.00  0.00    -0.097 SA
HETATM    2  C   UNK N   1      34.832  14.361   9.345  0.00  0.00     0.101 A 
HETATM    3  C   UNK N   1      34.366  14.698   8.060  0.00  0.00     0.074 A 
HETATM    4  C   UNK N   1      34.221  13.191   9.879  0.00  0.00     0.034 A 
HETATM    5  C   UNK N   1      33.283  12.599   9.025  0.00  0.00     0.052 A 
ENDROOT
BRANCH   2   6
HETATM    6  S   UNK N   1      35.967  15.337  10.343  0.00  0.00     0.266 S 
HETATM    7  O   UNK N   1      35.684  16.838  10.174  0.00  0.00    -0.200 OA
HETATM    8  O   UNK N   1      37.380  15.281   9.748  0.00  0.00    -0.200 OA
BRANCH   6   9
HETATM    9  N   UNK N   1      36.231  15.130  12.068  0.00  0.00    -0.257 N 
HETATM   10  H   UNK N   1      36.594  15.879  12.593  0.00  0.00     0.181 HD
BRANCH   9  11
HETATM   11  C   UNK N   1      35.934  13.911  12.714  0.00  0.00     0.203 A 
HETATM   12  O   UNK N   1      35.005  13.744  13.628  0.00  0.00    -0.217 OA
HETATM   13  N   UNK N   1      35.013  12.520  14.075  0.00  0.00    -0.262 N 
HETATM   14  C   UNK N   1      36.004  11.864  13.433  0.00  0.00     0.055 A 
ATOM     15  HN  UNK N   1      34.389  12.130  14.781  1.00  0.00     0.194 HD
HETATM   16  C   UNK N   1      36.610  12.727  12.551  0.00  0.00     0.112 A 
HETATM   17  C   UNK N   1      36.377  10.448  13.693  0.00  0.00     0.072 C 
HETATM   18 Cl   UNK N   1      37.988  12.410  11.510  0.00  0.00    -0.077 Cl
ENDBRANCH   9  11
ENDBRANCH   6   9
ENDBRANCH   2   6
BRANCH   3  19
HETATM   19  C   UNK N   1      34.774  15.810   7.169  0.00  0.00     0.172 C 
HETATM   20  O   UNK N   1      35.742  15.672   6.436  0.00  0.00    -0.291 OA
BRANCH  19  21
HETATM   21  C   UNK N   1      34.138  17.160   7.322  0.00  0.00     0.123 C 
BRANCH  21  22
HETATM   22  C   UNK N   1      32.637  17.271   7.393  0.00  0.00    -0.042 A 
HETATM   23  C   UNK N   1      31.889  17.175   6.184  0.00  0.00    -0.052 A 
HETATM   24  C   UNK N   1      30.485  17.237   6.212  0.00  0.00     0.047 A 
HETATM   25  C   UNK N   1      32.567  17.001   4.868  0.00  0.00     0.049 C 
HETATM   26  C   UNK N   1      29.868  17.384   7.446  0.00  0.00     0.105 A 
HETATM   27  O   UNK N   1      28.566  17.452   7.711  0.00  0.00    -0.323 OA
HETATM   28  C   UNK N   1      30.559  17.473   8.587  0.00  0.00     0.105 A 
HETATM   29  C   UNK N   1      28.404  17.588   9.094  0.00  0.00     0.352 A 
HETATM   30  O   UNK N   1      29.707  17.597   9.603  0.00  0.00    -0.323 OA
HETATM   31  C   UNK N   1      31.954  17.425   8.622  0.00  0.00     0.047 A 
ENDBRANCH  21  22
ENDBRANCH  19  21
ENDBRANCH   3  19
TORSDOF 6
ENDMDL
