MODEL 1
REMARK VINA RESULT:      -8.5      0.000      0.000
REMARK  7 active torsions:
REMARK  status: ('A' for Active; 'I' for Inactive)
REMARK    1  A    between atoms: O_2  and  C_31 
REMARK    2  A    between atoms: N_3  and  C_13 
REMARK    3  A    between atoms: N_4  and  C_8 
REMARK       I    between atoms: N_4  and  C_15 
REMARK    4  A    between atoms: N_5  and  C_18 
REMARK    5  A    between atoms: C_13  and  C_14 
REMARK    6  A    between atoms: C_14  and  C_16 
REMARK    7  A    between atoms: C_18  and  C_21 
ROOT
HETATM    1  N   UNK N   1      23.550  15.130   6.073  0.00  0.00    -0.221 N 
HETATM    2  N   UNK N   1      21.599  14.646   7.522  0.00  0.00    -0.177 N 
HETATM    3  N   UNK N   1      21.897  16.758   6.766  0.00  0.00    -0.190 N 
ATOM      4  HN  UNK N   1      22.266  17.562   6.259  1.00  0.00     0.184 HD
HETATM    5  C   UNK N   1      22.351  15.479   6.744  0.00  0.00     0.682 A 
HETATM    6  C   UNK N   1      20.674  15.452   8.074  0.00  0.00     0.079 A 
HETATM    7  C   UNK N   1      20.854  16.721   7.608  0.00  0.00     0.076 A 
HETATM    8  C   UNK N   1      19.684  15.148   9.008  0.00  0.00     0.032 A 
HETATM    9  C   UNK N   1      20.060  17.784   8.026  0.00  0.00     0.032 A 
HETATM   10  C   UNK N   1      18.858  16.196   9.451  0.00  0.00     0.002 A 
HETATM   11  C   UNK N   1      19.045  17.509   8.961  0.00  0.00     0.002 A 
HETATM   12  H   UNK N   1      23.788  15.622   5.255  0.00  0.00     0.178 HD
ENDROOT
BRANCH   1  13
HETATM   13  C   UNK N   1      24.439  14.089   6.531  0.00  0.00     0.102 C 
HETATM   14  C   UNK N   1      25.594  14.696   7.334  0.00  0.00     0.056 C 
HETATM   15  C   UNK N   1      26.403  15.688   6.480  0.00  0.00     0.274 C 
HETATM   16  N   UNK N   1      26.660  15.233   5.100  0.00  0.00     0.088 N 
HETATM   17  C   UNK N   1      26.411  13.799   4.888  0.00  0.00     0.274 C 
HETATM   18  C   UNK N   1      24.999  13.340   5.317  0.00  0.00     0.056 C 
BRANCH  16  19
HETATM   19  C   UNK N   1      25.876  16.022   4.153  0.00  0.00     0.277 C 
BRANCH  19  20
HETATM   20  C   UNK N   1      26.251  17.504   4.234  0.00  0.00     0.068 C 
BRANCH  20  21
HETATM   21  C   UNK N   1      25.152  18.457   3.842  0.00  0.00    -0.056 A 
HETATM   22  C   UNK N   1      23.802  18.187   4.112  0.00  0.00     0.010 A 
HETATM   23  C   UNK N   1      22.810  19.096   3.729  0.00  0.00     0.037 A 
HETATM   24  C   UNK N   1      23.158  20.289   3.072  0.00  0.00     0.068 A 
HETATM   25  C   UNK N   1      24.505  20.558   2.808  0.00  0.00     0.037 A 
HETATM   26  C   UNK N   1      25.496  19.647   3.191  0.00  0.00     0.010 A 
BRANCH  24  27
HETATM   27  O   UNK N   1      22.220  21.187   2.686  0.00  0.00    -0.356 OA
HETATM   28  C   UNK N   1      21.008  20.825   2.143  0.00  0.00     0.210 C 
ENDBRANCH  24  27
ENDBRANCH  20  21
ENDBRANCH  19  20
ENDBRANCH  16  19
ENDBRANCH   1  13
BRANCH   2  29
HETATM   29  C   UNK N   1      21.778  13.208   7.770  0.00  0.00     0.186 C 
BRANCH  29  30
HETATM   30  C   UNK N   1      22.186  12.874   9.189  0.00  0.00    -0.039 A 
HETATM   31  C   UNK N   1      23.533  12.723   9.545  0.00  0.00     0.012 A 
HETATM   32  C   UNK N   1      23.896  12.332  10.835  0.00  0.00     0.043 A 
HETATM   33  C   UNK N   1      22.909  12.066  11.785  0.00  0.00     0.116 A 
HETATM   34  F   UNK N   1      23.260  11.661  13.030  0.00  0.00    -0.206 F 
HETATM   35  C   UNK N   1      21.559  12.206  11.444  0.00  0.00     0.043 A 
HETATM   36  C   UNK N   1      21.198  12.610  10.150  0.00  0.00     0.012 A 
ENDBRANCH  29  30
ENDBRANCH   2  29
TORSDOF 7
ENDMDL
MODEL 2
REMARK VINA RESULT:      -8.2      6.122      9.201
REMARK  7 active torsions:
REMARK  status: ('A' for Active; 'I' for Inactive)
REMARK    1  A    between atoms: O_2  and  C_31 
REMARK    2  A    between atoms: N_3  and  C_13 
REMARK    3  A    between atoms: N_4  and  C_8 
REMARK       I    between atoms: N_4  and  C_15 
REMARK    4  A    between atoms: N_5  and  C_18 
REMARK    5  A    between atoms: C_13  and  C_14 
REMARK    6  A    between atoms: C_14  and  C_16 
REMARK    7  A    between atoms: C_18  and  C_21 
ROOT
HETATM    1  N   UNK N   1      29.442  15.888   4.149  0.00  0.00    -0.221 N 
HETATM    2  N   UNK N   1      28.233  16.954   6.030  0.00  0.00    -0.177 N 
HETATM    3  N   UNK N   1      30.496  16.926   6.065  0.00  0.00    -0.190 N 
ATOM      4  HN  UNK N   1      31.467  16.794   5.784  1.00  0.00     0.184 HD
HETATM    5  C   UNK N   1      29.376  16.609   5.367  0.00  0.00     0.682 A 
HETATM    6  C   UNK N   1      28.667  17.464   7.197  0.00  0.00     0.079 A 
HETATM    7  C   UNK N   1      30.031  17.453   7.208  0.00  0.00     0.076 A 
HETATM    8  C   UNK N   1      27.930  17.915   8.292  0.00  0.00     0.032 A 
HETATM    9  C   UNK N   1      30.767  17.896   8.301  0.00  0.00     0.032 A 
HETATM   10  C   UNK N   1      28.640  18.375   9.414  0.00  0.00     0.002 A 
HETATM   11  C   UNK N   1      30.054  18.367   9.419  0.00  0.00     0.002 A 
HETATM   12  H   UNK N   1      30.217  16.034   3.560  0.00  0.00     0.178 HD
ENDROOT
BRANCH   1  13
HETATM   13  C   UNK N   1      28.429  14.948   3.729  0.00  0.00     0.102 C 
HETATM   14  C   UNK N   1      28.523  13.664   4.560  0.00  0.00     0.056 C 
HETATM   15  C   UNK N   1      29.901  12.999   4.402  0.00  0.00     0.274 C 
HETATM   16  N   UNK N   1      30.415  12.988   3.019  0.00  0.00     0.088 N 
HETATM   17  C   UNK N   1      29.397  13.290   2.001  0.00  0.00     0.274 C 
HETATM   18  C   UNK N   1      28.640  14.614   2.248  0.00  0.00     0.056 C 
BRANCH  16  19
HETATM   19  C   UNK N   1      31.541  13.911   2.890  0.00  0.00     0.277 C 
BRANCH  19  20
HETATM   20  C   UNK N   1      32.626  13.598   3.923  0.00  0.00     0.068 C 
BRANCH  20  21
HETATM   21  C   UNK N   1      33.099  14.783   4.724  0.00  0.00    -0.056 A 
HETATM   22  C   UNK N   1      33.407  14.682   6.089  0.00  0.00     0.010 A 
HETATM   23  C   UNK N   1      33.839  15.806   6.800  0.00  0.00     0.037 A 
HETATM   24  C   UNK N   1      33.971  17.047   6.152  0.00  0.00     0.068 A 
HETATM   25  C   UNK N   1      33.668  17.143   4.790  0.00  0.00     0.037 A 
HETATM   26  C   UNK N   1      33.235  16.018   4.080  0.00  0.00     0.010 A 
BRANCH  24  27
HETATM   27  O   UNK N   1      34.385  18.154   6.813  0.00  0.00    -0.356 OA
HETATM   28  C   UNK N   1      34.509  18.211   8.184  0.00  0.00     0.210 C 
ENDBRANCH  24  27
ENDBRANCH  20  21
ENDBRANCH  19  20
ENDBRANCH  16  19
ENDBRANCH   1  13
BRANCH   2  29
HETATM   29  C   UNK N   1      26.836  16.761   5.618  0.00  0.00     0.186 C 
BRANCH  29  30
HETATM   30  C   UNK N   1      26.291  17.871   4.744  0.00  0.00    -0.039 A 
HETATM   31  C   UNK N   1      27.129  18.865   4.220  0.00  0.00     0.012 A 
HETATM   32  C   UNK N   1      26.606  19.931   3.486  0.00  0.00     0.043 A 
HETATM   33  C   UNK N   1      25.229  20.028   3.284  0.00  0.00     0.116 A 
HETATM   34  F   UNK N   1      24.719  21.078   2.594  0.00  0.00    -0.206 F 
HETATM   35  C   UNK N   1      24.379  19.047   3.806  0.00  0.00     0.043 A 
HETATM   36  C   UNK N   1      24.908  17.972   4.534  0.00  0.00     0.012 A 
ENDBRANCH  29  30
ENDBRANCH   2  29
TORSDOF 7
ENDMDL
MODEL 3
REMARK VINA RESULT:      -8.0      2.527      4.615
REMARK  7 active torsions:
REMARK  status: ('A' for Active; 'I' for Inactive)
REMARK    1  A    between atoms: O_2  and  C_31 
REMARK    2  A    between atoms: N_3  and  C_13 
REMARK    3  A    between atoms: N_4  and  C_8 
REMARK       I    between atoms: N_4  and  C_15 
REMARK    4  A    between atoms: N_5  and  C_18 
REMARK    5  A    between atoms: C_13  and  C_14 
REMARK    6  A    between atoms: C_14  and  C_16 
REMARK    7  A    between atoms: C_18  and  C_21 
ROOT
HETATM    1  N   UNK N   1      24.200  13.848   6.023  0.00  0.00    -0.221 N 
HETATM    2  N   UNK N   1      22.724  13.398   7.961  0.00  0.00    -0.177 N 
HETATM    3  N   UNK N   1      24.964  13.208   8.229  0.00  0.00    -0.190 N 
ATOM      4  HN  UNK N   1      25.967  13.243   8.050  1.00  0.00     0.184 HD
HETATM    5  C   UNK N   1      23.954  13.533   7.383  0.00  0.00     0.682 A 
HETATM    6  C   UNK N   1      22.988  12.933   9.196  0.00  0.00     0.079 A 
HETATM    7  C   UNK N   1      24.338  12.829   9.354  0.00  0.00     0.076 A 
HETATM    8  C   UNK N   1      22.101  12.552  10.203  0.00  0.00     0.032 A 
HETATM    9  C   UNK N   1      24.913  12.347  10.525  0.00  0.00     0.032 A 
HETATM   10  C   UNK N   1      22.646  12.064  11.404  0.00  0.00     0.002 A 
HETATM   11  C   UNK N   1      24.047  11.963  11.565  0.00  0.00     0.002 A 
HETATM   12  H   UNK N   1      25.039  14.309   5.794  0.00  0.00     0.178 HD
ENDROOT
BRANCH   1  13
HETATM   13  C   UNK N   1      23.282  13.525   4.956  0.00  0.00     0.102 C 
HETATM   14  C   UNK N   1      23.809  12.336   4.147  0.00  0.00     0.056 C 
HETATM   15  C   UNK N   1      25.183  12.649   3.530  0.00  0.00     0.274 C 
HETATM   16  N   UNK N   1      25.297  14.003   2.956  0.00  0.00     0.088 N 
HETATM   17  C   UNK N   1      24.005  14.680   2.762  0.00  0.00     0.274 C 
HETATM   18  C   UNK N   1      23.135  14.743   4.037  0.00  0.00     0.056 C 
BRANCH  16  19
HETATM   19  C   UNK N   1      26.176  14.830   3.780  0.00  0.00     0.277 C 
BRANCH  19  20
HETATM   20  C   UNK N   1      26.714  16.021   2.983  0.00  0.00     0.068 C 
BRANCH  20  21
HETATM   21  C   UNK N   1      26.614  17.349   3.685  0.00  0.00    -0.056 A 
HETATM   22  C   UNK N   1      27.752  18.084   4.052  0.00  0.00     0.010 A 
HETATM   23  C   UNK N   1      27.618  19.313   4.706  0.00  0.00     0.037 A 
HETATM   24  C   UNK N   1      26.341  19.824   5.000  0.00  0.00     0.068 A 
HETATM   25  C   UNK N   1      25.209  19.092   4.628  0.00  0.00     0.037 A 
HETATM   26  C   UNK N   1      25.345  17.862   3.975  0.00  0.00     0.010 A 
BRANCH  24  27
HETATM   27  O   UNK N   1      26.179  21.009   5.634  0.00  0.00    -0.356 OA
HETATM   28  C   UNK N   1      27.210  21.680   6.254  0.00  0.00     0.210 C 
ENDBRANCH  24  27
ENDBRANCH  20  21
ENDBRANCH  19  20
ENDBRANCH  16  19
ENDBRANCH   1  13
BRANCH   2  29
HETATM   29  C   UNK N   1      21.399  13.634   7.372  0.00  0.00     0.186 C 
BRANCH  29  30
HETATM   30  C   UNK N   1      20.817  14.996   7.686  0.00  0.00    -0.039 A 
HETATM   31  C   UNK N   1      21.204  16.138   6.971  0.00  0.00     0.012 A 
HETATM   32  C   UNK N   1      20.726  17.402   7.323  0.00  0.00     0.043 A 
HETATM   33  C   UNK N   1      19.868  17.542   8.414  0.00  0.00     0.116 A 
HETATM   34  F   UNK N   1      19.425  18.772   8.772  0.00  0.00    -0.206 F 
HETATM   35  C   UNK N   1      19.477  16.412   9.142  0.00  0.00     0.043 A 
HETATM   36  C   UNK N   1      19.950  15.143   8.779  0.00  0.00     0.012 A 
ENDBRANCH  29  30
ENDBRANCH   2  29
TORSDOF 7
ENDMDL
MODEL 4
REMARK VINA RESULT:      -7.8      3.327      5.641
REMARK  7 active torsions:
REMARK  status: ('A' for Active; 'I' for Inactive)
REMARK    1  A    between atoms: O_2  and  C_31 
REMARK    2  A    between atoms: N_3  and  C_13 
REMARK    3  A    between atoms: N_4  and  C_8 
REMARK       I    between atoms: N_4  and  C_15 
REMARK    4  A    between atoms: N_5  and  C_18 
REMARK    5  A    between atoms: C_13  and  C_14 
REMARK    6  A    between atoms: C_14  and  C_16 
REMARK    7  A    between atoms: C_18  and  C_21 
ROOT
HETATM    1  N   UNK N   1      24.415  14.248   6.189  0.00  0.00    -0.221 N 
HETATM    2  N   UNK N   1      22.871  13.557   7.999  0.00  0.00    -0.177 N 
HETATM    3  N   UNK N   1      25.099  13.519   8.394  0.00  0.00    -0.190 N 
ATOM      4  HN  UNK N   1      26.105  13.642   8.281  1.00  0.00     0.184 HD
HETATM    5  C   UNK N   1      24.117  13.823   7.508  0.00  0.00     0.682 A 
HETATM    6  C   UNK N   1      23.099  13.031   9.216  0.00  0.00     0.079 A 
HETATM    7  C   UNK N   1      24.443  13.019   9.452  0.00  0.00     0.076 A 
HETATM    8  C   UNK N   1      22.190  12.515  10.139  0.00  0.00     0.032 A 
HETATM    9  C   UNK N   1      24.986  12.503  10.623  0.00  0.00     0.032 A 
HETATM   10  C   UNK N   1      22.701  11.990  11.339  0.00  0.00     0.002 A 
HETATM   11  C   UNK N   1      24.094  11.985  11.581  0.00  0.00     0.002 A 
HETATM   12  H   UNK N   1      25.226  14.786   6.043  0.00  0.00     0.178 HD
ENDROOT
BRANCH   1  13
HETATM   13  C   UNK N   1      23.588  13.929   5.049  0.00  0.00     0.102 C 
HETATM   14  C   UNK N   1      24.333  12.980   4.105  0.00  0.00     0.056 C 
HETATM   15  C   UNK N   1      25.641  13.613   3.598  0.00  0.00     0.274 C 
HETATM   16  N   UNK N   1      25.522  15.035   3.225  0.00  0.00     0.088 N 
HETATM   17  C   UNK N   1      24.135  15.499   3.072  0.00  0.00     0.274 C 
HETATM   18  C   UNK N   1      23.244  15.224   4.304  0.00  0.00     0.056 C 
BRANCH  16  19
HETATM   19  C   UNK N   1      26.225  15.873   4.194  0.00  0.00     0.277 C 
BRANCH  19  20
HETATM   20  C   UNK N   1      27.458  15.154   4.748  0.00  0.00     0.068 C 
BRANCH  20  21
HETATM   21  C   UNK N   1      28.200  15.904   5.821  0.00  0.00    -0.056 A 
HETATM   22  C   UNK N   1      27.531  16.603   6.839  0.00  0.00     0.010 A 
HETATM   23  C   UNK N   1      28.256  17.291   7.816  0.00  0.00     0.037 A 
HETATM   24  C   UNK N   1      29.662  17.287   7.790  0.00  0.00     0.068 A 
HETATM   25  C   UNK N   1      30.326  16.586   6.779  0.00  0.00     0.037 A 
HETATM   26  C   UNK N   1      29.599  15.899   5.800  0.00  0.00     0.010 A 
BRANCH  24  27
HETATM   27  O   UNK N   1      30.392  17.947   8.721  0.00  0.00    -0.356 OA
HETATM   28  C   UNK N   1      29.828  18.718   9.714  0.00  0.00     0.210 C 
ENDBRANCH  24  27
ENDBRANCH  20  21
ENDBRANCH  19  20
ENDBRANCH  16  19
ENDBRANCH   1  13
BRANCH   2  29
HETATM   29  C   UNK N   1      21.567  13.731   7.344  0.00  0.00     0.186 C 
BRANCH  29  30
HETATM   30  C   UNK N   1      20.852  15.010   7.722  0.00  0.00    -0.039 A 
HETATM   31  C   UNK N   1      21.177  16.233   7.119  0.00  0.00     0.012 A 
HETATM   32  C   UNK N   1      20.572  17.421   7.534  0.00  0.00     0.043 A 
HETATM   33  C   UNK N   1      19.645  17.403   8.577  0.00  0.00     0.116 A 
HETATM   34  F   UNK N   1      19.078  18.561   8.997  0.00  0.00    -0.206 F 
HETATM   35  C   UNK N   1      19.315  16.191   9.193  0.00  0.00     0.043 A 
HETATM   36  C   UNK N   1      19.916  14.998   8.767  0.00  0.00     0.012 A 
ENDBRANCH  29  30
ENDBRANCH   2  29
TORSDOF 7
ENDMDL
MODEL 5
REMARK VINA RESULT:      -7.7     11.524     15.693
REMARK  7 active torsions:
REMARK  status: ('A' for Active; 'I' for Inactive)
REMARK    1  A    between atoms: O_2  and  C_31 
REMARK    2  A    between atoms: N_3  and  C_13 
REMARK    3  A    between atoms: N_4  and  C_8 
REMARK       I    between atoms: N_4  and  C_15 
REMARK    4  A    between atoms: N_5  and  C_18 
REMARK    5  A    between atoms: C_13  and  C_14 
REMARK    6  A    between atoms: C_14  and  C_16 
REMARK    7  A    between atoms: C_18  and  C_21 
ROOT
HETATM    1  N   UNK N   1      34.731  12.989  11.410  0.00  0.00    -0.221 N 
HETATM    2  N   UNK N   1      34.361  13.020   8.961  0.00  0.00    -0.177 N 
HETATM    3  N   UNK N   1      33.631  11.239  10.151  0.00  0.00    -0.190 N 
ATOM      4  HN  UNK N   1      33.396  10.626  10.931  1.00  0.00     0.184 HD
HETATM    5  C   UNK N   1      34.222  12.460  10.198  0.00  0.00     0.682 A 
HETATM    6  C   UNK N   1      33.875  12.090   8.118  0.00  0.00     0.079 A 
HETATM    7  C   UNK N   1      33.429  11.023   8.842  0.00  0.00     0.076 A 
HETATM    8  C   UNK N   1      33.830  12.100   6.725  0.00  0.00     0.032 A 
HETATM    9  C   UNK N   1      32.896   9.889   8.240  0.00  0.00     0.032 A 
HETATM   10  C   UNK N   1      33.293  10.972   6.080  0.00  0.00     0.002 A 
HETATM   11  C   UNK N   1      32.826   9.871   6.834  0.00  0.00     0.002 A 
HETATM   12  H   UNK N   1      34.265  12.770  12.249  0.00  0.00     0.178 HD
ENDROOT
BRANCH   1  13
HETATM   13  C   UNK N   1      35.900  13.834  11.476  0.00  0.00     0.102 C 
HETATM   14  C   UNK N   1      37.159  12.981  11.662  0.00  0.00     0.056 C 
HETATM   15  C   UNK N   1      37.082  12.152  12.957  0.00  0.00     0.274 C 
HETATM   16  N   UNK N   1      36.545  12.888  14.117  0.00  0.00     0.088 N 
HETATM   17  C   UNK N   1      36.506  14.347  13.934  0.00  0.00     0.274 C 
HETATM   18  C   UNK N   1      35.756  14.796  12.660  0.00  0.00     0.056 C 
BRANCH  16  19
HETATM   19  C   UNK N   1      35.215  12.391  14.460  0.00  0.00     0.277 C 
BRANCH  19  20
HETATM   20  C   UNK N   1      34.682  13.077  15.721  0.00  0.00     0.068 C 
BRANCH  20  21
HETATM   21  C   UNK N   1      35.043  12.395  17.014  0.00  0.00    -0.056 A 
HETATM   22  C   UNK N   1      35.345  11.025  17.073  0.00  0.00     0.010 A 
HETATM   23  C   UNK N   1      35.672  10.428  18.295  0.00  0.00     0.037 A 
HETATM   24  C   UNK N   1      35.704  11.194  19.473  0.00  0.00     0.068 A 
HETATM   25  C   UNK N   1      35.407  12.559  19.410  0.00  0.00     0.037 A 
HETATM   26  C   UNK N   1      35.079  13.156  18.187  0.00  0.00     0.010 A 
BRANCH  24  27
HETATM   27  O   UNK N   1      36.014  10.643  20.670  0.00  0.00    -0.356 OA
HETATM   28  C   UNK N   1      37.303  10.348  21.054  0.00  0.00     0.210 C 
ENDBRANCH  24  27
ENDBRANCH  20  21
ENDBRANCH  19  20
ENDBRANCH  16  19
ENDBRANCH   1  13
BRANCH   2  29
HETATM   29  C   UNK N   1      34.962  14.311   8.597  0.00  0.00     0.186 C 
BRANCH  29  30
HETATM   30  C   UNK N   1      33.994  15.474   8.634  0.00  0.00    -0.039 A 
HETATM   31  C   UNK N   1      32.617  15.273   8.800  0.00  0.00     0.012 A 
HETATM   32  C   UNK N   1      31.724  16.345   8.747  0.00  0.00     0.043 A 
HETATM   33  C   UNK N   1      32.198  17.635   8.506  0.00  0.00     0.116 A 
HETATM   34  F   UNK N   1      31.327  18.672   8.429  0.00  0.00    -0.206 F 
HETATM   35  C   UNK N   1      33.569  17.851   8.332  0.00  0.00     0.043 A 
HETATM   36  C   UNK N   1      34.465  16.774   8.396  0.00  0.00     0.012 A 
ENDBRANCH  29  30
ENDBRANCH   2  29
TORSDOF 7
ENDMDL
MODEL 6
REMARK VINA RESULT:      -7.7     12.201     14.650
REMARK  7 active torsions:
REMARK  status: ('A' for Active; 'I' for Inactive)
REMARK    1  A    between atoms: O_2  and  C_31 
REMARK    2  A    between atoms: N_3  and  C_13 
REMARK    3  A    between atoms: N_4  and  C_8 
REMARK       I    between atoms: N_4  and  C_15 
REMARK    4  A    between atoms: N_5  and  C_18 
REMARK    5  A    between atoms: C_13  and  C_14 
REMARK    6  A    between atoms: C_14  and  C_16 
REMARK    7  A    between atoms: C_18  and  C_21 
ROOT
HETATM    1  N   UNK N   1      34.967  12.566  13.522  0.00  0.00    -0.221 N 
HETATM    2  N   UNK N   1      35.054  11.159  15.560  0.00  0.00    -0.177 N 
HETATM    3  N   UNK N   1      34.917  13.407  15.792  0.00  0.00    -0.190 N 
ATOM      4  HN  UNK N   1      34.818  14.398  15.576  1.00  0.00     0.184 HD
HETATM    5  C   UNK N   1      34.940  12.363  14.925  0.00  0.00     0.682 A 
HETATM    6  C   UNK N   1      35.146  11.480  16.864  0.00  0.00     0.079 A 
HETATM    7  C   UNK N   1      35.054  12.834  16.997  0.00  0.00     0.076 A 
HETATM    8  C   UNK N   1      35.346  10.647  17.965  0.00  0.00     0.032 A 
HETATM    9  C   UNK N   1      35.145  13.465  18.233  0.00  0.00     0.032 A 
HETATM   10  C   UNK N   1      35.438  11.249  19.232  0.00  0.00     0.002 A 
HETATM   11  C   UNK N   1      35.336  12.653  19.366  0.00  0.00     0.002 A 
HETATM   12  H   UNK N   1      34.491  13.344  13.153  0.00  0.00     0.178 HD
ENDROOT
BRANCH   1  13
HETATM   13  C   UNK N   1      35.659  11.687  12.608  0.00  0.00     0.102 C 
HETATM   14  C   UNK N   1      37.039  12.258  12.270  0.00  0.00     0.056 C 
HETATM   15  C   UNK N   1      36.921  13.647  11.617  0.00  0.00     0.274 C 
HETATM   16  N   UNK N   1      35.842  13.758  10.617  0.00  0.00     0.088 N 
HETATM   17  C   UNK N   1      35.306  12.463  10.170  0.00  0.00     0.274 C 
HETATM   18  C   UNK N   1      34.833  11.551  11.324  0.00  0.00     0.056 C 
BRANCH  16  19
HETATM   19  C   UNK N   1      34.762  14.597  11.129  0.00  0.00     0.277 C 
BRANCH  19  20
HETATM   20  C   UNK N   1      34.933  16.049  10.676  0.00  0.00     0.068 C 
BRANCH  20  21
HETATM   21  C   UNK N   1      34.216  16.403   9.400  0.00  0.00    -0.056 A 
HETATM   22  C   UNK N   1      33.229  15.572   8.846  0.00  0.00     0.010 A 
HETATM   23  C   UNK N   1      32.588  15.935   7.657  0.00  0.00     0.037 A 
HETATM   24  C   UNK N   1      32.924  17.135   7.008  0.00  0.00     0.068 A 
HETATM   25  C   UNK N   1      33.904  17.963   7.564  0.00  0.00     0.037 A 
HETATM   26  C   UNK N   1      34.546  17.599   8.754  0.00  0.00     0.010 A 
BRANCH  24  27
HETATM   27  O   UNK N   1      32.323  17.511   5.854  0.00  0.00    -0.356 OA
HETATM   28  C   UNK N   1      32.937  17.434   4.624  0.00  0.00     0.210 C 
ENDBRANCH  24  27
ENDBRANCH  20  21
ENDBRANCH  19  20
ENDBRANCH  16  19
ENDBRANCH   1  13
BRANCH   2  29
HETATM   29  C   UNK N   1      35.130   9.813  14.975  0.00  0.00     0.186 C 
BRANCH  29  30
HETATM   30  C   UNK N   1      36.451   9.112  15.212  0.00  0.00    -0.039 A 
HETATM   31  C   UNK N   1      37.667   9.702  14.840  0.00  0.00     0.012 A 
HETATM   32  C   UNK N   1      38.873   9.013  14.985  0.00  0.00     0.043 A 
HETATM   33  C   UNK N   1      38.875   7.711  15.486  0.00  0.00     0.116 A 
HETATM   34  F   UNK N   1      40.043   7.032  15.601  0.00  0.00    -0.206 F 
HETATM   35  C   UNK N   1      37.668   7.106  15.855  0.00  0.00     0.043 A 
HETATM   36  C   UNK N   1      36.460   7.805  15.719  0.00  0.00     0.012 A 
ENDBRANCH  29  30
ENDBRANCH   2  29
TORSDOF 7
ENDMDL
MODEL 7
REMARK VINA RESULT:      -7.6      2.087      2.699
REMARK  7 active torsions:
REMARK  status: ('A' for Active; 'I' for Inactive)
REMARK    1  A    between atoms: O_2  and  C_31 
REMARK    2  A    between atoms: N_3  and  C_13 
REMARK    3  A    between atoms: N_4  and  C_8 
REMARK       I    between atoms: N_4  and  C_15 
REMARK    4  A    between atoms: N_5  and  C_18 
REMARK    5  A    between atoms: C_13  and  C_14 
REMARK    6  A    between atoms: C_14  and  C_16 
REMARK    7  A    between atoms: C_18  and  C_21 
ROOT
HETATM    1  N   UNK N   1      24.269  15.013   5.949  0.00  0.00    -0.221 N 
HETATM    2  N   UNK N   1      22.412  14.512   7.511  0.00  0.00    -0.177 N 
HETATM    3  N   UNK N   1      22.366  16.456   6.352  0.00  0.00    -0.190 N 
ATOM      4  HN  UNK N   1      22.603  17.194   5.689  1.00  0.00     0.184 HD
HETATM    5  C   UNK N   1      23.023  15.288   6.569  0.00  0.00     0.682 A 
HETATM    6  C   UNK N   1      21.363  15.250   7.919  0.00  0.00     0.079 A 
HETATM    7  C   UNK N   1      21.336  16.415   7.211  0.00  0.00     0.076 A 
HETATM    8  C   UNK N   1      20.429  14.978   8.918  0.00  0.00     0.032 A 
HETATM    9  C   UNK N   1      20.376  17.396   7.433  0.00  0.00     0.032 A 
HETATM   10  C   UNK N   1      19.439  15.945   9.168  0.00  0.00     0.002 A 
HETATM   11  C   UNK N   1      19.412  17.149   8.427  0.00  0.00     0.002 A 
HETATM   12  H   UNK N   1      24.430  15.367   5.045  0.00  0.00     0.178 HD
ENDROOT
BRANCH   1  13
HETATM   13  C   UNK N   1      25.313  14.240   6.579  0.00  0.00     0.102 C 
HETATM   14  C   UNK N   1      26.218  15.154   7.411  0.00  0.00     0.056 C 
HETATM   15  C   UNK N   1      26.874  16.235   6.532  0.00  0.00     0.274 C 
HETATM   16  N   UNK N   1      27.364  15.744   5.230  0.00  0.00     0.088 N 
HETATM   17  C   UNK N   1      27.457  14.279   5.140  0.00  0.00     0.274 C 
HETATM   18  C   UNK N   1      26.145  13.546   5.495  0.00  0.00     0.056 C 
BRANCH  16  19
HETATM   19  C   UNK N   1      26.527  16.259   4.148  0.00  0.00     0.277 C 
BRANCH  19  20
HETATM   20  C   UNK N   1      26.848  17.728   3.859  0.00  0.00     0.068 C 
BRANCH  20  21
HETATM   21  C   UNK N   1      25.646  18.603   3.619  0.00  0.00    -0.056 A 
HETATM   22  C   UNK N   1      24.355  18.217   4.011  0.00  0.00     0.010 A 
HETATM   23  C   UNK N   1      23.264  19.057   3.767  0.00  0.00     0.037 A 
HETATM   24  C   UNK N   1      23.451  20.296   3.129  0.00  0.00     0.068 A 
HETATM   25  C   UNK N   1      24.739  20.680   2.744  0.00  0.00     0.037 A 
HETATM   26  C   UNK N   1      25.830  19.838   2.988  0.00  0.00     0.010 A 
BRANCH  24  27
HETATM   27  O   UNK N   1      22.413  21.129   2.876  0.00  0.00    -0.356 OA
HETATM   28  C   UNK N   1      21.230  20.710   2.310  0.00  0.00     0.210 C 
ENDBRANCH  24  27
ENDBRANCH  20  21
ENDBRANCH  19  20
ENDBRANCH  16  19
ENDBRANCH   1  13
BRANCH   2  29
HETATM   29  C   UNK N   1      22.822  13.200   8.030  0.00  0.00     0.186 C 
BRANCH  29  30
HETATM   30  C   UNK N   1      22.458  12.039   7.129  0.00  0.00    -0.039 A 
HETATM   31  C   UNK N   1      21.188  11.940   6.543  0.00  0.00     0.012 A 
HETATM   32  C   UNK N   1      20.833  10.823   5.783  0.00  0.00     0.043 A 
HETATM   33  C   UNK N   1      21.742   9.778   5.615  0.00  0.00     0.116 A 
HETATM   34  F   UNK N   1      21.388   8.683   4.899  0.00  0.00    -0.206 F 
HETATM   35  C   UNK N   1      23.012   9.860   6.199  0.00  0.00     0.043 A 
HETATM   36  C   UNK N   1      23.369  10.987   6.953  0.00  0.00     0.012 A 
ENDBRANCH  29  30
ENDBRANCH   2  29
TORSDOF 7
ENDMDL
MODEL 8
REMARK VINA RESULT:      -7.6     14.534     17.843
REMARK  7 active torsions:
REMARK  status: ('A' for Active; 'I' for Inactive)
REMARK    1  A    between atoms: O_2  and  C_31 
REMARK    2  A    between atoms: N_3  and  C_13 
REMARK    3  A    between atoms: N_4  and  C_8 
REMARK       I    between atoms: N_4  and  C_15 
REMARK    4  A    between atoms: N_5  and  C_18 
REMARK    5  A    between atoms: C_13  and  C_14 
REMARK    6  A    between atoms: C_14  and  C_16 
REMARK    7  A    between atoms: C_18  and  C_21 
ROOT
HETATM    1  N   UNK N   1      27.813  23.581  -7.439  0.00  0.00    -0.221 N 
HETATM    2  N   UNK N   1      27.874  23.697  -4.965  0.00  0.00    -0.177 N 
HETATM    3  N   UNK N   1      29.777  23.191  -6.080  0.00  0.00    -0.190 N 
ATOM      4  HN  UNK N   1      30.445  23.033  -6.834  1.00  0.00     0.184 HD
HETATM    5  C   UNK N   1      28.469  23.534  -6.183  0.00  0.00     0.682 A 
HETATM    6  C   UNK N   1      28.843  23.401  -4.080  0.00  0.00     0.079 A 
HETATM    7  C   UNK N   1      29.989  23.105  -4.758  0.00  0.00     0.076 A 
HETATM    8  C   UNK N   1      28.778  23.336  -2.689  0.00  0.00     0.032 A 
HETATM    9  C   UNK N   1      31.160  22.732  -4.107  0.00  0.00     0.032 A 
HETATM   10  C   UNK N   1      29.944  22.966  -1.995  0.00  0.00     0.002 A 
HETATM   11  C   UNK N   1      31.131  22.667  -2.702  0.00  0.00     0.002 A 
HETATM   12  H   UNK N   1      28.333  23.857  -8.228  0.00  0.00     0.178 HD
ENDROOT
BRANCH   1  13
HETATM   13  C   UNK N   1      26.420  23.244  -7.619  0.00  0.00     0.102 C 
HETATM   14  C   UNK N   1      26.279  22.107  -8.636  0.00  0.00     0.056 C 
HETATM   15  C   UNK N   1      26.864  22.507 -10.002  0.00  0.00     0.274 C 
HETATM   16  N   UNK N   1      26.535  23.882 -10.424  0.00  0.00     0.088 N 
HETATM   17  C   UNK N   1      25.443  24.498  -9.654  0.00  0.00     0.274 C 
HETATM   18  C   UNK N   1      25.668  24.479  -8.126  0.00  0.00     0.056 C 
BRANCH  16  19
HETATM   19  C   UNK N   1      27.725  24.727 -10.368  0.00  0.00     0.277 C 
BRANCH  19  20
HETATM   20  C   UNK N   1      27.365  26.197 -10.595  0.00  0.00     0.068 C 
BRANCH  20  21
HETATM   21  C   UNK N   1      27.999  27.162  -9.628  0.00  0.00    -0.056 A 
HETATM   22  C   UNK N   1      29.050  28.012 -10.008  0.00  0.00     0.010 A 
HETATM   23  C   UNK N   1      29.615  28.892  -9.079  0.00  0.00     0.037 A 
HETATM   24  C   UNK N   1      29.135  28.934  -7.758  0.00  0.00     0.068 A 
HETATM   25  C   UNK N   1      28.085  28.089  -7.385  0.00  0.00     0.037 A 
HETATM   26  C   UNK N   1      27.521  27.208  -8.314  0.00  0.00     0.010 A 
BRANCH  24  27
HETATM   27  O   UNK N   1      29.664  29.773  -6.836  0.00  0.00    -0.356 OA
HETATM   28  C   UNK N   1      28.967  30.223  -5.738  0.00  0.00     0.210 C 
ENDBRANCH  24  27
ENDBRANCH  20  21
ENDBRANCH  19  20
ENDBRANCH  16  19
ENDBRANCH   1  13
BRANCH   2  29
HETATM   29  C   UNK N   1      26.479  24.046  -4.662  0.00  0.00     0.186 C 
BRANCH  29  30
HETATM   30  C   UNK N   1      26.237  25.531  -4.497  0.00  0.00    -0.039 A 
HETATM   31  C   UNK N   1      25.271  26.202  -5.260  0.00  0.00     0.012 A 
HETATM   32  C   UNK N   1      25.113  27.586  -5.162  0.00  0.00     0.043 A 
HETATM   33  C   UNK N   1      25.938  28.322  -4.312  0.00  0.00     0.116 A 
HETATM   34  F   UNK N   1      25.803  29.669  -4.237  0.00  0.00    -0.206 F 
HETATM   35  C   UNK N   1      26.912  27.668  -3.548  0.00  0.00     0.043 A 
HETATM   36  C   UNK N   1      27.060  26.276  -3.640  0.00  0.00     0.012 A 
ENDBRANCH  29  30
ENDBRANCH   2  29
TORSDOF 7
ENDMDL
MODEL 9
REMARK VINA RESULT:      -7.5      3.840      6.223
REMARK  7 active torsions:
REMARK  status: ('A' for Active; 'I' for Inactive)
REMARK    1  A    between atoms: O_2  and  C_31 
REMARK    2  A    between atoms: N_3  and  C_13 
REMARK    3  A    between atoms: N_4  and  C_8 
REMARK       I    between atoms: N_4  and  C_15 
REMARK    4  A    between atoms: N_5  and  C_18 
REMARK    5  A    between atoms: C_13  and  C_14 
REMARK    6  A    between atoms: C_14  and  C_16 
REMARK    7  A    between atoms: C_18  and  C_21 
ROOT
HETATM    1  N   UNK N   1      25.265  13.819   7.118  0.00  0.00    -0.221 N 
HETATM    2  N   UNK N   1      23.247  13.358   8.479  0.00  0.00    -0.177 N 
HETATM    3  N   UNK N   1      25.285  13.083   9.424  0.00  0.00    -0.190 N 
ATOM      4  HN  UNK N   1      26.294  13.089   9.568  1.00  0.00     0.184 HD
HETATM    5  C   UNK N   1      24.598  13.469   8.319  0.00  0.00     0.682 A 
HETATM    6  C   UNK N   1      23.100  12.845   9.714  0.00  0.00     0.079 A 
HETATM    7  C   UNK N   1      24.330  12.690  10.281  0.00  0.00     0.076 A 
HETATM    8  C   UNK N   1      21.934  12.462  10.377  0.00  0.00     0.032 A 
HETATM    9  C   UNK N   1      24.498  12.151  11.552  0.00  0.00     0.032 A 
HETATM   10  C   UNK N   1      22.064  11.917  11.666  0.00  0.00     0.002 A 
HETATM   11  C   UNK N   1      23.341  11.763  12.252  0.00  0.00     0.002 A 
HETATM   12  H   UNK N   1      26.144  14.259   7.181  0.00  0.00     0.178 HD
ENDROOT
BRANCH   1  13
HETATM   13  C   UNK N   1      24.720  13.563   5.805  0.00  0.00     0.102 C 
HETATM   14  C   UNK N   1      25.501  12.437   5.120  0.00  0.00     0.056 C 
HETATM   15  C   UNK N   1      26.988  12.804   4.968  0.00  0.00     0.274 C 
HETATM   16  N   UNK N   1      27.228  14.196   4.542  0.00  0.00     0.088 N 
HETATM   17  C   UNK N   1      26.036  14.873   4.010  0.00  0.00     0.274 C 
HETATM   18  C   UNK N   1      24.821  14.840   4.964  0.00  0.00     0.056 C 
BRANCH  16  19
HETATM   19  C   UNK N   1      27.794  14.971   5.643  0.00  0.00     0.277 C 
BRANCH  19  20
HETATM   20  C   UNK N   1      28.167  16.383   5.185  0.00  0.00     0.068 C 
BRANCH  20  21
HETATM   21  C   UNK N   1      29.616  16.748   5.372  0.00  0.00    -0.056 A 
HETATM   22  C   UNK N   1      30.423  17.162   4.301  0.00  0.00     0.010 A 
HETATM   23  C   UNK N   1      31.766  17.489   4.516  0.00  0.00     0.037 A 
HETATM   24  C   UNK N   1      32.318  17.408   5.806  0.00  0.00     0.068 A 
HETATM   25  C   UNK N   1      31.510  17.000   6.872  0.00  0.00     0.037 A 
HETATM   26  C   UNK N   1      30.167  16.672   6.656  0.00  0.00     0.010 A 
BRANCH  24  27
HETATM   27  O   UNK N   1      33.615  17.715   6.044  0.00  0.00    -0.356 OA
HETATM   28  C   UNK N   1      34.240  17.473   7.247  0.00  0.00     0.210 C 
ENDBRANCH  24  27
ENDBRANCH  20  21
ENDBRANCH  19  20
ENDBRANCH  16  19
ENDBRANCH   1  13
BRANCH   2  29
HETATM   29  C   UNK N   1      22.178  13.658   7.515  0.00  0.00     0.186 C 
BRANCH  29  30
HETATM   30  C   UNK N   1      21.421  14.935   7.811  0.00  0.00    -0.039 A 
HETATM   31  C   UNK N   1      20.378  14.965   8.747  0.00  0.00     0.012 A 
HETATM   32  C   UNK N   1      19.630  16.126   8.952  0.00  0.00     0.043 A 
HETATM   33  C   UNK N   1      19.904  17.271   8.205  0.00  0.00     0.116 A 
HETATM   34  F   UNK N   1      19.161  18.391   8.385  0.00  0.00    -0.206 F 
HETATM   35  C   UNK N   1      20.939  17.256   7.262  0.00  0.00     0.043 A 
HETATM   36  C   UNK N   1      21.695  16.092   7.066  0.00  0.00     0.012 A 
ENDBRANCH  29  30
ENDBRANCH   2  29
TORSDOF 7
ENDMDL
