REMARK  5 active torsions:
REMARK  status: ('A' for Active; 'I' for Inactive)
REMARK    1  A    between atoms: S_1  and  N_5 
REMARK    2  A    between atoms: S_1  and  C_11 
REMARK    3  A    between atoms: O_4  and  C_18 
REMARK    4  A    between atoms: N_5  and  C_14 
REMARK    5  A    between atoms: N_8  and  C_15 
ROOT
HETATM    1  S   UNK N   1       1.510   0.355   0.291  0.00  0.00     0.264 S 
HETATM    2  O   UNK N   1       0.039   0.765   0.457  0.00  0.00    -0.200 OA
HETATM    3  O   UNK N   1       2.123   0.830   1.618  0.00  0.00    -0.200 OA
ENDROOT
BRANCH   1   4
HETATM    4  N   UNK N   1       2.141   1.457  -0.913  0.00  0.00    -0.262 N 
HETATM    5  H   UNK N   1       1.653   1.606  -1.755  0.00  0.00     0.180 HD
BRANCH   4   6
HETATM    6  C   UNK N   1       3.355   2.127  -0.663  0.00  0.00     0.167 A 
HETATM    7  N   UNK N   1       4.534   1.456  -0.726  0.00  0.00    -0.347 N 
HETATM    8  C   UNK N   1       5.708   2.078  -0.436  0.00  0.00     0.107 A 
ATOM      9  HN  UNK N   1       4.539   0.472  -0.995  1.00  0.00     0.167 HD
HETATM   10  C   UNK N   1       5.698   3.420  -0.053  0.00  0.00     0.107 A 
HETATM   11  N   UNK N   1       4.518   4.089   0.022  0.00  0.00    -0.343 N 
HETATM   12  C   UNK N   1       3.339   3.470  -0.276  0.00  0.00     0.187 A 
ATOM     13  HN  UNK N   1       4.513   5.069   0.305  1.00  0.00     0.167 HD
BRANCH  12  14
HETATM   14  O   UNK N   1       2.161   4.125  -0.173  0.00  0.00    -0.338 OA
HETATM   15  C   UNK N   1       2.069   5.422   0.272  0.00  0.00     0.211 C 
ENDBRANCH  12  14
ENDBRANCH   4   6
ENDBRANCH   1   4
BRANCH   1  16
HETATM   16  C   UNK N   1       1.743  -1.392   0.034  0.00  0.00     0.080 A 
HETATM   17  C   UNK N   1       0.751  -2.294   0.430  0.00  0.00     0.027 A 
HETATM   18  C   UNK N   1       0.952  -3.667   0.269  0.00  0.00     0.030 A 
HETATM   19  C   UNK N   1       2.147  -4.138  -0.284  0.00  0.00     0.025 A 
HETATM   20  C   UNK N   1       3.138  -3.235  -0.681  0.00  0.00     0.030 A 
HETATM   21  C   UNK N   1       2.937  -1.861  -0.520  0.00  0.00     0.027 A 
BRANCH  19  22
HETATM   22  N   UNK N   1       2.354  -5.522  -0.437  0.00  0.00    -0.399 N 
HETATM   23  H   UNK N   1       1.588  -6.131  -0.543  0.00  0.00     0.156 HD
HETATM   24  H   UNK N   1       3.270  -5.882  -0.437  0.00  0.00     0.156 HD
ENDBRANCH  19  22
ENDBRANCH   1  16
TORSDOF 5
