MODEL 1
REMARK VINA RESULT:      -6.1      0.000      0.000
REMARK  5 active torsions:
REMARK  status: ('A' for Active; 'I' for Inactive)
REMARK    1  A    between atoms: S_1  and  N_5 
REMARK    2  A    between atoms: S_1  and  C_11 
REMARK    3  A    between atoms: O_4  and  C_18 
REMARK    4  A    between atoms: N_5  and  C_14 
REMARK    5  A    between atoms: N_8  and  C_15 
ROOT
HETATM    1  S   UNK N   1      35.697  12.127  14.564  0.00  0.00     0.264 S 
HETATM    2  O   UNK N   1      35.800  10.653  14.145  0.00  0.00    -0.200 OA
HETATM    3  O   UNK N   1      34.438  12.584  13.809  0.00  0.00    -0.200 OA
ENDROOT
BRANCH   1   4
HETATM    4  N   UNK N   1      37.024  12.913  13.738  0.00  0.00    -0.262 N 
HETATM    5  H   UNK N   1      37.945  12.814  14.071  0.00  0.00     0.180 HD
BRANCH   4   6
HETATM    6  C   UNK N   1      36.758  13.689  12.593  0.00  0.00     0.167 A 
HETATM    7  N   UNK N   1      36.200  14.921  12.714  0.00  0.00    -0.347 N 
HETATM    8  C   UNK N   1      35.890  15.659  11.614  0.00  0.00     0.107 A 
ATOM      9  HN  UNK N   1      36.010  15.298  13.643  1.00  0.00     0.167 HD
HETATM   10  C   UNK N   1      36.136  15.135  10.344  0.00  0.00     0.107 A 
HETATM   11  N   UNK N   1      36.684  13.898  10.222  0.00  0.00    -0.343 N 
HETATM   12  C   UNK N   1      37.003  13.158  11.323  0.00  0.00     0.187 A 
ATOM     13  HN  UNK N   1      36.860  13.516   9.293  1.00  0.00     0.167 HD
BRANCH  12  14
HETATM   14  O   UNK N   1      37.521  11.915  11.204  0.00  0.00    -0.338 OA
HETATM   15  C   UNK N   1      36.795  10.852  10.721  0.00  0.00     0.211 C 
ENDBRANCH  12  14
ENDBRANCH   4   6
ENDBRANCH   1   4
BRANCH   1  16
HETATM   16  C   UNK N   1      35.544  12.363  16.323  0.00  0.00     0.080 A 
HETATM   17  C   UNK N   1      35.539  11.257  17.178  0.00  0.00     0.027 A 
HETATM   18  C   UNK N   1      35.376  11.439  18.553  0.00  0.00     0.030 A 
HETATM   19  C   UNK N   1      35.212  12.727  19.073  0.00  0.00     0.025 A 
HETATM   20  C   UNK N   1      35.219  13.833  18.217  0.00  0.00     0.030 A 
HETATM   21  C   UNK N   1      35.383  13.651  16.841  0.00  0.00     0.027 A 
BRANCH  19  22
HETATM   22  N   UNK N   1      35.037  12.910  20.458  0.00  0.00    -0.399 N 
HETATM   23  H   UNK N   1      34.158  12.753  20.873  0.00  0.00     0.156 HD
HETATM   24  H   UNK N   1      35.797  13.198  21.013  0.00  0.00     0.156 HD
ENDBRANCH  19  22
ENDBRANCH   1  16
TORSDOF 5
ENDMDL
MODEL 2
REMARK VINA RESULT:      -6.0      1.173      2.109
REMARK  5 active torsions:
REMARK  status: ('A' for Active; 'I' for Inactive)
REMARK    1  A    between atoms: S_1  and  N_5 
REMARK    2  A    between atoms: S_1  and  C_11 
REMARK    3  A    between atoms: O_4  and  C_18 
REMARK    4  A    between atoms: N_5  and  C_14 
REMARK    5  A    between atoms: N_8  and  C_15 
ROOT
HETATM    1  S   UNK N   1      35.701  12.396  14.489  0.00  0.00     0.264 S 
HETATM    2  O   UNK N   1      36.258  11.044  14.019  0.00  0.00    -0.200 OA
HETATM    3  O   UNK N   1      34.332  12.434  13.791  0.00  0.00    -0.200 OA
ENDROOT
BRANCH   1   4
HETATM    4  N   UNK N   1      36.665  13.588  13.647  0.00  0.00    -0.262 N 
HETATM    5  H   UNK N   1      37.004  14.380  14.123  0.00  0.00     0.180 HD
BRANCH   4   6
HETATM    6  C   UNK N   1      36.951  13.401  12.280  0.00  0.00     0.167 A 
HETATM    7  N   UNK N   1      37.883  12.493  11.892  0.00  0.00    -0.347 N 
HETATM    8  C   UNK N   1      38.205  12.339  10.580  0.00  0.00     0.107 A 
ATOM      9  HN  UNK N   1      38.348  11.918  12.595  1.00  0.00     0.167 HD
HETATM   10  C   UNK N   1      37.579  13.138   9.621  0.00  0.00     0.107 A 
HETATM   11  N   UNK N   1      36.655  14.055  10.009  0.00  0.00    -0.343 N 
HETATM   12  C   UNK N   1      36.324  14.206  11.324  0.00  0.00     0.187 A 
ATOM     13  HN  UNK N   1      36.201  14.639   9.307  1.00  0.00     0.167 HD
BRANCH  12  14
HETATM   14  O   UNK N   1      35.427  15.138  11.716  0.00  0.00    -0.338 OA
HETATM   15  C   UNK N   1      35.386  16.402  11.177  0.00  0.00     0.211 C 
ENDBRANCH  12  14
ENDBRANCH   4   6
ENDBRANCH   1   4
BRANCH   1  16
HETATM   16  C   UNK N   1      35.553  12.534  16.259  0.00  0.00     0.080 A 
HETATM   17  C   UNK N   1      35.524  11.380  17.049  0.00  0.00     0.027 A 
HETATM   18  C   UNK N   1      35.364  11.486  18.432  0.00  0.00     0.030 A 
HETATM   19  C   UNK N   1      35.229  12.745  19.026  0.00  0.00     0.025 A 
HETATM   20  C   UNK N   1      35.260  13.898  18.235  0.00  0.00     0.030 A 
HETATM   21  C   UNK N   1      35.420  13.792  16.851  0.00  0.00     0.027 A 
BRANCH  19  22
HETATM   22  N   UNK N   1      35.057  12.852  20.419  0.00  0.00    -0.399 N 
HETATM   23  H   UNK N   1      35.685  13.384  20.958  0.00  0.00     0.156 HD
HETATM   24  H   UNK N   1      34.305  12.390  20.855  0.00  0.00     0.156 HD
ENDBRANCH  19  22
ENDBRANCH   1  16
TORSDOF 5
ENDMDL
MODEL 3
REMARK VINA RESULT:      -6.0      5.973      9.009
REMARK  5 active torsions:
REMARK  status: ('A' for Active; 'I' for Inactive)
REMARK    1  A    between atoms: S_1  and  N_5 
REMARK    2  A    between atoms: S_1  and  C_11 
REMARK    3  A    between atoms: O_4  and  C_18 
REMARK    4  A    between atoms: N_5  and  C_14 
REMARK    5  A    between atoms: N_8  and  C_15 
ROOT
HETATM    1  S   UNK N   1      33.747  17.616   7.435  0.00  0.00     0.264 S 
HETATM    2  O   UNK N   1      34.153  17.949   5.992  0.00  0.00    -0.200 OA
HETATM    3  O   UNK N   1      34.431  18.743   8.225  0.00  0.00    -0.200 OA
ENDROOT
BRANCH   1   4
HETATM    4  N   UNK N   1      34.661  16.176   7.829  0.00  0.00    -0.262 N 
HETATM    5  H   UNK N   1      35.145  15.686   7.125  0.00  0.00     0.180 HD
BRANCH   4   6
HETATM    6  C   UNK N   1      34.696  15.727   9.164  0.00  0.00     0.167 A 
HETATM    7  N   UNK N   1      35.491  16.346  10.075  0.00  0.00    -0.347 N 
HETATM    8  C   UNK N   1      35.573  15.890  11.353  0.00  0.00     0.107 A 
ATOM      9  HN  UNK N   1      36.033  17.164   9.796  1.00  0.00     0.167 HD
HETATM   10  C   UNK N   1      34.842  14.762  11.729  0.00  0.00     0.107 A 
HETATM   11  N   UNK N   1      34.056  14.135  10.815  0.00  0.00    -0.343 N 
HETATM   12  C   UNK N   1      33.965  14.594   9.534  0.00  0.00     0.187 A 
ATOM     13  HN  UNK N   1      33.525  13.309  11.092  1.00  0.00     0.167 HD
BRANCH  12  14
HETATM   14  O   UNK N   1      33.207  13.955   8.615  0.00  0.00    -0.338 OA
HETATM   15  C   UNK N   1      33.508  12.697   8.150  0.00  0.00     0.211 C 
ENDBRANCH  12  14
ENDBRANCH   4   6
ENDBRANCH   1   4
BRANCH   1  16
HETATM   16  C   UNK N   1      31.985  17.589   7.696  0.00  0.00     0.080 A 
HETATM   17  C   UNK N   1      31.159  16.891   6.811  0.00  0.00     0.027 A 
HETATM   18  C   UNK N   1      29.774  16.906   6.990  0.00  0.00     0.030 A 
HETATM   19  C   UNK N   1      29.215  17.623   8.052  0.00  0.00     0.025 A 
HETATM   20  C   UNK N   1      30.042  18.320   8.938  0.00  0.00     0.030 A 
HETATM   21  C   UNK N   1      31.428  18.305   8.759  0.00  0.00     0.027 A 
BRANCH  19  22
HETATM   22  N   UNK N   1      27.818  17.647   8.227  0.00  0.00    -0.399 N 
HETATM   23  H   UNK N   1      27.236  18.036   7.535  0.00  0.00     0.156 HD
HETATM   24  H   UNK N   1      27.422  17.273   9.047  0.00  0.00     0.156 HD
ENDBRANCH  19  22
ENDBRANCH   1  16
TORSDOF 5
ENDMDL
MODEL 4
REMARK VINA RESULT:      -5.9     16.780     19.240
REMARK  5 active torsions:
REMARK  status: ('A' for Active; 'I' for Inactive)
REMARK    1  A    between atoms: S_1  and  N_5 
REMARK    2  A    between atoms: S_1  and  C_11 
REMARK    3  A    between atoms: O_4  and  C_18 
REMARK    4  A    between atoms: N_5  and  C_14 
REMARK    5  A    between atoms: N_8  and  C_15 
ROOT
HETATM    1  S   UNK N   1      21.553  17.734   5.591  0.00  0.00     0.264 S 
HETATM    2  O   UNK N   1      23.005  17.263   5.768  0.00  0.00    -0.200 OA
HETATM    3  O   UNK N   1      21.367  18.653   6.808  0.00  0.00    -0.200 OA
ENDROOT
BRANCH   1   4
HETATM    4  N   UNK N   1      20.585  16.320   5.946  0.00  0.00    -0.262 N 
HETATM    5  H   UNK N   1      19.885  16.026   5.320  0.00  0.00     0.180 HD
BRANCH   4   6
HETATM    6  C   UNK N   1      20.821  15.607   7.139  0.00  0.00     0.167 A 
HETATM    7  N   UNK N   1      21.925  14.827   7.265  0.00  0.00    -0.347 N 
HETATM    8  C   UNK N   1      22.137  14.094   8.391  0.00  0.00     0.107 A 
ATOM      9  HN  UNK N   1      22.605  14.791   6.506  1.00  0.00     0.167 HD
HETATM   10  C   UNK N   1      21.198  14.133   9.423  0.00  0.00     0.107 A 
HETATM   11  N   UNK N   1      20.087  14.903   9.292  0.00  0.00    -0.343 N 
HETATM   12  C   UNK N   1      19.875  15.646   8.168  0.00  0.00     0.187 A 
ATOM     13  HN  UNK N   1      19.401  14.927  10.047  1.00  0.00     0.167 HD
BRANCH  12  14
HETATM   14  O   UNK N   1      18.756  16.390   8.023  0.00  0.00    -0.338 OA
HETATM   15  C   UNK N   1      18.117  16.985   9.085  0.00  0.00     0.211 C 
ENDBRANCH  12  14
ENDBRANCH   4   6
ENDBRANCH   1   4
BRANCH   1  16
HETATM   16  C   UNK N   1      21.259  18.588   4.056  0.00  0.00     0.080 A 
HETATM   17  C   UNK N   1      22.159  19.563   3.616  0.00  0.00     0.027 A 
HETATM   18  C   UNK N   1      21.905  20.265   2.435  0.00  0.00     0.030 A 
HETATM   19  C   UNK N   1      20.750  19.994   1.696  0.00  0.00     0.025 A 
HETATM   20  C   UNK N   1      19.851  19.017   2.135  0.00  0.00     0.030 A 
HETATM   21  C   UNK N   1      20.104  18.315   3.317  0.00  0.00     0.027 A 
BRANCH  19  22
HETATM   22  N   UNK N   1      20.489  20.707   0.511  0.00  0.00    -0.399 N 
HETATM   23  H   UNK N   1      19.835  21.443   0.506  0.00  0.00     0.156 HD
HETATM   24  H   UNK N   1      20.964  20.469  -0.318  0.00  0.00     0.156 HD
ENDBRANCH  19  22
ENDBRANCH   1  16
TORSDOF 5
ENDMDL
MODEL 5
REMARK VINA RESULT:      -5.8      6.313      8.809
REMARK  5 active torsions:
REMARK  status: ('A' for Active; 'I' for Inactive)
REMARK    1  A    between atoms: S_1  and  N_5 
REMARK    2  A    between atoms: S_1  and  C_11 
REMARK    3  A    between atoms: O_4  and  C_18 
REMARK    4  A    between atoms: N_5  and  C_14 
REMARK    5  A    between atoms: N_8  and  C_15 
ROOT
HETATM    1  S   UNK N   1      34.301  17.884   8.163  0.00  0.00     0.264 S 
HETATM    2  O   UNK N   1      34.951  19.245   8.452  0.00  0.00    -0.200 OA
HETATM    3  O   UNK N   1      34.608  17.696   6.669  0.00  0.00    -0.200 OA
ENDROOT
BRANCH   1   4
HETATM    4  N   UNK N   1      32.580  18.196   8.229  0.00  0.00    -0.262 N 
HETATM    5  H   UNK N   1      32.233  18.963   8.739  0.00  0.00     0.180 HD
BRANCH   4   6
HETATM    6  C   UNK N   1      31.698  17.336   7.545  0.00  0.00     0.167 A 
HETATM    7  N   UNK N   1      32.182  16.390   6.699  0.00  0.00    -0.347 N 
HETATM    8  C   UNK N   1      31.340  15.588   5.993  0.00  0.00     0.107 A 
ATOM      9  HN  UNK N   1      33.190  16.279   6.592  1.00  0.00     0.167 HD
HETATM   10  C   UNK N   1      29.961  15.751   6.129  0.00  0.00     0.107 A 
HETATM   11  N   UNK N   1      29.476  16.705   6.966  0.00  0.00    -0.343 N 
HETATM   12  C   UNK N   1      30.318  17.506   7.682  0.00  0.00     0.187 A 
ATOM     13  HN  UNK N   1      28.468  16.825   7.061  1.00  0.00     0.167 HD
BRANCH  12  14
HETATM   14  O   UNK N   1      29.838  18.476   8.492  0.00  0.00    -0.338 OA
HETATM   15  C   UNK N   1      28.602  18.402   9.087  0.00  0.00     0.211 C 
ENDBRANCH  12  14
ENDBRANCH   4   6
ENDBRANCH   1   4
BRANCH   1  16
HETATM   16  C   UNK N   1      34.951  16.554   9.152  0.00  0.00     0.080 A 
HETATM   17  C   UNK N   1      35.305  16.784  10.485  0.00  0.00     0.027 A 
HETATM   18  C   UNK N   1      35.857  15.752  11.249  0.00  0.00     0.030 A 
HETATM   19  C   UNK N   1      36.058  14.491  10.678  0.00  0.00     0.025 A 
HETATM   20  C   UNK N   1      35.702  14.262   9.345  0.00  0.00     0.030 A 
HETATM   21  C   UNK N   1      35.150  15.294   8.581  0.00  0.00     0.027 A 
BRANCH  19  22
HETATM   22  N   UNK N   1      36.623  13.454  11.444  0.00  0.00    -0.399 N 
HETATM   23  H   UNK N   1      36.362  13.332  12.385  0.00  0.00     0.156 HD
HETATM   24  H   UNK N   1      37.283  12.849  11.036  0.00  0.00     0.156 HD
ENDBRANCH  19  22
ENDBRANCH   1  16
TORSDOF 5
ENDMDL
MODEL 6
REMARK VINA RESULT:      -5.8      1.516      2.110
REMARK  5 active torsions:
REMARK  status: ('A' for Active; 'I' for Inactive)
REMARK    1  A    between atoms: S_1  and  N_5 
REMARK    2  A    between atoms: S_1  and  C_11 
REMARK    3  A    between atoms: O_4  and  C_18 
REMARK    4  A    between atoms: N_5  and  C_14 
REMARK    5  A    between atoms: N_8  and  C_15 
ROOT
HETATM    1  S   UNK N   1      36.170  13.345  14.824  0.00  0.00     0.264 S 
HETATM    2  O   UNK N   1      34.940  13.517  13.920  0.00  0.00    -0.200 OA
HETATM    3  O   UNK N   1      36.780  14.756  14.801  0.00  0.00    -0.200 OA
ENDROOT
BRANCH   1   4
HETATM    4  N   UNK N   1      37.274  12.366  13.883  0.00  0.00    -0.262 N 
HETATM    5  H   UNK N   1      37.884  11.735  14.330  0.00  0.00     0.180 HD
BRANCH   4   6
HETATM    6  C   UNK N   1      37.281  12.492  12.480  0.00  0.00     0.167 A 
HETATM    7  N   UNK N   1      37.202  13.718  11.902  0.00  0.00    -0.347 N 
HETATM    8  C   UNK N   1      37.155  13.851  10.549  0.00  0.00     0.107 A 
ATOM      9  HN  UNK N   1      37.179  14.551  12.490  1.00  0.00     0.167 HD
HETATM   10  C   UNK N   1      37.171  12.710   9.746  0.00  0.00     0.107 A 
HETATM   11  N   UNK N   1      37.238  11.482  10.324  0.00  0.00    -0.343 N 
HETATM   12  C   UNK N   1      37.293  11.346  11.680  0.00  0.00     0.187 A 
ATOM     13  HN  UNK N   1      37.247  10.649   9.735  1.00  0.00     0.167 HD
BRANCH  12  14
HETATM   14  O   UNK N   1      37.329  10.124  12.258  0.00  0.00    -0.338 OA
HETATM   15  C   UNK N   1      37.261   8.958  11.535  0.00  0.00     0.211 C 
ENDBRANCH  12  14
ENDBRANCH   4   6
ENDBRANCH   1   4
BRANCH   1  16
HETATM   16  C   UNK N   1      35.777  12.812  16.477  0.00  0.00     0.080 A 
HETATM   17  C   UNK N   1      35.415  13.753  17.446  0.00  0.00     0.027 A 
HETATM   18  C   UNK N   1      35.149  13.341  18.754  0.00  0.00     0.030 A 
HETATM   19  C   UNK N   1      35.249  11.989  19.094  0.00  0.00     0.025 A 
HETATM   20  C   UNK N   1      35.610  11.048  18.124  0.00  0.00     0.030 A 
HETATM   21  C   UNK N   1      35.876  11.460  16.815  0.00  0.00     0.027 A 
BRANCH  19  22
HETATM   22  N   UNK N   1      34.991  11.574  20.414  0.00  0.00    -0.399 N 
HETATM   23  H   UNK N   1      34.689  10.656  20.598  0.00  0.00     0.156 HD
HETATM   24  H   UNK N   1      35.113  12.208  21.158  0.00  0.00     0.156 HD
ENDBRANCH  19  22
ENDBRANCH   1  16
TORSDOF 5
ENDMDL
MODEL 7
REMARK VINA RESULT:      -5.7     16.258     19.048
REMARK  5 active torsions:
REMARK  status: ('A' for Active; 'I' for Inactive)
REMARK    1  A    between atoms: S_1  and  N_5 
REMARK    2  A    between atoms: S_1  and  C_11 
REMARK    3  A    between atoms: O_4  and  C_18 
REMARK    4  A    between atoms: N_5  and  C_14 
REMARK    5  A    between atoms: N_8  and  C_15 
ROOT
HETATM    1  S   UNK N   1      41.194  23.078   0.991  0.00  0.00     0.264 S 
HETATM    2  O   UNK N   1      40.346  22.048   1.752  0.00  0.00    -0.200 OA
HETATM    3  O   UNK N   1      42.083  22.175   0.120  0.00  0.00    -0.200 OA
ENDROOT
BRANCH   1   4
HETATM    4  N   UNK N   1      42.275  23.737   2.198  0.00  0.00    -0.262 N 
HETATM    5  H   UNK N   1      42.182  24.673   2.491  0.00  0.00     0.180 HD
BRANCH   4   6
HETATM    6  C   UNK N   1      43.280  22.915   2.745  0.00  0.00     0.167 A 
HETATM    7  N   UNK N   1      43.025  21.609   3.016  0.00  0.00    -0.347 N 
HETATM    8  C   UNK N   1      43.969  20.818   3.592  0.00  0.00     0.107 A 
ATOM      9  HN  UNK N   1      42.112  21.216   2.784  1.00  0.00     0.167 HD
HETATM   10  C   UNK N   1      45.211  21.360   3.923  0.00  0.00     0.107 A 
HETATM   11  N   UNK N   1      45.464  22.670   3.663  0.00  0.00    -0.343 N 
HETATM   12  C   UNK N   1      44.521  23.465   3.078  0.00  0.00     0.187 A 
ATOM     13  HN  UNK N   1      46.371  23.065   3.909  1.00  0.00     0.167 HD
BRANCH  12  14
HETATM   14  O   UNK N   1      44.759  24.775   2.847  0.00  0.00    -0.338 OA
HETATM   15  C   UNK N   1      45.840  25.216   2.121  0.00  0.00     0.211 C 
ENDBRANCH  12  14
ENDBRANCH   4   6
ENDBRANCH   1   4
BRANCH   1  16
HETATM   16  C   UNK N   1      40.234  24.215   0.012  0.00  0.00     0.080 A 
HETATM   17  C   UNK N   1      40.298  25.587   0.274  0.00  0.00     0.027 A 
HETATM   18  C   UNK N   1      39.512  26.475  -0.464  0.00  0.00     0.030 A 
HETATM   19  C   UNK N   1      38.658  25.990  -1.460  0.00  0.00     0.025 A 
HETATM   20  C   UNK N   1      38.595  24.618  -1.721  0.00  0.00     0.030 A 
HETATM   21  C   UNK N   1      39.382  23.729  -0.983  0.00  0.00     0.027 A 
BRANCH  19  22
HETATM   22  N   UNK N   1      37.858  26.884  -2.197  0.00  0.00    -0.399 N 
HETATM   23  H   UNK N   1      37.282  26.554  -2.923  0.00  0.00     0.156 HD
HETATM   24  H   UNK N   1      37.876  27.845  -1.984  0.00  0.00     0.156 HD
ENDBRANCH  19  22
ENDBRANCH   1  16
TORSDOF 5
ENDMDL
MODEL 8
REMARK VINA RESULT:      -5.7      2.157      2.984
REMARK  5 active torsions:
REMARK  status: ('A' for Active; 'I' for Inactive)
REMARK    1  A    between atoms: S_1  and  N_5 
REMARK    2  A    between atoms: S_1  and  C_11 
REMARK    3  A    between atoms: O_4  and  C_18 
REMARK    4  A    between atoms: N_5  and  C_14 
REMARK    5  A    between atoms: N_8  and  C_15 
ROOT
HETATM    1  S   UNK N   1      34.788  11.714  15.831  0.00  0.00     0.264 S 
HETATM    2  O   UNK N   1      33.885  10.613  15.256  0.00  0.00    -0.200 OA
HETATM    3  O   UNK N   1      33.873  12.946  15.756  0.00  0.00    -0.200 OA
ENDROOT
BRANCH   1   4
HETATM    4  N   UNK N   1      35.999  11.980  14.596  0.00  0.00    -0.262 N 
HETATM    5  H   UNK N   1      36.772  11.375  14.519  0.00  0.00     0.180 HD
BRANCH   4   6
HETATM    6  C   UNK N   1      35.854  13.069  13.714  0.00  0.00     0.167 A 
HETATM    7  N   UNK N   1      35.144  12.931  12.565  0.00  0.00    -0.347 N 
HETATM    8  C   UNK N   1      35.040  13.958  11.680  0.00  0.00     0.107 A 
ATOM      9  HN  UNK N   1      34.681  12.044  12.363  1.00  0.00     0.167 HD
HETATM   10  C   UNK N   1      35.686  15.165  11.950  0.00  0.00     0.107 A 
HETATM   11  N   UNK N   1      36.407  15.301  13.094  0.00  0.00    -0.343 N 
HETATM   12  C   UNK N   1      36.507  14.274  13.988  0.00  0.00     0.187 A 
ATOM     13  HN  UNK N   1      36.881  16.183  13.288  1.00  0.00     0.167 HD
BRANCH  12  14
HETATM   14  O   UNK N   1      37.248  14.396  15.111  0.00  0.00    -0.338 OA
HETATM   15  C   UNK N   1      37.333  15.570  15.821  0.00  0.00     0.211 C 
ENDBRANCH  12  14
ENDBRANCH   4   6
ENDBRANCH   1   4
BRANCH   1  16
HETATM   16  C   UNK N   1      35.342  11.392  17.493  0.00  0.00     0.080 A 
HETATM   17  C   UNK N   1      35.110  12.334  18.500  0.00  0.00     0.027 A 
HETATM   18  C   UNK N   1      35.583  12.102  19.794  0.00  0.00     0.030 A 
HETATM   19  C   UNK N   1      36.290  10.930  20.080  0.00  0.00     0.025 A 
HETATM   20  C   UNK N   1      36.520   9.988  19.072  0.00  0.00     0.030 A 
HETATM   21  C   UNK N   1      36.047  10.220  17.777  0.00  0.00     0.027 A 
BRANCH  19  22
HETATM   22  N   UNK N   1      36.775  10.701  21.381  0.00  0.00    -0.399 N 
HETATM   23  H   UNK N   1      36.561  11.327  22.110  0.00  0.00     0.156 HD
HETATM   24  H   UNK N   1      37.332   9.910  21.563  0.00  0.00     0.156 HD
ENDBRANCH  19  22
ENDBRANCH   1  16
TORSDOF 5
ENDMDL
MODEL 9
REMARK VINA RESULT:      -5.6      6.404      8.913
REMARK  5 active torsions:
REMARK  status: ('A' for Active; 'I' for Inactive)
REMARK    1  A    between atoms: S_1  and  N_5 
REMARK    2  A    between atoms: S_1  and  C_11 
REMARK    3  A    between atoms: O_4  and  C_18 
REMARK    4  A    between atoms: N_5  and  C_14 
REMARK    5  A    between atoms: N_8  and  C_15 
ROOT
HETATM    1  S   UNK N   1      33.805  17.245   7.750  0.00  0.00     0.264 S 
HETATM    2  O   UNK N   1      33.578  18.698   8.194  0.00  0.00    -0.200 OA
HETATM    3  O   UNK N   1      34.512  17.434   6.398  0.00  0.00    -0.200 OA
ENDROOT
BRANCH   1   4
HETATM    4  N   UNK N   1      32.210  16.654   7.343  0.00  0.00    -0.262 N 
HETATM    5  H   UNK N   1      32.105  15.849   6.786  0.00  0.00     0.180 HD
BRANCH   4   6
HETATM    6  C   UNK N   1      31.078  17.344   7.821  0.00  0.00     0.167 A 
HETATM    7  N   UNK N   1      31.066  17.850   9.082  0.00  0.00    -0.347 N 
HETATM    8  C   UNK N   1      29.961  18.472   9.573  0.00  0.00     0.107 A 
ATOM      9  HN  UNK N   1      31.896  17.763   9.667  1.00  0.00     0.167 HD
HETATM   10  C   UNK N   1      28.820  18.577   8.777  0.00  0.00     0.107 A 
HETATM   11  N   UNK N   1      28.827  18.060   7.521  0.00  0.00    -0.343 N 
HETATM   12  C   UNK N   1      29.936  17.442   7.021  0.00  0.00     0.187 A 
ATOM     13  HN  UNK N   1      27.990  18.135   6.942  1.00  0.00     0.167 HD
BRANCH  12  14
HETATM   14  O   UNK N   1      29.936  16.901   5.782  0.00  0.00    -0.338 OA
HETATM   15  C   UNK N   1      29.132  15.841   5.435  0.00  0.00     0.211 C 
ENDBRANCH  12  14
ENDBRANCH   4   6
ENDBRANCH   1   4
BRANCH   1  16
HETATM   16  C   UNK N   1      34.788  16.293   8.891  0.00  0.00     0.080 A 
HETATM   17  C   UNK N   1      35.096  16.814  10.151  0.00  0.00     0.027 A 
HETATM   18  C   UNK N   1      35.903  16.086  11.028  0.00  0.00     0.030 A 
HETATM   19  C   UNK N   1      36.405  14.839  10.644  0.00  0.00     0.025 A 
HETATM   20  C   UNK N   1      36.094  14.317   9.385  0.00  0.00     0.030 A 
HETATM   21  C   UNK N   1      35.287  15.045   8.506  0.00  0.00     0.027 A 
BRANCH  19  22
HETATM   22  N   UNK N   1      37.226  14.109  11.525  0.00  0.00    -0.399 N 
HETATM   23  H   UNK N   1      38.031  13.652  11.191  0.00  0.00     0.156 HD
HETATM   24  H   UNK N   1      36.993  14.056  12.480  0.00  0.00     0.156 HD
ENDBRANCH  19  22
ENDBRANCH   1  16
TORSDOF 5
ENDMDL
