MODEL 1
REMARK VINA RESULT:      -4.5      0.000      0.000
REMARK  4 active torsions:
REMARK  status: ('A' for Active; 'I' for Inactive)
REMARK    1  A    between atoms: P_1  and  O_3 
REMARK    2  A    between atoms: P_1  and  O_4 
REMARK    3  A    between atoms: O_3  and  C_6 
REMARK    4  A    between atoms: O_4  and  C_7 
ROOT
HETATM    1  P   UNK N   1      33.969  17.500   8.137  0.00  0.00     0.515 P 
HETATM    2  F   UNK N   1      34.502  19.126   8.299  0.00  0.00    -0.133 F 
HETATM    3  O   UNK N   1      34.655  17.836   6.781  0.00  0.00    -0.223 OA
ENDROOT
BRANCH   1   4
HETATM    4  O   UNK N   1      35.130  17.590   9.435  0.00  0.00    -0.285 OA
BRANCH   4   5
HETATM    5  C   UNK N   1      34.860  16.514  10.286  0.00  0.00     0.126 C 
HETATM    6  C   UNK N   1      36.149  16.020  10.909  0.00  0.00     0.040 C 
HETATM    7  C   UNK N   1      34.220  15.391   9.493  0.00  0.00     0.040 C 
ENDBRANCH   4   5
ENDBRANCH   1   4
BRANCH   1   8
HETATM    8  O   UNK N   1      32.606  18.555   8.368  0.00  0.00    -0.285 OA
BRANCH   8   9
HETATM    9  C   UNK N   1      31.499  17.717   8.512  0.00  0.00     0.126 C 
HETATM   10  C   UNK N   1      31.134  17.126   7.164  0.00  0.00     0.040 C 
HETATM   11  C   UNK N   1      30.327  18.509   9.054  0.00  0.00     0.040 C 
ENDBRANCH   8   9
ENDBRANCH   1   8
TORSDOF 4
ENDMDL
MODEL 2
REMARK VINA RESULT:      -4.3      2.264      3.913
REMARK  4 active torsions:
REMARK  status: ('A' for Active; 'I' for Inactive)
REMARK    1  A    between atoms: P_1  and  O_3 
REMARK    2  A    between atoms: P_1  and  O_4 
REMARK    3  A    between atoms: O_3  and  C_6 
REMARK    4  A    between atoms: O_4  and  C_7 
ROOT
HETATM    1  P   UNK N   1      33.476  17.424   8.149  0.00  0.00     0.515 P 
HETATM    2  F   UNK N   1      34.096  19.025   8.233  0.00  0.00    -0.133 F 
HETATM    3  O   UNK N   1      34.376  17.442   9.419  0.00  0.00    -0.223 OA
ENDROOT
BRANCH   1   4
HETATM    4  O   UNK N   1      32.148  18.538   8.339  0.00  0.00    -0.285 OA
BRANCH   4   5
HETATM    5  C   UNK N   1      31.024  17.767   8.651  0.00  0.00     0.126 C 
HETATM    6  C   UNK N   1      30.376  17.271   7.375  0.00  0.00     0.040 C 
HETATM    7  C   UNK N   1      30.031  18.613   9.426  0.00  0.00     0.040 C 
ENDBRANCH   4   5
ENDBRANCH   1   4
BRANCH   1   8
HETATM    8  O   UNK N   1      34.452  17.761   6.750  0.00  0.00    -0.285 OA
BRANCH   8   9
HETATM    9  C   UNK N   1      34.070  16.824   5.788  0.00  0.00     0.126 C 
HETATM   10  C   UNK N   1      33.030  17.438   4.871  0.00  0.00     0.040 C 
HETATM   11  C   UNK N   1      33.489  15.601   6.468  0.00  0.00     0.040 C 
ENDBRANCH   8   9
ENDBRANCH   1   8
TORSDOF 4
ENDMDL
MODEL 3
REMARK VINA RESULT:      -4.3      2.109      2.717
REMARK  4 active torsions:
REMARK  status: ('A' for Active; 'I' for Inactive)
REMARK    1  A    between atoms: P_1  and  O_3 
REMARK    2  A    between atoms: P_1  and  O_4 
REMARK    3  A    between atoms: O_3  and  C_6 
REMARK    4  A    between atoms: O_4  and  C_7 
ROOT
HETATM    1  P   UNK N   1      34.582  17.664   8.034  0.00  0.00     0.515 P 
HETATM    2  F   UNK N   1      33.339  18.850   7.959  0.00  0.00    -0.133 F 
HETATM    3  O   UNK N   1      35.173  18.914   8.749  0.00  0.00    -0.223 OA
ENDROOT
BRANCH   1   4
HETATM    4  O   UNK N   1      33.187  17.080   8.903  0.00  0.00    -0.285 OA
BRANCH   4   5
HETATM    5  C   UNK N   1      33.525  15.817   9.397  0.00  0.00     0.126 C 
HETATM    6  C   UNK N   1      34.962  15.498   9.038  0.00  0.00     0.040 C 
HETATM    7  C   UNK N   1      32.609  14.773   8.786  0.00  0.00     0.040 C 
ENDBRANCH   4   5
ENDBRANCH   1   4
BRANCH   1   8
HETATM    8  O   UNK N   1      34.235  18.062   6.377  0.00  0.00    -0.285 OA
BRANCH   8   9
HETATM    9  C   UNK N   1      33.448  17.016   5.894  0.00  0.00     0.126 C 
HETATM   10  C   UNK N   1      34.342  15.872   5.457  0.00  0.00     0.040 C 
HETATM   11  C   UNK N   1      32.627  17.497   4.715  0.00  0.00     0.040 C 
ENDBRANCH   8   9
ENDBRANCH   1   8
TORSDOF 4
ENDMDL
MODEL 4
REMARK VINA RESULT:      -4.2      2.042      4.072
REMARK  4 active torsions:
REMARK  status: ('A' for Active; 'I' for Inactive)
REMARK    1  A    between atoms: P_1  and  O_3 
REMARK    2  A    between atoms: P_1  and  O_4 
REMARK    3  A    between atoms: O_3  and  C_6 
REMARK    4  A    between atoms: O_4  and  C_7 
ROOT
HETATM    1  P   UNK N   1      33.618  17.356   8.064  0.00  0.00     0.515 P 
HETATM    2  F   UNK N   1      34.158  18.982   8.211  0.00  0.00    -0.133 F 
HETATM    3  O   UNK N   1      32.328  18.188   8.323  0.00  0.00    -0.223 OA
ENDROOT
BRANCH   1   4
HETATM    4  O   UNK N   1      34.357  17.848   6.562  0.00  0.00    -0.285 OA
BRANCH   4   5
HETATM    5  C   UNK N   1      33.924  16.941   5.590  0.00  0.00     0.126 C 
HETATM    6  C   UNK N   1      32.736  17.517   4.848  0.00  0.00     0.040 C 
HETATM    7  C   UNK N   1      33.520  15.640   6.257  0.00  0.00     0.040 C 
ENDBRANCH   4   5
ENDBRANCH   1   4
BRANCH   1   8
HETATM    8  O   UNK N   1      34.684  17.509   9.429  0.00  0.00    -0.285 OA
BRANCH   8   9
HETATM    9  C   UNK N   1      35.067  16.208   9.758  0.00  0.00     0.126 C 
HETATM   10  C   UNK N   1      33.833  15.335   9.880  0.00  0.00     0.040 C 
HETATM   11  C   UNK N   1      35.817  16.215  11.074  0.00  0.00     0.040 C 
ENDBRANCH   8   9
ENDBRANCH   1   8
TORSDOF 4
ENDMDL
MODEL 5
REMARK VINA RESULT:      -4.0      7.834      9.154
REMARK  4 active torsions:
REMARK  status: ('A' for Active; 'I' for Inactive)
REMARK    1  A    between atoms: P_1  and  O_3 
REMARK    2  A    between atoms: P_1  and  O_4 
REMARK    3  A    between atoms: O_3  and  C_6 
REMARK    4  A    between atoms: O_4  and  C_7 
ROOT
HETATM    1  P   UNK N   1      35.092  12.602  14.674  0.00  0.00     0.515 P 
HETATM    2  F   UNK N   1      36.751  12.813  14.273  0.00  0.00    -0.133 F 
HETATM    3  O   UNK N   1      35.109  13.740  13.613  0.00  0.00    -0.223 OA
ENDROOT
BRANCH   1   4
HETATM    4  O   UNK N   1      35.700  11.124  13.978  0.00  0.00    -0.285 OA
BRANCH   4   5
HETATM    5  C   UNK N   1      34.603  10.267  13.843  0.00  0.00     0.126 C 
HETATM    6  C   UNK N   1      34.136  10.258  12.403  0.00  0.00     0.040 C 
HETATM    7  C   UNK N   1      33.475  10.746  14.736  0.00  0.00     0.040 C 
ENDBRANCH   4   5
ENDBRANCH   1   4
BRANCH   1   8
HETATM    8  O   UNK N   1      35.985  13.112  16.076  0.00  0.00    -0.285 OA
BRANCH   8   9
HETATM    9  C   UNK N   1      35.101  13.001  17.150  0.00  0.00     0.126 C 
HETATM   10  C   UNK N   1      35.330  14.148  18.114  0.00  0.00     0.040 C 
HETATM   11  C   UNK N   1      35.329  11.684  17.864  0.00  0.00     0.040 C 
ENDBRANCH   8   9
ENDBRANCH   1   8
TORSDOF 4
ENDMDL
MODEL 6
REMARK VINA RESULT:      -3.9     16.661     17.478
REMARK  4 active torsions:
REMARK  status: ('A' for Active; 'I' for Inactive)
REMARK    1  A    between atoms: P_1  and  O_3 
REMARK    2  A    between atoms: P_1  and  O_4 
REMARK    3  A    between atoms: O_3  and  C_6 
REMARK    4  A    between atoms: O_4  and  C_7 
ROOT
HETATM    1  P   UNK N   1      26.697  24.609  -4.197  0.00  0.00     0.515 P 
HETATM    2  F   UNK N   1      28.277  25.014  -3.654  0.00  0.00    -0.133 F 
HETATM    3  O   UNK N   1      26.713  24.232  -2.687  0.00  0.00    -0.223 OA
ENDROOT
BRANCH   1   4
HETATM    4  O   UNK N   1      26.942  26.325  -4.389  0.00  0.00    -0.285 OA
BRANCH   4   5
HETATM    5  C   UNK N   1      25.677  26.918  -4.324  0.00  0.00     0.126 C 
HETATM    6  C   UNK N   1      25.039  26.910  -5.697  0.00  0.00     0.040 C 
HETATM    7  C   UNK N   1      25.813  28.349  -3.839  0.00  0.00     0.040 C 
ENDBRANCH   4   5
ENDBRANCH   1   4
BRANCH   1   8
HETATM    8  O   UNK N   1      27.881  23.654  -5.040  0.00  0.00    -0.285 OA
BRANCH   8   9
HETATM    9  C   UNK N   1      27.375  23.476  -6.329  0.00  0.00     0.126 C 
HETATM   10  C   UNK N   1      25.880  23.231  -6.255  0.00  0.00     0.040 C 
HETATM   11  C   UNK N   1      28.052  22.289  -6.983  0.00  0.00     0.040 C 
ENDBRANCH   8   9
ENDBRANCH   1   8
TORSDOF 4
ENDMDL
MODEL 7
REMARK VINA RESULT:      -3.9     15.120     16.399
REMARK  4 active torsions:
REMARK  status: ('A' for Active; 'I' for Inactive)
REMARK    1  A    between atoms: P_1  and  O_3 
REMARK    2  A    between atoms: P_1  and  O_4 
REMARK    3  A    between atoms: O_3  and  C_6 
REMARK    4  A    between atoms: O_4  and  C_7 
ROOT
HETATM    1  P   UNK N   1      27.213  24.949  -3.790  0.00  0.00     0.515 P 
HETATM    2  F   UNK N   1      26.614  23.584  -4.646  0.00  0.00    -0.133 F 
HETATM    3  O   UNK N   1      26.798  23.932  -2.687  0.00  0.00    -0.223 OA
ENDROOT
BRANCH   1   4
HETATM    4  O   UNK N   1      28.495  24.285  -4.767  0.00  0.00    -0.285 OA
BRANCH   4   5
HETATM    5  C   UNK N   1      29.333  23.579  -3.898  0.00  0.00     0.126 C 
HETATM    6  C   UNK N   1      30.457  24.479  -3.429  0.00  0.00     0.040 C 
HETATM    7  C   UNK N   1      29.916  22.379  -4.621  0.00  0.00     0.040 C 
ENDBRANCH   4   5
ENDBRANCH   1   4
BRANCH   1   8
HETATM    8  O   UNK N   1      25.811  25.393  -4.717  0.00  0.00    -0.285 OA
BRANCH   8   9
HETATM    9  C   UNK N   1      25.865  26.782  -4.844  0.00  0.00     0.126 C 
HETATM   10  C   UNK N   1      25.840  27.416  -3.468  0.00  0.00     0.040 C 
HETATM   11  C   UNK N   1      24.676  27.268  -5.649  0.00  0.00     0.040 C 
ENDBRANCH   8   9
ENDBRANCH   1   8
TORSDOF 4
ENDMDL
MODEL 8
REMARK VINA RESULT:      -3.8     13.392     14.807
REMARK  4 active torsions:
REMARK  status: ('A' for Active; 'I' for Inactive)
REMARK    1  A    between atoms: P_1  and  O_3 
REMARK    2  A    between atoms: P_1  and  O_4 
REMARK    3  A    between atoms: O_3  and  C_6 
REMARK    4  A    between atoms: O_4  and  C_7 
ROOT
HETATM    1  P   UNK N   1      29.905  22.845  -2.810  0.00  0.00     0.515 P 
HETATM    2  F   UNK N   1      31.202  23.968  -2.913  0.00  0.00    -0.133 F 
HETATM    3  O   UNK N   1      30.416  23.006  -1.348  0.00  0.00    -0.223 OA
ENDROOT
BRANCH   1   4
HETATM    4  O   UNK N   1      29.293  24.367  -3.401  0.00  0.00    -0.285 OA
BRANCH   4   5
HETATM    5  C   UNK N   1      28.157  24.072  -4.161  0.00  0.00     0.126 C 
HETATM    6  C   UNK N   1      28.198  24.847  -5.461  0.00  0.00     0.040 C 
HETATM    7  C   UNK N   1      26.913  24.457  -3.383  0.00  0.00     0.040 C 
ENDBRANCH   4   5
ENDBRANCH   1   4
BRANCH   1   8
HETATM    8  O   UNK N   1      31.180  22.195  -3.796  0.00  0.00    -0.285 OA
BRANCH   8   9
HETATM    9  C   UNK N   1      30.678  21.006  -4.328  0.00  0.00     0.126 C 
HETATM   10  C   UNK N   1      31.821  20.039  -4.570  0.00  0.00     0.040 C 
HETATM   11  C   UNK N   1      29.969  21.291  -5.636  0.00  0.00     0.040 C 
ENDBRANCH   8   9
ENDBRANCH   1   8
TORSDOF 4
ENDMDL
MODEL 9
REMARK VINA RESULT:      -3.8      2.862      3.698
REMARK  4 active torsions:
REMARK  status: ('A' for Active; 'I' for Inactive)
REMARK    1  A    between atoms: P_1  and  O_3 
REMARK    2  A    between atoms: P_1  and  O_4 
REMARK    3  A    between atoms: O_3  and  C_6 
REMARK    4  A    between atoms: O_4  and  C_7 
ROOT
HETATM    1  P   UNK N   1      35.372  15.778  10.317  0.00  0.00     0.515 P 
HETATM    2  F   UNK N   1      35.207  16.777  11.706  0.00  0.00    -0.133 F 
HETATM    3  O   UNK N   1      36.829  16.132  10.734  0.00  0.00    -0.223 OA
ENDROOT
BRANCH   1   4
HETATM    4  O   UNK N   1      34.590  14.867  11.582  0.00  0.00    -0.285 OA
BRANCH   4   5
HETATM    5  C   UNK N   1      35.497  13.879  11.980  0.00  0.00     0.126 C 
HETATM    6  C   UNK N   1      34.972  12.516  11.581  0.00  0.00     0.040 C 
HETATM    7  C   UNK N   1      35.672  13.931  13.486  0.00  0.00     0.040 C 
ENDBRANCH   4   5
ENDBRANCH   1   4
BRANCH   1   8
HETATM    8  O   UNK N   1      34.522  17.237   9.904  0.00  0.00    -0.285 OA
BRANCH   8   9
HETATM    9  C   UNK N   1      33.874  16.970   8.697  0.00  0.00     0.126 C 
HETATM   10  C   UNK N   1      34.531  15.780   8.025  0.00  0.00     0.040 C 
HETATM   11  C   UNK N   1      33.966  18.180   7.789  0.00  0.00     0.040 C 
ENDBRANCH   8   9
ENDBRANCH   1   8
TORSDOF 4
ENDMDL
