REMARK  4 active torsions:
REMARK  status: ('A' for Active; 'I' for Inactive)
REMARK    1  A    between atoms: S_2  and  C_21 
REMARK    2  A    between atoms: N_4  and  C_11 
REMARK    3  A    between atoms: C_5  and  C_7 
REMARK    4  A    between atoms: C_7  and  C_11 
ROOT
HETATM    1  S   UNK N   1       3.853  -4.629   0.093  0.00  0.00    -0.086 SA
HETATM    2  N   UNK N   1       3.634  -1.445  -0.249  0.00  0.00    -0.345 N 
HETATM    3  C   UNK N   1       4.939  -2.024  -0.099  0.00  0.00     0.053 A 
HETATM    4  C   UNK N   1       2.415  -2.200  -0.135  0.00  0.00     0.052 A 
HETATM    5  C   UNK N   1       5.153  -3.409   0.067  0.00  0.00     0.032 A 
HETATM    6  C   UNK N   1       2.394  -3.602   0.037  0.00  0.00     0.032 A 
HETATM    7  C   UNK N   1       6.065  -1.174  -0.123  0.00  0.00     0.049 A 
HETATM    8  C   UNK N   1       1.179  -1.522  -0.205  0.00  0.00     0.031 A 
HETATM    9  C   UNK N   1       6.459  -3.899   0.194  0.00  0.00     0.022 A 
HETATM   10  C   UNK N   1       1.168  -4.273   0.136  0.00  0.00     0.021 A 
HETATM   11  C   UNK N   1       7.362  -1.667   0.013  0.00  0.00     0.002 A 
HETATM   12  C   UNK N   1      -0.033  -2.201  -0.096  0.00  0.00     0.002 A 
HETATM   13  C   UNK N   1       7.555  -3.040   0.173  0.00  0.00     0.020 A 
HETATM   14  C   UNK N   1      -0.038  -3.580   0.075  0.00  0.00     0.002 A 
ENDROOT
BRANCH   2  15
HETATM   15  C   UNK N   1       3.566  -0.040  -0.626  0.00  0.00     0.131 C 
BRANCH  15  16
HETATM   16  C   UNK N   1       2.892   0.844   0.412  0.00  0.00     0.056 C 
BRANCH  16  17
HETATM   17  C   UNK N   1       2.956   2.277  -0.106  0.00  0.00     0.224 C 
HETATM   18  N   UNK N   1       1.870   3.114   0.429  0.00  0.00     0.088 N 
HETATM   19  C   UNK N   1       1.968   4.455  -0.152  0.00  0.00     0.272 C 
HETATM   20  C   UNK N   1       0.598   2.583  -0.040  0.00  0.00     0.310 C 
HETATM   21  C   UNK N   1       3.285   5.121   0.237  0.00  0.00     0.030 C 
HETATM   22  C   UNK N   1       4.444   4.278  -0.273  0.00  0.00     0.004 C 
HETATM   23  C   UNK N   1       4.321   2.861   0.267  0.00  0.00     0.036 C 
ENDBRANCH  16  17
ENDBRANCH  15  16
ENDBRANCH   2  15
BRANCH  11  24
HETATM   24  S   UNK N   1       8.737  -0.497   0.009  0.00  0.00    -0.134 SA
HETATM   25  C   UNK N   1      10.098  -1.706  -0.039  0.00  0.00     0.095 C 
ENDBRANCH  11  24
TORSDOF 4
