MODEL 1
REMARK VINA RESULT:      -6.2      0.000      0.000
REMARK  4 active torsions:
REMARK  status: ('A' for Active; 'I' for Inactive)
REMARK    1  A    between atoms: S_2  and  C_21 
REMARK    2  A    between atoms: N_4  and  C_11 
REMARK    3  A    between atoms: C_5  and  C_7 
REMARK    4  A    between atoms: C_7  and  C_11 
ROOT
HETATM    1  S   UNK N   1      25.776  25.896  -7.616  0.00  0.00    -0.086 SA
HETATM    2  N   UNK N   1      27.385  24.368  -5.297  0.00  0.00    -0.345 N 
HETATM    3  C   UNK N   1      27.285  23.738  -6.583  0.00  0.00     0.053 A 
HETATM    4  C   UNK N   1      26.703  25.589  -4.958  0.00  0.00     0.052 A 
HETATM    5  C   UNK N   1      26.595  24.314  -7.671  0.00  0.00     0.032 A 
HETATM    6  C   UNK N   1      25.951  26.333  -5.894  0.00  0.00     0.032 A 
HETATM    7  C   UNK N   1      27.908  22.487  -6.775  0.00  0.00     0.049 A 
HETATM    8  C   UNK N   1      26.790  26.079  -3.637  0.00  0.00     0.031 A 
HETATM    9  C   UNK N   1      26.554  23.642  -8.900  0.00  0.00     0.022 A 
HETATM   10  C   UNK N   1      25.317  27.517  -5.494  0.00  0.00     0.021 A 
HETATM   11  C   UNK N   1      27.855  21.819  -7.998  0.00  0.00     0.002 A 
HETATM   12  C   UNK N   1      26.146  27.253  -3.251  0.00  0.00     0.002 A 
HETATM   13  C   UNK N   1      27.171  22.405  -9.064  0.00  0.00     0.020 A 
HETATM   14  C   UNK N   1      25.408  27.974  -4.182  0.00  0.00     0.002 A 
ENDROOT
BRANCH   2  15
HETATM   15  C   UNK N   1      28.300  23.775  -4.332  0.00  0.00     0.131 C 
BRANCH  15  16
HETATM   16  C   UNK N   1      29.709  24.344  -4.388  0.00  0.00     0.056 C 
BRANCH  16  17
HETATM   17  C   UNK N   1      30.669  23.163  -4.479  0.00  0.00     0.224 C 
HETATM   18  N   UNK N   1      32.060  23.549  -4.190  0.00  0.00     0.088 N 
HETATM   19  C   UNK N   1      32.925  22.378  -4.347  0.00  0.00     0.272 C 
HETATM   20  C   UNK N   1      32.502  24.494  -5.206  0.00  0.00     0.310 C 
HETATM   21  C   UNK N   1      32.544  21.284  -3.354  0.00  0.00     0.030 C 
HETATM   22  C   UNK N   1      31.102  20.866  -3.595  0.00  0.00     0.004 C 
HETATM   23  C   UNK N   1      30.195  22.084  -3.502  0.00  0.00     0.036 C 
ENDBRANCH  16  17
ENDBRANCH  15  16
ENDBRANCH   2  15
BRANCH  11  24
HETATM   24  S   UNK N   1      28.650  20.204  -8.136  0.00  0.00    -0.134 SA
HETATM   25  C   UNK N   1      30.116  20.555  -7.115  0.00  0.00     0.095 C 
ENDBRANCH  11  24
TORSDOF 4
ENDMDL
MODEL 2
REMARK VINA RESULT:      -6.2     11.690     12.847
REMARK  4 active torsions:
REMARK  status: ('A' for Active; 'I' for Inactive)
REMARK    1  A    between atoms: S_2  and  C_21 
REMARK    2  A    between atoms: N_4  and  C_11 
REMARK    3  A    between atoms: C_5  and  C_7 
REMARK    4  A    between atoms: C_7  and  C_11 
ROOT
HETATM    1  S   UNK N   1      25.549  18.415   3.436  0.00  0.00    -0.086 SA
HETATM    2  N   UNK N   1      27.868  17.331   5.372  0.00  0.00    -0.345 N 
HETATM    3  C   UNK N   1      27.287  16.417   4.430  0.00  0.00     0.053 A 
HETATM    4  C   UNK N   1      27.385  18.671   5.576  0.00  0.00     0.052 A 
HETATM    5  C   UNK N   1      26.257  16.781   3.538  0.00  0.00     0.032 A 
HETATM    6  C   UNK N   1      26.356  19.243   4.795  0.00  0.00     0.032 A 
HETATM    7  C   UNK N   1      27.769  15.092   4.386  0.00  0.00     0.049 A 
HETATM    8  C   UNK N   1      27.963  19.461   6.593  0.00  0.00     0.031 A 
HETATM    9  C   UNK N   1      25.750  15.834   2.639  0.00  0.00     0.022 A 
HETATM   10  C   UNK N   1      25.939  20.556   5.047  0.00  0.00     0.021 A 
HETATM   11  C   UNK N   1      27.255  14.151   3.495  0.00  0.00     0.002 A 
HETATM   12  C   UNK N   1      27.533  20.764   6.838  0.00  0.00     0.002 A 
HETATM   13  C   UNK N   1      26.238  14.530   2.617  0.00  0.00     0.020 A 
HETATM   14  C   UNK N   1      26.518  21.312   6.063  0.00  0.00     0.002 A 
ENDROOT
BRANCH   2  15
HETATM   15  C   UNK N   1      29.062  16.892   6.080  0.00  0.00     0.131 C 
BRANCH  15  16
HETATM   16  C   UNK N   1      30.343  17.031   5.273  0.00  0.00     0.056 C 
BRANCH  16  17
HETATM   17  C   UNK N   1      31.508  16.924   6.252  0.00  0.00     0.224 C 
HETATM   18  N   UNK N   1      32.731  17.562   5.739  0.00  0.00     0.088 N 
HETATM   19  C   UNK N   1      33.813  17.373   6.708  0.00  0.00     0.272 C 
HETATM   20  C   UNK N   1      33.158  16.855   4.540  0.00  0.00     0.310 C 
HETATM   21  C   UNK N   1      33.476  18.045   8.036  0.00  0.00     0.030 C 
HETATM   22  C   UNK N   1      32.201  17.435   8.598  0.00  0.00     0.004 C 
HETATM   23  C   UNK N   1      31.081  17.563   7.576  0.00  0.00     0.036 C 
ENDBRANCH  16  17
ENDBRANCH  15  16
ENDBRANCH   2  15
BRANCH  11  24
HETATM   24  S   UNK N   1      27.908  12.469   3.540  0.00  0.00    -0.134 SA
HETATM   25  C   UNK N   1      29.453  12.821   4.437  0.00  0.00     0.095 C 
ENDBRANCH  11  24
TORSDOF 4
ENDMDL
MODEL 3
REMARK VINA RESULT:      -6.1      2.202      5.331
REMARK  4 active torsions:
REMARK  status: ('A' for Active; 'I' for Inactive)
REMARK    1  A    between atoms: S_2  and  C_21 
REMARK    2  A    between atoms: N_4  and  C_11 
REMARK    3  A    between atoms: C_5  and  C_7 
REMARK    4  A    between atoms: C_7  and  C_11 
ROOT
HETATM    1  S   UNK N   1      25.435  25.326  -5.198  0.00  0.00    -0.086 SA
HETATM    2  N   UNK N   1      28.640  25.493  -5.145  0.00  0.00    -0.345 N 
HETATM    3  C   UNK N   1      27.894  26.572  -4.563  0.00  0.00     0.053 A 
HETATM    4  C   UNK N   1      28.030  24.401  -5.855  0.00  0.00     0.052 A 
HETATM    5  C   UNK N   1      26.483  26.608  -4.538  0.00  0.00     0.032 A 
HETATM    6  C   UNK N   1      26.630  24.240  -5.958  0.00  0.00     0.032 A 
HETATM    7  C   UNK N   1      28.598  27.648  -3.982  0.00  0.00     0.049 A 
HETATM    8  C   UNK N   1      28.855  23.437  -6.473  0.00  0.00     0.031 A 
HETATM    9  C   UNK N   1      25.827  27.691  -3.939  0.00  0.00     0.022 A 
HETATM   10  C   UNK N   1      26.105  23.148  -6.662  0.00  0.00     0.021 A 
HETATM   11  C   UNK N   1      27.940  28.727  -3.395  0.00  0.00     0.002 A 
HETATM   12  C   UNK N   1      28.320  22.361  -7.178  0.00  0.00     0.002 A 
HETATM   13  C   UNK N   1      26.544  28.745  -3.377  0.00  0.00     0.020 A 
HETATM   14  C   UNK N   1      26.941  22.217  -7.273  0.00  0.00     0.002 A 
ENDROOT
BRANCH   2  15
HETATM   15  C   UNK N   1      30.078  25.474  -4.915  0.00  0.00     0.131 C 
BRANCH  15  16
HETATM   16  C   UNK N   1      30.466  25.205  -3.469  0.00  0.00     0.056 C 
BRANCH  16  17
HETATM   17  C   UNK N   1      31.045  23.796  -3.412  0.00  0.00     0.224 C 
HETATM   18  N   UNK N   1      29.999  22.764  -3.339  0.00  0.00     0.088 N 
HETATM   19  C   UNK N   1      30.631  21.447  -3.235  0.00  0.00     0.272 C 
HETATM   20  C   UNK N   1      29.261  22.936  -2.096  0.00  0.00     0.310 C 
HETATM   21  C   UNK N   1      31.473  21.149  -4.473  0.00  0.00     0.030 C 
HETATM   22  C   UNK N   1      32.558  22.206  -4.609  0.00  0.00     0.004 C 
HETATM   23  C   UNK N   1      31.922  23.588  -4.650  0.00  0.00     0.036 C 
ENDBRANCH  16  17
ENDBRANCH  15  16
ENDBRANCH   2  15
BRANCH  11  24
HETATM   24  S   UNK N   1      28.927  30.076  -2.713  0.00  0.00    -0.134 SA
HETATM   25  C   UNK N   1      28.268  30.038  -1.015  0.00  0.00     0.095 C 
ENDBRANCH  11  24
TORSDOF 4
ENDMDL
MODEL 4
REMARK VINA RESULT:      -6.1     12.634     14.112
REMARK  4 active torsions:
REMARK  status: ('A' for Active; 'I' for Inactive)
REMARK    1  A    between atoms: S_2  and  C_21 
REMARK    2  A    between atoms: N_4  and  C_11 
REMARK    3  A    between atoms: C_5  and  C_7 
REMARK    4  A    between atoms: C_7  and  C_11 
ROOT
HETATM    1  S   UNK N   1      23.253  20.572   3.052  0.00  0.00    -0.086 SA
HETATM    2  N   UNK N   1      23.308  17.482   3.920  0.00  0.00    -0.345 N 
HETATM    3  C   UNK N   1      24.554  18.192   3.858  0.00  0.00     0.053 A 
HETATM    4  C   UNK N   1      22.053  18.046   3.500  0.00  0.00     0.052 A 
HETATM    5  C   UNK N   1      24.649  19.549   3.480  0.00  0.00     0.032 A 
HETATM    6  C   UNK N   1      21.917  19.388   3.081  0.00  0.00     0.032 A 
HETATM    7  C   UNK N   1      25.742  17.508   4.193  0.00  0.00     0.049 A 
HETATM    8  C   UNK N   1      20.898  17.235   3.512  0.00  0.00     0.031 A 
HETATM    9  C   UNK N   1      25.902  20.175   3.456  0.00  0.00     0.022 A 
HETATM   10  C   UNK N   1      20.662  19.872   2.690  0.00  0.00     0.021 A 
HETATM   11  C   UNK N   1      26.986  18.136   4.159  0.00  0.00     0.002 A 
HETATM   12  C   UNK N   1      19.657  17.727   3.112  0.00  0.00     0.002 A 
HETATM   13  C   UNK N   1      27.062  19.479   3.786  0.00  0.00     0.020 A 
HETATM   14  C   UNK N   1      19.539  19.049   2.700  0.00  0.00     0.002 A 
ENDROOT
BRANCH   2  15
HETATM   15  C   UNK N   1      23.323  16.158   4.527  0.00  0.00     0.131 C 
BRANCH  15  16
HETATM   16  C   UNK N   1      23.421  16.178   6.045  0.00  0.00     0.056 C 
BRANCH  16  17
HETATM   17  C   UNK N   1      22.107  15.630   6.589  0.00  0.00     0.224 C 
HETATM   18  N   UNK N   1      22.313  14.674   7.690  0.00  0.00     0.088 N 
HETATM   19  C   UNK N   1      21.013  14.154   8.122  0.00  0.00     0.272 C 
HETATM   20  C   UNK N   1      23.037  13.520   7.175  0.00  0.00     0.310 C 
HETATM   21  C   UNK N   1      20.130  15.277   8.659  0.00  0.00     0.030 C 
HETATM   22  C   UNK N   1      19.907  16.308   7.563  0.00  0.00     0.004 C 
HETATM   23  C   UNK N   1      21.250  16.810   7.054  0.00  0.00     0.036 C 
ENDBRANCH  16  17
ENDBRANCH  15  16
ENDBRANCH   2  15
BRANCH  11  24
HETATM   24  S   UNK N   1      28.454  17.168   4.567  0.00  0.00    -0.134 SA
HETATM   25  C   UNK N   1      28.567  16.213   3.020  0.00  0.00     0.095 C 
ENDBRANCH  11  24
TORSDOF 4
ENDMDL
MODEL 5
REMARK VINA RESULT:      -6.1     11.727     14.006
REMARK  4 active torsions:
REMARK  status: ('A' for Active; 'I' for Inactive)
REMARK    1  A    between atoms: S_2  and  C_21 
REMARK    2  A    between atoms: N_4  and  C_11 
REMARK    3  A    between atoms: C_5  and  C_7 
REMARK    4  A    between atoms: C_7  and  C_11 
ROOT
HETATM    1  S   UNK N   1      28.566  18.993   8.361  0.00  0.00    -0.086 SA
HETATM    2  N   UNK N   1      29.217  17.759   5.470  0.00  0.00    -0.345 N 
HETATM    3  C   UNK N   1      29.959  17.273   6.598  0.00  0.00     0.053 A 
HETATM    4  C   UNK N   1      28.284  18.851   5.547  0.00  0.00     0.052 A 
HETATM    5  C   UNK N   1      29.763  17.749   7.912  0.00  0.00     0.032 A 
HETATM    6  C   UNK N   1      27.938  19.481   6.763  0.00  0.00     0.032 A 
HETATM    7  C   UNK N   1      30.927  16.268   6.391  0.00  0.00     0.049 A 
HETATM    8  C   UNK N   1      27.674  19.317   4.362  0.00  0.00     0.031 A 
HETATM    9  C   UNK N   1      30.518  17.214   8.964  0.00  0.00     0.022 A 
HETATM   10  C   UNK N   1      27.017  20.537   6.763  0.00  0.00     0.021 A 
HETATM   11  C   UNK N   1      31.682  15.746   7.441  0.00  0.00     0.002 A 
HETATM   12  C   UNK N   1      26.766  20.375   4.376  0.00  0.00     0.002 A 
HETATM   13  C   UNK N   1      31.473  16.227   8.734  0.00  0.00     0.020 A 
HETATM   14  C   UNK N   1      26.438  20.986   5.579  0.00  0.00     0.002 A 
ENDROOT
BRANCH   2  15
HETATM   15  C   UNK N   1      29.363  17.037   4.213  0.00  0.00     0.131 C 
BRANCH  15  16
HETATM   16  C   UNK N   1      28.662  15.687   4.194  0.00  0.00     0.056 C 
BRANCH  16  17
HETATM   17  C   UNK N   1      27.417  15.837   3.328  0.00  0.00     0.224 C 
HETATM   18  N   UNK N   1      27.185  14.662   2.473  0.00  0.00     0.088 N 
HETATM   19  C   UNK N   1      26.007  14.902   1.637  0.00  0.00     0.272 C 
HETATM   20  C   UNK N   1      28.298  14.536   1.543  0.00  0.00     0.310 C 
HETATM   21  C   UNK N   1      24.759  15.088   2.496  0.00  0.00     0.030 C 
HETATM   22  C   UNK N   1      24.959  16.281   3.419  0.00  0.00     0.004 C 
HETATM   23  C   UNK N   1      26.218  16.079   4.249  0.00  0.00     0.036 C 
ENDBRANCH  16  17
ENDBRANCH  15  16
ENDBRANCH   2  15
BRANCH  11  24
HETATM   24  S   UNK N   1      32.925  14.490   7.072  0.00  0.00    -0.134 SA
HETATM   25  C   UNK N   1      34.364  15.596   6.917  0.00  0.00     0.095 C 
ENDBRANCH  11  24
TORSDOF 4
ENDMDL
MODEL 6
REMARK VINA RESULT:      -6.0     11.744     13.765
REMARK  4 active torsions:
REMARK  status: ('A' for Active; 'I' for Inactive)
REMARK    1  A    between atoms: S_2  and  C_21 
REMARK    2  A    between atoms: N_4  and  C_11 
REMARK    3  A    between atoms: C_5  and  C_7 
REMARK    4  A    between atoms: C_7  and  C_11 
ROOT
HETATM    1  S   UNK N   1      28.654  18.848   8.172  0.00  0.00    -0.086 SA
HETATM    2  N   UNK N   1      29.019  17.727   5.186  0.00  0.00    -0.345 N 
HETATM    3  C   UNK N   1      29.821  17.154   6.230  0.00  0.00     0.053 A 
HETATM    4  C   UNK N   1      28.149  18.855   5.386  0.00  0.00     0.052 A 
HETATM    5  C   UNK N   1      29.751  17.575   7.575  0.00  0.00     0.032 A 
HETATM    6  C   UNK N   1      27.929  19.441   6.653  0.00  0.00     0.032 A 
HETATM    7  C   UNK N   1      30.720  16.118   5.902  0.00  0.00     0.049 A 
HETATM    8  C   UNK N   1      27.473  19.405   4.275  0.00  0.00     0.031 A 
HETATM    9  C   UNK N   1      30.558  16.956   8.538  0.00  0.00     0.022 A 
HETATM   10  C   UNK N   1      27.064  20.536   6.773  0.00  0.00     0.021 A 
HETATM   11  C   UNK N   1      31.528  15.512   6.864  0.00  0.00     0.002 A 
HETATM   12  C   UNK N   1      26.621  20.500   4.408  0.00  0.00     0.002 A 
HETATM   13  C   UNK N   1      31.443  15.939   8.190  0.00  0.00     0.020 A 
HETATM   14  C   UNK N   1      26.417  21.067   5.660  0.00  0.00     0.002 A 
ENDROOT
BRANCH   2  15
HETATM   15  C   UNK N   1      29.032  17.061   3.892  0.00  0.00     0.131 C 
BRANCH  15  16
HETATM   16  C   UNK N   1      27.756  16.293   3.582  0.00  0.00     0.056 C 
BRANCH  16  17
HETATM   17  C   UNK N   1      28.161  14.862   3.247  0.00  0.00     0.224 C 
HETATM   18  N   UNK N   1      27.205  14.207   2.340  0.00  0.00     0.088 N 
HETATM   19  C   UNK N   1      27.633  12.826   2.108  0.00  0.00     0.272 C 
HETATM   20  C   UNK N   1      25.918  14.104   3.013  0.00  0.00     0.310 C 
HETATM   21  C   UNK N   1      28.999  12.786   1.429  0.00  0.00     0.030 C 
HETATM   22  C   UNK N   1      30.022  13.475   2.320  0.00  0.00     0.004 C 
HETATM   23  C   UNK N   1      29.560  14.892   2.627  0.00  0.00     0.036 C 
ENDBRANCH  16  17
ENDBRANCH  15  16
ENDBRANCH   2  15
BRANCH  11  24
HETATM   24  S   UNK N   1      32.676  14.221   6.341  0.00  0.00    -0.134 SA
HETATM   25  C   UNK N   1      32.849  14.725   4.600  0.00  0.00     0.095 C 
ENDBRANCH  11  24
TORSDOF 4
ENDMDL
MODEL 7
REMARK VINA RESULT:      -6.0     14.308     16.210
REMARK  4 active torsions:
REMARK  status: ('A' for Active; 'I' for Inactive)
REMARK    1  A    between atoms: S_2  and  C_21 
REMARK    2  A    between atoms: N_4  and  C_11 
REMARK    3  A    between atoms: C_5  and  C_7 
REMARK    4  A    between atoms: C_7  and  C_11 
ROOT
HETATM    1  S   UNK N   1      20.861  15.144   8.947  0.00  0.00    -0.086 SA
HETATM    2  N   UNK N   1      23.420  14.621   7.081  0.00  0.00    -0.345 N 
HETATM    3  C   UNK N   1      22.569  15.735   6.770  0.00  0.00     0.053 A 
HETATM    4  C   UNK N   1      23.122  13.659   8.108  0.00  0.00     0.052 A 
HETATM    5  C   UNK N   1      21.414  16.053   7.516  0.00  0.00     0.032 A 
HETATM    6  C   UNK N   1      22.012  13.780   8.974  0.00  0.00     0.032 A 
HETATM    7  C   UNK N   1      22.901  16.556   5.672  0.00  0.00     0.049 A 
HETATM    8  C   UNK N   1      23.974  12.546   8.274  0.00  0.00     0.031 A 
HETATM    9  C   UNK N   1      20.642  17.165   7.157  0.00  0.00     0.022 A 
HETATM   10  C   UNK N   1      21.786  12.807   9.956  0.00  0.00     0.021 A 
HETATM   11  C   UNK N   1      22.123  17.656   5.315  0.00  0.00     0.002 A 
HETATM   12  C   UNK N   1      23.732  11.581   9.250  0.00  0.00     0.002 A 
HETATM   13  C   UNK N   1      20.986  17.959   6.066  0.00  0.00     0.020 A 
HETATM   14  C   UNK N   1      22.635  11.712  10.092  0.00  0.00     0.002 A 
ENDROOT
BRANCH   2  15
HETATM   15  C   UNK N   1      24.688  14.531   6.371  0.00  0.00     0.131 C 
BRANCH  15  16
HETATM   16  C   UNK N   1      25.837  15.242   7.069  0.00  0.00     0.056 C 
BRANCH  16  17
HETATM   17  C   UNK N   1      26.492  16.158   6.041  0.00  0.00     0.224 C 
HETATM   18  N   UNK N   1      27.908  16.418   6.345  0.00  0.00     0.088 N 
HETATM   19  C   UNK N   1      28.451  17.342   5.347  0.00  0.00     0.272 C 
HETATM   20  C   UNK N   1      27.990  17.128   7.613  0.00  0.00     0.310 C 
HETATM   21  C   UNK N   1      28.393  16.730   3.950  0.00  0.00     0.030 C 
HETATM   22  C   UNK N   1      26.947  16.419   3.597  0.00  0.00     0.004 C 
HETATM   23  C   UNK N   1      26.346  15.512   4.661  0.00  0.00     0.036 C 
ENDBRANCH  16  17
ENDBRANCH  15  16
ENDBRANCH   2  15
BRANCH  11  24
HETATM   24  S   UNK N   1      22.606  18.625   3.870  0.00  0.00    -0.134 SA
HETATM   25  C   UNK N   1      24.324  18.975   4.363  0.00  0.00     0.095 C 
ENDBRANCH  11  24
TORSDOF 4
ENDMDL
MODEL 8
REMARK VINA RESULT:      -6.0     21.314     25.009
REMARK  4 active torsions:
REMARK  status: ('A' for Active; 'I' for Inactive)
REMARK    1  A    between atoms: S_2  and  C_21 
REMARK    2  A    between atoms: N_4  and  C_11 
REMARK    3  A    between atoms: C_5  and  C_7 
REMARK    4  A    between atoms: C_7  and  C_11 
ROOT
HETATM    1  S   UNK N   1      35.566   9.093  17.487  0.00  0.00    -0.086 SA
HETATM    2  N   UNK N   1      35.170  11.313  15.204  0.00  0.00    -0.345 N 
HETATM    3  C   UNK N   1      35.409   9.957  14.798  0.00  0.00     0.053 A 
HETATM    4  C   UNK N   1      35.217  11.750  16.573  0.00  0.00     0.052 A 
HETATM    5  C   UNK N   1      35.606   8.902  15.715  0.00  0.00     0.032 A 
HETATM    6  C   UNK N   1      35.405  10.863  17.656  0.00  0.00     0.032 A 
HETATM    7  C   UNK N   1      35.444   9.657  13.420  0.00  0.00     0.049 A 
HETATM    8  C   UNK N   1      35.061  13.123  16.861  0.00  0.00     0.031 A 
HETATM    9  C   UNK N   1      35.820   7.602  15.241  0.00  0.00     0.022 A 
HETATM   10  C   UNK N   1      35.436  11.359  18.966  0.00  0.00     0.021 A 
HETATM   11  C   UNK N   1      35.668   8.362  12.954  0.00  0.00     0.002 A 
HETATM   12  C   UNK N   1      35.103  13.604  18.168  0.00  0.00     0.002 A 
HETATM   13  C   UNK N   1      35.857   7.331  13.875  0.00  0.00     0.020 A 
HETATM   14  C   UNK N   1      35.291  12.719  19.223  0.00  0.00     0.002 A 
ENDROOT
BRANCH   2  15
HETATM   15  C   UNK N   1      34.771  12.259  14.170  0.00  0.00     0.131 C 
BRANCH  15  16
HETATM   16  C   UNK N   1      35.832  13.299  13.846  0.00  0.00     0.056 C 
BRANCH  16  17
HETATM   17  C   UNK N   1      36.239  13.090  12.391  0.00  0.00     0.224 C 
HETATM   18  N   UNK N   1      36.410  14.361  11.669  0.00  0.00     0.088 N 
HETATM   19  C   UNK N   1      36.748  14.078  10.273  0.00  0.00     0.272 C 
HETATM   20  C   UNK N   1      35.127  15.047  11.623  0.00  0.00     0.310 C 
HETATM   21  C   UNK N   1      38.071  13.323  10.176  0.00  0.00     0.030 C 
HETATM   22  C   UNK N   1      37.954  12.007  10.931  0.00  0.00     0.004 C 
HETATM   23  C   UNK N   1      37.537  12.278  12.368  0.00  0.00     0.036 C 
ENDBRANCH  16  17
ENDBRANCH  15  16
ENDBRANCH   2  15
BRANCH  11  24
HETATM   24  S   UNK N   1      35.735   8.083  11.172  0.00  0.00    -0.134 SA
HETATM   25  C   UNK N   1      34.990   9.658  10.641  0.00  0.00     0.095 C 
ENDBRANCH  11  24
TORSDOF 4
ENDMDL
MODEL 9
REMARK VINA RESULT:      -6.0      2.222      6.243
REMARK  4 active torsions:
REMARK  status: ('A' for Active; 'I' for Inactive)
REMARK    1  A    between atoms: S_2  and  C_21 
REMARK    2  A    between atoms: N_4  and  C_11 
REMARK    3  A    between atoms: C_5  and  C_7 
REMARK    4  A    between atoms: C_7  and  C_11 
ROOT
HETATM    1  S   UNK N   1      29.563  20.311  -9.095  0.00  0.00    -0.086 SA
HETATM    2  N   UNK N   1      27.971  22.600  -7.505  0.00  0.00    -0.345 N 
HETATM    3  C   UNK N   1      29.009  21.888  -6.813  0.00  0.00     0.053 A 
HETATM    4  C   UNK N   1      27.528  22.262  -8.831  0.00  0.00     0.052 A 
HETATM    5  C   UNK N   1      29.766  20.858  -7.410  0.00  0.00     0.032 A 
HETATM    6  C   UNK N   1      28.142  21.259  -9.613  0.00  0.00     0.032 A 
HETATM    7  C   UNK N   1      29.292  22.234  -5.475  0.00  0.00     0.049 A 
HETATM    8  C   UNK N   1      26.436  22.962  -9.388  0.00  0.00     0.031 A 
HETATM    9  C   UNK N   1      30.771  20.220  -6.673  0.00  0.00     0.022 A 
HETATM   10  C   UNK N   1      27.660  20.987 -10.900  0.00  0.00     0.021 A 
HETATM   11  C   UNK N   1      30.288  21.588  -4.743  0.00  0.00     0.002 A 
HETATM   12  C   UNK N   1      25.961  22.675 -10.666  0.00  0.00     0.002 A 
HETATM   13  C   UNK N   1      31.030  20.574  -5.351  0.00  0.00     0.020 A 
HETATM   14  C   UNK N   1      26.574  21.684 -11.423  0.00  0.00     0.002 A 
ENDROOT
BRANCH   2  15
HETATM   15  C   UNK N   1      27.417  23.777  -6.849  0.00  0.00     0.131 C 
BRANCH  15  16
HETATM   16  C   UNK N   1      26.196  23.485  -5.991  0.00  0.00     0.056 C 
BRANCH  16  17
HETATM   17  C   UNK N   1      25.786  24.797  -5.330  0.00  0.00     0.224 C 
HETATM   18  N   UNK N   1      26.828  25.320  -4.431  0.00  0.00     0.088 N 
HETATM   19  C   UNK N   1      26.342  26.547  -3.797  0.00  0.00     0.272 C 
HETATM   20  C   UNK N   1      27.021  24.374  -3.341  0.00  0.00     0.310 C 
HETATM   21  C   UNK N   1      26.064  27.625  -4.841  0.00  0.00     0.030 C 
HETATM   22  C   UNK N   1      25.008  27.122  -5.813  0.00  0.00     0.004 C 
HETATM   23  C   UNK N   1      25.467  25.810  -6.432  0.00  0.00     0.036 C 
ENDBRANCH  16  17
ENDBRANCH  15  16
ENDBRANCH   2  15
BRANCH  11  24
HETATM   24  S   UNK N   1      30.551  22.074  -3.025  0.00  0.00    -0.134 SA
HETATM   25  C   UNK N   1      32.298  21.578  -2.886  0.00  0.00     0.095 C 
ENDBRANCH  11  24
TORSDOF 4
ENDMDL
