MODEL 1
REMARK VINA RESULT:      -7.5      0.000      0.000
REMARK  6 active torsions:
REMARK  status: ('A' for Active; 'I' for Inactive)
REMARK    1  A    between atoms: O_4  and  C_28 
REMARK    2  A    between atoms: O_4  and  C_29 
REMARK    3  A    between atoms: N_6  and  C_9 
REMARK       I    between atoms: N_7  and  C_15 
REMARK    4  A    between atoms: N_8  and  C_23 
REMARK       I    between atoms: N_8  and  C_28 
REMARK    5  A    between atoms: C_9  and  C_12 
REMARK    6  A    between atoms: C_12  and  C_15 
ROOT
HETATM    1  S   UNK N   1      24.108  20.758   3.004  0.00  0.00    -0.086 SA
HETATM    2  O   UNK N   1      24.645  16.177   5.816  0.00  0.00    -0.273 OA
HETATM    3  N   UNK N   1      23.800  17.894   4.546  0.00  0.00    -0.280 N 
HETATM    4  C   UNK N   1      23.682  16.670   5.244  0.00  0.00     0.230 C 
HETATM    5  C   UNK N   1      25.095  18.580   4.518  0.00  0.00     0.062 A 
HETATM    6  C   UNK N   1      22.641  18.475   3.863  0.00  0.00     0.059 A 
HETATM    7  C   UNK N   1      25.333  19.823   3.875  0.00  0.00     0.033 A 
HETATM    8  C   UNK N   1      22.683  19.714   3.166  0.00  0.00     0.033 A 
HETATM    9  C   UNK N   1      26.201  18.003   5.165  0.00  0.00     0.061 A 
HETATM   10  C   UNK N   1      21.397  17.806   3.866  0.00  0.00     0.031 A 
HETATM   11  C   UNK N   1      26.617  20.402   3.909  0.00  0.00     0.023 A 
HETATM   12  C   UNK N   1      27.463  18.564   5.207  0.00  0.00     0.039 A 
HETATM   13  C   UNK N   1      21.530  20.209   2.536  0.00  0.00     0.021 A 
HETATM   14  C   UNK N   1      27.682  19.782   4.569  0.00  0.00     0.031 A 
HETATM   15  C   UNK N   1      20.261  18.305   3.240  0.00  0.00     0.002 A 
HETATM   16  C   UNK N   1      20.327  19.515   2.571  0.00  0.00     0.002 A 
ENDROOT
BRANCH   4  17
HETATM   17  C   UNK N   1      22.413  15.876   5.367  0.00  0.00     0.134 C 
BRANCH  17  18
HETATM   18  C   UNK N   1      22.138  15.590   6.841  0.00  0.00     0.282 C 
BRANCH  18  19
HETATM   19  N   UNK N   1      20.815  15.017   7.097  0.00  0.00     0.093 N 
HETATM   20  C   UNK N   1      19.773  16.043   7.279  0.00  0.00     0.298 C 
HETATM   21  C   UNK N   1      19.496  16.316   8.758  0.00  0.00     0.198 C 
HETATM   22  O   UNK N   1      19.206  15.108   9.405  0.00  0.00    -0.388 OA
HETATM   23  C   UNK N   1      20.433  14.436   9.485  0.00  0.00     0.198 C 
HETATM   24  C   UNK N   1      20.821  13.930   8.093  0.00  0.00     0.298 C 
ENDBRANCH  18  19
ENDBRANCH  17  18
ENDBRANCH   4  17
BRANCH  12  25
HETATM   25  N   UNK N   1      28.462  17.845   5.913  0.00  0.00    -0.303 N 
HETATM   26  C   UNK N   1      28.850  17.974   7.202  0.00  0.00     0.365 C 
HETATM   27  O   UNK N   1      28.329  18.798   7.942  0.00  0.00    -0.238 OA
HETATM   28  H   UNK N   1      28.939  17.158   5.392  0.00  0.00     0.171 HD
BRANCH  26  29
HETATM   29  O   UNK N   1      29.836  17.161   7.649  0.00  0.00    -0.304 OA
BRANCH  29  30
HETATM   30  C   UNK N   1      31.132  17.203   7.201  0.00  0.00     0.176 C 
HETATM   31  C   UNK N   1      32.018  17.684   8.333  0.00  0.00     0.034 C 
ENDBRANCH  29  30
ENDBRANCH  26  29
ENDBRANCH  12  25
TORSDOF 6
ENDMDL
MODEL 2
REMARK VINA RESULT:      -7.4      6.927     11.123
REMARK  6 active torsions:
REMARK  status: ('A' for Active; 'I' for Inactive)
REMARK    1  A    between atoms: O_4  and  C_28 
REMARK    2  A    between atoms: O_4  and  C_29 
REMARK    3  A    between atoms: N_6  and  C_9 
REMARK       I    between atoms: N_7  and  C_15 
REMARK    4  A    between atoms: N_8  and  C_23 
REMARK       I    between atoms: N_8  and  C_28 
REMARK    5  A    between atoms: C_9  and  C_12 
REMARK    6  A    between atoms: C_12  and  C_15 
ROOT
HETATM    1  S   UNK N   1      35.869  13.665   5.599  0.00  0.00    -0.086 SA
HETATM    2  O   UNK N   1      34.080  17.150   9.318  0.00  0.00    -0.273 OA
HETATM    3  N   UNK N   1      34.404  15.994   7.360  0.00  0.00    -0.280 N 
HETATM    4  C   UNK N   1      33.804  17.014   8.134  0.00  0.00     0.230 C 
HETATM    5  C   UNK N   1      35.375  15.096   7.990  0.00  0.00     0.062 A 
HETATM    6  C   UNK N   1      34.065  15.839   5.942  0.00  0.00     0.059 A 
HETATM    7  C   UNK N   1      36.062  14.053   7.315  0.00  0.00     0.033 A 
HETATM    8  C   UNK N   1      34.650  14.853   5.101  0.00  0.00     0.033 A 
HETATM    9  C   UNK N   1      35.679  15.247   9.354  0.00  0.00     0.061 A 
HETATM   10  C   UNK N   1      33.112  16.687   5.337  0.00  0.00     0.031 A 
HETATM   11  C   UNK N   1      36.981  13.245   8.012  0.00  0.00     0.023 A 
HETATM   12  C   UNK N   1      36.580  14.461  10.046  0.00  0.00     0.039 A 
HETATM   13  C   UNK N   1      34.276  14.767   3.750  0.00  0.00     0.021 A 
HETATM   14  C   UNK N   1      37.244  13.441   9.371  0.00  0.00     0.031 A 
HETATM   15  C   UNK N   1      32.749  16.594   3.998  0.00  0.00     0.002 A 
HETATM   16  C   UNK N   1      33.335  15.628   3.199  0.00  0.00     0.002 A 
ENDROOT
BRANCH   4  17
HETATM   17  C   UNK N   1      32.810  18.012   7.610  0.00  0.00     0.134 C 
BRANCH  17  18
HETATM   18  C   UNK N   1      31.684  18.184   8.625  0.00  0.00     0.282 C 
BRANCH  18  19
HETATM   19  N   UNK N   1      30.617  17.188   8.501  0.00  0.00     0.093 N 
HETATM   20  C   UNK N   1      30.087  17.085   7.131  0.00  0.00     0.298 C 
HETATM   21  C   UNK N   1      28.800  17.894   6.957  0.00  0.00     0.198 C 
HETATM   22  O   UNK N   1      27.879  17.513   7.940  0.00  0.00    -0.388 OA
HETATM   23  C   UNK N   1      28.374  18.058   9.132  0.00  0.00     0.198 C 
HETATM   24  C   UNK N   1      29.607  17.264   9.573  0.00  0.00     0.298 C 
ENDBRANCH  18  19
ENDBRANCH  17  18
ENDBRANCH   4  17
BRANCH  12  25
HETATM   25  N   UNK N   1      36.769  14.760  11.421  0.00  0.00    -0.303 N 
HETATM   26  C   UNK N   1      35.964  14.478  12.470  0.00  0.00     0.365 C 
HETATM   27  O   UNK N   1      34.903  13.888  12.314  0.00  0.00    -0.238 OA
HETATM   28  H   UNK N   1      37.602  15.240  11.640  0.00  0.00     0.171 HD
BRANCH  26  29
HETATM   29  O   UNK N   1      36.370  14.869  13.700  0.00  0.00    -0.304 OA
BRANCH  29  30
HETATM   30  C   UNK N   1      36.504  14.025  14.773  0.00  0.00     0.176 C 
HETATM   31  C   UNK N   1      37.145  14.791  15.912  0.00  0.00     0.034 C 
ENDBRANCH  29  30
ENDBRANCH  26  29
ENDBRANCH  12  25
TORSDOF 6
ENDMDL
MODEL 3
REMARK VINA RESULT:      -7.4      1.704      7.231
REMARK  6 active torsions:
REMARK  status: ('A' for Active; 'I' for Inactive)
REMARK    1  A    between atoms: O_4  and  C_28 
REMARK    2  A    between atoms: O_4  and  C_29 
REMARK    3  A    between atoms: N_6  and  C_9 
REMARK       I    between atoms: N_7  and  C_15 
REMARK    4  A    between atoms: N_8  and  C_23 
REMARK       I    between atoms: N_8  and  C_28 
REMARK    5  A    between atoms: C_9  and  C_12 
REMARK    6  A    between atoms: C_12  and  C_15 
ROOT
HETATM    1  S   UNK N   1      21.945  18.852   3.985  0.00  0.00    -0.086 SA
HETATM    2  O   UNK N   1      25.164  15.332   6.520  0.00  0.00    -0.273 OA
HETATM    3  N   UNK N   1      24.378  17.102   5.286  0.00  0.00    -0.280 N 
HETATM    4  C   UNK N   1      25.416  16.314   5.835  0.00  0.00     0.230 C 
HETATM    5  C   UNK N   1      22.984  16.728   5.539  0.00  0.00     0.062 A 
HETATM    6  C   UNK N   1      24.690  18.278   4.467  0.00  0.00     0.059 A 
HETATM    7  C   UNK N   1      21.858  17.422   5.025  0.00  0.00     0.033 A 
HETATM    8  C   UNK N   1      23.697  19.098   3.864  0.00  0.00     0.033 A 
HETATM    9  C   UNK N   1      22.701  15.607   6.339  0.00  0.00     0.061 A 
HETATM   10  C   UNK N   1      26.032  18.656   4.239  0.00  0.00     0.031 A 
HETATM   11  C   UNK N   1      20.555  16.978   5.325  0.00  0.00     0.023 A 
HETATM   12  C   UNK N   1      21.427  15.162   6.638  0.00  0.00     0.039 A 
HETATM   13  C   UNK N   1      24.073  20.207   3.090  0.00  0.00     0.021 A 
HETATM   14  C   UNK N   1      20.332  15.855   6.128  0.00  0.00     0.031 A 
HETATM   15  C   UNK N   1      26.393  19.757   3.471  0.00  0.00     0.002 A 
HETATM   16  C   UNK N   1      25.408  20.537   2.893  0.00  0.00     0.002 A 
ENDROOT
BRANCH   4  17
HETATM   17  C   UNK N   1      26.882  16.574   5.637  0.00  0.00     0.134 C 
BRANCH  17  18
HETATM   18  C   UNK N   1      27.563  16.684   6.998  0.00  0.00     0.282 C 
BRANCH  18  19
HETATM   19  N   UNK N   1      28.525  17.784   7.094  0.00  0.00     0.093 N 
HETATM   20  C   UNK N   1      29.923  17.332   6.995  0.00  0.00     0.298 C 
HETATM   21  C   UNK N   1      30.570  17.182   8.373  0.00  0.00     0.198 C 
HETATM   22  O   UNK N   1      30.421  18.378   9.086  0.00  0.00    -0.388 OA
HETATM   23  C   UNK N   1      29.065  18.426   9.435  0.00  0.00     0.198 C 
HETATM   24  C   UNK N   1      28.235  18.732   8.185  0.00  0.00     0.298 C 
ENDBRANCH  18  19
ENDBRANCH  17  18
ENDBRANCH   4  17
BRANCH  12  25
HETATM   25  N   UNK N   1      21.326  14.007   7.456  0.00  0.00    -0.303 N 
HETATM   26  C   UNK N   1      21.100  13.926   8.787  0.00  0.00     0.365 C 
HETATM   27  O   UNK N   1      20.952  14.932   9.468  0.00  0.00    -0.238 OA
HETATM   28  H   UNK N   1      21.436  13.145   6.990  0.00  0.00     0.171 HD
BRANCH  26  29
HETATM   29  O   UNK N   1      21.044  12.693   9.344  0.00  0.00    -0.304 OA
BRANCH  29  30
HETATM   30  C   UNK N   1      21.196  12.445  10.684  0.00  0.00     0.176 C 
HETATM   31  C   UNK N   1      22.630  12.025  10.938  0.00  0.00     0.034 C 
ENDBRANCH  29  30
ENDBRANCH  26  29
ENDBRANCH  12  25
TORSDOF 6
ENDMDL
MODEL 4
REMARK VINA RESULT:      -7.2      7.368     10.421
REMARK  6 active torsions:
REMARK  status: ('A' for Active; 'I' for Inactive)
REMARK    1  A    between atoms: O_4  and  C_28 
REMARK    2  A    between atoms: O_4  and  C_29 
REMARK    3  A    between atoms: N_6  and  C_9 
REMARK       I    between atoms: N_7  and  C_15 
REMARK    4  A    between atoms: N_8  and  C_23 
REMARK       I    between atoms: N_8  and  C_28 
REMARK    5  A    between atoms: C_9  and  C_12 
REMARK    6  A    between atoms: C_12  and  C_15 
ROOT
HETATM    1  S   UNK N   1      28.636  16.387   5.823  0.00  0.00    -0.086 SA
HETATM    2  O   UNK N   1      33.960  17.275   6.062  0.00  0.00    -0.273 OA
HETATM    3  N   UNK N   1      31.718  17.187   6.555  0.00  0.00    -0.280 N 
HETATM    4  C   UNK N   1      33.055  17.550   6.839  0.00  0.00     0.230 C 
HETATM    5  C   UNK N   1      31.417  16.479   5.308  0.00  0.00     0.062 A 
HETATM    6  C   UNK N   1      30.642  17.520   7.494  0.00  0.00     0.059 A 
HETATM    7  C   UNK N   1      30.117  16.086   4.900  0.00  0.00     0.033 A 
HETATM    8  C   UNK N   1      29.274  17.210   7.259  0.00  0.00     0.033 A 
HETATM    9  C   UNK N   1      32.462  16.154   4.425  0.00  0.00     0.061 A 
HETATM   10  C   UNK N   1      30.930  18.181   8.709  0.00  0.00     0.031 A 
HETATM   11  C   UNK N   1      29.932  15.411   3.677  0.00  0.00     0.023 A 
HETATM   12  C   UNK N   1      32.292  15.495   3.223  0.00  0.00     0.039 A 
HETATM   13  C   UNK N   1      28.299  17.562   8.205  0.00  0.00     0.021 A 
HETATM   14  C   UNK N   1      31.010  15.112   2.837  0.00  0.00     0.031 A 
HETATM   15  C   UNK N   1      29.956  18.526   9.638  0.00  0.00     0.002 A 
HETATM   16  C   UNK N   1      28.632  18.215   9.385  0.00  0.00     0.002 A 
ENDROOT
BRANCH   4  17
HETATM   17  C   UNK N   1      33.497  18.292   8.068  0.00  0.00     0.134 C 
BRANCH  17  18
HETATM   18  C   UNK N   1      34.709  17.590   8.674  0.00  0.00     0.282 C 
BRANCH  18  19
HETATM   19  N   UNK N   1      34.385  16.714   9.802  0.00  0.00     0.093 N 
HETATM   20  C   UNK N   1      35.460  16.655  10.807  0.00  0.00     0.298 C 
HETATM   21  C   UNK N   1      36.343  15.420  10.624  0.00  0.00     0.198 C 
HETATM   22  O   UNK N   1      35.537  14.275  10.603  0.00  0.00    -0.388 OA
HETATM   23  C   UNK N   1      34.880  14.316   9.367  0.00  0.00     0.198 C 
HETATM   24  C   UNK N   1      33.815  15.415   9.400  0.00  0.00     0.298 C 
ENDBRANCH  18  19
ENDBRANCH  17  18
ENDBRANCH   4  17
BRANCH  12  25
HETATM   25  N   UNK N   1      33.459  15.253   2.452  0.00  0.00    -0.303 N 
HETATM   26  C   UNK N   1      34.205  14.128   2.371  0.00  0.00     0.365 C 
HETATM   27  O   UNK N   1      33.916  13.127   3.013  0.00  0.00    -0.238 OA
HETATM   28  H   UNK N   1      33.769  16.010   1.902  0.00  0.00     0.171 HD
BRANCH  26  29
HETATM   29  O   UNK N   1      35.284  14.145   1.553  0.00  0.00    -0.304 OA
BRANCH  29  30
HETATM   30  C   UNK N   1      36.097  13.063   1.328  0.00  0.00     0.176 C 
HETATM   31  C   UNK N   1      37.473  13.370   1.882  0.00  0.00     0.034 C 
ENDBRANCH  29  30
ENDBRANCH  26  29
ENDBRANCH  12  25
TORSDOF 6
ENDMDL
MODEL 5
REMARK VINA RESULT:      -6.9     13.219     14.812
REMARK  6 active torsions:
REMARK  status: ('A' for Active; 'I' for Inactive)
REMARK    1  A    between atoms: O_4  and  C_28 
REMARK    2  A    between atoms: O_4  and  C_29 
REMARK    3  A    between atoms: N_6  and  C_9 
REMARK       I    between atoms: N_7  and  C_15 
REMARK    4  A    between atoms: N_8  and  C_23 
REMARK       I    between atoms: N_8  and  C_28 
REMARK    5  A    between atoms: C_9  and  C_12 
REMARK    6  A    between atoms: C_12  and  C_15 
ROOT
HETATM    1  S   UNK N   1      25.634  24.631  -7.591  0.00  0.00    -0.086 SA
HETATM    2  O   UNK N   1      28.917  24.608  -3.301  0.00  0.00    -0.273 OA
HETATM    3  N   UNK N   1      27.880  24.084  -5.283  0.00  0.00    -0.280 N 
HETATM    4  C   UNK N   1      28.826  23.851  -4.258  0.00  0.00     0.230 C 
HETATM    5  C   UNK N   1      26.994  25.248  -5.188  0.00  0.00     0.062 A 
HETATM    6  C   UNK N   1      27.781  23.171  -6.426  0.00  0.00     0.059 A 
HETATM    7  C   UNK N   1      25.991  25.575  -6.136  0.00  0.00     0.033 A 
HETATM    8  C   UNK N   1      26.836  23.332  -7.476  0.00  0.00     0.033 A 
HETATM    9  C   UNK N   1      27.112  26.122  -4.094  0.00  0.00     0.061 A 
HETATM   10  C   UNK N   1      28.649  22.062  -6.534  0.00  0.00     0.031 A 
HETATM   11  C   UNK N   1      25.187  26.717  -5.951  0.00  0.00     0.023 A 
HETATM   12  C   UNK N   1      26.327  27.243  -3.901  0.00  0.00     0.039 A 
HETATM   13  C   UNK N   1      26.800  22.415  -8.538  0.00  0.00     0.021 A 
HETATM   14  C   UNK N   1      25.349  27.553  -4.842  0.00  0.00     0.031 A 
HETATM   15  C   UNK N   1      28.603  21.159  -7.590  0.00  0.00     0.002 A 
HETATM   16  C   UNK N   1      27.673  21.336  -8.598  0.00  0.00     0.002 A 
ENDROOT
BRANCH   4  17
HETATM   17  C   UNK N   1      29.778  22.689  -4.222  0.00  0.00     0.134 C 
BRANCH  17  18
HETATM   18  C   UNK N   1      31.199  23.207  -4.022  0.00  0.00     0.282 C 
BRANCH  18  19
HETATM   19  N   UNK N   1      32.213  22.152  -3.960  0.00  0.00     0.093 N 
HETATM   20  C   UNK N   1      33.380  22.429  -4.814  0.00  0.00     0.298 C 
HETATM   21  C   UNK N   1      33.287  21.704  -6.157  0.00  0.00     0.198 C 
HETATM   22  O   UNK N   1      33.076  20.338  -5.931  0.00  0.00    -0.388 OA
HETATM   23  C   UNK N   1      31.750  20.245  -5.488  0.00  0.00     0.198 C 
HETATM   24  C   UNK N   1      31.658  20.789  -4.060  0.00  0.00     0.298 C 
ENDBRANCH  18  19
ENDBRANCH  17  18
ENDBRANCH   4  17
BRANCH  12  25
HETATM   25  N   UNK N   1      26.579  28.011  -2.734  0.00  0.00    -0.303 N 
HETATM   26  C   UNK N   1      27.439  29.042  -2.565  0.00  0.00     0.365 C 
HETATM   27  O   UNK N   1      28.141  29.440  -3.485  0.00  0.00    -0.238 OA
HETATM   28  H   UNK N   1      26.057  27.757  -1.938  0.00  0.00     0.171 HD
BRANCH  26  29
HETATM   29  O   UNK N   1      27.497  29.620  -1.342  0.00  0.00    -0.304 OA
BRANCH  29  30
HETATM   30  C   UNK N   1      28.664  29.938  -0.695  0.00  0.00     0.176 C 
HETATM   31  C   UNK N   1      28.335  30.306   0.738  0.00  0.00     0.034 C 
ENDBRANCH  29  30
ENDBRANCH  26  29
ENDBRANCH  12  25
TORSDOF 6
ENDMDL
MODEL 6
REMARK VINA RESULT:      -6.8      8.092     12.992
REMARK  6 active torsions:
REMARK  status: ('A' for Active; 'I' for Inactive)
REMARK    1  A    between atoms: O_4  and  C_28 
REMARK    2  A    between atoms: O_4  and  C_29 
REMARK    3  A    between atoms: N_6  and  C_9 
REMARK       I    between atoms: N_7  and  C_15 
REMARK    4  A    between atoms: N_8  and  C_23 
REMARK       I    between atoms: N_8  and  C_28 
REMARK    5  A    between atoms: C_9  and  C_12 
REMARK    6  A    between atoms: C_12  and  C_15 
ROOT
HETATM    1  S   UNK N   1      37.226  12.146   7.972  0.00  0.00    -0.086 SA
HETATM    2  O   UNK N   1      34.940  16.066  10.903  0.00  0.00    -0.273 OA
HETATM    3  N   UNK N   1      35.636  14.741   9.160  0.00  0.00    -0.280 N 
HETATM    4  C   UNK N   1      34.978  15.873   9.695  0.00  0.00     0.230 C 
HETATM    5  C   UNK N   1      36.285  13.794  10.071  0.00  0.00     0.062 A 
HETATM    6  C   UNK N   1      35.674  14.518   7.712  0.00  0.00     0.059 A 
HETATM    7  C   UNK N   1      36.996  12.638   9.657  0.00  0.00     0.033 A 
HETATM    8  C   UNK N   1      36.340  13.416   7.107  0.00  0.00     0.033 A 
HETATM    9  C   UNK N   1      36.227  14.013  11.458  0.00  0.00     0.061 A 
HETATM   10  C   UNK N   1      35.029  15.414   6.832  0.00  0.00     0.031 A 
HETATM   11  C   UNK N   1      37.589  11.791  10.613  0.00  0.00     0.023 A 
HETATM   12  C   UNK N   1      36.807  13.191  12.404  0.00  0.00     0.039 A 
HETATM   13  C   UNK N   1      36.335  13.270   5.710  0.00  0.00     0.021 A 
HETATM   14  C   UNK N   1      37.499  12.059  11.983  0.00  0.00     0.031 A 
HETATM   15  C   UNK N   1      35.031  15.260   5.450  0.00  0.00     0.002 A 
HETATM   16  C   UNK N   1      35.689  14.182   4.886  0.00  0.00     0.002 A 
ENDROOT
BRANCH   4  17
HETATM   17  C   UNK N   1      34.291  16.928   8.875  0.00  0.00     0.134 C 
BRANCH  17  18
HETATM   18  C   UNK N   1      32.779  16.782   9.029  0.00  0.00     0.282 C 
BRANCH  18  19
HETATM   19  N   UNK N   1      32.006  17.668   8.157  0.00  0.00     0.093 N 
HETATM   20  C   UNK N   1      30.790  18.188   8.804  0.00  0.00     0.298 C 
HETATM   21  C   UNK N   1      29.549  17.384   8.413  0.00  0.00     0.198 C 
HETATM   22  O   UNK N   1      29.456  17.329   7.017  0.00  0.00    -0.388 OA
HETATM   23  C   UNK N   1      30.474  16.453   6.619  0.00  0.00     0.198 C 
HETATM   24  C   UNK N   1      31.828  17.147   6.789  0.00  0.00     0.298 C 
ENDBRANCH  18  19
ENDBRANCH  17  18
ENDBRANCH   4  17
BRANCH  12  25
HETATM   25  N   UNK N   1      36.654  13.569  13.764  0.00  0.00    -0.303 N 
HETATM   26  C   UNK N   1      35.637  13.296  14.612  0.00  0.00     0.365 C 
HETATM   27  O   UNK N   1      34.667  12.641  14.251  0.00  0.00    -0.238 OA
HETATM   28  H   UNK N   1      37.390  14.104  14.141  0.00  0.00     0.171 HD
BRANCH  26  29
HETATM   29  O   UNK N   1      35.725  13.771  15.877  0.00  0.00    -0.304 OA
BRANCH  29  30
HETATM   30  C   UNK N   1      34.940  13.344  16.917  0.00  0.00     0.176 C 
HETATM   31  C   UNK N   1      35.321  14.123  18.160  0.00  0.00     0.034 C 
ENDBRANCH  29  30
ENDBRANCH  26  29
ENDBRANCH  12  25
TORSDOF 6
ENDMDL
MODEL 7
REMARK VINA RESULT:      -6.6      6.075      9.548
REMARK  6 active torsions:
REMARK  status: ('A' for Active; 'I' for Inactive)
REMARK    1  A    between atoms: O_4  and  C_28 
REMARK    2  A    between atoms: O_4  and  C_29 
REMARK    3  A    between atoms: N_6  and  C_9 
REMARK       I    between atoms: N_7  and  C_15 
REMARK    4  A    between atoms: N_8  and  C_23 
REMARK       I    between atoms: N_8  and  C_28 
REMARK    5  A    between atoms: C_9  and  C_12 
REMARK    6  A    between atoms: C_12  and  C_15 
ROOT
HETATM    1  S   UNK N   1      27.753  17.663   6.191  0.00  0.00    -0.086 SA
HETATM    2  O   UNK N   1      32.494  15.169   5.493  0.00  0.00    -0.273 OA
HETATM    3  N   UNK N   1      30.352  15.947   5.204  0.00  0.00    -0.280 N 
HETATM    4  C   UNK N   1      31.478  15.188   4.810  0.00  0.00     0.230 C 
HETATM    5  C   UNK N   1      30.406  16.712   6.452  0.00  0.00     0.062 A 
HETATM    6  C   UNK N   1      29.141  15.965   4.377  0.00  0.00     0.059 A 
HETATM    7  C   UNK N   1      29.335  17.490   6.966  0.00  0.00     0.033 A 
HETATM    8  C   UNK N   1      27.965  16.684   4.727  0.00  0.00     0.033 A 
HETATM    9  C   UNK N   1      31.579  16.697   7.226  0.00  0.00     0.061 A 
HETATM   10  C   UNK N   1      29.093  15.249   3.161  0.00  0.00     0.031 A 
HETATM   11  C   UNK N   1      29.487  18.187   8.180  0.00  0.00     0.023 A 
HETATM   12  C   UNK N   1      31.737  17.376   8.419  0.00  0.00     0.039 A 
HETATM   13  C   UNK N   1      26.842  16.653   3.885  0.00  0.00     0.021 A 
HETATM   14  C   UNK N   1      30.679  18.136   8.909  0.00  0.00     0.031 A 
HETATM   15  C   UNK N   1      27.976  15.224   2.334  0.00  0.00     0.002 A 
HETATM   16  C   UNK N   1      26.843  15.929   2.699  0.00  0.00     0.002 A 
ENDROOT
BRANCH   4  17
HETATM   17  C   UNK N   1      31.549  14.346   3.567  0.00  0.00     0.134 C 
BRANCH  17  18
HETATM   18  C   UNK N   1      32.922  14.514   2.922  0.00  0.00     0.282 C 
BRANCH  18  19
HETATM   19  N   UNK N   1      33.612  13.249   2.658  0.00  0.00     0.093 N 
HETATM   20  C   UNK N   1      34.415  12.786   3.803  0.00  0.00     0.298 C 
HETATM   21  C   UNK N   1      35.891  13.157   3.649  0.00  0.00     0.198 C 
HETATM   22  O   UNK N   1      36.358  12.688   2.414  0.00  0.00    -0.388 OA
HETATM   23  C   UNK N   1      35.773  13.531   1.460  0.00  0.00     0.198 C 
HETATM   24  C   UNK N   1      34.282  13.201   1.346  0.00  0.00     0.298 C 
ENDBRANCH  18  19
ENDBRANCH  17  18
ENDBRANCH   4  17
BRANCH  12  25
HETATM   25  N   UNK N   1      32.990  17.242   9.073  0.00  0.00    -0.303 N 
HETATM   26  C   UNK N   1      34.190  17.757   8.721  0.00  0.00     0.365 C 
HETATM   27  O   UNK N   1      34.316  18.444   7.716  0.00  0.00    -0.238 OA
HETATM   28  H   UNK N   1      32.984  16.700   9.895  0.00  0.00     0.171 HD
BRANCH  26  29
HETATM   29  O   UNK N   1      35.250  17.487   9.518  0.00  0.00    -0.304 OA
BRANCH  29  30
HETATM   30  C   UNK N   1      35.203  16.656  10.609  0.00  0.00     0.176 C 
HETATM   31  C   UNK N   1      36.244  15.569  10.432  0.00  0.00     0.034 C 
ENDBRANCH  29  30
ENDBRANCH  26  29
ENDBRANCH  12  25
TORSDOF 6
ENDMDL
MODEL 8
REMARK VINA RESULT:      -6.5      2.815      3.422
REMARK  6 active torsions:
REMARK  status: ('A' for Active; 'I' for Inactive)
REMARK    1  A    between atoms: O_4  and  C_28 
REMARK    2  A    between atoms: O_4  and  C_29 
REMARK    3  A    between atoms: N_6  and  C_9 
REMARK       I    between atoms: N_7  and  C_15 
REMARK    4  A    between atoms: N_8  and  C_23 
REMARK       I    between atoms: N_8  and  C_28 
REMARK    5  A    between atoms: C_9  and  C_12 
REMARK    6  A    between atoms: C_12  and  C_15 
ROOT
HETATM    1  S   UNK N   1      24.267  14.275   1.009  0.00  0.00    -0.086 SA
HETATM    2  O   UNK N   1      23.525  17.567   5.227  0.00  0.00    -0.273 OA
HETATM    3  N   UNK N   1      23.180  16.131   3.468  0.00  0.00    -0.280 N 
HETATM    4  C   UNK N   1      22.730  16.963   4.520  0.00  0.00     0.230 C 
HETATM    5  C   UNK N   1      24.619  16.002   3.223  0.00  0.00     0.062 A 
HETATM    6  C   UNK N   1      22.219  15.410   2.628  0.00  0.00     0.059 A 
HETATM    7  C   UNK N   1      25.191  15.221   2.186  0.00  0.00     0.033 A 
HETATM    8  C   UNK N   1      22.601  14.579   1.538  0.00  0.00     0.033 A 
HETATM    9  C   UNK N   1      25.528  16.688   4.046  0.00  0.00     0.061 A 
HETATM   10  C   UNK N   1      20.833  15.512   2.875  0.00  0.00     0.031 A 
HETATM   11  C   UNK N   1      26.590  15.165   2.031  0.00  0.00     0.023 A 
HETATM   12  C   UNK N   1      26.901  16.642   3.902  0.00  0.00     0.039 A 
HETATM   13  C   UNK N   1      21.623  13.921   0.776  0.00  0.00     0.021 A 
HETATM   14  C   UNK N   1      27.448  15.869   2.882  0.00  0.00     0.031 A 
HETATM   15  C   UNK N   1      19.872  14.856   2.114  0.00  0.00     0.002 A 
HETATM   16  C   UNK N   1      20.269  14.056   1.058  0.00  0.00     0.002 A 
ENDROOT
BRANCH   4  17
HETATM   17  C   UNK N   1      21.287  17.198   4.865  0.00  0.00     0.134 C 
BRANCH  17  18
HETATM   18  C   UNK N   1      21.146  17.325   6.380  0.00  0.00     0.282 C 
BRANCH  18  19
HETATM   19  N   UNK N   1      20.062  16.518   6.945  0.00  0.00     0.093 N 
HETATM   20  C   UNK N   1      20.048  16.530   8.417  0.00  0.00     0.298 C 
HETATM   21  C   UNK N   1      20.731  15.292   9.002  0.00  0.00     0.198 C 
HETATM   22  O   UNK N   1      20.155  14.142   8.449  0.00  0.00    -0.388 OA
HETATM   23  C   UNK N   1      20.621  14.102   7.128  0.00  0.00     0.198 C 
HETATM   24  C   UNK N   1      19.919  15.193   6.315  0.00  0.00     0.298 C 
ENDBRANCH  18  19
ENDBRANCH  17  18
ENDBRANCH   4  17
BRANCH  12  25
HETATM   25  N   UNK N   1      27.669  17.404   4.821  0.00  0.00    -0.303 N 
HETATM   26  C   UNK N   1      27.988  17.118   6.104  0.00  0.00     0.365 C 
HETATM   27  O   UNK N   1      27.609  16.083   6.637  0.00  0.00    -0.238 OA
HETATM   28  H   UNK N   1      28.016  18.260   4.477  0.00  0.00     0.171 HD
BRANCH  26  29
HETATM   29  O   UNK N   1      28.744  18.014   6.781  0.00  0.00    -0.304 OA
BRANCH  29  30
HETATM   30  C   UNK N   1      28.246  18.903   7.701  0.00  0.00     0.176 C 
HETATM   31  C   UNK N   1      28.579  18.395   9.089  0.00  0.00     0.034 C 
ENDBRANCH  29  30
ENDBRANCH  26  29
ENDBRANCH  12  25
TORSDOF 6
ENDMDL
MODEL 9
REMARK VINA RESULT:      -6.5     13.040     16.179
REMARK  6 active torsions:
REMARK  status: ('A' for Active; 'I' for Inactive)
REMARK    1  A    between atoms: O_4  and  C_28 
REMARK    2  A    between atoms: O_4  and  C_29 
REMARK    3  A    between atoms: N_6  and  C_9 
REMARK       I    between atoms: N_7  and  C_15 
REMARK    4  A    between atoms: N_8  and  C_23 
REMARK       I    between atoms: N_8  and  C_28 
REMARK    5  A    between atoms: C_9  and  C_12 
REMARK    6  A    between atoms: C_12  and  C_15 
ROOT
HETATM    1  S   UNK N   1      29.980  20.814  -6.399  0.00  0.00    -0.086 SA
HETATM    2  O   UNK N   1      26.540  24.924  -5.720  0.00  0.00    -0.273 OA
HETATM    3  N   UNK N   1      28.220  23.387  -5.420  0.00  0.00    -0.280 N 
HETATM    4  C   UNK N   1      27.427  24.481  -5.003  0.00  0.00     0.230 C 
HETATM    5  C   UNK N   1      27.965  22.774  -6.726  0.00  0.00     0.062 A 
HETATM    6  C   UNK N   1      29.283  22.866  -4.554  0.00  0.00     0.059 A 
HETATM    7  C   UNK N   1      28.673  21.659  -7.244  0.00  0.00     0.033 A 
HETATM    8  C   UNK N   1      30.098  21.753  -4.899  0.00  0.00     0.033 A 
HETATM    9  C   UNK N   1      26.953  23.295  -7.551  0.00  0.00     0.061 A 
HETATM   10  C   UNK N   1      29.549  23.468  -3.305  0.00  0.00     0.031 A 
HETATM   11  C   UNK N   1      28.348  21.141  -8.513  0.00  0.00     0.023 A 
HETATM   12  C   UNK N   1      26.624  22.793  -8.796  0.00  0.00     0.039 A 
HETATM   13  C   UNK N   1      31.096  21.309  -4.016  0.00  0.00     0.021 A 
HETATM   14  C   UNK N   1      27.330  21.700  -9.292  0.00  0.00     0.031 A 
HETATM   15  C   UNK N   1      30.539  23.020  -2.438  0.00  0.00     0.002 A 
HETATM   16  C   UNK N   1      31.317  21.933  -2.795  0.00  0.00     0.002 A 
ENDROOT
BRANCH   4  17
HETATM   17  C   UNK N   1      27.571  25.187  -3.685  0.00  0.00     0.134 C 
BRANCH  17  18
HETATM   18  C   UNK N   1      26.711  26.448  -3.691  0.00  0.00     0.282 C 
BRANCH  18  19
HETATM   19  N   UNK N   1      27.345  27.596  -4.341  0.00  0.00     0.093 N 
HETATM   20  C   UNK N   1      28.620  27.978  -3.711  0.00  0.00     0.298 C 
HETATM   21  C   UNK N   1      28.445  29.141  -2.734  0.00  0.00     0.198 C 
HETATM   22  O   UNK N   1      27.809  30.203  -3.389  0.00  0.00    -0.388 OA
HETATM   23  C   UNK N   1      26.480  29.788  -3.546  0.00  0.00     0.198 C 
HETATM   24  C   UNK N   1      26.416  28.705  -4.626  0.00  0.00     0.298 C 
ENDBRANCH  18  19
ENDBRANCH  17  18
ENDBRANCH   4  17
BRANCH  12  25
HETATM   25  N   UNK N   1      25.568  23.439  -9.490  0.00  0.00    -0.303 N 
HETATM   26  C   UNK N   1      25.559  24.657 -10.079  0.00  0.00     0.365 C 
HETATM   27  O   UNK N   1      26.549  25.377 -10.064  0.00  0.00    -0.238 OA
HETATM   28  H   UNK N   1      24.726  22.931  -9.551  0.00  0.00     0.171 HD
BRANCH  26  29
HETATM   29  O   UNK N   1      24.418  25.054 -10.688  0.00  0.00    -0.304 OA
BRANCH  29  30
HETATM   30  C   UNK N   1      24.377  25.811 -11.832  0.00  0.00     0.176 C 
HETATM   31  C   UNK N   1      23.654  27.107 -11.528  0.00  0.00     0.034 C 
ENDBRANCH  29  30
ENDBRANCH  26  29
ENDBRANCH  12  25
TORSDOF 6
ENDMDL
