MODEL 1
REMARK VINA RESULT:      -3.7      0.000      0.000
REMARK  3 active torsions:
REMARK  status: ('A' for Active; 'I' for Inactive)
REMARK    1  A    between atoms: S_1  and  O_2 
REMARK    2  A    between atoms: C_14  and  C_15 
REMARK    3  A    between atoms: C_14  and  C_16 
ROOT
HETATM    1  S   UNK N   1      34.333  18.005   8.040  0.00  0.00     0.251 S 
HETATM    2  O   UNK N   1      35.336  19.301   8.555  0.00  0.00    -0.572 OA
HETATM    3  O   UNK N   1      32.853  18.345   8.275  0.00  0.00    -0.572 OA
HETATM    4  O   UNK N   1      34.443  17.889   6.514  0.00  0.00    -0.572 OA
ENDROOT
BRANCH   1   5
HETATM    5  O   UNK N   1      34.701  16.470   8.722  0.00  0.00    -0.262 OA
HETATM    6  C   UNK N   1      35.073  16.736  10.040  0.00  0.00     0.228 C 
ENDBRANCH   1   5
TORSDOF 3
ENDMDL
MODEL 2
REMARK VINA RESULT:      -3.6      1.427      2.304
REMARK  3 active torsions:
REMARK  status: ('A' for Active; 'I' for Inactive)
REMARK    1  A    between atoms: S_1  and  O_2 
REMARK    2  A    between atoms: C_14  and  C_15 
REMARK    3  A    between atoms: C_14  and  C_16 
ROOT
HETATM    1  S   UNK N   1      34.280  18.084   8.014  0.00  0.00     0.251 S 
HETATM    2  O   UNK N   1      35.349  19.311   8.565  0.00  0.00    -0.572 OA
HETATM    3  O   UNK N   1      34.461  17.854   6.506  0.00  0.00    -0.572 OA
HETATM    4  O   UNK N   1      34.714  16.752   8.642  0.00  0.00    -0.572 OA
ENDROOT
BRANCH   1   5
HETATM    5  O   UNK N   1      32.619  18.333   8.378  0.00  0.00    -0.262 OA
HETATM    6  C   UNK N   1      32.048  17.059   8.368  0.00  0.00     0.228 C 
ENDBRANCH   1   5
TORSDOF 3
ENDMDL
MODEL 3
REMARK VINA RESULT:      -3.6      0.162      1.822
REMARK  3 active torsions:
REMARK  status: ('A' for Active; 'I' for Inactive)
REMARK    1  A    between atoms: S_1  and  O_2 
REMARK    2  A    between atoms: C_14  and  C_15 
REMARK    3  A    between atoms: C_14  and  C_16 
ROOT
HETATM    1  S   UNK N   1      34.287  17.962   8.010  0.00  0.00     0.251 S 
HETATM    2  O   UNK N   1      32.667  18.373   8.406  0.00  0.00    -0.572 OA
HETATM    3  O   UNK N   1      34.475  17.929   6.485  0.00  0.00    -0.572 OA
HETATM    4  O   UNK N   1      35.199  19.109   8.467  0.00  0.00    -0.572 OA
ENDROOT
BRANCH   1   5
HETATM    5  O   UNK N   1      34.871  16.503   8.708  0.00  0.00    -0.262 OA
HETATM    6  C   UNK N   1      35.061  16.796  10.059  0.00  0.00     0.228 C 
ENDBRANCH   1   5
TORSDOF 3
ENDMDL
MODEL 4
REMARK VINA RESULT:      -3.5      0.235      1.850
REMARK  3 active torsions:
REMARK  status: ('A' for Active; 'I' for Inactive)
REMARK    1  A    between atoms: S_1  and  O_2 
REMARK    2  A    between atoms: C_14  and  C_15 
REMARK    3  A    between atoms: C_14  and  C_16 
ROOT
HETATM    1  S   UNK N   1      34.262  17.945   7.896  0.00  0.00     0.251 S 
HETATM    2  O   UNK N   1      34.267  17.920   6.178  0.00  0.00    -0.572 OA
HETATM    3  O   UNK N   1      35.082  19.135   8.418  0.00  0.00    -0.572 OA
HETATM    4  O   UNK N   1      32.833  18.250   8.368  0.00  0.00    -0.572 OA
ENDROOT
BRANCH   1   5
HETATM    5  O   UNK N   1      34.778  16.492   8.658  0.00  0.00    -0.262 OA
HETATM    6  C   UNK N   1      35.027  16.844   9.985  0.00  0.00     0.228 C 
ENDBRANCH   1   5
TORSDOF 3
ENDMDL
MODEL 5
REMARK VINA RESULT:      -3.5      1.861      2.642
REMARK  3 active torsions:
REMARK  status: ('A' for Active; 'I' for Inactive)
REMARK    1  A    between atoms: S_1  and  O_2 
REMARK    2  A    between atoms: C_14  and  C_15 
REMARK    3  A    between atoms: C_14  and  C_16 
ROOT
HETATM    1  S   UNK N   1      34.272  18.038   7.999  0.00  0.00     0.251 S 
HETATM    2  O   UNK N   1      34.745  16.670   8.925  0.00  0.00    -0.572 OA
HETATM    3  O   UNK N   1      32.839  18.460   8.360  0.00  0.00    -0.572 OA
HETATM    4  O   UNK N   1      35.127  19.234   8.438  0.00  0.00    -0.572 OA
ENDROOT
BRANCH   1   5
HETATM    5  O   UNK N   1      34.425  17.867   6.295  0.00  0.00    -0.262 OA
HETATM    6  C   UNK N   1      33.287  17.166   5.895  0.00  0.00     0.228 C 
ENDBRANCH   1   5
TORSDOF 3
ENDMDL
MODEL 6
REMARK VINA RESULT:      -3.3     14.207     14.987
REMARK  3 active torsions:
REMARK  status: ('A' for Active; 'I' for Inactive)
REMARK    1  A    between atoms: S_1  and  O_2 
REMARK    2  A    between atoms: C_14  and  C_15 
REMARK    3  A    between atoms: C_14  and  C_16 
ROOT
HETATM    1  S   UNK N   1      21.189  20.525   2.575  0.00  0.00     0.251 S 
HETATM    2  O   UNK N   1      22.814  20.984   2.886  0.00  0.00    -0.572 OA
HETATM    3  O   UNK N   1      20.282  20.936   3.745  0.00  0.00    -0.572 OA
HETATM    4  O   UNK N   1      20.670  21.362   1.397  0.00  0.00    -0.572 OA
ENDROOT
BRANCH   1   5
HETATM    5  O   UNK N   1      20.949  18.865   2.198  0.00  0.00    -0.262 OA
HETATM    6  C   UNK N   1      19.651  18.577   2.622  0.00  0.00     0.228 C 
ENDBRANCH   1   5
TORSDOF 3
ENDMDL
MODEL 7
REMARK VINA RESULT:      -3.3     11.889     12.626
REMARK  3 active torsions:
REMARK  status: ('A' for Active; 'I' for Inactive)
REMARK    1  A    between atoms: S_1  and  O_2 
REMARK    2  A    between atoms: C_14  and  C_15 
REMARK    3  A    between atoms: C_14  and  C_16 
ROOT
HETATM    1  S   UNK N   1      31.443  22.184  -2.835  0.00  0.00     0.251 S 
HETATM    2  O   UNK N   1      32.096  23.199  -4.058  0.00  0.00    -0.572 OA
HETATM    3  O   UNK N   1      30.594  21.068  -3.461  0.00  0.00    -0.572 OA
HETATM    4  O   UNK N   1      32.602  21.431  -2.166  0.00  0.00    -0.572 OA
ENDROOT
BRANCH   1   5
HETATM    5  O   UNK N   1      30.548  22.989  -1.607  0.00  0.00    -0.262 OA
HETATM    6  C   UNK N   1      29.227  22.988  -2.058  0.00  0.00     0.228 C 
ENDBRANCH   1   5
TORSDOF 3
ENDMDL
MODEL 8
REMARK VINA RESULT:      -3.2     12.279     12.958
REMARK  3 active torsions:
REMARK  status: ('A' for Active; 'I' for Inactive)
REMARK    1  A    between atoms: S_1  and  O_2 
REMARK    2  A    between atoms: C_14  and  C_15 
REMARK    3  A    between atoms: C_14  and  C_16 
ROOT
HETATM    1  S   UNK N   1      31.295  22.184  -2.803  0.00  0.00     0.251 S 
HETATM    2  O   UNK N   1      30.501  23.029  -1.535  0.00  0.00    -0.572 OA
HETATM    3  O   UNK N   1      31.877  23.173  -3.824  0.00  0.00    -0.572 OA
HETATM    4  O   UNK N   1      32.533  21.491  -2.217  0.00  0.00    -0.572 OA
ENDROOT
BRANCH   1   5
HETATM    5  O   UNK N   1      30.346  20.996  -3.606  0.00  0.00    -0.262 OA
HETATM    6  C   UNK N   1      30.275  21.421  -4.933  0.00  0.00     0.228 C 
ENDBRANCH   1   5
TORSDOF 3
ENDMDL
MODEL 9
REMARK VINA RESULT:      -3.1     12.329     13.075
REMARK  3 active torsions:
REMARK  status: ('A' for Active; 'I' for Inactive)
REMARK    1  A    between atoms: S_1  and  O_2 
REMARK    2  A    between atoms: C_14  and  C_15 
REMARK    3  A    between atoms: C_14  and  C_16 
ROOT
HETATM    1  S   UNK N   1      31.129  22.373  -2.778  0.00  0.00     0.251 S 
HETATM    2  O   UNK N   1      30.122  21.188  -3.510  0.00  0.00    -0.572 OA
HETATM    3  O   UNK N   1      30.447  22.961  -1.533  0.00  0.00    -0.572 OA
HETATM    4  O   UNK N   1      32.371  21.667  -2.216  0.00  0.00    -0.572 OA
ENDROOT
BRANCH   1   5
HETATM    5  O   UNK N   1      31.655  23.638  -3.816  0.00  0.00    -0.262 OA
HETATM    6  C   UNK N   1      30.782  24.699  -3.571  0.00  0.00     0.228 C 
ENDBRANCH   1   5
TORSDOF 3
ENDMDL
