REMARK  4 active torsions:
REMARK  status: ('A' for Active; 'I' for Inactive)
REMARK    1  A    between atoms: O_4  and  C_19 
REMARK    2  A    between atoms: C_10  and  N_7 
REMARK    3  A    between atoms: C_11  and  C_19 
REMARK    4  A    between atoms: C_16  and  C_22 
ROOT
HETATM    1  O   UNK N   1       4.043  -0.128  -0.596  0.00  0.00    -0.271 OA
HETATM    2  N   UNK N   1       5.491   1.499  -0.003  0.00  0.00    -0.309 N 
HETATM    3  N   UNK N   1       4.330   3.364  -0.807  0.00  0.00    -0.381 N 
HETATM    4  C   UNK N   1       5.555   2.936  -0.097  0.00  0.00     0.099 A 
HETATM    5  C   UNK N   1       4.366   1.049  -0.564  0.00  0.00     0.249 A 
HETATM    6  C   UNK N   1       3.535   2.154  -1.100  0.00  0.00     0.205 A 
HETATM    7  C   UNK N   1       5.580   3.566   1.286  0.00  0.00     0.062 C 
HETATM    8  C   UNK N   1       6.768   3.395  -0.886  0.00  0.00     0.062 C 
HETATM    9  H   UNK N   1       4.079   4.322  -1.050  0.00  0.00     0.157 HD
ENDROOT
BRANCH   2  10
HETATM   10  C   UNK N   1       6.452   0.712   0.775  0.00  0.00     0.204 A 
HETATM   11  C   UNK N   1       7.910   0.621   0.108  0.00  0.00     0.161 A 
HETATM   12  S   UNK N   1       9.295   0.840   1.282  0.00  0.00    -0.135 SA
HETATM   13  N   UNK N   1       7.715  -0.789   0.000  0.00  0.00    -0.219 NA
HETATM   14  C   UNK N   1       9.953  -0.792   0.788  0.00  0.00     0.029 C 
HETATM   15  C   UNK N   1       8.717  -1.671   0.534  0.00  0.00     0.182 C 
HETATM   16  C   UNK N   1      10.801  -1.386   1.895  0.00  0.00     0.029 C 
HETATM   17  C   UNK N   1      10.803  -0.578  -0.458  0.00  0.00     0.029 C 
HETATM   18  C   UNK N   1       6.502  -0.753   0.497  0.00  0.00     0.227 A 
HETATM   19  O   UNK N   1       5.989  -1.653   1.146  0.00  0.00    -0.277 OA
BRANCH  15  20
HETATM   20  C   UNK N   1       8.889  -2.956  -0.239  0.00  0.00     0.160 C 
HETATM   21  O   UNK N   1       9.981  -3.289  -0.672  0.00  0.00    -0.649 OA
BRANCH  20  22
HETATM   22  O   UNK N   1       7.833  -3.775  -0.402  0.00  0.00    -0.775 OA
HETATM   23  H   UNK N   1       6.972  -3.423  -0.516  0.00  0.00     0.167 HD
ENDBRANCH  20  22
ENDBRANCH  15  20
ENDBRANCH   2  10
BRANCH   6  24
HETATM   24  C   UNK N   1       2.169   2.270  -0.453  0.00  0.00    -0.027 A 
HETATM   25  C   UNK N   1       1.708   1.326   0.483  0.00  0.00     0.010 A 
HETATM   26  C   UNK N   1       0.441   1.456   1.058  0.00  0.00     0.001 A 
HETATM   27  C   UNK N   1      -0.375   2.534   0.711  0.00  0.00     0.000 A 
HETATM   28  C   UNK N   1       0.073   3.480  -0.215  0.00  0.00     0.001 A 
HETATM   29  C   UNK N   1       1.338   3.346  -0.798  0.00  0.00     0.010 A 
ENDBRANCH   6  24
TORSDOF 4
