MODEL 1
REMARK VINA RESULT:      -8.4      0.000      0.000
REMARK  4 active torsions:
REMARK  status: ('A' for Active; 'I' for Inactive)
REMARK    1  A    between atoms: O_4  and  C_19 
REMARK    2  A    between atoms: C_10  and  N_7 
REMARK    3  A    between atoms: C_11  and  C_19 
REMARK    4  A    between atoms: C_16  and  C_22 
ROOT
HETATM    1  O   UNK N   1      36.089  14.516  13.535  0.00  0.00    -0.271 OA
HETATM    2  N   UNK N   1      35.548  13.863  11.442  0.00  0.00    -0.309 N 
HETATM    3  N   UNK N   1      36.715  11.838  11.355  0.00  0.00    -0.381 N 
HETATM    4  C   UNK N   1      35.819  12.733  10.590  0.00  0.00     0.099 A 
HETATM    5  C   UNK N   1      36.172  13.719  12.614  0.00  0.00     0.249 A 
HETATM    6  C   UNK N   1      36.939  12.451  12.680  0.00  0.00     0.205 A 
HETATM    7  C   UNK N   1      34.536  11.991  10.254  0.00  0.00     0.062 C 
HETATM    8  C   UNK N   1      36.516  13.149   9.307  0.00  0.00     0.062 C 
HETATM    9  H   UNK N   1      37.108  10.955  11.026  0.00  0.00     0.157 HD
ENDROOT
BRANCH   2  10
HETATM   10  C   UNK N   1      34.569  14.898  11.098  0.00  0.00     0.204 A 
HETATM   11  C   UNK N   1      34.066  14.837   9.575  0.00  0.00     0.161 A 
HETATM   12  S   UNK N   1      32.264  15.064   9.363  0.00  0.00    -0.135 SA
HETATM   13  N   UNK N   1      34.642  16.130   9.388  0.00  0.00    -0.219 NA
HETATM   14  C   UNK N   1      32.587  16.482   8.256  0.00  0.00     0.029 C 
HETATM   15  C   UNK N   1      33.829  17.179   8.837  0.00  0.00     0.182 C 
HETATM   16  C   UNK N   1      31.407  17.434   8.245  0.00  0.00     0.029 C 
HETATM   17  C   UNK N   1      32.813  15.922   6.858  0.00  0.00     0.029 C 
HETATM   18  C   UNK N   1      35.111  16.200  10.610  0.00  0.00     0.227 A 
HETATM   19  O   UNK N   1      35.248  17.236  11.245  0.00  0.00    -0.277 OA
BRANCH  15  20
HETATM   20  C   UNK N   1      34.581  18.159   7.969  0.00  0.00     0.160 C 
HETATM   21  O   UNK N   1      34.548  18.076   6.752  0.00  0.00    -0.649 OA
BRANCH  20  22
HETATM   22  O   UNK N   1      35.251  19.173   8.547  0.00  0.00    -0.775 OA
HETATM   23  H   UNK N   1      35.415  19.170   9.470  0.00  0.00     0.167 HD
ENDBRANCH  20  22
ENDBRANCH  15  20
ENDBRANCH   2  10
BRANCH   6  24
HETATM   24  C   UNK N   1      36.474  11.503  13.767  0.00  0.00    -0.027 A 
HETATM   25  C   UNK N   1      37.359  10.989  14.733  0.00  0.00     0.010 A 
HETATM   26  C   UNK N   1      36.903  10.112  15.720  0.00  0.00     0.001 A 
HETATM   27  C   UNK N   1      35.556   9.745  15.759  0.00  0.00     0.000 A 
HETATM   28  C   UNK N   1      34.667  10.252  14.807  0.00  0.00     0.001 A 
HETATM   29  C   UNK N   1      35.125  11.123  13.813  0.00  0.00     0.010 A 
ENDBRANCH   6  24
TORSDOF 4
ENDMDL
MODEL 2
REMARK VINA RESULT:      -8.3      2.759      7.520
REMARK  4 active torsions:
REMARK  status: ('A' for Active; 'I' for Inactive)
REMARK    1  A    between atoms: O_4  and  C_19 
REMARK    2  A    between atoms: C_10  and  N_7 
REMARK    3  A    between atoms: C_11  and  C_19 
REMARK    4  A    between atoms: C_16  and  C_22 
ROOT
HETATM    1  O   UNK N   1      32.184  14.710   8.962  0.00  0.00    -0.271 OA
HETATM    2  N   UNK N   1      33.602  15.622   7.462  0.00  0.00    -0.309 N 
HETATM    3  N   UNK N   1      32.051  16.523   5.960  0.00  0.00    -0.381 N 
HETATM    4  C   UNK N   1      33.497  16.381   6.241  0.00  0.00     0.099 A 
HETATM    5  C   UNK N   1      32.387  15.321   7.925  0.00  0.00     0.249 A 
HETATM    6  C   UNK N   1      31.314  15.859   7.054  0.00  0.00     0.205 A 
HETATM    7  C   UNK N   1      34.114  17.760   6.408  0.00  0.00     0.062 C 
HETATM    8  C   UNK N   1      34.158  15.668   5.075  0.00  0.00     0.062 C 
HETATM    9  H   UNK N   1      31.638  16.995   5.156  0.00  0.00     0.157 HD
ENDROOT
BRANCH   2  10
HETATM   10  C   UNK N   1      34.876  15.406   8.153  0.00  0.00     0.204 A 
HETATM   11  C   UNK N   1      35.025  13.945   8.802  0.00  0.00     0.161 A 
HETATM   12  S   UNK N   1      36.659  13.164   8.545  0.00  0.00    -0.135 SA
HETATM   13  N   UNK N   1      35.097  14.577  10.080  0.00  0.00    -0.219 NA
HETATM   14  C   UNK N   1      36.852  13.005  10.355  0.00  0.00     0.029 C 
HETATM   15  C   UNK N   1      36.199  14.264  10.948  0.00  0.00     0.182 C 
HETATM   16  C   UNK N   1      38.318  12.945  10.735  0.00  0.00     0.029 C 
HETATM   17  C   UNK N   1      36.155  11.715  10.772  0.00  0.00     0.029 C 
HETATM   18  C   UNK N   1      34.931  15.784   9.595  0.00  0.00     0.227 A 
HETATM   19  O   UNK N   1      35.404  16.801  10.082  0.00  0.00    -0.277 OA
BRANCH  15  20
HETATM   20  C   UNK N   1      35.855  14.278  12.418  0.00  0.00     0.160 C 
HETATM   21  O   UNK N   1      34.756  13.921  12.811  0.00  0.00    -0.649 OA
BRANCH  20  22
HETATM   22  O   UNK N   1      36.796  14.633  13.313  0.00  0.00    -0.775 OA
HETATM   23  H   UNK N   1      36.829  14.223  14.155  0.00  0.00     0.167 HD
ENDBRANCH  20  22
ENDBRANCH  15  20
ENDBRANCH   2  10
BRANCH   6  24
HETATM   24  C   UNK N   1      30.405  16.860   7.739  0.00  0.00    -0.027 A 
HETATM   25  C   UNK N   1      30.890  17.772   8.695  0.00  0.00     0.010 A 
HETATM   26  C   UNK N   1      30.026  18.678   9.315  0.00  0.00     0.001 A 
HETATM   27  C   UNK N   1      28.671  18.690   8.981  0.00  0.00     0.000 A 
HETATM   28  C   UNK N   1      28.177  17.791   8.032  0.00  0.00     0.001 A 
HETATM   29  C   UNK N   1      29.040  16.877   7.417  0.00  0.00     0.010 A 
ENDBRANCH   6  24
TORSDOF 4
ENDMDL
MODEL 3
REMARK VINA RESULT:      -8.2      2.267      2.869
REMARK  4 active torsions:
REMARK  status: ('A' for Active; 'I' for Inactive)
REMARK    1  A    between atoms: O_4  and  C_19 
REMARK    2  A    between atoms: C_10  and  N_7 
REMARK    3  A    between atoms: C_11  and  C_19 
REMARK    4  A    between atoms: C_16  and  C_22 
ROOT
HETATM    1  O   UNK N   1      34.136  14.903  11.669  0.00  0.00    -0.271 OA
HETATM    2  N   UNK N   1      35.688  13.939  10.344  0.00  0.00    -0.309 N 
HETATM    3  N   UNK N   1      37.283  13.377  11.961  0.00  0.00    -0.381 N 
HETATM    4  C   UNK N   1      36.971  13.304  10.517  0.00  0.00     0.099 A 
HETATM    5  C   UNK N   1      35.218  14.358  11.522  0.00  0.00     0.249 A 
HETATM    6  C   UNK N   1      36.147  14.040  12.633  0.00  0.00     0.205 A 
HETATM    7  C   UNK N   1      36.912  11.846  10.089  0.00  0.00     0.062 C 
HETATM    8  C   UNK N   1      38.062  14.017   9.739  0.00  0.00     0.062 C 
HETATM    9  H   UNK N   1      38.130  13.031  12.412  0.00  0.00     0.157 HD
ENDROOT
BRANCH   2  10
HETATM   10  C   UNK N   1      34.963  13.927   9.071  0.00  0.00     0.204 A 
HETATM   11  C   UNK N   1      34.888  15.361   8.351  0.00  0.00     0.161 A 
HETATM   12  S   UNK N   1      35.197  15.321   6.549  0.00  0.00    -0.135 SA
HETATM   13  N   UNK N   1      33.470  15.304   8.501  0.00  0.00    -0.219 NA
HETATM   14  C   UNK N   1      33.566  16.097   6.267  0.00  0.00     0.029 C 
HETATM   15  C   UNK N   1      32.641  15.507   7.344  0.00  0.00     0.182 C 
HETATM   16  C   UNK N   1      33.044  15.761   4.885  0.00  0.00     0.029 C 
HETATM   17  C   UNK N   1      33.754  17.603   6.398  0.00  0.00     0.029 C 
HETATM   18  C   UNK N   1      33.490  14.156   9.134  0.00  0.00     0.227 A 
HETATM   19  O   UNK N   1      32.602  13.317   9.082  0.00  0.00    -0.277 OA
BRANCH  15  20
HETATM   20  C   UNK N   1      31.331  16.199   7.632  0.00  0.00     0.160 C 
HETATM   21  O   UNK N   1      30.407  16.156   6.835  0.00  0.00    -0.649 OA
BRANCH  20  22
HETATM   22  O   UNK N   1      31.160  16.824   8.813  0.00  0.00    -0.775 OA
HETATM   23  H   UNK N   1      31.497  17.688   8.946  0.00  0.00     0.167 HD
ENDBRANCH  20  22
ENDBRANCH  15  20
ENDBRANCH   2  10
BRANCH   6  24
HETATM   24  C   UNK N   1      35.562  13.115  13.682  0.00  0.00    -0.027 A 
HETATM   25  C   UNK N   1      34.791  11.991  13.334  0.00  0.00     0.010 A 
HETATM   26  C   UNK N   1      34.259  11.160  14.323  0.00  0.00     0.001 A 
HETATM   27  C   UNK N   1      34.499  11.438  15.670  0.00  0.00     0.000 A 
HETATM   28  C   UNK N   1      35.267  12.549  16.028  0.00  0.00     0.001 A 
HETATM   29  C   UNK N   1      35.792  13.387  15.038  0.00  0.00     0.010 A 
ENDBRANCH   6  24
TORSDOF 4
ENDMDL
MODEL 4
REMARK VINA RESULT:      -8.1      3.693      9.029
REMARK  4 active torsions:
REMARK  status: ('A' for Active; 'I' for Inactive)
REMARK    1  A    between atoms: O_4  and  C_19 
REMARK    2  A    between atoms: C_10  and  N_7 
REMARK    3  A    between atoms: C_11  and  C_19 
REMARK    4  A    between atoms: C_16  and  C_22 
ROOT
HETATM    1  O   UNK N   1      30.364  16.797   7.981  0.00  0.00    -0.271 OA
HETATM    2  N   UNK N   1      31.489  16.356   6.074  0.00  0.00    -0.309 N 
HETATM    3  N   UNK N   1      29.738  16.555   4.536  0.00  0.00    -0.381 N 
HETATM    4  C   UNK N   1      31.186  16.286   4.667  0.00  0.00     0.099 A 
HETATM    5  C   UNK N   1      30.387  16.647   6.770  0.00  0.00     0.249 A 
HETATM    6  C   UNK N   1      29.205  16.813   5.890  0.00  0.00     0.205 A 
HETATM    7  C   UNK N   1      31.965  17.339   3.896  0.00  0.00     0.062 C 
HETATM    8  C   UNK N   1      31.486  14.913   4.094  0.00  0.00     0.062 C 
HETATM    9  H   UNK N   1      29.203  16.563   3.668  0.00  0.00     0.157 HD
ENDROOT
BRANCH   2  10
HETATM   10  C   UNK N   1      32.858  16.299   6.595  0.00  0.00     0.204 A 
HETATM   11  C   UNK N   1      33.237  14.895   7.276  0.00  0.00     0.161 A 
HETATM   12  S   UNK N   1      34.893  14.260   6.830  0.00  0.00    -0.135 SA
HETATM   13  N   UNK N   1      33.411  15.598   8.506  0.00  0.00    -0.219 NA
HETATM   14  C   UNK N   1      35.337  14.216   8.603  0.00  0.00     0.029 C 
HETATM   15  C   UNK N   1      34.644  15.438   9.228  0.00  0.00     0.182 C 
HETATM   16  C   UNK N   1      36.839  14.316   8.783  0.00  0.00     0.029 C 
HETATM   17  C   UNK N   1      34.835  12.890   9.161  0.00  0.00     0.029 C 
HETATM   18  C   UNK N   1      33.062  16.756   8.000  0.00  0.00     0.227 A 
HETATM   19  O   UNK N   1      33.490  17.838   8.377  0.00  0.00    -0.277 OA
BRANCH  15  20
HETATM   20  C   UNK N   1      34.496  15.497  10.729  0.00  0.00     0.160 C 
HETATM   21  O   UNK N   1      35.310  16.089  11.419  0.00  0.00    -0.649 OA
BRANCH  20  22
HETATM   22  O   UNK N   1      33.418  14.937  11.309  0.00  0.00    -0.775 OA
HETATM   23  H   UNK N   1      33.315  14.005  11.321  0.00  0.00     0.167 HD
ENDBRANCH  20  22
ENDBRANCH  15  20
ENDBRANCH   2  10
BRANCH   6  24
HETATM   24  C   UNK N   1      28.585  18.195   5.941  0.00  0.00    -0.027 A 
HETATM   25  C   UNK N   1      28.188  18.786   7.155  0.00  0.00     0.010 A 
HETATM   26  C   UNK N   1      27.613  20.059   7.170  0.00  0.00     0.001 A 
HETATM   27  C   UNK N   1      27.437  20.760   5.976  0.00  0.00     0.000 A 
HETATM   28  C   UNK N   1      27.830  20.185   4.764  0.00  0.00     0.001 A 
HETATM   29  C   UNK N   1      28.398  18.906   4.747  0.00  0.00     0.010 A 
ENDBRANCH   6  24
TORSDOF 4
ENDMDL
MODEL 5
REMARK VINA RESULT:      -7.6      3.339      8.217
REMARK  4 active torsions:
REMARK  status: ('A' for Active; 'I' for Inactive)
REMARK    1  A    between atoms: O_4  and  C_19 
REMARK    2  A    between atoms: C_10  and  N_7 
REMARK    3  A    between atoms: C_11  and  C_19 
REMARK    4  A    between atoms: C_16  and  C_22 
ROOT
HETATM    1  O   UNK N   1      31.701  14.064   7.000  0.00  0.00    -0.271 OA
HETATM    2  N   UNK N   1      32.946  15.333   5.609  0.00  0.00    -0.309 N 
HETATM    3  N   UNK N   1      31.372  15.720   3.923  0.00  0.00    -0.381 N 
HETATM    4  C   UNK N   1      32.757  16.012   4.351  0.00  0.00     0.099 A 
HETATM    5  C   UNK N   1      31.828  14.694   5.962  0.00  0.00     0.249 A 
HETATM    6  C   UNK N   1      30.745  14.883   4.966  0.00  0.00     0.205 A 
HETATM    7  C   UNK N   1      32.925  17.513   4.519  0.00  0.00     0.062 C 
HETATM    8  C   UNK N   1      33.718  15.509   3.289  0.00  0.00     0.062 C 
HETATM    9  H   UNK N   1      30.928  16.040   3.062  0.00  0.00     0.157 HD
ENDROOT
BRANCH   2  10
HETATM   10  C   UNK N   1      34.146  15.509   6.432  0.00  0.00     0.204 A 
HETATM   11  C   UNK N   1      34.479  14.252   7.374  0.00  0.00     0.161 A 
HETATM   12  S   UNK N   1      36.246  13.783   7.416  0.00  0.00    -0.135 SA
HETATM   13  N   UNK N   1      34.281  15.109   8.498  0.00  0.00    -0.219 NA
HETATM   14  C   UNK N   1      36.247  14.000   9.230  0.00  0.00     0.029 C 
HETATM   15  C   UNK N   1      35.310  15.190   9.500  0.00  0.00     0.182 C 
HETATM   16  C   UNK N   1      37.643  14.308   9.733  0.00  0.00     0.029 C 
HETATM   17  C   UNK N   1      35.751  12.696   9.842  0.00  0.00     0.029 C 
HETATM   18  C   UNK N   1      33.958  16.148   7.766  0.00  0.00     0.227 A 
HETATM   19  O   UNK N   1      34.177  17.311   8.074  0.00  0.00    -0.277 OA
BRANCH  15  20
HETATM   20  C   UNK N   1      34.795  15.403  10.903  0.00  0.00     0.160 C 
HETATM   21  O   UNK N   1      35.478  15.964  11.745  0.00  0.00    -0.649 OA
BRANCH  20  22
HETATM   22  O   UNK N   1      33.542  15.020  11.212  0.00  0.00    -0.775 OA
HETATM   23  H   UNK N   1      33.338  14.113  11.329  0.00  0.00     0.167 HD
ENDBRANCH  20  22
ENDBRANCH  15  20
ENDBRANCH   2  10
BRANCH   6  24
HETATM   24  C   UNK N   1      29.517  15.582   5.514  0.00  0.00    -0.027 A 
HETATM   25  C   UNK N   1      28.241  14.991   5.462  0.00  0.00     0.010 A 
HETATM   26  C   UNK N   1      27.126  15.662   5.970  0.00  0.00     0.001 A 
HETATM   27  C   UNK N   1      27.274  16.926   6.542  0.00  0.00     0.000 A 
HETATM   28  C   UNK N   1      28.536  17.523   6.603  0.00  0.00     0.001 A 
HETATM   29  C   UNK N   1      29.652  16.855   6.087  0.00  0.00     0.010 A 
ENDBRANCH   6  24
TORSDOF 4
ENDMDL
MODEL 6
REMARK VINA RESULT:      -7.5      1.943      3.209
REMARK  4 active torsions:
REMARK  status: ('A' for Active; 'I' for Inactive)
REMARK    1  A    between atoms: O_4  and  C_19 
REMARK    2  A    between atoms: C_10  and  N_7 
REMARK    3  A    between atoms: C_11  and  C_19 
REMARK    4  A    between atoms: C_16  and  C_22 
ROOT
HETATM    1  O   UNK N   1      35.390  16.892  11.236  0.00  0.00    -0.271 OA
HETATM    2  N   UNK N   1      34.889  15.708   9.381  0.00  0.00    -0.309 N 
HETATM    3  N   UNK N   1      36.179  13.798   9.780  0.00  0.00    -0.381 N 
HETATM    4  C   UNK N   1      35.229  14.419   8.832  0.00  0.00     0.099 A 
HETATM    5  C   UNK N   1      35.522  15.897  10.542  0.00  0.00     0.249 A 
HETATM    6  C   UNK N   1      36.365  14.734  10.908  0.00  0.00     0.205 A 
HETATM    7  C   UNK N   1      33.994  13.542   8.711  0.00  0.00     0.062 C 
HETATM    8  C   UNK N   1      35.898  14.544   7.475  0.00  0.00     0.062 C 
HETATM    9  H   UNK N   1      36.625  12.887   9.675  0.00  0.00     0.157 HD
ENDROOT
BRANCH   2  10
HETATM   10  C   UNK N   1      33.848  16.565   8.806  0.00  0.00     0.204 A 
HETATM   11  C   UNK N   1      32.727  15.763   7.982  0.00  0.00     0.161 A 
HETATM   12  S   UNK N   1      31.013  16.313   8.302  0.00  0.00    -0.135 SA
HETATM   13  N   UNK N   1      33.150  16.474   6.818  0.00  0.00    -0.219 NA
HETATM   14  C   UNK N   1      30.803  16.650   6.518  0.00  0.00     0.029 C 
HETATM   15  C   UNK N   1      32.166  17.174   6.038  0.00  0.00     0.182 C 
HETATM   16  C   UNK N   1      29.729  17.695   6.292  0.00  0.00     0.029 C 
HETATM   17  C   UNK N   1      30.398  15.339   5.856  0.00  0.00     0.029 C 
HETATM   18  C   UNK N   1      34.107  17.115   7.444  0.00  0.00     0.227 A 
HETATM   19  O   UNK N   1      34.498  18.237   7.155  0.00  0.00    -0.277 OA
BRANCH  15  20
HETATM   20  C   UNK N   1      32.451  17.198   4.556  0.00  0.00     0.160 C 
HETATM   21  O   UNK N   1      33.280  16.450   4.062  0.00  0.00    -0.649 OA
BRANCH  20  22
HETATM   22  O   UNK N   1      31.738  18.016   3.759  0.00  0.00    -0.775 OA
HETATM   23  H   UNK N   1      32.143  18.759   3.356  0.00  0.00     0.167 HD
ENDBRANCH  20  22
ENDBRANCH  15  20
ENDBRANCH   2  10
BRANCH   6  24
HETATM   24  C   UNK N   1      35.961  14.060  12.204  0.00  0.00    -0.027 A 
HETATM   25  C   UNK N   1      36.391  14.539  13.455  0.00  0.00     0.010 A 
HETATM   26  C   UNK N   1      36.007  13.893  14.634  0.00  0.00     0.001 A 
HETATM   27  C   UNK N   1      35.182  12.769  14.575  0.00  0.00     0.000 A 
HETATM   28  C   UNK N   1      34.745  12.286  13.339  0.00  0.00     0.001 A 
HETATM   29  C   UNK N   1      35.136  12.926  12.158  0.00  0.00     0.010 A 
ENDBRANCH   6  24
TORSDOF 4
ENDMDL
MODEL 7
REMARK VINA RESULT:      -7.5     17.230     19.646
REMARK  4 active torsions:
REMARK  status: ('A' for Active; 'I' for Inactive)
REMARK    1  A    between atoms: O_4  and  C_19 
REMARK    2  A    between atoms: C_10  and  N_7 
REMARK    3  A    between atoms: C_11  and  C_19 
REMARK    4  A    between atoms: C_16  and  C_22 
ROOT
HETATM    1  O   UNK N   1      30.526  20.509  -6.058  0.00  0.00    -0.271 OA
HETATM    2  N   UNK N   1      30.081  22.393  -4.897  0.00  0.00    -0.309 N 
HETATM    3  N   UNK N   1      31.233  21.911  -2.918  0.00  0.00    -0.381 N 
HETATM    4  C   UNK N   1      30.413  22.935  -3.603  0.00  0.00     0.099 A 
HETATM    5  C   UNK N   1      30.624  21.182  -5.044  0.00  0.00     0.249 A 
HETATM    6  C   UNK N   1      31.398  20.774  -3.846  0.00  0.00     0.205 A 
HETATM    7  C   UNK N   1      31.223  24.213  -3.745  0.00  0.00     0.062 C 
HETATM    8  C   UNK N   1      29.173  23.210  -2.772  0.00  0.00     0.062 C 
HETATM    9  H   UNK N   1      31.615  21.978  -1.975  0.00  0.00     0.157 HD
ENDROOT
BRANCH   2  10
HETATM   10  C   UNK N   1      29.406  23.177  -5.935  0.00  0.00     0.204 A 
HETATM   11  C   UNK N   1      28.109  23.968  -5.413  0.00  0.00     0.161 A 
HETATM   12  S   UNK N   1      27.974  25.687  -6.022  0.00  0.00    -0.135 SA
HETATM   13  N   UNK N   1      27.331  23.178  -6.312  0.00  0.00    -0.219 NA
HETATM   14  C   UNK N   1      26.338  25.291  -6.734  0.00  0.00     0.029 C 
HETATM   15  C   UNK N   1      26.450  23.841  -7.234  0.00  0.00     0.182 C 
HETATM   16  C   UNK N   1      26.015  26.220  -7.887  0.00  0.00     0.029 C 
HETATM   17  C   UNK N   1      25.309  25.464  -5.625  0.00  0.00     0.029 C 
HETATM   18  C   UNK N   1      28.357  22.476  -6.731  0.00  0.00     0.227 A 
HETATM   19  O   UNK N   1      28.464  22.003  -7.852  0.00  0.00    -0.277 OA
BRANCH  15  20
HETATM   20  C   UNK N   1      25.183  23.080  -7.539  0.00  0.00     0.160 C 
HETATM   21  O   UNK N   1      24.572  23.266  -8.580  0.00  0.00    -0.649 OA
BRANCH  20  22
HETATM   22  O   UNK N   1      24.753  22.140  -6.677  0.00  0.00    -0.775 OA
HETATM   23  H   UNK N   1      24.448  21.312  -6.990  0.00  0.00     0.167 HD
ENDBRANCH  20  22
ENDBRANCH  15  20
ENDBRANCH   2  10
BRANCH   6  24
HETATM   24  C   UNK N   1      32.872  20.541  -4.113  0.00  0.00    -0.027 A 
HETATM   25  C   UNK N   1      33.796  21.601  -4.151  0.00  0.00     0.010 A 
HETATM   26  C   UNK N   1      35.148  21.355  -4.406  0.00  0.00     0.001 A 
HETATM   27  C   UNK N   1      35.592  20.049  -4.617  0.00  0.00     0.000 A 
HETATM   28  C   UNK N   1      34.684  18.987  -4.579  0.00  0.00     0.001 A 
HETATM   29  C   UNK N   1      33.329  19.233  -4.332  0.00  0.00     0.010 A 
ENDBRANCH   6  24
TORSDOF 4
ENDMDL
MODEL 8
REMARK VINA RESULT:      -7.2     17.443     21.171
REMARK  4 active torsions:
REMARK  status: ('A' for Active; 'I' for Inactive)
REMARK    1  A    between atoms: O_4  and  C_19 
REMARK    2  A    between atoms: C_10  and  N_7 
REMARK    3  A    between atoms: C_11  and  C_19 
REMARK    4  A    between atoms: C_16  and  C_22 
ROOT
HETATM    1  O   UNK N   1      28.284  24.593  -3.683  0.00  0.00    -0.271 OA
HETATM    2  N   UNK N   1      27.653  23.738  -5.675  0.00  0.00    -0.309 N 
HETATM    3  N   UNK N   1      25.610  24.845  -5.943  0.00  0.00    -0.381 N 
HETATM    4  C   UNK N   1      26.542  23.889  -6.580  0.00  0.00     0.099 A 
HETATM    5  C   UNK N   1      27.478  24.505  -4.596  0.00  0.00     0.249 A 
HETATM    6  C   UNK N   1      26.211  25.272  -4.663  0.00  0.00     0.205 A 
HETATM    7  C   UNK N   1      27.005  24.453  -7.914  0.00  0.00     0.062 C 
HETATM    8  C   UNK N   1      25.819  22.574  -6.809  0.00  0.00     0.062 C 
HETATM    9  H   UNK N   1      24.714  25.154  -6.319  0.00  0.00     0.157 HD
ENDROOT
BRANCH   2  10
HETATM   10  C   UNK N   1      28.864  22.989  -6.024  0.00  0.00     0.204 A 
HETATM   11  C   UNK N   1      29.754  22.563  -4.757  0.00  0.00     0.161 A 
HETATM   12  S   UNK N   1      30.387  20.848  -4.819  0.00  0.00    -0.135 SA
HETATM   13  N   UNK N   1      30.800  23.380  -5.284  0.00  0.00    -0.219 NA
HETATM   14  C   UNK N   1      32.092  21.488  -4.667  0.00  0.00     0.029 C 
HETATM   15  C   UNK N   1      32.106  22.806  -5.459  0.00  0.00     0.182 C 
HETATM   16  C   UNK N   1      33.087  20.509  -5.259  0.00  0.00     0.029 C 
HETATM   17  C   UNK N   1      32.373  21.678  -3.182  0.00  0.00     0.029 C 
HETATM   18  C   UNK N   1      30.091  23.790  -6.308  0.00  0.00     0.227 A 
HETATM   19  O   UNK N   1      30.553  24.084  -7.401  0.00  0.00    -0.277 OA
BRANCH  15  20
HETATM   20  C   UNK N   1      33.244  23.772  -5.236  0.00  0.00     0.160 C 
HETATM   21  O   UNK N   1      34.393  23.467  -5.513  0.00  0.00    -0.649 OA
BRANCH  20  22
HETATM   22  O   UNK N   1      32.979  25.011  -4.779  0.00  0.00    -0.775 OA
HETATM   23  H   UNK N   1      32.096  25.322  -4.737  0.00  0.00     0.167 HD
ENDBRANCH  20  22
ENDBRANCH  15  20
ENDBRANCH   2  10
BRANCH   6  24
HETATM   24  C   UNK N   1      26.398  26.776  -4.662  0.00  0.00    -0.027 A 
HETATM   25  C   UNK N   1      27.041  27.445  -5.720  0.00  0.00     0.010 A 
HETATM   26  C   UNK N   1      27.205  28.833  -5.688  0.00  0.00     0.001 A 
HETATM   27  C   UNK N   1      26.720  29.567  -4.604  0.00  0.00     0.000 A 
HETATM   28  C   UNK N   1      26.076  28.915  -3.550  0.00  0.00     0.001 A 
HETATM   29  C   UNK N   1      25.920  27.525  -3.576  0.00  0.00     0.010 A 
ENDBRANCH   6  24
TORSDOF 4
ENDMDL
MODEL 9
REMARK VINA RESULT:      -7.1     19.081     22.250
REMARK  4 active torsions:
REMARK  status: ('A' for Active; 'I' for Inactive)
REMARK    1  A    between atoms: O_4  and  C_19 
REMARK    2  A    between atoms: C_10  and  N_7 
REMARK    3  A    between atoms: C_11  and  C_19 
REMARK    4  A    between atoms: C_16  and  C_22 
ROOT
HETATM    1  O   UNK N   1      27.962  24.319  -5.038  0.00  0.00    -0.271 OA
HETATM    2  N   UNK N   1      27.234  24.092  -7.163  0.00  0.00    -0.309 N 
HETATM    3  N   UNK N   1      25.297  25.399  -7.052  0.00  0.00    -0.381 N 
HETATM    4  C   UNK N   1      26.131  24.576  -7.955  0.00  0.00     0.099 A 
HETATM    5  C   UNK N   1      27.141  24.550  -5.912  0.00  0.00     0.249 A 
HETATM    6  C   UNK N   1      25.949  25.411  -5.726  0.00  0.00     0.205 A 
HETATM    7  C   UNK N   1      26.630  25.438  -9.103  0.00  0.00     0.062 C 
HETATM    8  C   UNK N   1      25.289  23.438  -8.503  0.00  0.00     0.062 C 
HETATM    9  H   UNK N   1      24.429  25.873  -7.300  0.00  0.00     0.157 HD
ENDROOT
BRANCH   2  10
HETATM   10  C   UNK N   1      28.367  23.365  -7.743  0.00  0.00     0.204 A 
HETATM   11  C   UNK N   1      28.228  21.768  -7.658  0.00  0.00     0.161 A 
HETATM   12  S   UNK N   1      28.708  20.884  -9.185  0.00  0.00    -0.135 SA
HETATM   13  N   UNK N   1      29.389  21.763  -6.828  0.00  0.00    -0.219 NA
HETATM   14  C   UNK N   1      29.937  19.927  -8.228  0.00  0.00     0.029 C 
HETATM   15  C   UNK N   1      30.489  20.906  -7.179  0.00  0.00     0.182 C 
HETATM   16  C   UNK N   1      31.054  19.437  -9.128  0.00  0.00     0.029 C 
HETATM   17  C   UNK N   1      29.206  18.740  -7.615  0.00  0.00     0.029 C 
HETATM   18  C   UNK N   1      29.512  23.068  -6.833  0.00  0.00     0.227 A 
HETATM   19  O   UNK N   1      30.574  23.668  -6.750  0.00  0.00    -0.277 OA
BRANCH  15  20
HETATM   20  C   UNK N   1      31.245  20.350  -5.997  0.00  0.00     0.160 C 
HETATM   21  O   UNK N   1      32.336  19.820  -6.140  0.00  0.00    -0.649 OA
BRANCH  20  22
HETATM   22  O   UNK N   1      30.734  20.493  -4.760  0.00  0.00    -0.775 OA
HETATM   23  H   UNK N   1      30.894  19.845  -4.102  0.00  0.00     0.167 HD
ENDBRANCH  20  22
ENDBRANCH  15  20
ENDBRANCH   2  10
BRANCH   6  24
HETATM   24  C   UNK N   1      26.272  26.838  -5.328  0.00  0.00    -0.027 A 
HETATM   25  C   UNK N   1      25.839  27.384  -4.105  0.00  0.00     0.010 A 
HETATM   26  C   UNK N   1      26.148  28.705  -3.769  0.00  0.00     0.001 A 
HETATM   27  C   UNK N   1      26.899  29.490  -4.644  0.00  0.00     0.000 A 
HETATM   28  C   UNK N   1      27.337  28.958  -5.860  0.00  0.00     0.001 A 
HETATM   29  C   UNK N   1      27.021  27.639  -6.202  0.00  0.00     0.010 A 
ENDBRANCH   6  24
TORSDOF 4
ENDMDL
