MODEL 1
REMARK VINA RESULT:      -6.8      0.000      0.000
REMARK  2 active torsions:
REMARK  status: ('A' for Active; 'I' for Inactive)
REMARK    1  A    between atoms: C_2  and  C_16 
REMARK       I    between atoms: C_5  and  N_20 
REMARK    2  A    between atoms: C_16  and  C_17 
ROOT
HETATM    1  C   UNK N   1      20.353  15.218   8.808  0.00  0.00     0.257 A 
HETATM    2  C   UNK N   1      19.645  16.243   7.976  0.00  0.00     0.178 A 
HETATM    3  C   UNK N   1      20.744  16.421   6.955  0.00  0.00     0.273 A 
HETATM    4  N   UNK N   1      21.824  15.600   7.195  0.00  0.00    -0.041 N 
HETATM    5  C   UNK N   1      23.032  15.451   6.524  0.00  0.00     0.704 A 
HETATM    6  N   UNK N   1      23.946  14.572   7.027  0.00  0.00    -0.188 N 
ATOM      7  HN  UNK N   1      24.842  14.462   6.553  1.00  0.00     0.184 HD
HETATM    8  C   UNK N   1      23.696  13.840   8.137  0.00  0.00     0.078 A 
HETATM    9  C   UNK N   1      24.647  12.932   8.613  0.00  0.00     0.033 A 
HETATM   10  C   UNK N   1      24.391  12.197   9.774  0.00  0.00     0.009 A 
HETATM   11  C   UNK N   1      23.186  12.370  10.460  0.00  0.00    -0.060 A 
HETATM   12  C   UNK N   1      22.229  13.269   9.979  0.00  0.00     0.040 A 
HETATM   13  C   UNK N   1      22.480  14.007   8.810  0.00  0.00     0.088 A 
HETATM   14  N   UNK N   1      21.581  14.898   8.300  0.00  0.00    -0.197 N 
HETATM   15  O   UNK N   1      19.885  14.723   9.823  0.00  0.00    -0.270 OA
HETATM   16  O   UNK N   1      20.668  17.226   6.045  0.00  0.00    -0.270 OA
HETATM   17  N   UNK N   1      23.396  16.176   5.336  0.00  0.00    -0.224 N 
HETATM   18  C   UNK N   1      24.786  16.243   4.963  0.00  0.00     0.168 C 
HETATM   19  C   UNK N   1      22.446  16.584   4.339  0.00  0.00     0.168 C 
HETATM   20  C   UNK N   1      22.924  11.608  11.709  0.00  0.00     0.048 C 
ENDROOT
BRANCH   2  21
HETATM   21  C   UNK N   1      19.367  17.519   8.771  0.00  0.00     0.050 C 
BRANCH  21  22
HETATM   22  C   UNK N   1      18.007  17.499   9.402  0.00  0.00    -0.036 C 
HETATM   23  C   UNK N   1      16.939  17.110   8.707  0.00  0.00     0.007 C 
ENDBRANCH  21  22
ENDBRANCH   2  21
TORSDOF 2
ENDMDL
MODEL 2
REMARK VINA RESULT:      -6.8     16.770     18.236
REMARK  2 active torsions:
REMARK  status: ('A' for Active; 'I' for Inactive)
REMARK    1  A    between atoms: C_2  and  C_16 
REMARK       I    between atoms: C_5  and  N_20 
REMARK    2  A    between atoms: C_16  and  C_17 
ROOT
HETATM    1  C   UNK N   1      29.134  24.612  -4.536  0.00  0.00     0.257 A 
HETATM    2  C   UNK N   1      29.895  23.364  -4.861  0.00  0.00     0.178 A 
HETATM    3  C   UNK N   1      28.857  22.767  -5.782  0.00  0.00     0.273 A 
HETATM    4  N   UNK N   1      27.760  23.586  -5.939  0.00  0.00    -0.041 N 
HETATM    5  C   UNK N   1      26.591  23.424  -6.675  0.00  0.00     0.704 A 
HETATM    6  N   UNK N   1      25.645  24.404  -6.605  0.00  0.00    -0.188 N 
ATOM      7  HN  UNK N   1      24.776  24.293  -7.128  1.00  0.00     0.184 HD
HETATM    8  C   UNK N   1      25.826  25.520  -5.862  0.00  0.00     0.078 A 
HETATM    9  C   UNK N   1      24.843  26.514  -5.830  0.00  0.00     0.033 A 
HETATM   10  C   UNK N   1      25.028  27.654  -5.042  0.00  0.00     0.009 A 
HETATM   11  C   UNK N   1      26.193  27.799  -4.284  0.00  0.00    -0.060 A 
HETATM   12  C   UNK N   1      27.182  26.810  -4.323  0.00  0.00     0.040 A 
HETATM   13  C   UNK N   1      27.003  25.666  -5.118  0.00  0.00     0.088 A 
HETATM   14  N   UNK N   1      27.935  24.671  -5.190  0.00  0.00    -0.197 N 
HETATM   15  O   UNK N   1      29.540  25.480  -3.777  0.00  0.00    -0.270 OA
HETATM   16  O   UNK N   1      28.991  21.672  -6.297  0.00  0.00    -0.270 OA
HETATM   17  N   UNK N   1      26.301  22.281  -7.498  0.00  0.00    -0.224 N 
HETATM   18  C   UNK N   1      24.935  22.033  -7.883  0.00  0.00     0.168 C 
HETATM   19  C   UNK N   1      27.309  21.541  -8.204  0.00  0.00     0.168 C 
HETATM   20  C   UNK N   1      26.378  28.997  -3.426  0.00  0.00     0.048 C 
ENDROOT
BRANCH   2  21
HETATM   21  C   UNK N   1      30.135  22.511  -3.615  0.00  0.00     0.050 C 
BRANCH  21  22
HETATM   22  C   UNK N   1      31.554  22.605  -3.139  0.00  0.00    -0.036 C 
HETATM   23  C   UNK N   1      32.258  21.505  -2.873  0.00  0.00     0.007 C 
ENDBRANCH  21  22
ENDBRANCH   2  21
TORSDOF 2
ENDMDL
MODEL 3
REMARK VINA RESULT:      -6.5      4.369      7.971
REMARK  2 active torsions:
REMARK  status: ('A' for Active; 'I' for Inactive)
REMARK    1  A    between atoms: C_2  and  C_16 
REMARK       I    between atoms: C_5  and  N_20 
REMARK    2  A    between atoms: C_16  and  C_17 
ROOT
HETATM    1  C   UNK N   1      25.868  19.521   3.579  0.00  0.00     0.257 A 
HETATM    2  C   UNK N   1      27.279  19.138   3.897  0.00  0.00     0.178 A 
HETATM    3  C   UNK N   1      26.945  17.880   4.664  0.00  0.00     0.273 A 
HETATM    4  N   UNK N   1      25.591  17.632   4.703  0.00  0.00    -0.041 N 
HETATM    5  C   UNK N   1      24.861  16.609   5.300  0.00  0.00     0.704 A 
HETATM    6  N   UNK N   1      23.501  16.648   5.205  0.00  0.00    -0.188 N 
ATOM      7  HN  UNK N   1      22.952  15.913   5.650  1.00  0.00     0.184 HD
HETATM    8  C   UNK N   1      22.860  17.634   4.537  0.00  0.00     0.078 A 
HETATM    9  C   UNK N   1      21.464  17.631   4.441  0.00  0.00     0.033 A 
HETATM   10  C   UNK N   1      20.807  18.665   3.769  0.00  0.00     0.009 A 
HETATM   11  C   UNK N   1      21.545  19.704   3.194  0.00  0.00    -0.060 A 
HETATM   12  C   UNK N   1      22.941  19.703   3.279  0.00  0.00     0.040 A 
HETATM   13  C   UNK N   1      23.605  18.663   3.949  0.00  0.00     0.088 A 
HETATM   14  N   UNK N   1      24.965  18.616   4.062  0.00  0.00    -0.197 N 
HETATM   15  O   UNK N   1      25.558  20.526   2.955  0.00  0.00    -0.270 OA
HETATM   16  O   UNK N   1      27.797  17.193   5.198  0.00  0.00    -0.270 OA
HETATM   17  N   UNK N   1      25.443  15.515   6.029  0.00  0.00    -0.224 N 
HETATM   18  C   UNK N   1      24.607  14.756   6.924  0.00  0.00     0.168 C 
HETATM   19  C   UNK N   1      26.720  14.942   5.707  0.00  0.00     0.168 C 
HETATM   20  C   UNK N   1      20.846  20.818   2.501  0.00  0.00     0.048 C 
ENDROOT
BRANCH   2  21
HETATM   21  C   UNK N   1      27.966  20.192   4.766  0.00  0.00     0.050 C 
BRANCH  21  22
HETATM   22  C   UNK N   1      27.227  20.428   6.048  0.00  0.00    -0.036 C 
HETATM   23  C   UNK N   1      26.896  21.662   6.427  0.00  0.00     0.007 C 
ENDBRANCH  21  22
ENDBRANCH   2  21
TORSDOF 2
ENDMDL
MODEL 4
REMARK VINA RESULT:      -6.4      3.320      6.370
REMARK  2 active torsions:
REMARK  status: ('A' for Active; 'I' for Inactive)
REMARK    1  A    between atoms: C_2  and  C_16 
REMARK       I    between atoms: C_5  and  N_20 
REMARK    2  A    between atoms: C_16  and  C_17 
ROOT
HETATM    1  C   UNK N   1      23.591  16.572   5.483  0.00  0.00     0.257 A 
HETATM    2  C   UNK N   1      22.199  16.038   5.622  0.00  0.00     0.178 A 
HETATM    3  C   UNK N   1      21.523  17.112   4.802  0.00  0.00     0.273 A 
HETATM    4  N   UNK N   1      22.418  18.027   4.292  0.00  0.00    -0.041 N 
HETATM    5  C   UNK N   1      22.227  19.159   3.508  0.00  0.00     0.704 A 
HETATM    6  N   UNK N   1      23.319  19.910   3.184  0.00  0.00    -0.188 N 
ATOM      7  HN  UNK N   1      23.193  20.751   2.622  1.00  0.00     0.184 HD
HETATM    8  C   UNK N   1      24.565  19.570   3.588  0.00  0.00     0.078 A 
HETATM    9  C   UNK N   1      25.665  20.351   3.219  0.00  0.00     0.033 A 
HETATM   10  C   UNK N   1      26.946  20.006   3.658  0.00  0.00     0.009 A 
HETATM   11  C   UNK N   1      27.128  18.881   4.468  0.00  0.00    -0.060 A 
HETATM   12  C   UNK N   1      26.031  18.092   4.828  0.00  0.00     0.040 A 
HETATM   13  C   UNK N   1      24.742  18.433   4.385  0.00  0.00     0.088 A 
HETATM   14  N   UNK N   1      23.638  17.698   4.709  0.00  0.00    -0.197 N 
HETATM   15  O   UNK N   1      24.573  16.058   5.999  0.00  0.00    -0.270 OA
HETATM   16  O   UNK N   1      20.316  17.153   4.645  0.00  0.00    -0.270 OA
HETATM   17  N   UNK N   1      20.949  19.607   3.025  0.00  0.00    -0.224 N 
HETATM   18  C   UNK N   1      20.816  20.970   2.577  0.00  0.00     0.168 C 
HETATM   19  C   UNK N   1      19.878  18.714   2.681  0.00  0.00     0.168 C 
HETATM   20  C   UNK N   1      28.486  18.528   4.957  0.00  0.00     0.048 C 
ENDROOT
BRANCH   2  21
HETATM   21  C   UNK N   1      21.741  16.034   7.080  0.00  0.00     0.050 C 
BRANCH  21  22
HETATM   22  C   UNK N   1      21.089  14.738   7.458  0.00  0.00    -0.036 C 
HETATM   23  C   UNK N   1      20.665  14.526   8.703  0.00  0.00     0.007 C 
ENDBRANCH  21  22
ENDBRANCH   2  21
TORSDOF 2
ENDMDL
MODEL 5
REMARK VINA RESULT:      -6.4     16.616     17.423
REMARK  2 active torsions:
REMARK  status: ('A' for Active; 'I' for Inactive)
REMARK    1  A    between atoms: C_2  and  C_16 
REMARK       I    between atoms: C_5  and  N_20 
REMARK    2  A    between atoms: C_16  and  C_17 
ROOT
HETATM    1  C   UNK N   1      27.840  24.070  -4.511  0.00  0.00     0.257 A 
HETATM    2  C   UNK N   1      26.589  24.750  -4.970  0.00  0.00     0.178 A 
HETATM    3  C   UNK N   1      26.431  23.969  -6.253  0.00  0.00     0.273 A 
HETATM    4  N   UNK N   1      27.414  23.017  -6.414  0.00  0.00    -0.041 N 
HETATM    5  C   UNK N   1      27.649  22.104  -7.436  0.00  0.00     0.704 A 
HETATM    6  N   UNK N   1      28.746  21.299  -7.340  0.00  0.00    -0.188 N 
ATOM      7  HN  UNK N   1      28.940  20.634  -8.089  1.00  0.00     0.184 HD
HETATM    8  C   UNK N   1      29.584  21.356  -6.279  0.00  0.00     0.078 A 
HETATM    9  C   UNK N   1      30.687  20.500  -6.204  0.00  0.00     0.033 A 
HETATM   10  C   UNK N   1      31.561  20.581  -5.116  0.00  0.00     0.009 A 
HETATM   11  C   UNK N   1      31.333  21.519  -4.104  0.00  0.00    -0.060 A 
HETATM   12  C   UNK N   1      30.224  22.368  -4.173  0.00  0.00     0.040 A 
HETATM   13  C   UNK N   1      29.341  22.287  -5.262  0.00  0.00     0.088 A 
HETATM   14  N   UNK N   1      28.245  23.093  -5.378  0.00  0.00    -0.197 N 
HETATM   15  O   UNK N   1      28.431  24.352  -3.479  0.00  0.00    -0.270 OA
HETATM   16  O   UNK N   1      25.538  24.193  -7.050  0.00  0.00    -0.270 OA
HETATM   17  N   UNK N   1      26.821  21.960  -8.603  0.00  0.00    -0.224 N 
HETATM   18  C   UNK N   1      27.363  21.289  -9.758  0.00  0.00     0.168 C 
HETATM   19  C   UNK N   1      25.401  22.173  -8.594  0.00  0.00     0.168 C 
HETATM   20  C   UNK N   1      32.276  21.623  -2.961  0.00  0.00     0.048 C 
ENDROOT
BRANCH   2  21
HETATM   21  C   UNK N   1      26.816  26.243  -5.213  0.00  0.00     0.050 C 
BRANCH  21  22
HETATM   22  C   UNK N   1      25.627  27.062  -4.811  0.00  0.00    -0.036 C 
HETATM   23  C   UNK N   1      24.608  27.241  -5.649  0.00  0.00     0.007 C 
ENDBRANCH  21  22
ENDBRANCH   2  21
TORSDOF 2
ENDMDL
MODEL 6
REMARK VINA RESULT:      -6.3     10.798     13.437
REMARK  2 active torsions:
REMARK  status: ('A' for Active; 'I' for Inactive)
REMARK    1  A    between atoms: C_2  and  C_16 
REMARK       I    between atoms: C_5  and  N_20 
REMARK    2  A    between atoms: C_16  and  C_17 
ROOT
HETATM    1  C   UNK N   1      34.247  17.281   6.807  0.00  0.00     0.257 A 
HETATM    2  C   UNK N   1      34.241  18.102   8.059  0.00  0.00     0.178 A 
HETATM    3  C   UNK N   1      34.692  16.999   8.987  0.00  0.00     0.273 A 
HETATM    4  N   UNK N   1      34.929  15.816   8.323  0.00  0.00    -0.041 N 
HETATM    5  C   UNK N   1      35.340  14.570   8.784  0.00  0.00     0.704 A 
HETATM    6  N   UNK N   1      35.452  13.554   7.881  0.00  0.00    -0.188 N 
ATOM      7  HN  UNK N   1      35.739  12.630   8.206  1.00  0.00     0.184 HD
HETATM    8  C   UNK N   1      35.195  13.736   6.565  0.00  0.00     0.078 A 
HETATM    9  C   UNK N   1      35.342  12.676   5.664  0.00  0.00     0.033 A 
HETATM   10  C   UNK N   1      35.052  12.866   4.310  0.00  0.00     0.009 A 
HETATM   11  C   UNK N   1      34.614  14.114   3.857  0.00  0.00    -0.060 A 
HETATM   12  C   UNK N   1      34.478  15.177   4.755  0.00  0.00     0.040 A 
HETATM   13  C   UNK N   1      34.773  14.992   6.116  0.00  0.00     0.088 A 
HETATM   14  N   UNK N   1      34.655  15.996   7.033  0.00  0.00    -0.197 N 
HETATM   15  O   UNK N   1      33.927  17.711   5.708  0.00  0.00    -0.270 OA
HETATM   16  O   UNK N   1      34.803  17.160  10.189  0.00  0.00    -0.270 OA
HETATM   17  N   UNK N   1      35.641  14.271  10.158  0.00  0.00    -0.224 N 
HETATM   18  C   UNK N   1      35.664  12.893  10.579  0.00  0.00     0.168 C 
HETATM   19  C   UNK N   1      36.210  15.227  11.067  0.00  0.00     0.168 C 
HETATM   20  C   UNK N   1      34.281  14.309   2.422  0.00  0.00     0.048 C 
ENDROOT
BRANCH   2  21
HETATM   21  C   UNK N   1      32.838  18.613   8.390  0.00  0.00     0.050 C 
BRANCH  21  22
HETATM   22  C   UNK N   1      31.824  17.509   8.383  0.00  0.00    -0.036 C 
HETATM   23  C   UNK N   1      30.566  17.737   8.756  0.00  0.00     0.007 C 
ENDBRANCH  21  22
ENDBRANCH   2  21
TORSDOF 2
ENDMDL
MODEL 7
REMARK VINA RESULT:      -6.2      8.549     11.610
REMARK  2 active torsions:
REMARK  status: ('A' for Active; 'I' for Inactive)
REMARK    1  A    between atoms: C_2  and  C_16 
REMARK       I    between atoms: C_5  and  N_20 
REMARK    2  A    between atoms: C_16  and  C_17 
ROOT
HETATM    1  C   UNK N   1      31.253  14.976   5.772  0.00  0.00     0.257 A 
HETATM    2  C   UNK N   1      32.316  13.952   5.523  0.00  0.00     0.178 A 
HETATM    3  C   UNK N   1      33.202  14.341   6.683  0.00  0.00     0.273 A 
HETATM    4  N   UNK N   1      32.670  15.369   7.430  0.00  0.00    -0.041 N 
HETATM    5  C   UNK N   1      33.150  16.031   8.555  0.00  0.00     0.704 A 
HETATM    6  N   UNK N   1      32.409  17.058   9.063  0.00  0.00    -0.188 N 
ATOM      7  HN  UNK N   1      32.756  17.562   9.880  1.00  0.00     0.184 HD
HETATM    8  C   UNK N   1      31.228  17.425   8.516  0.00  0.00     0.078 A 
HETATM    9  C   UNK N   1      30.484  18.469   9.077  0.00  0.00     0.033 A 
HETATM   10  C   UNK N   1      29.276  18.858   8.493  0.00  0.00     0.009 A 
HETATM   11  C   UNK N   1      28.811  18.206   7.347  0.00  0.00    -0.060 A 
HETATM   12  C   UNK N   1      29.548  17.155   6.791  0.00  0.00     0.040 A 
HETATM   13  C   UNK N   1      30.761  16.758   7.378  0.00  0.00     0.088 A 
HETATM   14  N   UNK N   1      31.519  15.740   6.875  0.00  0.00    -0.197 N 
HETATM   15  O   UNK N   1      30.260  15.113   5.072  0.00  0.00    -0.270 OA
HETATM   16  O   UNK N   1      34.274  13.805   6.896  0.00  0.00    -0.270 OA
HETATM   17  N   UNK N   1      34.389  15.718   9.214  0.00  0.00    -0.224 N 
HETATM   18  C   UNK N   1      34.971  16.698  10.097  0.00  0.00     0.168 C 
HETATM   19  C   UNK N   1      34.932  14.391   9.286  0.00  0.00     0.168 C 
HETATM   20  C   UNK N   1      27.540  18.637   6.710  0.00  0.00     0.048 C 
ENDROOT
BRANCH   2  21
HETATM   21  C   UNK N   1      32.993  14.161   4.168  0.00  0.00     0.050 C 
BRANCH  21  22
HETATM   22  C   UNK N   1      33.539  15.550   4.025  0.00  0.00    -0.036 C 
HETATM   23  C   UNK N   1      33.105  16.357   3.057  0.00  0.00     0.007 C 
ENDBRANCH  21  22
ENDBRANCH   2  21
TORSDOF 2
ENDMDL
MODEL 8
REMARK VINA RESULT:      -6.2      3.918      8.053
REMARK  2 active torsions:
REMARK  status: ('A' for Active; 'I' for Inactive)
REMARK    1  A    between atoms: C_2  and  C_16 
REMARK       I    between atoms: C_5  and  N_20 
REMARK    2  A    between atoms: C_16  and  C_17 
ROOT
HETATM    1  C   UNK N   1      20.317  15.585   1.254  0.00  0.00     0.257 A 
HETATM    2  C   UNK N   1      20.229  14.099   1.412  0.00  0.00     0.178 A 
HETATM    3  C   UNK N   1      20.482  14.071   2.901  0.00  0.00     0.273 A 
HETATM    4  N   UNK N   1      20.638  15.333   3.432  0.00  0.00    -0.041 N 
HETATM    5  C   UNK N   1      20.893  15.758   4.731  0.00  0.00     0.704 A 
HETATM    6  N   UNK N   1      21.041  17.095   4.954  0.00  0.00    -0.188 N 
ATOM      7  HN  UNK N   1      21.242  17.421   5.900  1.00  0.00     0.184 HD
HETATM    8  C   UNK N   1      20.926  18.003   3.958  0.00  0.00     0.078 A 
HETATM    9  C   UNK N   1      21.062  19.368   4.227  0.00  0.00     0.033 A 
HETATM   10  C   UNK N   1      20.965  20.298   3.188  0.00  0.00     0.009 A 
HETATM   11  C   UNK N   1      20.735  19.864   1.880  0.00  0.00    -0.060 A 
HETATM   12  C   UNK N   1      20.587  18.499   1.611  0.00  0.00     0.040 A 
HETATM   13  C   UNK N   1      20.679  17.562   2.653  0.00  0.00     0.088 A 
HETATM   14  N   UNK N   1      20.544  16.219   2.443  0.00  0.00    -0.197 N 
HETATM   15  O   UNK N   1      20.197  16.166   0.184  0.00  0.00    -0.270 OA
HETATM   16  O   UNK N   1      20.558  13.033   3.533  0.00  0.00    -0.270 OA
HETATM   17  N   UNK N   1      21.030  14.878   5.861  0.00  0.00    -0.224 N 
HETATM   18  C   UNK N   1      21.676  15.373   7.050  0.00  0.00     0.168 C 
HETATM   19  C   UNK N   1      20.308  13.644   5.992  0.00  0.00     0.168 C 
HETATM   20  C   UNK N   1      20.658  20.850   0.771  0.00  0.00     0.048 C 
ENDROOT
BRANCH   2  21
HETATM   21  C   UNK N   1      21.319  13.382   0.615  0.00  0.00     0.050 C 
BRANCH  21  22
HETATM   22  C   UNK N   1      22.677  13.963   0.878  0.00  0.00    -0.036 C 
HETATM   23  C   UNK N   1      23.734  13.571   0.169  0.00  0.00     0.007 C 
ENDBRANCH  21  22
ENDBRANCH   2  21
TORSDOF 2
ENDMDL
MODEL 9
REMARK VINA RESULT:      -6.1     15.026     16.733
REMARK  2 active torsions:
REMARK  status: ('A' for Active; 'I' for Inactive)
REMARK    1  A    between atoms: C_2  and  C_16 
REMARK       I    between atoms: C_5  and  N_20 
REMARK    2  A    between atoms: C_16  and  C_17 
ROOT
HETATM    1  C   UNK N   1      37.094   9.702  14.783  0.00  0.00     0.257 A 
HETATM    2  C   UNK N   1      37.587   9.345  13.415  0.00  0.00     0.178 A 
HETATM    3  C   UNK N   1      37.291  10.680  12.773  0.00  0.00     0.273 A 
HETATM    4  N   UNK N   1      36.767  11.589  13.667  0.00  0.00    -0.041 N 
HETATM    5  C   UNK N   1      36.350  12.905  13.500  0.00  0.00     0.704 A 
HETATM    6  N   UNK N   1      35.826  13.556  14.578  0.00  0.00    -0.188 N 
ATOM      7  HN  UNK N   1      35.502  14.517  14.468  1.00  0.00     0.184 HD
HETATM    8  C   UNK N   1      35.724  12.963  15.790  0.00  0.00     0.078 A 
HETATM    9  C   UNK N   1      35.201  13.668  16.879  0.00  0.00     0.033 A 
HETATM   10  C   UNK N   1      35.077  13.042  18.122  0.00  0.00     0.009 A 
HETATM   11  C   UNK N   1      35.474  11.711  18.277  0.00  0.00    -0.060 A 
HETATM   12  C   UNK N   1      36.007  11.008  17.192  0.00  0.00     0.040 A 
HETATM   13  C   UNK N   1      36.138  11.635  15.942  0.00  0.00     0.088 A 
HETATM   14  N   UNK N   1      36.651  10.993  14.851  0.00  0.00    -0.197 N 
HETATM   15  O   UNK N   1      37.092   8.930  15.730  0.00  0.00    -0.270 OA
HETATM   16  O   UNK N   1      37.481  10.894  11.590  0.00  0.00    -0.270 OA
HETATM   17  N   UNK N   1      36.417  13.627  12.258  0.00  0.00    -0.224 N 
HETATM   18  C   UNK N   1      35.610  14.810  12.100  0.00  0.00     0.168 C 
HETATM   19  C   UNK N   1      37.449  13.421  11.281  0.00  0.00     0.168 C 
HETATM   20  C   UNK N   1      35.319  11.036  19.592  0.00  0.00     0.048 C 
ENDROOT
BRANCH   2  21
HETATM   21  C   UNK N   1      36.774   8.204  12.804  0.00  0.00     0.050 C 
BRANCH  21  22
HETATM   22  C   UNK N   1      35.302   8.483  12.843  0.00  0.00    -0.036 C 
HETATM   23  C   UNK N   1      34.581   8.501  11.722  0.00  0.00     0.007 C 
ENDBRANCH  21  22
ENDBRANCH   2  21
TORSDOF 2
ENDMDL
