MODEL 1
REMARK VINA RESULT:      -6.4      0.000      0.000
REMARK  3 active torsions:
REMARK  status: ('A' for Active; 'I' for Inactive)
REMARK    1  A    between atoms: O_2  and  N_4 
REMARK    2  A    between atoms: N_4  and  C_6 
REMARK       I    between atoms: N_4  and  C_16 
REMARK       I    between atoms: N_5  and  C_16 
REMARK    3  A    between atoms: C_6  and  C_7 
ROOT
HETATM    1  C   UNK N   1      19.736  16.218   7.708  0.00  0.00     0.155 C 
HETATM    2  C   UNK N   1      19.277  16.122   6.256  0.00  0.00     0.041 C 
ENDROOT
BRANCH   1   3
HETATM    3  N   UNK N   1      19.284  17.309   8.585  0.00  0.00    -0.201 N 
HETATM    4  C   UNK N   1      18.099  17.287   9.265  0.00  0.00     0.340 C 
HETATM    5  O   UNK N   1      17.334  16.340   9.178  0.00  0.00    -0.245 OA
HETATM    6  N   UNK N   1      17.759  18.331  10.050  0.00  0.00    -0.350 N 
HETATM    7  H   UNK N   1      18.364  19.103  10.131  0.00  0.00     0.160 HD
HETATM    8  H   UNK N   1      16.906  18.320  10.541  0.00  0.00     0.160 HD
BRANCH   3   9
HETATM    9  O   UNK N   1      20.067  18.388   8.736  0.00  0.00    -0.283 OA
HETATM   10  H   UNK N   1      20.921  18.435   8.277  0.00  0.00     0.245 HD
ENDBRANCH   3   9
ENDBRANCH   1   3
BRANCH   1  11
HETATM   11  C   UNK N   1      20.675  15.170   8.256  0.00  0.00     0.009 A 
HETATM   12  S   UNK N   1      22.119  14.671   7.576  0.00  0.00    -0.092 SA
HETATM   13  C   UNK N   1      22.550  13.545   8.709  0.00  0.00     0.015 A 
HETATM   14  C   UNK N   1      21.553  13.524   9.677  0.00  0.00    -0.018 A 
HETATM   15  C   UNK N   1      23.668  12.722   8.779  0.00  0.00     0.019 A 
HETATM   16  C   UNK N   1      20.493  14.430   9.437  0.00  0.00     0.029 A 
HETATM   17  C   UNK N   1      21.643  12.663  10.767  0.00  0.00     0.013 A 
HETATM   18  C   UNK N   1      22.763  11.819  10.865  0.00  0.00     0.001 A 
HETATM   19  C   UNK N   1      23.769  11.849   9.878  0.00  0.00     0.001 A 
ENDBRANCH   1  11
TORSDOF 3
ENDMDL
MODEL 2
REMARK VINA RESULT:      -6.3      7.172      8.381
REMARK  3 active torsions:
REMARK  status: ('A' for Active; 'I' for Inactive)
REMARK    1  A    between atoms: O_2  and  N_4 
REMARK    2  A    between atoms: N_4  and  C_6 
REMARK       I    between atoms: N_4  and  C_16 
REMARK       I    between atoms: N_5  and  C_16 
REMARK    3  A    between atoms: C_6  and  C_7 
ROOT
HETATM    1  C   UNK N   1      21.703  19.371   3.313  0.00  0.00     0.155 C 
HETATM    2  C   UNK N   1      20.681  18.419   3.929  0.00  0.00     0.041 C 
ENDROOT
BRANCH   1   3
HETATM    3  N   UNK N   1      21.300  20.416   2.359  0.00  0.00    -0.201 N 
HETATM    4  C   UNK N   1      20.835  20.149   1.102  0.00  0.00     0.340 C 
HETATM    5  O   UNK N   1      20.725  19.004   0.695  0.00  0.00    -0.245 OA
HETATM    6  N   UNK N   1      20.486  21.168   0.289  0.00  0.00    -0.350 N 
HETATM    7  H   UNK N   1      20.568  22.098   0.601  0.00  0.00     0.160 HD
HETATM    8  H   UNK N   1      20.150  20.981  -0.618  0.00  0.00     0.160 HD
BRANCH   3   9
HETATM    9  O   UNK N   1      21.390  21.702   2.729  0.00  0.00    -0.283 OA
HETATM   10  H   UNK N   1      20.715  22.337   2.443  0.00  0.00     0.245 HD
ENDBRANCH   3   9
ENDBRANCH   1   3
BRANCH   1  11
HETATM   11  C   UNK N   1      23.158  19.236   3.692  0.00  0.00     0.009 A 
HETATM   12  S   UNK N   1      23.836  18.033   4.635  0.00  0.00    -0.092 SA
HETATM   13  C   UNK N   1      25.408  18.548   4.600  0.00  0.00     0.015 A 
HETATM   14  C   UNK N   1      25.451  19.706   3.831  0.00  0.00    -0.018 A 
HETATM   15  C   UNK N   1      26.546  18.007   5.189  0.00  0.00     0.019 A 
HETATM   16  C   UNK N   1      24.196  20.105   3.314  0.00  0.00     0.029 A 
HETATM   17  C   UNK N   1      26.656  20.372   3.622  0.00  0.00     0.013 A 
HETATM   18  C   UNK N   1      27.822  19.848   4.205  0.00  0.00     0.001 A 
HETATM   19  C   UNK N   1      27.768  18.673   4.984  0.00  0.00     0.001 A 
ENDBRANCH   1  11
TORSDOF 3
ENDMDL
MODEL 3
REMARK VINA RESULT:      -6.3     14.892     15.657
REMARK  3 active torsions:
REMARK  status: ('A' for Active; 'I' for Inactive)
REMARK    1  A    between atoms: O_2  and  N_4 
REMARK    2  A    between atoms: N_4  and  C_6 
REMARK       I    between atoms: N_4  and  C_16 
REMARK       I    between atoms: N_5  and  C_16 
REMARK    3  A    between atoms: C_6  and  C_7 
ROOT
HETATM    1  C   UNK N   1      35.502  13.605  11.479  0.00  0.00     0.155 C 
HETATM    2  C   UNK N   1      36.312  12.874  10.412  0.00  0.00     0.041 C 
ENDROOT
BRANCH   1   3
HETATM    3  N   UNK N   1      34.852  14.894  11.199  0.00  0.00    -0.201 N 
HETATM    4  C   UNK N   1      35.540  16.032  10.883  0.00  0.00     0.340 C 
HETATM    5  O   UNK N   1      36.758  16.039  10.816  0.00  0.00    -0.245 OA
HETATM    6  N   UNK N   1      34.865  17.176  10.640  0.00  0.00    -0.350 N 
HETATM    7  H   UNK N   1      33.882  17.187  10.691  0.00  0.00     0.160 HD
HETATM    8  H   UNK N   1      35.357  17.998  10.413  0.00  0.00     0.160 HD
BRANCH   3   9
HETATM    9  O   UNK N   1      33.513  14.972  11.252  0.00  0.00    -0.283 OA
HETATM   10  H   UNK N   1      33.036  14.592  12.006  0.00  0.00     0.245 HD
ENDBRANCH   3   9
ENDBRANCH   1   3
BRANCH   1  11
HETATM   11  C   UNK N   1      35.365  12.991  12.851  0.00  0.00     0.009 A 
HETATM   12  S   UNK N   1      34.911  11.419  13.199  0.00  0.00    -0.092 SA
HETATM   13  C   UNK N   1      34.989  11.500  14.851  0.00  0.00     0.015 A 
HETATM   14  C   UNK N   1      35.382  12.790  15.187  0.00  0.00    -0.018 A 
HETATM   15  C   UNK N   1      34.733  10.529  15.812  0.00  0.00     0.019 A 
HETATM   16  C   UNK N   1      35.597  13.639  14.076  0.00  0.00     0.029 A 
HETATM   17  C   UNK N   1      35.534  13.158  16.521  0.00  0.00     0.013 A 
HETATM   18  C   UNK N   1      35.282  12.197  17.515  0.00  0.00     0.001 A 
HETATM   19  C   UNK N   1      34.884  10.890  17.163  0.00  0.00     0.001 A 
ENDBRANCH   1  11
TORSDOF 3
ENDMDL
MODEL 4
REMARK VINA RESULT:      -6.1     15.132     16.865
REMARK  3 active torsions:
REMARK  status: ('A' for Active; 'I' for Inactive)
REMARK    1  A    between atoms: O_2  and  N_4 
REMARK    2  A    between atoms: N_4  and  C_6 
REMARK       I    between atoms: N_4  and  C_16 
REMARK       I    between atoms: N_5  and  C_16 
REMARK    3  A    between atoms: C_6  and  C_7 
ROOT
HETATM    1  C   UNK N   1      34.823  11.650  13.567  0.00  0.00     0.155 C 
HETATM    2  C   UNK N   1      34.108  10.491  12.877  0.00  0.00     0.041 C 
ENDROOT
BRANCH   1   3
HETATM    3  N   UNK N   1      35.375  12.777  12.799  0.00  0.00    -0.201 N 
HETATM    4  C   UNK N   1      36.695  12.886  12.464  0.00  0.00     0.340 C 
HETATM    5  O   UNK N   1      37.506  12.035  12.792  0.00  0.00    -0.245 OA
HETATM    6  N   UNK N   1      37.119  13.955  11.757  0.00  0.00    -0.350 N 
HETATM    7  H   UNK N   1      36.479  14.650  11.484  0.00  0.00     0.160 HD
HETATM    8  H   UNK N   1      38.070  14.037  11.513  0.00  0.00     0.160 HD
BRANCH   3   9
HETATM    9  O   UNK N   1      34.549  13.757  12.400  0.00  0.00    -0.283 OA
HETATM   10  H   UNK N   1      34.702  14.204  11.553  0.00  0.00     0.245 HD
ENDBRANCH   3   9
ENDBRANCH   1   3
BRANCH   1  11
HETATM   11  C   UNK N   1      34.968  11.638  15.070  0.00  0.00     0.009 A 
HETATM   12  S   UNK N   1      35.177  10.293  16.041  0.00  0.00    -0.092 SA
HETATM   13  C   UNK N   1      35.251  11.057  17.508  0.00  0.00     0.015 A 
HETATM   14  C   UNK N   1      35.110  12.420  17.276  0.00  0.00    -0.018 A 
HETATM   15  C   UNK N   1      35.418  10.536  18.786  0.00  0.00     0.019 A 
HETATM   16  C   UNK N   1      34.950  12.763  15.912  0.00  0.00     0.029 A 
HETATM   17  C   UNK N   1      35.133  13.324  18.335  0.00  0.00     0.013 A 
HETATM   18  C   UNK N   1      35.300  12.826  19.638  0.00  0.00     0.001 A 
HETATM   19  C   UNK N   1      35.442  11.441  19.863  0.00  0.00     0.001 A 
ENDBRANCH   1  11
TORSDOF 3
ENDMDL
MODEL 5
REMARK VINA RESULT:      -5.6      1.887      2.494
REMARK  3 active torsions:
REMARK  status: ('A' for Active; 'I' for Inactive)
REMARK    1  A    between atoms: O_2  and  N_4 
REMARK    2  A    between atoms: N_4  and  C_6 
REMARK       I    between atoms: N_4  and  C_16 
REMARK       I    between atoms: N_5  and  C_16 
REMARK    3  A    between atoms: C_6  and  C_7 
ROOT
HETATM    1  C   UNK N   1      19.900  16.294   7.637  0.00  0.00     0.155 C 
HETATM    2  C   UNK N   1      18.987  17.078   8.576  0.00  0.00     0.041 C 
ENDROOT
BRANCH   1   3
HETATM    3  N   UNK N   1      19.957  16.592   6.197  0.00  0.00    -0.201 N 
HETATM    4  C   UNK N   1      19.096  16.056   5.282  0.00  0.00     0.340 C 
HETATM    5  O   UNK N   1      18.213  15.283   5.617  0.00  0.00    -0.245 OA
HETATM    6  N   UNK N   1      19.218  16.382   3.978  0.00  0.00    -0.350 N 
HETATM    7  H   UNK N   1      19.924  17.003   3.690  0.00  0.00     0.160 HD
HETATM    8  H   UNK N   1      18.599  15.998   3.315  0.00  0.00     0.160 HD
BRANCH   3   9
HETATM    9  O   UNK N   1      20.900  17.433   5.745  0.00  0.00    -0.283 OA
HETATM   10  H   UNK N   1      20.683  18.076   5.053  0.00  0.00     0.245 HD
ENDBRANCH   3   9
ENDBRANCH   1   3
BRANCH   1  11
HETATM   11  C   UNK N   1      20.762  15.188   8.197  0.00  0.00     0.009 A 
HETATM   12  S   UNK N   1      22.165  14.578   7.522  0.00  0.00    -0.092 SA
HETATM   13  C   UNK N   1      22.516  13.439   8.670  0.00  0.00     0.015 A 
HETATM   14  C   UNK N   1      21.522  13.503   9.640  0.00  0.00    -0.018 A 
HETATM   15  C   UNK N   1      23.572  12.538   8.750  0.00  0.00     0.019 A 
HETATM   16  C   UNK N   1      20.530  14.481   9.389  0.00  0.00     0.029 A 
HETATM   17  C   UNK N   1      21.554  12.654  10.743  0.00  0.00     0.013 A 
HETATM   18  C   UNK N   1      22.609  11.733  10.851  0.00  0.00     0.001 A 
HETATM   19  C   UNK N   1      23.613  11.675   9.861  0.00  0.00     0.001 A 
ENDBRANCH   1  11
TORSDOF 3
ENDMDL
MODEL 6
REMARK VINA RESULT:      -5.6     10.804     12.565
REMARK  3 active torsions:
REMARK  status: ('A' for Active; 'I' for Inactive)
REMARK    1  A    between atoms: O_2  and  N_4 
REMARK    2  A    between atoms: N_4  and  C_6 
REMARK       I    between atoms: N_4  and  C_16 
REMARK       I    between atoms: N_5  and  C_16 
REMARK    3  A    between atoms: C_6  and  C_7 
ROOT
HETATM    1  C   UNK N   1      33.231  15.575   8.281  0.00  0.00     0.155 C 
HETATM    2  C   UNK N   1      33.912  14.655   7.272  0.00  0.00     0.041 C 
ENDROOT
BRANCH   1   3
HETATM    3  N   UNK N   1      33.785  15.779   9.629  0.00  0.00    -0.201 N 
HETATM    4  C   UNK N   1      34.683  16.763   9.933  0.00  0.00     0.340 C 
HETATM    5  O   UNK N   1      35.083  17.543   9.084  0.00  0.00    -0.245 OA
HETATM    6  N   UNK N   1      35.143  16.881  11.197  0.00  0.00    -0.350 N 
HETATM    7  H   UNK N   1      34.831  16.261  11.893  0.00  0.00     0.160 HD
HETATM    8  H   UNK N   1      35.790  17.589  11.420  0.00  0.00     0.160 HD
BRANCH   3   9
HETATM    9  O   UNK N   1      33.397  14.963  10.621  0.00  0.00    -0.283 OA
HETATM   10  H   UNK N   1      34.060  14.557  11.201  0.00  0.00     0.245 HD
ENDBRANCH   3   9
ENDBRANCH   1   3
BRANCH   1  11
HETATM   11  C   UNK N   1      31.962  16.292   7.888  0.00  0.00     0.009 A 
HETATM   12  S   UNK N   1      31.132  16.131   6.444  0.00  0.00    -0.092 SA
HETATM   13  C   UNK N   1      29.898  17.191   6.750  0.00  0.00     0.015 A 
HETATM   14  C   UNK N   1      30.103  17.715   8.021  0.00  0.00    -0.018 A 
HETATM   15  C   UNK N   1      28.815  17.562   5.961  0.00  0.00     0.019 A 
HETATM   16  C   UNK N   1      31.257  17.220   8.673  0.00  0.00     0.029 A 
HETATM   17  C   UNK N   1      29.214  18.644   8.555  0.00  0.00     0.013 A 
HETATM   18  C   UNK N   1      28.109  19.038   7.780  0.00  0.00     0.001 A 
HETATM   19  C   UNK N   1      27.911  18.501   6.491  0.00  0.00     0.001 A 
ENDBRANCH   1  11
TORSDOF 3
ENDMDL
MODEL 7
REMARK VINA RESULT:      -5.5     10.436     12.147
REMARK  3 active torsions:
REMARK  status: ('A' for Active; 'I' for Inactive)
REMARK    1  A    between atoms: O_2  and  N_4 
REMARK    2  A    between atoms: N_4  and  C_6 
REMARK       I    between atoms: N_4  and  C_16 
REMARK       I    between atoms: N_5  and  C_16 
REMARK    3  A    between atoms: C_6  and  C_7 
ROOT
HETATM    1  C   UNK N   1      32.344  16.115   7.282  0.00  0.00     0.155 C 
HETATM    2  C   UNK N   1      32.713  14.644   7.111  0.00  0.00     0.041 C 
ENDROOT
BRANCH   1   3
HETATM    3  N   UNK N   1      33.158  17.019   8.109  0.00  0.00    -0.201 N 
HETATM    4  C   UNK N   1      34.095  17.872   7.595  0.00  0.00     0.340 C 
HETATM    5  O   UNK N   1      34.310  17.931   6.396  0.00  0.00    -0.245 OA
HETATM    6  N   UNK N   1      34.800  18.669   8.426  0.00  0.00    -0.350 N 
HETATM    7  H   UNK N   1      34.639  18.634   9.396  0.00  0.00     0.160 HD
HETATM    8  H   UNK N   1      35.476  19.285   8.060  0.00  0.00     0.160 HD
BRANCH   3   9
HETATM    9  O   UNK N   1      32.983  17.016   9.439  0.00  0.00    -0.283 OA
HETATM   10  H   UNK N   1      32.166  17.374   9.821  0.00  0.00     0.245 HD
ENDBRANCH   3   9
ENDBRANCH   1   3
BRANCH   1  11
HETATM   11  C   UNK N   1      31.117  16.654   6.586  0.00  0.00     0.009 A 
HETATM   12  S   UNK N   1      30.723  16.467   4.971  0.00  0.00    -0.092 SA
HETATM   13  C   UNK N   1      29.295  17.303   4.967  0.00  0.00     0.015 A 
HETATM   14  C   UNK N   1      29.078  17.765   6.260  0.00  0.00    -0.018 A 
HETATM   15  C   UNK N   1      28.404  17.557   3.931  0.00  0.00     0.019 A 
HETATM   16  C   UNK N   1      30.092  17.409   7.181  0.00  0.00     0.029 A 
HETATM   17  C   UNK N   1      27.942  18.510   6.564  0.00  0.00     0.013 A 
HETATM   18  C   UNK N   1      27.023  18.782   5.536  0.00  0.00     0.001 A 
HETATM   19  C   UNK N   1      27.253  18.308   4.227  0.00  0.00     0.001 A 
ENDBRANCH   1  11
TORSDOF 3
ENDMDL
MODEL 8
REMARK VINA RESULT:      -5.5      9.216     10.523
REMARK  3 active torsions:
REMARK  status: ('A' for Active; 'I' for Inactive)
REMARK    1  A    between atoms: O_2  and  N_4 
REMARK    2  A    between atoms: N_4  and  C_6 
REMARK       I    between atoms: N_4  and  C_16 
REMARK       I    between atoms: N_5  and  C_16 
REMARK    3  A    between atoms: C_6  and  C_7 
ROOT
HETATM    1  C   UNK N   1      28.230  17.872   6.938  0.00  0.00     0.155 C 
HETATM    2  C   UNK N   1      27.346  16.676   6.595  0.00  0.00     0.041 C 
ENDROOT
BRANCH   1   3
HETATM    3  N   UNK N   1      27.666  19.222   7.094  0.00  0.00    -0.201 N 
HETATM    4  C   UNK N   1      27.618  20.140   6.082  0.00  0.00     0.340 C 
HETATM    5  O   UNK N   1      28.050  19.883   4.970  0.00  0.00    -0.245 OA
HETATM    6  N   UNK N   1      27.083  21.358   6.310  0.00  0.00    -0.350 N 
HETATM    7  H   UNK N   1      26.731  21.582   7.201  0.00  0.00     0.160 HD
HETATM    8  H   UNK N   1      27.046  22.023   5.584  0.00  0.00     0.160 HD
BRANCH   3   9
HETATM    9  O   UNK N   1      27.170  19.585   8.286  0.00  0.00    -0.283 OA
HETATM   10  H   UNK N   1      26.989  18.912   8.961  0.00  0.00     0.245 HD
ENDBRANCH   3   9
ENDBRANCH   1   3
BRANCH   1  11
HETATM   11  C   UNK N   1      29.714  17.665   7.121  0.00  0.00     0.009 A 
HETATM   12  S   UNK N   1      30.585  17.886   8.531  0.00  0.00    -0.092 SA
HETATM   13  C   UNK N   1      32.085  17.479   7.961  0.00  0.00     0.015 A 
HETATM   14  C   UNK N   1      31.945  17.150   6.618  0.00  0.00    -0.018 A 
HETATM   15  C   UNK N   1      33.313  17.439   8.611  0.00  0.00     0.019 A 
HETATM   16  C   UNK N   1      30.620  17.250   6.131  0.00  0.00     0.029 A 
HETATM   17  C   UNK N   1      33.051  16.762   5.867  0.00  0.00     0.013 A 
HETATM   18  C   UNK N   1      34.307  16.712   6.496  0.00  0.00     0.001 A 
HETATM   19  C   UNK N   1      34.437  17.048   7.860  0.00  0.00     0.001 A 
ENDBRANCH   1  11
TORSDOF 3
ENDMDL
MODEL 9
REMARK VINA RESULT:      -5.4      6.453      7.997
REMARK  3 active torsions:
REMARK  status: ('A' for Active; 'I' for Inactive)
REMARK    1  A    between atoms: O_2  and  N_4 
REMARK    2  A    between atoms: N_4  and  C_6 
REMARK       I    between atoms: N_4  and  C_16 
REMARK       I    between atoms: N_5  and  C_16 
REMARK    3  A    between atoms: C_6  and  C_7 
ROOT
HETATM    1  C   UNK N   1      20.618  17.555   3.709  0.00  0.00     0.155 C 
HETATM    2  C   UNK N   1      20.200  16.835   4.988  0.00  0.00     0.041 C 
ENDROOT
BRANCH   1   3
HETATM    3  N   UNK N   1      19.726  17.626   2.542  0.00  0.00    -0.201 N 
HETATM    4  C   UNK N   1      19.901  16.876   1.413  0.00  0.00     0.340 C 
HETATM    5  O   UNK N   1      20.829  16.091   1.310  0.00  0.00    -0.245 OA
HETATM    6  N   UNK N   1      19.035  17.002   0.385  0.00  0.00    -0.350 N 
HETATM    7  H   UNK N   1      18.282  17.631   0.451  0.00  0.00     0.160 HD
HETATM    8  H   UNK N   1      19.158  16.464  -0.430  0.00  0.00     0.160 HD
BRANCH   3   9
HETATM    9  O   UNK N   1      18.680  18.466   2.574  0.00  0.00    -0.283 OA
HETATM   10  H   UNK N   1      18.136  18.533   3.374  0.00  0.00     0.245 HD
ENDBRANCH   3   9
ENDBRANCH   1   3
BRANCH   1  11
HETATM   11  C   UNK N   1      21.977  18.209   3.641  0.00  0.00     0.009 A 
HETATM   12  S   UNK N   1      22.314  19.756   3.102  0.00  0.00    -0.092 SA
HETATM   13  C   UNK N   1      23.954  19.742   3.322  0.00  0.00     0.015 A 
HETATM   14  C   UNK N   1      24.296  18.497   3.837  0.00  0.00    -0.018 A 
HETATM   15  C   UNK N   1      24.903  20.728   3.075  0.00  0.00     0.019 A 
HETATM   16  C   UNK N   1      23.197  17.624   4.021  0.00  0.00     0.029 A 
HETATM   17  C   UNK N   1      25.623  18.191   4.126  0.00  0.00     0.013 A 
HETATM   18  C   UNK N   1      26.605  19.168   3.886  0.00  0.00     0.001 A 
HETATM   19  C   UNK N   1      26.247  20.429   3.364  0.00  0.00     0.001 A 
ENDBRANCH   1  11
TORSDOF 3
ENDMDL
