MODEL 1
REMARK VINA RESULT:      -6.4      0.000      0.000
REMARK  4 active torsions:
REMARK  status: ('A' for Active; 'I' for Inactive)
REMARK    1  A    between atoms: O_7  and  C_12 
REMARK    2  A    between atoms: O_8  and  C_13 
REMARK    3  A    between atoms: C_9  and  C_10 
REMARK    4  A    between atoms: C_9  and  C_11 
ROOT
HETATM    1  C   UNK N   1      28.711  23.642  -3.408  0.00  0.00     0.086 C 
ENDROOT
BRANCH   1   2
HETATM    2  C   UNK N   1      28.591  25.068  -3.956  0.00  0.00     0.004 A 
HETATM    3  C   UNK N   1      29.625  26.022  -3.788  0.00  0.00     0.095 A 
HETATM    4  C   UNK N   1      29.460  27.339  -4.242  0.00  0.00     0.069 A 
HETATM    5 Cl   UNK N   1      30.722  28.538  -4.013  0.00  0.00    -0.081 Cl
HETATM    6  C   UNK N   1      28.275  27.726  -4.855  0.00  0.00     0.052 A 
HETATM    7  C   UNK N   1      27.235  26.818  -5.011  0.00  0.00     0.058 A 
HETATM    8 Cl   UNK N   1      25.745  27.380  -5.757  0.00  0.00    -0.082 Cl
HETATM    9  C   UNK N   1      27.376  25.492  -4.557  0.00  0.00     0.065 A 
HETATM   10 Cl   UNK N   1      26.002  24.406  -4.708  0.00  0.00    -0.082 Cl
BRANCH   3  11
HETATM   11  O   UNK N   1      30.764  25.700  -3.162  0.00  0.00    -0.358 OA
HETATM   12  H   UNK N   1      31.542  25.530  -3.656  0.00  0.00     0.217 HD
ENDBRANCH   3  11
ENDBRANCH   1   2
BRANCH   1  13
HETATM   13  C   UNK N   1      29.840  22.721  -3.876  0.00  0.00     0.004 A 
HETATM   14  C   UNK N   1      30.911  22.371  -3.018  0.00  0.00     0.095 A 
HETATM   15  C   UNK N   1      31.901  21.473  -3.445  0.00  0.00     0.069 A 
HETATM   16 Cl   UNK N   1      33.227  21.025  -2.386  0.00  0.00    -0.081 Cl
HETATM   17  C   UNK N   1      31.829  20.897  -4.706  0.00  0.00     0.052 A 
HETATM   18  C   UNK N   1      30.772  21.195  -5.556  0.00  0.00     0.058 A 
HETATM   19 Cl   UNK N   1      30.706  20.388  -7.118  0.00  0.00    -0.082 Cl
HETATM   20  C   UNK N   1      29.771  22.099  -5.152  0.00  0.00     0.065 A 
HETATM   21 Cl   UNK N   1      28.423  22.390  -6.242  0.00  0.00    -0.082 Cl
BRANCH  14  22
HETATM   22  O   UNK N   1      30.979  22.858  -1.771  0.00  0.00    -0.358 OA
HETATM   23  H   UNK N   1      30.786  23.757  -1.586  0.00  0.00     0.217 HD
ENDBRANCH  14  22
ENDBRANCH   1  13
TORSDOF 4
ENDMDL
MODEL 2
REMARK VINA RESULT:      -6.4     10.043     13.095
REMARK  4 active torsions:
REMARK  status: ('A' for Active; 'I' for Inactive)
REMARK    1  A    between atoms: O_7  and  C_12 
REMARK    2  A    between atoms: O_8  and  C_13 
REMARK    3  A    between atoms: C_9  and  C_10 
REMARK    4  A    between atoms: C_9  and  C_11 
ROOT
HETATM    1  C   UNK N   1      28.817  17.389   6.013  0.00  0.00     0.086 C 
ENDROOT
BRANCH   1   2
HETATM    2  C   UNK N   1      30.341  17.381   5.859  0.00  0.00     0.004 A 
HETATM    3  C   UNK N   1      30.964  17.175   4.602  0.00  0.00     0.095 A 
HETATM    4  C   UNK N   1      32.362  17.107   4.503  0.00  0.00     0.069 A 
HETATM    5 Cl   UNK N   1      33.143  16.821   2.957  0.00  0.00    -0.081 Cl
HETATM    6  C   UNK N   1      33.152  17.233   5.638  0.00  0.00     0.052 A 
HETATM    7  C   UNK N   1      32.568  17.412   6.885  0.00  0.00     0.058 A 
HETATM    8 Cl   UNK N   1      33.622  17.522   8.289  0.00  0.00    -0.082 Cl
HETATM    9  C   UNK N   1      31.167  17.476   7.011  0.00  0.00     0.065 A 
HETATM   10 Cl   UNK N   1      30.477  17.625   8.621  0.00  0.00    -0.082 Cl
BRANCH   3  11
HETATM   11  O   UNK N   1      30.234  17.003   3.492  0.00  0.00    -0.358 OA
HETATM   12  H   UNK N   1      30.314  17.605   2.779  0.00  0.00     0.217 HD
ENDBRANCH   3  11
ENDBRANCH   1   2
BRANCH   1  13
HETATM   13  C   UNK N   1      28.018  18.675   5.787  0.00  0.00     0.004 A 
HETATM   14  C   UNK N   1      27.594  19.062   4.492  0.00  0.00     0.095 A 
HETATM   15  C   UNK N   1      26.807  20.210   4.314  0.00  0.00     0.069 A 
HETATM   16 Cl   UNK N   1      26.268  20.694   2.716  0.00  0.00    -0.081 Cl
HETATM   17  C   UNK N   1      26.413  20.967   5.410  0.00  0.00     0.052 A 
HETATM   18  C   UNK N   1      26.785  20.591   6.694  0.00  0.00     0.058 A 
HETATM   19 Cl   UNK N   1      26.205  21.558   8.045  0.00  0.00    -0.082 Cl
HETATM   20  C   UNK N   1      27.581  19.447   6.896  0.00  0.00     0.065 A 
HETATM   21 Cl   UNK N   1      27.968  18.983   8.547  0.00  0.00    -0.082 Cl
BRANCH  14  22
HETATM   22  O   UNK N   1      27.902  18.321   3.418  0.00  0.00    -0.358 OA
HETATM   23  H   UNK N   1      28.771  17.996   3.281  0.00  0.00     0.217 HD
ENDBRANCH  14  22
ENDBRANCH   1  13
TORSDOF 4
ENDMDL
MODEL 3
REMARK VINA RESULT:      -6.3     12.268     15.496
REMARK  4 active torsions:
REMARK  status: ('A' for Active; 'I' for Inactive)
REMARK    1  A    between atoms: O_7  and  C_12 
REMARK    2  A    between atoms: O_8  and  C_13 
REMARK    3  A    between atoms: C_9  and  C_10 
REMARK    4  A    between atoms: C_9  and  C_11 
ROOT
HETATM    1  C   UNK N   1      33.601  17.455   6.983  0.00  0.00     0.086 C 
ENDROOT
BRANCH   1   2
HETATM    2  C   UNK N   1      34.421  16.362   7.675  0.00  0.00     0.004 A 
HETATM    3  C   UNK N   1      34.750  16.434   9.052  0.00  0.00     0.095 A 
HETATM    4  C   UNK N   1      35.558  15.452   9.644  0.00  0.00     0.069 A 
HETATM    5 Cl   UNK N   1      35.997  15.547  11.341  0.00  0.00    -0.081 Cl
HETATM    6  C   UNK N   1      36.054  14.401   8.883  0.00  0.00     0.052 A 
HETATM    7  C   UNK N   1      35.768  14.318   7.527  0.00  0.00     0.058 A 
HETATM    8 Cl   UNK N   1      36.461  12.986   6.610  0.00  0.00    -0.082 Cl
HETATM    9  C   UNK N   1      34.965  15.296   6.910  0.00  0.00     0.065 A 
HETATM   10 Cl   UNK N   1      34.698  15.187   5.176  0.00  0.00    -0.082 Cl
BRANCH   3  11
HETATM   11  O   UNK N   1      34.328  17.456   9.808  0.00  0.00    -0.358 OA
HETATM   12  H   UNK N   1      34.852  18.228   9.891  0.00  0.00     0.217 HD
ENDBRANCH   3  11
ENDBRANCH   1   2
BRANCH   1  13
HETATM   13  C   UNK N   1      32.090  17.295   6.800  0.00  0.00     0.004 A 
HETATM   14  C   UNK N   1      31.201  17.366   7.901  0.00  0.00     0.095 A 
HETATM   15  C   UNK N   1      29.815  17.282   7.703  0.00  0.00     0.069 A 
HETATM   16 Cl   UNK N   1      28.704  17.379   9.059  0.00  0.00    -0.081 Cl
HETATM   17  C   UNK N   1      29.295  17.155   6.422  0.00  0.00     0.052 A 
HETATM   18  C   UNK N   1      30.140  17.118   5.321  0.00  0.00     0.058 A 
HETATM   19 Cl   UNK N   1      29.418  17.014   3.720  0.00  0.00    -0.082 Cl
HETATM   20  C   UNK N   1      31.536  17.192   5.495  0.00  0.00     0.065 A 
HETATM   21 Cl   UNK N   1      32.555  17.205   4.063  0.00  0.00    -0.082 Cl
BRANCH  14  22
HETATM   22  O   UNK N   1      31.663  17.552   9.146  0.00  0.00    -0.358 OA
HETATM   23  H   UNK N   1      32.581  17.522   9.336  0.00  0.00     0.217 HD
ENDBRANCH  14  22
ENDBRANCH   1  13
TORSDOF 4
ENDMDL
MODEL 4
REMARK VINA RESULT:      -6.1     13.842     15.582
REMARK  4 active torsions:
REMARK  status: ('A' for Active; 'I' for Inactive)
REMARK    1  A    between atoms: O_7  and  C_12 
REMARK    2  A    between atoms: O_8  and  C_13 
REMARK    3  A    between atoms: C_9  and  C_10 
REMARK    4  A    between atoms: C_9  and  C_11 
ROOT
HETATM    1  C   UNK N   1      22.324  16.823   5.138  0.00  0.00     0.086 C 
ENDROOT
BRANCH   1   2
HETATM    2  C   UNK N   1      21.589  16.469   6.435  0.00  0.00     0.004 A 
HETATM    3  C   UNK N   1      20.894  17.447   7.190  0.00  0.00     0.095 A 
HETATM    4  C   UNK N   1      20.286  17.107   8.408  0.00  0.00     0.069 A 
HETATM    5 Cl   UNK N   1      19.449  18.316   9.367  0.00  0.00    -0.081 Cl
HETATM    6  C   UNK N   1      20.364  15.807   8.892  0.00  0.00     0.052 A 
HETATM    7  C   UNK N   1      21.059  14.834   8.184  0.00  0.00     0.058 A 
HETATM    8 Cl   UNK N   1      21.158  13.218   8.871  0.00  0.00    -0.082 Cl
HETATM    9  C   UNK N   1      21.683  15.154   6.963  0.00  0.00     0.065 A 
HETATM   10 Cl   UNK N   1      22.615  13.906   6.148  0.00  0.00    -0.082 Cl
BRANCH   3  11
HETATM   11  O   UNK N   1      20.835  18.721   6.780  0.00  0.00    -0.358 OA
HETATM   12  H   UNK N   1      21.072  19.415   7.363  0.00  0.00     0.217 HD
ENDBRANCH   3  11
ENDBRANCH   1   2
BRANCH   1  13
HETATM   13  C   UNK N   1      21.542  17.195   3.877  0.00  0.00     0.004 A 
HETATM   14  C   UNK N   1      21.393  18.545   3.472  0.00  0.00     0.095 A 
HETATM   15  C   UNK N   1      20.728  18.860   2.277  0.00  0.00     0.069 A 
HETATM   16 Cl   UNK N   1      20.546  20.528   1.761  0.00  0.00    -0.081 Cl
HETATM   17  C   UNK N   1      20.231  17.851   1.463  0.00  0.00     0.052 A 
HETATM   18  C   UNK N   1      20.393  16.518   1.818  0.00  0.00     0.058 A 
HETATM   19 Cl   UNK N   1      19.793  15.284   0.716  0.00  0.00    -0.082 Cl
HETATM   20  C   UNK N   1      21.050  16.178   3.016  0.00  0.00     0.065 A 
HETATM   21 Cl   UNK N   1      21.284  14.475   3.383  0.00  0.00    -0.082 Cl
BRANCH  14  22
HETATM   22  O   UNK N   1      21.915  19.542   4.200  0.00  0.00    -0.358 OA
HETATM   23  H   UNK N   1      22.752  19.910   3.994  0.00  0.00     0.217 HD
ENDBRANCH  14  22
ENDBRANCH   1  13
TORSDOF 4
ENDMDL
MODEL 5
REMARK VINA RESULT:      -5.9     12.308     14.935
REMARK  4 active torsions:
REMARK  status: ('A' for Active; 'I' for Inactive)
REMARK    1  A    between atoms: O_7  and  C_12 
REMARK    2  A    between atoms: O_8  and  C_13 
REMARK    3  A    between atoms: C_9  and  C_10 
REMARK    4  A    between atoms: C_9  and  C_11 
ROOT
HETATM    1  C   UNK N   1      33.929  17.466   7.093  0.00  0.00     0.086 C 
ENDROOT
BRANCH   1   2
HETATM    2  C   UNK N   1      32.417  17.409   6.852  0.00  0.00     0.004 A 
HETATM    3  C   UNK N   1      31.490  17.413   7.924  0.00  0.00     0.095 A 
HETATM    4  C   UNK N   1      30.114  17.293   7.677  0.00  0.00     0.069 A 
HETATM    5 Cl   UNK N   1      28.958  17.266   8.998  0.00  0.00    -0.081 Cl
HETATM    6  C   UNK N   1      29.645  17.159   6.376  0.00  0.00     0.052 A 
HETATM    7  C   UNK N   1      30.532  17.127   5.308  0.00  0.00     0.058 A 
HETATM    8 Cl   UNK N   1      29.879  16.913   3.689  0.00  0.00    -0.082 Cl
HETATM    9  C   UNK N   1      31.918  17.239   5.533  0.00  0.00     0.065 A 
HETATM   10 Cl   UNK N   1      33.002  17.115   4.155  0.00  0.00    -0.082 Cl
BRANCH   3  11
HETATM   11  O   UNK N   1      31.906  17.495   9.195  0.00  0.00    -0.358 OA
HETATM   12  H   UNK N   1      31.293  17.408   9.898  0.00  0.00     0.217 HD
ENDBRANCH   3  11
ENDBRANCH   1   2
BRANCH   1  13
HETATM   13  C   UNK N   1      34.642  16.335   7.837  0.00  0.00     0.004 A 
HETATM   14  C   UNK N   1      34.878  16.403   9.232  0.00  0.00     0.095 A 
HETATM   15  C   UNK N   1      35.475  15.327   9.906  0.00  0.00     0.069 A 
HETATM   16 Cl   UNK N   1      35.762  15.397  11.637  0.00  0.00    -0.081 Cl
HETATM   17  C   UNK N   1      35.819  14.172   9.218  0.00  0.00     0.052 A 
HETATM   18  C   UNK N   1      35.568  14.064   7.856  0.00  0.00     0.058 A 
HETATM   19 Cl   UNK N   1      35.974  12.552   7.052  0.00  0.00    -0.082 Cl
HETATM   20  C   UNK N   1      34.977  15.133   7.157  0.00  0.00     0.065 A 
HETATM   21 Cl   UNK N   1      34.624  14.918   5.449  0.00  0.00    -0.082 Cl
BRANCH  14  22
HETATM   22  O   UNK N   1      34.501  17.477   9.941  0.00  0.00    -0.358 OA
HETATM   23  H   UNK N   1      33.697  17.487  10.423  0.00  0.00     0.217 HD
ENDBRANCH  14  22
ENDBRANCH   1  13
TORSDOF 4
ENDMDL
MODEL 6
REMARK VINA RESULT:      -5.9     14.372     17.238
REMARK  4 active torsions:
REMARK  status: ('A' for Active; 'I' for Inactive)
REMARK    1  A    between atoms: O_7  and  C_12 
REMARK    2  A    between atoms: O_8  and  C_13 
REMARK    3  A    between atoms: C_9  and  C_10 
REMARK    4  A    between atoms: C_9  and  C_11 
ROOT
HETATM    1  C   UNK N   1      33.469  13.733   8.923  0.00  0.00     0.086 C 
ENDROOT
BRANCH   1   2
HETATM    2  C   UNK N   1      32.929  15.074   8.418  0.00  0.00     0.004 A 
HETATM    3  C   UNK N   1      31.892  15.765   9.096  0.00  0.00     0.095 A 
HETATM    4  C   UNK N   1      31.372  16.959   8.573  0.00  0.00     0.069 A 
HETATM    5 Cl   UNK N   1      30.067  17.806   9.387  0.00  0.00    -0.081 Cl
HETATM    6  C   UNK N   1      31.862  17.474   7.380  0.00  0.00     0.052 A 
HETATM    7  C   UNK N   1      32.860  16.806   6.683  0.00  0.00     0.058 A 
HETATM    8 Cl   UNK N   1      33.408  17.487   5.156  0.00  0.00    -0.082 Cl
HETATM    9  C   UNK N   1      33.393  15.603   7.184  0.00  0.00     0.065 A 
HETATM   10 Cl   UNK N   1      34.598  14.758   6.224  0.00  0.00    -0.082 Cl
BRANCH   3  11
HETATM   11  O   UNK N   1      31.363  15.277  10.225  0.00  0.00    -0.358 OA
HETATM   12  H   UNK N   1      31.903  15.141  10.978  0.00  0.00     0.217 HD
ENDBRANCH   3  11
ENDBRANCH   1   2
BRANCH   1  13
HETATM   13  C   UNK N   1      34.781  13.668   9.709  0.00  0.00     0.004 A 
HETATM   14  C   UNK N   1      34.892  14.226  11.006  0.00  0.00     0.095 A 
HETATM   15  C   UNK N   1      36.084  14.099  11.736  0.00  0.00     0.069 A 
HETATM   16 Cl   UNK N   1      36.229  14.778  13.348  0.00  0.00    -0.081 Cl
HETATM   17  C   UNK N   1      37.161  13.402  11.205  0.00  0.00     0.052 A 
HETATM   18  C   UNK N   1      37.068  12.815   9.950  0.00  0.00     0.058 A 
HETATM   19 Cl   UNK N   1      38.446  11.896   9.357  0.00  0.00    -0.082 Cl
HETATM   20  C   UNK N   1      35.885  12.936   9.196  0.00  0.00     0.065 A 
HETATM   21 Cl   UNK N   1      35.800  12.119   7.642  0.00  0.00    -0.082 Cl
BRANCH  14  22
HETATM   22  O   UNK N   1      33.852  14.851  11.577  0.00  0.00    -0.358 OA
HETATM   23  H   UNK N   1      33.805  15.787  11.615  0.00  0.00     0.217 HD
ENDBRANCH  14  22
ENDBRANCH   1  13
TORSDOF 4
ENDMDL
MODEL 7
REMARK VINA RESULT:      -5.8     20.163     21.876
REMARK  4 active torsions:
REMARK  status: ('A' for Active; 'I' for Inactive)
REMARK    1  A    between atoms: O_7  and  C_12 
REMARK    2  A    between atoms: O_8  and  C_13 
REMARK    3  A    between atoms: C_9  and  C_10 
REMARK    4  A    between atoms: C_9  and  C_11 
ROOT
HETATM    1  C   UNK N   1      35.117  12.994  11.784  0.00  0.00     0.086 C 
ENDROOT
BRANCH   1   2
HETATM    2  C   UNK N   1      35.962  12.243  10.750  0.00  0.00     0.004 A 
HETATM    3  C   UNK N   1      37.329  12.550  10.538  0.00  0.00     0.095 A 
HETATM    4  C   UNK N   1      38.061  11.890   9.539  0.00  0.00     0.069 A 
HETATM    5 Cl   UNK N   1      39.747  12.284   9.246  0.00  0.00    -0.081 Cl
HETATM    6  C   UNK N   1      37.450  10.933   8.739  0.00  0.00     0.052 A 
HETATM    7  C   UNK N   1      36.105  10.629   8.909  0.00  0.00     0.058 A 
HETATM    8 Cl   UNK N   1      35.379   9.439   7.836  0.00  0.00    -0.082 Cl
HETATM    9  C   UNK N   1      35.349  11.283   9.901  0.00  0.00     0.065 A 
HETATM   10 Cl   UNK N   1      33.634  10.918  10.022  0.00  0.00    -0.082 Cl
BRANCH   3  11
HETATM   11  O   UNK N   1      37.942  13.498  11.258  0.00  0.00    -0.358 OA
HETATM   12  H   UNK N   1      37.471  14.261  11.530  0.00  0.00     0.217 HD
ENDBRANCH   3  11
ENDBRANCH   1   2
BRANCH   1  13
HETATM   13  C   UNK N   1      35.461  12.919  13.273  0.00  0.00     0.004 A 
HETATM   14  C   UNK N   1      36.167  13.963  13.920  0.00  0.00     0.095 A 
HETATM   15  C   UNK N   1      36.415  13.906  15.300  0.00  0.00     0.069 A 
HETATM   16 Cl   UNK N   1      37.279  15.198  16.115  0.00  0.00    -0.081 Cl
HETATM   17  C   UNK N   1      35.950  12.836  16.053  0.00  0.00     0.052 A 
HETATM   18  C   UNK N   1      35.225  11.815  15.451  0.00  0.00     0.058 A 
HETATM   19 Cl   UNK N   1      34.613  10.516  16.468  0.00  0.00    -0.082 Cl
HETATM   20  C   UNK N   1      34.971  11.848  14.067  0.00  0.00     0.065 A 
HETATM   21 Cl   UNK N   1      33.995  10.563  13.369  0.00  0.00    -0.082 Cl
BRANCH  14  22
HETATM   22  O   UNK N   1      36.576  15.043  13.238  0.00  0.00    -0.358 OA
HETATM   23  H   UNK N   1      36.912  15.800  13.678  0.00  0.00     0.217 HD
ENDBRANCH  14  22
ENDBRANCH   1  13
TORSDOF 4
ENDMDL
MODEL 8
REMARK VINA RESULT:      -5.7     10.432     12.897
REMARK  4 active torsions:
REMARK  status: ('A' for Active; 'I' for Inactive)
REMARK    1  A    between atoms: O_7  and  C_12 
REMARK    2  A    between atoms: O_8  and  C_13 
REMARK    3  A    between atoms: C_9  and  C_10 
REMARK    4  A    between atoms: C_9  and  C_11 
ROOT
HETATM    1  C   UNK N   1      28.422  17.072   6.112  0.00  0.00     0.086 C 
ENDROOT
BRANCH   1   2
HETATM    2  C   UNK N   1      29.946  17.211   6.031  0.00  0.00     0.004 A 
HETATM    3  C   UNK N   1      30.631  17.203   4.790  0.00  0.00     0.095 A 
HETATM    4  C   UNK N   1      32.032  17.266   4.749  0.00  0.00     0.069 A 
HETATM    5 Cl   UNK N   1      32.893  17.224   3.219  0.00  0.00    -0.081 Cl
HETATM    6  C   UNK N   1      32.765  17.329   5.927  0.00  0.00     0.052 A 
HETATM    7  C   UNK N   1      32.121  17.315   7.158  0.00  0.00     0.058 A 
HETATM    8 Cl   UNK N   1      33.108  17.354   8.613  0.00  0.00    -0.082 Cl
HETATM    9  C   UNK N   1      30.716  17.245   7.223  0.00  0.00     0.065 A 
HETATM   10 Cl   UNK N   1      29.956  17.151   8.806  0.00  0.00    -0.082 Cl
BRANCH   3  11
HETATM   11  O   UNK N   1      29.962  17.097   3.634  0.00  0.00    -0.358 OA
HETATM   12  H   UNK N   1      30.416  17.169   2.818  0.00  0.00     0.217 HD
ENDBRANCH   3  11
ENDBRANCH   1   2
BRANCH   1  13
HETATM   13  C   UNK N   1      27.512  18.245   5.740  0.00  0.00     0.004 A 
HETATM   14  C   UNK N   1      27.475  19.426   6.521  0.00  0.00     0.095 A 
HETATM   15  C   UNK N   1      26.683  20.515   6.127  0.00  0.00     0.069 A 
HETATM   16 Cl   UNK N   1      26.636  21.988   7.081  0.00  0.00    -0.081 Cl
HETATM   17  C   UNK N   1      25.946  20.458   4.951  0.00  0.00     0.052 A 
HETATM   18  C   UNK N   1      25.991  19.326   4.148  0.00  0.00     0.058 A 
HETATM   19 Cl   UNK N   1      25.081  19.337   2.642  0.00  0.00    -0.082 Cl
HETATM   20  C   UNK N   1      26.772  18.218   4.528  0.00  0.00     0.065 A 
HETATM   21 Cl   UNK N   1      26.843  16.837   3.442  0.00  0.00    -0.082 Cl
BRANCH  14  22
HETATM   22  O   UNK N   1      28.222  19.542   7.629  0.00  0.00    -0.358 OA
HETATM   23  H   UNK N   1      27.888  19.301   8.471  0.00  0.00     0.217 HD
ENDBRANCH  14  22
ENDBRANCH   1  13
TORSDOF 4
ENDMDL
MODEL 9
REMARK VINA RESULT:      -5.7     17.678     21.201
REMARK  4 active torsions:
REMARK  status: ('A' for Active; 'I' for Inactive)
REMARK    1  A    between atoms: O_7  and  C_12 
REMARK    2  A    between atoms: O_8  and  C_13 
REMARK    3  A    between atoms: C_9  and  C_10 
REMARK    4  A    between atoms: C_9  and  C_11 
ROOT
HETATM    1  C   UNK N   1      37.380  13.225  11.261  0.00  0.00     0.086 C 
ENDROOT
BRANCH   1   2
HETATM    2  C   UNK N   1      37.098  12.654  12.655  0.00  0.00     0.004 A 
HETATM    3  C   UNK N   1      36.699  13.481  13.734  0.00  0.00     0.095 A 
HETATM    4  C   UNK N   1      36.513  12.940  15.015  0.00  0.00     0.069 A 
HETATM    5 Cl   UNK N   1      36.049  13.960  16.367  0.00  0.00    -0.081 Cl
HETATM    6  C   UNK N   1      36.725  11.586  15.242  0.00  0.00     0.052 A 
HETATM    7  C   UNK N   1      37.140  10.756  14.208  0.00  0.00     0.058 A 
HETATM    8 Cl   UNK N   1      37.433   9.060  14.569  0.00  0.00    -0.082 Cl
HETATM    9  C   UNK N   1      37.340  11.279  12.916  0.00  0.00     0.065 A 
HETATM   10 Cl   UNK N   1      37.940  10.202  11.662  0.00  0.00    -0.082 Cl
BRANCH   3  11
HETATM   11  O   UNK N   1      36.529  14.799  13.565  0.00  0.00    -0.358 OA
HETATM   12  H   UNK N   1      35.734  15.127  13.194  0.00  0.00     0.217 HD
ENDBRANCH   3  11
ENDBRANCH   1   2
BRANCH   1  13
HETATM   13  C   UNK N   1      36.245  13.805  10.414  0.00  0.00     0.004 A 
HETATM   14  C   UNK N   1      36.072  15.203  10.271  0.00  0.00     0.095 A 
HETATM   15  C   UNK N   1      35.065  15.714   9.437  0.00  0.00     0.069 A 
HETATM   16 Cl   UNK N   1      34.847  17.445   9.245  0.00  0.00    -0.081 Cl
HETATM   17  C   UNK N   1      34.243  14.854   8.721  0.00  0.00     0.052 A 
HETATM   18  C   UNK N   1      34.413  13.479   8.815  0.00  0.00     0.058 A 
HETATM   19 Cl   UNK N   1      33.378  12.443   7.839  0.00  0.00    -0.082 Cl
HETATM   20  C   UNK N   1      35.411  12.943   9.652  0.00  0.00     0.065 A 
HETATM   21 Cl   UNK N   1      35.624  11.199   9.683  0.00  0.00    -0.082 Cl
BRANCH  14  22
HETATM   22  O   UNK N   1      36.887  16.065  10.897  0.00  0.00    -0.358 OA
HETATM   23  H   UNK N   1      36.719  16.987  10.892  0.00  0.00     0.217 HD
ENDBRANCH  14  22
ENDBRANCH   1  13
TORSDOF 4
ENDMDL
