MODEL 1
REMARK VINA RESULT:      -6.7      0.000      0.000
REMARK  7 active torsions:
REMARK  status: ('A' for Active; 'I' for Inactive)
REMARK    1  A    between atoms: O_1  and  C_11 
REMARK    2  A    between atoms: O_1  and  C_24 
REMARK    3  A    between atoms: O_3  and  C_20 
REMARK    4  A    between atoms: O_4  and  C_21 
REMARK       I    between atoms: N_7  and  C_17 
REMARK    5  A    between atoms: N_7  and  C_22 
REMARK    6  A    between atoms: N_7  and  C_23 
REMARK    7  A    between atoms: C_9  and  C_17 
ROOT
HETATM    1  N   UNK N   1      27.949  17.878   7.347  0.00  0.00     0.098 N 
HETATM    2  C   UNK N   1      28.869  16.789   6.928  0.00  0.00     0.259 C 
HETATM    3  C   UNK N   1      27.416  18.412   4.964  0.00  0.00     0.136 C 
HETATM    4  C   UNK N   1      28.552  16.256   5.525  0.00  0.00     0.074 C 
HETATM    5  C   UNK N   1      28.508  17.424   4.546  0.00  0.00     0.149 C 
HETATM    6  C   UNK N   1      27.810  18.947   6.347  0.00  0.00     0.290 C 
HETATM    7  C   UNK N   1      28.291  18.534   8.631  0.00  0.00     0.278 C 
HETATM    8  C   UNK N   1      30.310  17.148   7.174  0.00  0.00    -0.016 A 
HETATM    9  C   UNK N   1      29.489  17.920   9.373  0.00  0.00     0.069 C 
HETATM   10  C   UNK N   1      30.609  17.712   8.410  0.00  0.00    -0.045 A 
HETATM   11  C   UNK N   1      31.325  16.944   6.233  0.00  0.00     0.049 A 
HETATM   12  C   UNK N   1      31.917  18.082   8.719  0.00  0.00     0.047 A 
HETATM   13  C   UNK N   1      32.653  17.299   6.536  0.00  0.00     0.102 A 
HETATM   14  C   UNK N   1      32.951  17.872   7.785  0.00  0.00     0.102 A 
ENDROOT
BRANCH   3  15
HETATM   15  C   UNK N   1      25.981  17.908   4.699  0.00  0.00     0.228 C 
HETATM   16  O   UNK N   1      25.786  16.714   4.875  0.00  0.00    -0.273 OA
HETATM   17  N   UNK N   1      24.935  18.693   4.262  0.00  0.00    -0.352 N 
BRANCH  17  18
HETATM   18  C   UNK N   1      23.627  18.106   4.045  0.00  0.00     0.121 C 
HETATM   19  C   UNK N   1      22.762  18.241   5.286  0.00  0.00     0.026 C 
ENDBRANCH  17  18
BRANCH  17  20
HETATM   20  C   UNK N   1      25.049  20.112   4.049  0.00  0.00     0.121 C 
HETATM   21  C   UNK N   1      25.238  20.414   2.574  0.00  0.00     0.026 C 
ENDBRANCH  17  20
ENDBRANCH   3  15
BRANCH   5  22
HETATM   22  O   UNK N   1      28.367  16.997   3.242  0.00  0.00    -0.315 OA
BRANCH  22  23
HETATM   23  C   UNK N   1      29.258  16.162   2.649  0.00  0.00     0.255 C 
HETATM   24  O   UNK N   1      30.442  16.456   2.576  0.00  0.00    -0.266 OA
HETATM   25  C   UNK N   1      28.784  14.881   2.057  0.00  0.00     0.126 C 
ENDBRANCH  22  23
ENDBRANCH   5  22
BRANCH  13  26
HETATM   26  O   UNK N   1      33.655  17.090   5.647  0.00  0.00    -0.353 OA
HETATM   27  C   UNK N   1      34.222  15.855   5.424  0.00  0.00     0.210 C 
ENDBRANCH  13  26
BRANCH  14  28
HETATM   28  O   UNK N   1      34.233  18.207   8.071  0.00  0.00    -0.353 OA
HETATM   29  C   UNK N   1      34.976  17.583   9.048  0.00  0.00     0.210 C 
ENDBRANCH  14  28
TORSDOF 7
ENDMDL
MODEL 2
REMARK VINA RESULT:      -6.6      2.360      8.001
REMARK  7 active torsions:
REMARK  status: ('A' for Active; 'I' for Inactive)
REMARK    1  A    between atoms: O_1  and  C_11 
REMARK    2  A    between atoms: O_1  and  C_24 
REMARK    3  A    between atoms: O_3  and  C_20 
REMARK    4  A    between atoms: O_4  and  C_21 
REMARK       I    between atoms: N_7  and  C_17 
REMARK    5  A    between atoms: N_7  and  C_22 
REMARK    6  A    between atoms: N_7  and  C_23 
REMARK    7  A    between atoms: C_9  and  C_17 
ROOT
HETATM    1  N   UNK N   1      27.514  19.204   4.291  0.00  0.00     0.098 N 
HETATM    2  C   UNK N   1      26.637  18.122   3.773  0.00  0.00     0.259 C 
HETATM    3  C   UNK N   1      27.943  17.919   6.392  0.00  0.00     0.136 C 
HETATM    4  C   UNK N   1      26.936  16.762   4.417  0.00  0.00     0.074 C 
HETATM    5  C   UNK N   1      26.889  16.908   5.933  0.00  0.00     0.149 C 
HETATM    6  C   UNK N   1      27.567  19.266   5.759  0.00  0.00     0.290 C 
HETATM    7  C   UNK N   1      27.181  20.568   3.817  0.00  0.00     0.278 C 
HETATM    8  C   UNK N   1      25.189  18.531   3.765  0.00  0.00    -0.016 A 
HETATM    9  C   UNK N   1      26.039  20.635   2.788  0.00  0.00     0.069 C 
HETATM   10  C   UNK N   1      24.901  19.796   3.264  0.00  0.00    -0.045 A 
HETATM   11  C   UNK N   1      24.156  17.712   4.233  0.00  0.00     0.049 A 
HETATM   12  C   UNK N   1      23.586  20.259   3.227  0.00  0.00     0.047 A 
HETATM   13  C   UNK N   1      22.822  18.159   4.189  0.00  0.00     0.102 A 
HETATM   14  C   UNK N   1      22.535  19.440   3.684  0.00  0.00     0.102 A 
ENDROOT
BRANCH   3  15
HETATM   15  C   UNK N   1      29.392  17.394   6.310  0.00  0.00     0.228 C 
HETATM   16  O   UNK N   1      29.837  17.201   5.188  0.00  0.00    -0.273 OA
HETATM   17  N   UNK N   1      30.192  17.108   7.397  0.00  0.00    -0.352 N 
BRANCH  17  18
HETATM   18  C   UNK N   1      31.541  16.616   7.196  0.00  0.00     0.121 C 
HETATM   19  C   UNK N   1      31.947  15.678   8.319  0.00  0.00     0.026 C 
ENDBRANCH  17  18
BRANCH  17  20
HETATM   20  C   UNK N   1      29.778  17.322   8.758  0.00  0.00     0.121 C 
HETATM   21  C   UNK N   1      30.138  18.725   9.210  0.00  0.00     0.026 C 
ENDBRANCH  17  20
ENDBRANCH   3  15
BRANCH   5  22
HETATM   22  O   UNK N   1      27.010  15.690   6.570  0.00  0.00    -0.315 OA
BRANCH  22  23
HETATM   23  C   UNK N   1      26.107  14.690   6.407  0.00  0.00     0.255 C 
HETATM   24  O   UNK N   1      26.441  13.614   5.933  0.00  0.00    -0.266 OA
HETATM   25  C   UNK N   1      24.686  14.912   6.788  0.00  0.00     0.126 C 
ENDBRANCH  22  23
ENDBRANCH   5  22
BRANCH  13  26
HETATM   26  O   UNK N   1      21.804  17.372   4.617  0.00  0.00    -0.353 OA
HETATM   27  C   UNK N   1      21.587  17.073   5.944  0.00  0.00     0.210 C 
ENDBRANCH  13  26
BRANCH  14  28
HETATM   28  O   UNK N   1      21.248  19.861   3.641  0.00  0.00    -0.353 OA
HETATM   29  C   UNK N   1      20.760  20.698   2.662  0.00  0.00     0.210 C 
ENDBRANCH  14  28
TORSDOF 7
ENDMDL
MODEL 3
REMARK VINA RESULT:      -6.3      3.450      8.297
REMARK  7 active torsions:
REMARK  status: ('A' for Active; 'I' for Inactive)
REMARK    1  A    between atoms: O_1  and  C_11 
REMARK    2  A    between atoms: O_1  and  C_24 
REMARK    3  A    between atoms: O_3  and  C_20 
REMARK    4  A    between atoms: O_4  and  C_21 
REMARK       I    between atoms: N_7  and  C_17 
REMARK    5  A    between atoms: N_7  and  C_22 
REMARK    6  A    between atoms: N_7  and  C_23 
REMARK    7  A    between atoms: C_9  and  C_17 
ROOT
HETATM    1  N   UNK N   1      31.959  16.907   8.543  0.00  0.00     0.098 N 
HETATM    2  C   UNK N   1      32.653  17.469   7.355  0.00  0.00     0.259 C 
HETATM    3  C   UNK N   1      33.754  15.194   8.844  0.00  0.00     0.136 C 
HETATM    4  C   UNK N   1      34.155  17.158   7.348  0.00  0.00     0.074 C 
HETATM    5  C   UNK N   1      34.353  15.655   7.512  0.00  0.00     0.149 C 
HETATM    6  C   UNK N   1      32.250  15.484   8.775  0.00  0.00     0.290 C 
HETATM    7  C   UNK N   1      30.484  17.048   8.538  0.00  0.00     0.278 C 
HETATM    8  C   UNK N   1      31.920  17.156   6.079  0.00  0.00    -0.016 A 
HETATM    9  C   UNK N   1      29.913  17.838   7.348  0.00  0.00     0.069 C 
HETATM   10  C   UNK N   1      30.543  17.350   6.087  0.00  0.00    -0.045 A 
HETATM   11  C   UNK N   1      32.554  16.688   4.922  0.00  0.00     0.049 A 
HETATM   12  C   UNK N   1      29.784  17.077   4.950  0.00  0.00     0.047 A 
HETATM   13  C   UNK N   1      31.804  16.422   3.762  0.00  0.00     0.102 A 
HETATM   14  C   UNK N   1      30.410  16.616   3.775  0.00  0.00     0.102 A 
ENDROOT
BRANCH   3  15
HETATM   15  C   UNK N   1      34.577  15.616  10.080  0.00  0.00     0.228 C 
HETATM   16  O   UNK N   1      34.627  16.815  10.314  0.00  0.00    -0.273 OA
HETATM   17  N   UNK N   1      35.267  14.751  10.904  0.00  0.00    -0.352 N 
BRANCH  17  18
HETATM   18  C   UNK N   1      36.009  15.266  12.037  0.00  0.00     0.121 C 
HETATM   19  C   UNK N   1      35.897  14.329  13.228  0.00  0.00     0.026 C 
ENDBRANCH  17  18
BRANCH  17  20
HETATM   20  C   UNK N   1      35.255  13.323  10.733  0.00  0.00     0.121 C 
HETATM   21  C   UNK N   1      36.424  12.880   9.873  0.00  0.00     0.026 C 
ENDBRANCH  17  20
ENDBRANCH   3  15
BRANCH   5  22
HETATM   22  O   UNK N   1      35.677  15.293   7.372  0.00  0.00    -0.315 OA
BRANCH  22  23
HETATM   23  C   UNK N   1      36.130  14.589   6.303  0.00  0.00     0.255 C 
HETATM   24  O   UNK N   1      37.189  14.877   5.765  0.00  0.00    -0.266 OA
HETATM   25  C   UNK N   1      35.316  13.466   5.763  0.00  0.00     0.126 C 
ENDBRANCH  22  23
ENDBRANCH   5  22
BRANCH  13  26
HETATM   26  O   UNK N   1      32.401  15.989   2.624  0.00  0.00    -0.353 OA
HETATM   27  C   UNK N   1      33.554  15.236   2.616  0.00  0.00     0.210 C 
ENDBRANCH  13  26
BRANCH  14  28
HETATM   28  O   UNK N   1      29.696  16.362   2.652  0.00  0.00    -0.353 OA
HETATM   29  C   UNK N   1      28.802  15.320   2.546  0.00  0.00     0.210 C 
ENDBRANCH  14  28
TORSDOF 7
ENDMDL
MODEL 4
REMARK VINA RESULT:      -6.2     13.078     16.160
REMARK  7 active torsions:
REMARK  status: ('A' for Active; 'I' for Inactive)
REMARK    1  A    between atoms: O_1  and  C_11 
REMARK    2  A    between atoms: O_1  and  C_24 
REMARK    3  A    between atoms: O_3  and  C_20 
REMARK    4  A    between atoms: O_4  and  C_21 
REMARK       I    between atoms: N_7  and  C_17 
REMARK    5  A    between atoms: N_7  and  C_22 
REMARK    6  A    between atoms: N_7  and  C_23 
REMARK    7  A    between atoms: C_9  and  C_17 
ROOT
HETATM    1  N   UNK N   1      26.659  25.991  -3.875  0.00  0.00     0.098 N 
HETATM    2  C   UNK N   1      25.762  26.472  -4.958  0.00  0.00     0.259 C 
HETATM    3  C   UNK N   1      28.201  27.927  -4.224  0.00  0.00     0.136 C 
HETATM    4  C   UNK N   1      25.907  27.977  -5.219  0.00  0.00     0.074 C 
HETATM    5  C   UNK N   1      27.377  28.301  -5.459  0.00  0.00     0.149 C 
HETATM    6  C   UNK N   1      28.059  26.410  -4.041  0.00  0.00     0.290 C 
HETATM    7  C   UNK N   1      26.672  24.523  -3.673  0.00  0.00     0.278 C 
HETATM    8  C   UNK N   1      25.836  25.593  -6.177  0.00  0.00    -0.016 A 
HETATM    9  C   UNK N   1      25.684  23.739  -4.552  0.00  0.00     0.069 C 
HETATM   10  C   UNK N   1      25.791  24.220  -5.960  0.00  0.00    -0.045 A 
HETATM   11  C   UNK N   1      25.946  26.092  -7.480  0.00  0.00     0.049 A 
HETATM   12  C   UNK N   1      25.862  23.333  -7.033  0.00  0.00     0.047 A 
HETATM   13  C   UNK N   1      26.004  25.210  -8.574  0.00  0.00     0.102 A 
HETATM   14  C   UNK N   1      25.962  23.821  -8.350  0.00  0.00     0.102 A 
ENDROOT
BRANCH   3  15
HETATM   15  C   UNK N   1      28.004  28.881  -3.027  0.00  0.00     0.228 C 
HETATM   16  O   UNK N   1      26.905  28.860  -2.492  0.00  0.00    -0.273 OA
HETATM   17  N   UNK N   1      28.956  29.756  -2.548  0.00  0.00    -0.352 N 
BRANCH  17  18
HETATM   18  C   UNK N   1      28.654  30.608  -1.414  0.00  0.00     0.121 C 
HETATM   19  C   UNK N   1      29.025  29.924  -0.110  0.00  0.00     0.026 C 
ENDBRANCH  17  18
BRANCH  17  20
HETATM   20  C   UNK N   1      30.287  29.844  -3.086  0.00  0.00     0.121 C 
HETATM   21  C   UNK N   1      31.161  28.737  -2.528  0.00  0.00     0.026 C 
ENDBRANCH  17  20
ENDBRANCH   3  15
BRANCH   5  22
HETATM   22  O   UNK N   1      27.558  29.615  -5.839  0.00  0.00    -0.315 OA
BRANCH  22  23
HETATM   23  C   UNK N   1      28.642  30.027  -6.544  0.00  0.00     0.255 C 
HETATM   24  O   UNK N   1      29.226  31.060  -6.252  0.00  0.00    -0.266 OA
HETATM   25  C   UNK N   1      29.113  29.222  -7.705  0.00  0.00     0.126 C 
ENDBRANCH  22  23
ENDBRANCH   5  22
BRANCH  13  26
HETATM   26  O   UNK N   1      26.090  25.673  -9.846  0.00  0.00    -0.353 OA
HETATM   27  C   UNK N   1      25.011  26.165 -10.546  0.00  0.00     0.210 C 
ENDBRANCH  13  26
BRANCH  14  28
HETATM   28  O   UNK N   1      26.013  22.978  -9.410  0.00  0.00    -0.353 OA
HETATM   29  C   UNK N   1      26.045  21.607  -9.282  0.00  0.00     0.210 C 
ENDBRANCH  14  28
TORSDOF 7
ENDMDL
MODEL 5
REMARK VINA RESULT:      -6.2     10.096     13.781
REMARK  7 active torsions:
REMARK  status: ('A' for Active; 'I' for Inactive)
REMARK    1  A    between atoms: O_1  and  C_11 
REMARK    2  A    between atoms: O_1  and  C_24 
REMARK    3  A    between atoms: O_3  and  C_20 
REMARK    4  A    between atoms: O_4  and  C_21 
REMARK       I    between atoms: N_7  and  C_17 
REMARK    5  A    between atoms: N_7  and  C_22 
REMARK    6  A    between atoms: N_7  and  C_23 
REMARK    7  A    between atoms: C_9  and  C_17 
ROOT
HETATM    1  N   UNK N   1      35.532  13.438  15.705  0.00  0.00     0.098 N 
HETATM    2  C   UNK N   1      34.538  12.343  15.845  0.00  0.00     0.259 C 
HETATM    3  C   UNK N   1      36.461  12.397  13.631  0.00  0.00     0.136 C 
HETATM    4  C   UNK N   1      34.250  11.634  14.516  0.00  0.00     0.074 C 
HETATM    5  C   UNK N   1      35.567  11.183  13.896  0.00  0.00     0.149 C 
HETATM    6  C   UNK N   1      36.755  13.035  14.994  0.00  0.00     0.290 C 
HETATM    7  C   UNK N   1      35.962  14.067  16.976  0.00  0.00     0.278 C 
HETATM    8  C   UNK N   1      34.862  11.439  17.005  0.00  0.00    -0.016 A 
HETATM    9  C   UNK N   1      35.241  13.550  18.232  0.00  0.00     0.069 C 
HETATM   10  C   UNK N   1      35.210  12.059  18.200  0.00  0.00    -0.045 A 
HETATM   11  C   UNK N   1      34.830  10.043  16.924  0.00  0.00     0.049 A 
HETATM   12  C   UNK N   1      35.533  11.298  19.323  0.00  0.00     0.047 A 
HETATM   13  C   UNK N   1      35.139   9.260  18.052  0.00  0.00     0.102 A 
HETATM   14  C   UNK N   1      35.493   9.891  19.259  0.00  0.00     0.102 A 
ENDROOT
BRANCH   3  15
HETATM   15  C   UNK N   1      35.997  13.268  12.444  0.00  0.00     0.228 C 
HETATM   16  O   UNK N   1      35.055  14.017  12.657  0.00  0.00    -0.273 OA
HETATM   17  N   UNK N   1      36.545  13.238  11.178  0.00  0.00    -0.352 N 
BRANCH  17  18
HETATM   18  C   UNK N   1      36.023  14.103  10.139  0.00  0.00     0.121 C 
HETATM   19  C   UNK N   1      35.166  13.318   9.161  0.00  0.00     0.026 C 
ENDBRANCH  17  18
BRANCH  17  20
HETATM   20  C   UNK N   1      37.670  12.413  10.827  0.00  0.00     0.121 C 
HETATM   21  C   UNK N   1      38.788  13.257  10.245  0.00  0.00     0.026 C 
ENDBRANCH  17  20
ENDBRANCH   3  15
BRANCH   5  22
HETATM   22  O   UNK N   1      35.368  10.414  12.768  0.00  0.00    -0.315 OA
BRANCH  22  23
HETATM   23  C   UNK N   1      35.220   9.066  12.822  0.00  0.00     0.255 C 
HETATM   24  O   UNK N   1      34.520   8.477  12.011  0.00  0.00    -0.266 OA
HETATM   25  C   UNK N   1      35.901   8.294  13.897  0.00  0.00     0.126 C 
ENDBRANCH  22  23
ENDBRANCH   5  22
BRANCH  13  26
HETATM   26  O   UNK N   1      35.093   7.906  18.001  0.00  0.00    -0.353 OA
HETATM   27  C   UNK N   1      36.100   7.136  17.463  0.00  0.00     0.210 C 
ENDBRANCH  13  26
BRANCH  14  28
HETATM   28  O   UNK N   1      35.785   9.131  20.342  0.00  0.00    -0.353 OA
HETATM   29  C   UNK N   1      35.162   9.283  21.561  0.00  0.00     0.210 C 
ENDBRANCH  14  28
TORSDOF 7
ENDMDL
MODEL 6
REMARK VINA RESULT:      -6.1      5.330      9.765
REMARK  7 active torsions:
REMARK  status: ('A' for Active; 'I' for Inactive)
REMARK    1  A    between atoms: O_1  and  C_11 
REMARK    2  A    between atoms: O_1  and  C_24 
REMARK    3  A    between atoms: O_3  and  C_20 
REMARK    4  A    between atoms: O_4  and  C_21 
REMARK       I    between atoms: N_7  and  C_17 
REMARK    5  A    between atoms: N_7  and  C_22 
REMARK    6  A    between atoms: N_7  and  C_23 
REMARK    7  A    between atoms: C_9  and  C_17 
ROOT
HETATM    1  N   UNK N   1      35.118  15.609   9.698  0.00  0.00     0.098 N 
HETATM    2  C   UNK N   1      34.889  14.917   8.403  0.00  0.00     0.259 C 
HETATM    3  C   UNK N   1      34.538  13.535  10.966  0.00  0.00     0.136 C 
HETATM    4  C   UNK N   1      35.023  13.394   8.517  0.00  0.00     0.074 C 
HETATM    5  C   UNK N   1      34.119  12.896   9.639  0.00  0.00     0.149 C 
HETATM    6  C   UNK N   1      34.338  15.048  10.811  0.00  0.00     0.290 C 
HETATM    7  C   UNK N   1      34.862  17.069   9.687  0.00  0.00     0.278 C 
HETATM    8  C   UNK N   1      33.642  15.409   7.719  0.00  0.00    -0.016 A 
HETATM    9  C   UNK N   1      34.491  17.652   8.313  0.00  0.00     0.069 C 
HETATM   10  C   UNK N   1      33.455  16.787   7.678  0.00  0.00    -0.045 A 
HETATM   11  C   UNK N   1      32.692  14.557   7.145  0.00  0.00     0.049 A 
HETATM   12  C   UNK N   1      32.323  17.328   7.071  0.00  0.00     0.047 A 
HETATM   13  C   UNK N   1      31.551  15.088   6.516  0.00  0.00     0.102 A 
HETATM   14  C   UNK N   1      31.364  16.482   6.479  0.00  0.00     0.102 A 
ENDROOT
BRANCH   3  15
HETATM   15  C   UNK N   1      35.857  12.975  11.541  0.00  0.00     0.228 C 
HETATM   16  O   UNK N   1      36.881  13.288  10.952  0.00  0.00    -0.273 OA
HETATM   17  N   UNK N   1      35.952  12.142  12.636  0.00  0.00    -0.352 N 
BRANCH  17  18
HETATM   18  C   UNK N   1      37.249  11.676  13.084  0.00  0.00     0.121 C 
HETATM   19  C   UNK N   1      37.372  11.788  14.594  0.00  0.00     0.026 C 
ENDBRANCH  17  18
BRANCH  17  20
HETATM   20  C   UNK N   1      34.814  11.733  13.416  0.00  0.00     0.121 C 
HETATM   21  C   UNK N   1      34.297  10.388  12.939  0.00  0.00     0.026 C 
ENDBRANCH  17  20
ENDBRANCH   3  15
BRANCH   5  22
HETATM   22  O   UNK N   1      34.086  11.519   9.700  0.00  0.00    -0.315 OA
BRANCH  22  23
HETATM   23  C   UNK N   1      33.165  10.782   9.028  0.00  0.00     0.255 C 
HETATM   24  O   UNK N   1      32.017  10.689   9.434  0.00  0.00    -0.266 OA
HETATM   25  C   UNK N   1      33.565  10.057   7.790  0.00  0.00     0.126 C 
ENDBRANCH  22  23
ENDBRANCH   5  22
BRANCH  13  26
HETATM   26  O   UNK N   1      30.629  14.281   5.936  0.00  0.00    -0.353 OA
HETATM   27  C   UNK N   1      30.842  13.626   4.743  0.00  0.00     0.210 C 
ENDBRANCH  13  26
BRANCH  14  28
HETATM   28  O   UNK N   1      30.265  16.987   5.867  0.00  0.00    -0.353 OA
HETATM   29  C   UNK N   1      29.173  17.467   6.554  0.00  0.00     0.210 C 
ENDBRANCH  14  28
TORSDOF 7
ENDMDL
MODEL 7
REMARK VINA RESULT:      -6.0      2.537      7.588
REMARK  7 active torsions:
REMARK  status: ('A' for Active; 'I' for Inactive)
REMARK    1  A    between atoms: O_1  and  C_11 
REMARK    2  A    between atoms: O_1  and  C_24 
REMARK    3  A    between atoms: O_3  and  C_20 
REMARK    4  A    between atoms: O_4  and  C_21 
REMARK       I    between atoms: N_7  and  C_17 
REMARK    5  A    between atoms: N_7  and  C_22 
REMARK    6  A    between atoms: N_7  and  C_23 
REMARK    7  A    between atoms: C_9  and  C_17 
ROOT
HETATM    1  N   UNK N   1      28.737  15.436   4.386  0.00  0.00     0.098 N 
HETATM    2  C   UNK N   1      28.120  16.264   5.455  0.00  0.00     0.259 C 
HETATM    3  C   UNK N   1      31.026  16.169   5.071  0.00  0.00     0.136 C 
HETATM    4  C   UNK N   1      29.091  16.562   6.605  0.00  0.00     0.074 C 
HETATM    5  C   UNK N   1      30.370  17.162   6.034  0.00  0.00     0.149 C 
HETATM    6  C   UNK N   1      30.034  15.948   3.922  0.00  0.00     0.290 C 
HETATM    7  C   UNK N   1      27.898  15.235   3.181  0.00  0.00     0.278 C 
HETATM    8  C   UNK N   1      27.398  17.459   4.892  0.00  0.00    -0.016 A 
HETATM    9  C   UNK N   1      26.485  15.836   3.267  0.00  0.00     0.069 C 
HETATM   10  C   UNK N   1      26.576  17.229   3.794  0.00  0.00    -0.045 A 
HETATM   11  C   UNK N   1      27.524  18.751   5.414  0.00  0.00     0.049 A 
HETATM   12  C   UNK N   1      25.876  18.281   3.204  0.00  0.00     0.047 A 
HETATM   13  C   UNK N   1      26.813  19.820   4.839  0.00  0.00     0.102 A 
HETATM   14  C   UNK N   1      25.984  19.584   3.726  0.00  0.00     0.102 A 
ENDROOT
BRANCH   3  15
HETATM   15  C   UNK N   1      31.694  14.966   5.770  0.00  0.00     0.228 C 
HETATM   16  O   UNK N   1      30.958  14.036   6.068  0.00  0.00    -0.273 OA
HETATM   17  N   UNK N   1      33.031  14.884   6.098  0.00  0.00    -0.352 N 
BRANCH  17  18
HETATM   18  C   UNK N   1      33.545  13.700   6.758  0.00  0.00     0.121 C 
HETATM   19  C   UNK N   1      34.352  12.849   5.793  0.00  0.00     0.026 C 
ENDBRANCH  17  18
BRANCH  17  20
HETATM   20  C   UNK N   1      33.987  15.908   5.772  0.00  0.00     0.121 C 
HETATM   21  C   UNK N   1      34.478  16.598   7.030  0.00  0.00     0.026 C 
ENDBRANCH  17  20
ENDBRANCH   3  15
BRANCH   5  22
HETATM   22  O   UNK N   1      31.229  17.583   7.029  0.00  0.00    -0.315 OA
BRANCH  22  23
HETATM   23  C   UNK N   1      30.945  17.434   8.347  0.00  0.00     0.255 C 
HETATM   24  O   UNK N   1      31.193  16.389   8.930  0.00  0.00    -0.266 OA
HETATM   25  C   UNK N   1      30.300  18.551   9.091  0.00  0.00     0.126 C 
ENDBRANCH  22  23
ENDBRANCH   5  22
BRANCH  13  26
HETATM   26  O   UNK N   1      26.904  21.075   5.343  0.00  0.00    -0.353 OA
HETATM   27  C   UNK N   1      26.527  21.404   6.626  0.00  0.00     0.210 C 
ENDBRANCH  13  26
BRANCH  14  28
HETATM   28  O   UNK N   1      25.299  20.618   3.181  0.00  0.00    -0.353 OA
HETATM   29  C   UNK N   1      23.933  20.611   3.007  0.00  0.00     0.210 C 
ENDBRANCH  14  28
TORSDOF 7
ENDMDL
MODEL 8
REMARK VINA RESULT:      -5.9      2.416      4.431
REMARK  7 active torsions:
REMARK  status: ('A' for Active; 'I' for Inactive)
REMARK    1  A    between atoms: O_1  and  C_11 
REMARK    2  A    between atoms: O_1  and  C_24 
REMARK    3  A    between atoms: O_3  and  C_20 
REMARK    4  A    between atoms: O_4  and  C_21 
REMARK       I    between atoms: N_7  and  C_17 
REMARK    5  A    between atoms: N_7  and  C_22 
REMARK    6  A    between atoms: N_7  and  C_23 
REMARK    7  A    between atoms: C_9  and  C_17 
ROOT
HETATM    1  N   UNK N   1      29.438  14.885   3.810  0.00  0.00     0.098 N 
HETATM    2  C   UNK N   1      30.016  16.253   3.868  0.00  0.00     0.259 C 
HETATM    3  C   UNK N   1      27.840  15.428   5.654  0.00  0.00     0.136 C 
HETATM    4  C   UNK N   1      29.051  17.276   4.481  0.00  0.00     0.074 C 
HETATM    5  C   UNK N   1      28.573  16.761   5.834  0.00  0.00     0.149 C 
HETATM    6  C   UNK N   1      28.863  14.436   5.087  0.00  0.00     0.290 C 
HETATM    7  C   UNK N   1      30.371  13.825   3.362  0.00  0.00     0.278 C 
HETATM    8  C   UNK N   1      31.406  16.249   4.443  0.00  0.00    -0.016 A 
HETATM    9  C   UNK N   1      31.763  14.323   2.937  0.00  0.00     0.069 C 
HETATM   10  C   UNK N   1      32.276  15.276   3.963  0.00  0.00    -0.045 A 
HETATM   11  C   UNK N   1      31.840  17.159   5.414  0.00  0.00     0.049 A 
HETATM   12  C   UNK N   1      33.582  15.195   4.447  0.00  0.00     0.047 A 
HETATM   13  C   UNK N   1      33.159  17.099   5.901  0.00  0.00     0.102 A 
HETATM   14  C   UNK N   1      34.035  16.111   5.417  0.00  0.00     0.102 A 
ENDROOT
BRANCH   3  15
HETATM   15  C   UNK N   1      26.443  15.563   5.014  0.00  0.00     0.228 C 
HETATM   16  O   UNK N   1      26.415  15.888   3.836  0.00  0.00    -0.273 OA
HETATM   17  N   UNK N   1      25.248  15.373   5.676  0.00  0.00    -0.352 N 
BRANCH  17  18
HETATM   18  C   UNK N   1      23.992  15.530   4.968  0.00  0.00     0.121 C 
HETATM   19  C   UNK N   1      23.116  16.569   5.646  0.00  0.00     0.026 C 
ENDBRANCH  17  18
BRANCH  17  20
HETATM   20  C   UNK N   1      25.166  14.966   7.054  0.00  0.00     0.121 C 
HETATM   21  C   UNK N   1      25.090  13.454   7.158  0.00  0.00     0.026 C 
ENDBRANCH  17  20
ENDBRANCH   3  15
BRANCH   5  22
HETATM   22  O   UNK N   1      27.812  17.699   6.501  0.00  0.00    -0.315 OA
BRANCH  22  23
HETATM   23  C   UNK N   1      28.364  18.659   7.286  0.00  0.00     0.255 C 
HETATM   24  O   UNK N   1      28.053  19.833   7.154  0.00  0.00    -0.266 OA
HETATM   25  C   UNK N   1      29.378  18.280   8.308  0.00  0.00     0.126 C 
ENDBRANCH  22  23
ENDBRANCH   5  22
BRANCH  13  26
HETATM   26  O   UNK N   1      33.606  17.984   6.827  0.00  0.00    -0.353 OA
HETATM   27  C   UNK N   1      33.192  17.977   8.140  0.00  0.00     0.210 C 
ENDBRANCH  13  26
BRANCH  14  28
HETATM   28  O   UNK N   1      35.305  16.063   5.888  0.00  0.00    -0.353 OA
HETATM   29  C   UNK N   1      35.819  14.978   6.562  0.00  0.00     0.210 C 
ENDBRANCH  14  28
TORSDOF 7
ENDMDL
MODEL 9
REMARK VINA RESULT:      -5.9     11.548     14.208
REMARK  7 active torsions:
REMARK  status: ('A' for Active; 'I' for Inactive)
REMARK    1  A    between atoms: O_1  and  C_11 
REMARK    2  A    between atoms: O_1  and  C_24 
REMARK    3  A    between atoms: O_3  and  C_20 
REMARK    4  A    between atoms: O_4  and  C_21 
REMARK       I    between atoms: N_7  and  C_17 
REMARK    5  A    between atoms: N_7  and  C_22 
REMARK    6  A    between atoms: N_7  and  C_23 
REMARK    7  A    between atoms: C_9  and  C_17 
ROOT
HETATM    1  N   UNK N   1      29.568  24.696  -3.573  0.00  0.00     0.098 N 
HETATM    2  C   UNK N   1      28.466  23.901  -4.175  0.00  0.00     0.259 C 
HETATM    3  C   UNK N   1      29.021  26.650  -5.033  0.00  0.00     0.136 C 
HETATM    4  C   UNK N   1      27.377  24.780  -4.800  0.00  0.00     0.074 C 
HETATM    5  C   UNK N   1      28.024  25.756  -5.776  0.00  0.00     0.149 C 
HETATM    6  C   UNK N   1      30.110  25.725  -4.473  0.00  0.00     0.290 C 
HETATM    7  C   UNK N   1      30.720  23.907  -3.080  0.00  0.00     0.278 C 
HETATM    8  C   UNK N   1      28.990  22.795  -5.052  0.00  0.00    -0.016 A 
HETATM    9  C   UNK N   1      30.553  22.381  -3.184  0.00  0.00     0.069 C 
HETATM   10  C   UNK N   1      30.037  22.036  -4.540  0.00  0.00    -0.045 A 
HETATM   11  C   UNK N   1      28.479  22.516  -6.324  0.00  0.00     0.049 A 
HETATM   12  C   UNK N   1      30.588  20.997  -5.289  0.00  0.00     0.047 A 
HETATM   13  C   UNK N   1      29.015  21.461  -7.086  0.00  0.00     0.102 A 
HETATM   14  C   UNK N   1      30.076  20.697  -6.567  0.00  0.00     0.102 A 
ENDROOT
BRANCH   3  15
HETATM   15  C   UNK N   1      28.359  27.714  -4.133  0.00  0.00     0.228 C 
HETATM   16  O   UNK N   1      27.628  27.296  -3.247  0.00  0.00    -0.273 OA
HETATM   17  N   UNK N   1      28.513  29.077  -4.276  0.00  0.00    -0.352 N 
BRANCH  17  18
HETATM   18  C   UNK N   1      27.836  29.983  -3.368  0.00  0.00     0.121 C 
HETATM   19  C   UNK N   1      26.467  30.364  -3.904  0.00  0.00     0.026 C 
ENDBRANCH  17  18
BRANCH  17  20
HETATM   20  C   UNK N   1      29.367  29.675  -5.267  0.00  0.00     0.121 C 
HETATM   21  C   UNK N   1      28.656  29.755  -6.604  0.00  0.00     0.026 C 
ENDBRANCH  17  20
ENDBRANCH   3  15
BRANCH   5  22
HETATM   22  O   UNK N   1      27.083  26.481  -6.478  0.00  0.00    -0.315 OA
BRANCH  22  23
HETATM   23  C   UNK N   1      25.760  26.177  -6.450  0.00  0.00     0.255 C 
HETATM   24  O   UNK N   1      25.324  25.216  -7.066  0.00  0.00    -0.266 OA
HETATM   25  C   UNK N   1      24.824  27.039  -5.678  0.00  0.00     0.126 C 
ENDBRANCH  22  23
ENDBRANCH   5  22
BRANCH  13  26
HETATM   26  O   UNK N   1      28.521  21.160  -8.313  0.00  0.00    -0.353 OA
HETATM   27  C   UNK N   1      27.183  20.944  -8.556  0.00  0.00     0.210 C 
ENDBRANCH  13  26
BRANCH  14  28
HETATM   28  O   UNK N   1      30.584  19.681  -7.305  0.00  0.00    -0.353 OA
HETATM   29  C   UNK N   1      31.855  19.693  -7.834  0.00  0.00     0.210 C 
ENDBRANCH  14  28
TORSDOF 7
ENDMDL
