REMARK  7 active torsions:
REMARK  status: ('A' for Active; 'I' for Inactive)
REMARK    1  A    between atoms: O_1  and  C_11 
REMARK    2  A    between atoms: O_1  and  C_24 
REMARK    3  A    between atoms: O_3  and  C_20 
REMARK    4  A    between atoms: O_4  and  C_21 
REMARK       I    between atoms: N_7  and  C_17 
REMARK    5  A    between atoms: N_7  and  C_22 
REMARK    6  A    between atoms: N_7  and  C_23 
REMARK    7  A    between atoms: C_9  and  C_17 
ROOT
HETATM    1  N   UNK N   1       4.607  -1.524  -0.390  0.00  0.00     0.098 N 
HETATM    2  C   UNK N   1       4.535  -0.221  -1.101  0.00  0.00     0.259 C 
HETATM    3  C   UNK N   1       2.601  -0.942   0.983  0.00  0.00     0.136 C 
HETATM    4  C   UNK N   1       3.131   0.395  -1.063  0.00  0.00     0.074 C 
HETATM    5  C   UNK N   1       2.657   0.466   0.384  0.00  0.00     0.149 C 
HETATM    6  C   UNK N   1       4.035  -1.487   0.964  0.00  0.00     0.290 C 
HETATM    7  C   UNK N   1       5.966  -2.101  -0.266  0.00  0.00     0.278 C 
HETATM    8  C   UNK N   1       5.657   0.698  -0.699  0.00  0.00    -0.016 A 
HETATM    9  C   UNK N   1       7.075  -1.306  -0.976  0.00  0.00     0.069 C 
HETATM   10  C   UNK N   1       6.930   0.141  -0.644  0.00  0.00    -0.045 A 
HETATM   11  C   UNK N   1       5.470   2.049  -0.386  0.00  0.00     0.049 A 
HETATM   12  C   UNK N   1       8.026   0.919  -0.273  0.00  0.00     0.047 A 
HETATM   13  C   UNK N   1       6.568   2.851  -0.024  0.00  0.00     0.102 A 
HETATM   14  C   UNK N   1       7.854   2.283   0.034  0.00  0.00     0.102 A 
ENDROOT
BRANCH   3  15
HETATM   15  C   UNK N   1       1.431  -1.800   0.457  0.00  0.00     0.228 C 
HETATM   16  O   UNK N   1       0.308  -1.349   0.629  0.00  0.00    -0.273 OA
HETATM   17  N   UNK N   1       1.564  -3.028  -0.157  0.00  0.00    -0.352 N 
BRANCH  17  18
HETATM   18  C   UNK N   1       0.388  -3.745  -0.609  0.00  0.00     0.121 C 
HETATM   19  C   UNK N   1      -0.378  -4.324   0.568  0.00  0.00     0.026 C 
ENDBRANCH  17  18
BRANCH  17  20
HETATM   20  C   UNK N   1       2.838  -3.638  -0.431  0.00  0.00     0.121 C 
HETATM   21  C   UNK N   1       3.146  -4.711   0.596  0.00  0.00     0.026 C 
ENDBRANCH  17  20
ENDBRANCH   3  15
BRANCH   5  22
HETATM   22  O   UNK N   1       1.459   1.140   0.500  0.00  0.00    -0.315 OA
BRANCH  22  23
HETATM   23  C   UNK N   1       1.366   2.488   0.370  0.00  0.00     0.255 C 
HETATM   24  O   UNK N   1       2.364   3.173   0.201  0.00  0.00    -0.266 OA
HETATM   25  C   UNK N   1       0.033   3.145   0.457  0.00  0.00     0.126 C 
ENDBRANCH  22  23
ENDBRANCH   5  22
BRANCH  13  26
HETATM   26  O   UNK N   1       6.412   4.167   0.263  0.00  0.00    -0.353 OA
HETATM   27  C   UNK N   1       5.200   4.817   0.193  0.00  0.00     0.210 C 
ENDBRANCH  13  26
BRANCH  14  28
HETATM   28  O   UNK N   1       8.907   3.063   0.379  0.00  0.00    -0.353 OA
HETATM   29  C   UNK N   1      10.203   2.601   0.432  0.00  0.00     0.210 C 
ENDBRANCH  14  28
TORSDOF 7
