MODEL 1
REMARK VINA RESULT:      -7.0      0.000      0.000
REMARK  18 active torsions:
REMARK  status: ('A' for Active; 'I' for Inactive)
REMARK    1  A    between atoms: C_1  and  O_13 
REMARK    2  A    between atoms: C_4  and  O_16 
REMARK    3  A    between atoms: C_11  and  O_37 
REMARK    4  A    between atoms: C_12  and  C_49 
REMARK    5  A    between atoms: C_15  and  O_13 
REMARK    6  A    between atoms: C_20  and  O_16 
REMARK    7  A    between atoms: C_17  and  O_23 
REMARK    8  A    between atoms: C_22  and  N_31 
REMARK    9  A    between atoms: N_25  and  O_42 
REMARK   10  A    between atoms: C_38  and  O_40 
REMARK   11  A    between atoms: C_41  and  O_51 
REMARK   12  A    between atoms: O_42  and  C_43 
REMARK   13  A    between atoms: C_43  and  O_44 
REMARK   14  A    between atoms: O_44  and  C_45 
REMARK   15  A    between atoms: C_45  and  C_46 
REMARK   16  A    between atoms: C_46  and  O_47 
REMARK   17  A    between atoms: C_54  and  O_56 
REMARK   18  A    between atoms: C_55  and  O_57 
ROOT
HETATM    1  C   UNK N   1      28.141  16.478   5.902  0.00  0.00     0.165 C 
HETATM    2  C   UNK N   1      27.899  15.429   4.777  0.00  0.00     0.043 C 
HETATM    3  C   UNK N   1      30.649  15.733   6.263  0.00  0.00     0.050 C 
HETATM    4  C   UNK N   1      26.483  14.785   4.801  0.00  0.00     0.144 C 
HETATM    5  C   UNK N   1      31.202  15.541   4.838  0.00  0.00     0.033 C 
HETATM    6  C   UNK N   1      26.296  13.605   3.809  0.00  0.00     0.111 C 
HETATM    7  C   UNK N   1      32.368  14.566   4.837  0.00  0.00     0.020 C 
HETATM    8  C   UNK N   1      27.333  12.521   3.905  0.00  0.00     0.265 C 
HETATM    9  C   UNK N   1      32.129  13.121   4.444  0.00  0.00     0.061 C 
HETATM   10  O   UNK N   1      28.135  12.295   2.830  0.00  0.00    -0.312 OA
HETATM   11  C   UNK N   1      30.687  12.837   3.973  0.00  0.00     0.164 C 
HETATM   12  C   UNK N   1      29.103  11.322   2.651  0.00  0.00     0.168 C 
HETATM   13  C   UNK N   1      28.337  15.907   3.399  0.00  0.00     0.015 C 
HETATM   14  C   UNK N   1      31.477  16.790   4.009  0.00  0.00     0.016 C 
HETATM   15  C   UNK N   1      26.163  14.096   2.371  0.00  0.00     0.023 C 
HETATM   16  N   UNK N   1      33.588  14.914   5.140  0.00  0.00    -0.272 N 
ATOM     17  HN  UNK N   1      34.297  14.181   5.118  1.00  0.00     0.193 HD
HETATM   18  O   UNK N   1      27.442  11.862   4.928  0.00  0.00    -0.265 OA
HETATM   19  C   UNK N   1      32.531  12.207   5.595  0.00  0.00     0.019 C 
HETATM   20  C   UNK N   1      30.391  11.393   3.504  0.00  0.00     0.107 C 
HETATM   21  C   UNK N   1      29.549  16.779   6.485  0.00  0.00     0.081 C 
HETATM   22  C   UNK N   1      31.519  10.885   2.617  0.00  0.00     0.051 C 
HETATM   23  C   UNK N   1      29.372  16.887   7.986  0.00  0.00     0.049 C 
ENDROOT
BRANCH   1  24
HETATM   24  O   UNK N   1      27.273  17.602   5.993  0.00  0.00    -0.350 OA
BRANCH  24  25
HETATM   25  C   UNK N   1      27.921  18.797   5.607  0.00  0.00     0.291 C 
HETATM   26  C   UNK N   1      27.371  19.325   4.279  0.00  0.00     0.206 C 
HETATM   27  C   UNK N   1      26.005  20.030   4.436  0.00  0.00     0.257 C 
HETATM   28  C   UNK N   1      25.584  20.107   5.904  0.00  0.00     0.070 C 
HETATM   29  C   UNK N   1      26.761  20.544   6.777  0.00  0.00     0.122 C 
HETATM   30  O   UNK N   1      27.957  19.782   6.636  0.00  0.00    -0.354 OA
HETATM   31  C   UNK N   1      27.058  22.020   6.598  0.00  0.00     0.040 C 
BRANCH  26  32
HETATM   32  O   UNK N   1      28.281  20.229   3.733  0.00  0.00    -0.388 OA
HETATM   33  H   UNK N   1      29.133  20.682   3.627  0.00  0.00     0.210 HD
ENDBRANCH  26  32
BRANCH  27  34
HETATM   34  N   UNK N   1      24.919  19.424   3.653  0.00  0.00     0.087 N 
HETATM   35  C   UNK N   1      24.422  20.446   2.746  0.00  0.00     0.310 C 
HETATM   36  C   UNK N   1      25.401  18.350   2.797  0.00  0.00     0.310 C 
ENDBRANCH  27  34
ENDBRANCH  24  25
ENDBRANCH   1  24
BRANCH  21  37
HETATM   37  O   UNK N   1      30.012  18.010   6.041  0.00  0.00    -0.388 OA
HETATM   38  H   UNK N   1      30.216  18.831   6.517  0.00  0.00     0.210 HD
ENDBRANCH  21  37
BRANCH   4  39
HETATM   39  O   UNK N   1      25.462  15.738   4.587  0.00  0.00    -0.355 OA
BRANCH  39  40
HETATM   40  C   UNK N   1      24.770  15.877   5.806  0.00  0.00     0.263 C 
HETATM   41  C   UNK N   1      24.039  14.585   6.244  0.00  0.00     0.101 C 
HETATM   42  C   UNK N   1      22.726  14.347   5.459  0.00  0.00     0.089 C 
HETATM   43  C   UNK N   1      21.914  15.652   5.422  0.00  0.00     0.181 C 
HETATM   44  C   UNK N   1      23.074  13.987   4.023  0.00  0.00     0.049 C 
HETATM   45  C   UNK N   1      22.827  16.779   4.916  0.00  0.00     0.152 C 
HETATM   46  O   UNK N   1      23.907  17.004   5.804  0.00  0.00    -0.354 OA
HETATM   47  C   UNK N   1      22.022  18.049   4.740  0.00  0.00     0.042 C 
BRANCH  42  48
HETATM   48  O   UNK N   1      21.959  13.257   5.949  0.00  0.00    -0.383 OA
HETATM   49  C   UNK N   1      22.620  12.588   6.994  0.00  0.00     0.202 C 
ENDBRANCH  42  48
BRANCH  43  50
HETATM   50  O   UNK N   1      21.418  15.979   6.689  0.00  0.00    -0.390 OA
HETATM   51  H   UNK N   1      21.523  15.887   7.649  0.00  0.00     0.210 HD
ENDBRANCH  43  50
ENDBRANCH  39  40
ENDBRANCH   4  39
BRANCH  16  52
HETATM   52  O   UNK N   1      33.990  16.130   5.473  0.00  0.00    -0.255 OA
BRANCH  52  53
HETATM   53  C   UNK N   1      34.313  16.525   6.754  0.00  0.00     0.369 C 
BRANCH  53  54
HETATM   54  O   UNK N   1      34.546  17.902   6.757  0.00  0.00    -0.363 OA
BRANCH  54  55
HETATM   55  C   UNK N   1      34.270  18.323   8.058  0.00  0.00     0.196 C 
BRANCH  55  56
HETATM   56  C   UNK N   1      34.541  17.188   9.031  0.00  0.00     0.193 C 
BRANCH  56  57
HETATM   57  O   UNK N   1      35.422  17.618  10.026  0.00  0.00    -0.394 OA
HETATM   58  C   UNK N   1      35.547  16.528  10.889  0.00  0.00     0.201 C 
ENDBRANCH  56  57
ENDBRANCH  55  56
ENDBRANCH  54  55
ENDBRANCH  53  54
ENDBRANCH  52  53
ENDBRANCH  16  52
BRANCH  11  59
HETATM   59  O   UNK N   1      29.803  13.169   5.001  0.00  0.00    -0.392 OA
HETATM   60  H   UNK N   1      29.179  13.881   5.214  0.00  0.00     0.210 HD
ENDBRANCH  11  59
BRANCH  12  61
HETATM   61  C   UNK N   1      28.550   9.937   2.305  0.00  0.00     0.031 C 
HETATM   62  C   UNK N   1      27.504   9.985   1.206  0.00  0.00     0.007 C 
ENDBRANCH  12  61
BRANCH  20  63
HETATM   63  O   UNK N   1      30.284  10.555   4.617  0.00  0.00    -0.385 OA
HETATM   64  H   UNK N   1      30.122  10.285   5.535  0.00  0.00     0.210 HD
ENDBRANCH  20  63
TORSDOF 18
ENDMDL
MODEL 2
REMARK VINA RESULT:      -6.8      4.170      9.618
REMARK  18 active torsions:
REMARK  status: ('A' for Active; 'I' for Inactive)
REMARK    1  A    between atoms: C_1  and  O_13 
REMARK    2  A    between atoms: C_4  and  O_16 
REMARK    3  A    between atoms: C_11  and  O_37 
REMARK    4  A    between atoms: C_12  and  C_49 
REMARK    5  A    between atoms: C_15  and  O_13 
REMARK    6  A    between atoms: C_20  and  O_16 
REMARK    7  A    between atoms: C_17  and  O_23 
REMARK    8  A    between atoms: C_22  and  N_31 
REMARK    9  A    between atoms: N_25  and  O_42 
REMARK   10  A    between atoms: C_38  and  O_40 
REMARK   11  A    between atoms: C_41  and  O_51 
REMARK   12  A    between atoms: O_42  and  C_43 
REMARK   13  A    between atoms: C_43  and  O_44 
REMARK   14  A    between atoms: O_44  and  C_45 
REMARK   15  A    between atoms: C_45  and  C_46 
REMARK   16  A    between atoms: C_46  and  O_47 
REMARK   17  A    between atoms: C_54  and  O_56 
REMARK   18  A    between atoms: C_55  and  O_57 
ROOT
HETATM    1  C   UNK N   1      24.450  13.369   3.817  0.00  0.00     0.165 C 
HETATM    2  C   UNK N   1      24.055  13.206   5.313  0.00  0.00     0.043 C 
HETATM    3  C   UNK N   1      23.264  15.719   3.605  0.00  0.00     0.050 C 
HETATM    4  C   UNK N   1      23.682  11.750   5.718  0.00  0.00     0.144 C 
HETATM    5  C   UNK N   1      23.643  16.459   4.903  0.00  0.00     0.033 C 
HETATM    6  C   UNK N   1      23.104  11.609   7.153  0.00  0.00     0.111 C 
HETATM    7  C   UNK N   1      22.610  17.522   5.241  0.00  0.00     0.020 C 
HETATM    8  C   UNK N   1      21.950  12.521   7.468  0.00  0.00     0.265 C 
HETATM    9  C   UNK N   1      21.540  17.217   6.272  0.00  0.00     0.061 C 
HETATM   10  O   UNK N   1      22.108  13.450   8.447  0.00  0.00    -0.312 OA
HETATM   11  C   UNK N   1      21.709  15.842   6.952  0.00  0.00     0.164 C 
HETATM   12  C   UNK N   1      21.185  14.345   8.960  0.00  0.00     0.168 C 
HETATM   13  C   UNK N   1      25.023  13.884   6.274  0.00  0.00     0.015 C 
HETATM   14  C   UNK N   1      25.076  16.964   5.038  0.00  0.00     0.016 C 
HETATM   15  C   UNK N   1      24.193  11.737   8.212  0.00  0.00     0.023 C 
HETATM   16  N   UNK N   1      22.607  18.709   4.701  0.00  0.00    -0.272 N 
ATOM     17  HN  UNK N   1      21.863  19.346   4.989  1.00  0.00     0.193 HD
HETATM   18  O   UNK N   1      20.898  12.418   6.854  0.00  0.00    -0.265 OA
HETATM   19  C   UNK N   1      20.164  17.361   5.634  0.00  0.00     0.019 C 
HETATM   20  C   UNK N   1      20.682  15.493   8.054  0.00  0.00     0.107 C 
HETATM   21  C   UNK N   1      24.253  14.696   3.033  0.00  0.00     0.081 C 
HETATM   22  C   UNK N   1      20.459  16.691   8.967  0.00  0.00     0.051 C 
HETATM   23  C   UNK N   1      23.711  14.308   1.672  0.00  0.00     0.049 C 
ENDROOT
BRANCH   1  24
HETATM   24  O   UNK N   1      25.532  12.600   3.303  0.00  0.00    -0.350 OA
BRANCH  24  25
HETATM   25  C   UNK N   1      26.724  12.823   4.028  0.00  0.00     0.291 C 
HETATM   26  C   UNK N   1      27.629  11.587   4.004  0.00  0.00     0.206 C 
HETATM   27  C   UNK N   1      28.387  11.427   2.666  0.00  0.00     0.257 C 
HETATM   28  C   UNK N   1      28.111  12.601   1.727  0.00  0.00     0.070 C 
HETATM   29  C   UNK N   1      28.197  13.926   2.486  0.00  0.00     0.122 C 
HETATM   30  O   UNK N   1      27.397  14.024   3.660  0.00  0.00    -0.354 OA
HETATM   31  C   UNK N   1      29.637  14.284   2.803  0.00  0.00     0.040 C 
BRANCH  26  32
HETATM   32  O   UNK N   1      28.561  11.682   5.037  0.00  0.00    -0.388 OA
HETATM   33  H   UNK N   1      29.268  11.380   5.630  0.00  0.00     0.210 HD
ENDBRANCH  26  32
BRANCH  27  34
HETATM   34  N   UNK N   1      28.105  10.169   1.961  0.00  0.00     0.087 N 
HETATM   35  C   UNK N   1      27.100  10.459   0.950  0.00  0.00     0.310 C 
HETATM   36  C   UNK N   1      29.264   9.687   1.225  0.00  0.00     0.310 C 
ENDBRANCH  27  34
ENDBRANCH  24  25
ENDBRANCH   1  24
BRANCH  21  37
HETATM   37  O   UNK N   1      25.471  15.326   2.819  0.00  0.00    -0.388 OA
HETATM   38  H   UNK N   1      26.314  14.997   2.470  0.00  0.00     0.210 HD
ENDBRANCH  21  37
BRANCH   4  39
HETATM   39  O   UNK N   1      24.769  10.861   5.567  0.00  0.00    -0.355 OA
BRANCH  39  40
HETATM   40  C   UNK N   1      24.384   9.904   4.608  0.00  0.00     0.263 C 
HETATM   41  C   UNK N   1      23.344   8.889   5.141  0.00  0.00     0.101 C 
HETATM   42  C   UNK N   1      23.977   7.809   6.051  0.00  0.00     0.089 C 
HETATM   43  C   UNK N   1      25.239   7.250   5.373  0.00  0.00     0.181 C 
HETATM   44  C   UNK N   1      24.413   8.460   7.355  0.00  0.00     0.049 C 
HETATM   45  C   UNK N   1      26.138   8.431   4.973  0.00  0.00     0.152 C 
HETATM   46  O   UNK N   1      25.503   9.260   4.017  0.00  0.00    -0.354 OA
HETATM   47  C   UNK N   1      27.450   7.910   4.424  0.00  0.00     0.042 C 
BRANCH  42  48
HETATM   48  O   UNK N   1      23.074   6.778   6.425  0.00  0.00    -0.383 OA
HETATM   49  C   UNK N   1      23.569   6.019   7.499  0.00  0.00     0.202 C 
ENDBRANCH  42  48
BRANCH  43  50
HETATM   50  O   UNK N   1      24.917   6.496   4.239  0.00  0.00    -0.390 OA
HETATM   51  H   UNK N   1      24.439   5.730   3.885  0.00  0.00     0.210 HD
ENDBRANCH  43  50
ENDBRANCH  39  40
ENDBRANCH   4  39
BRANCH  16  52
HETATM   52  O   UNK N   1      23.476  19.163   3.813  0.00  0.00    -0.255 OA
BRANCH  52  53
HETATM   53  C   UNK N   1      23.246  20.223   2.961  0.00  0.00     0.369 C 
BRANCH  53  54
HETATM   54  O   UNK N   1      21.943  20.684   3.157  0.00  0.00    -0.363 OA
BRANCH  54  55
HETATM   55  C   UNK N   1      21.254  20.361   1.987  0.00  0.00     0.196 C 
BRANCH  55  56
HETATM   56  C   UNK N   1      20.063  19.479   2.321  0.00  0.00     0.193 C 
BRANCH  56  57
HETATM   57  O   UNK N   1      20.479  18.153   2.451  0.00  0.00    -0.394 OA
HETATM   58  C   UNK N   1      20.255  17.583   1.197  0.00  0.00     0.201 C 
ENDBRANCH  56  57
ENDBRANCH  55  56
ENDBRANCH  54  55
ENDBRANCH  53  54
ENDBRANCH  52  53
ENDBRANCH  16  52
BRANCH  11  59
HETATM   59  O   UNK N   1      21.678  14.847   5.972  0.00  0.00    -0.392 OA
HETATM   60  H   UNK N   1      22.254  14.509   5.269  0.00  0.00     0.210 HD
ENDBRANCH  11  59
BRANCH  12  61
HETATM   61  C   UNK N   1      20.193  13.729   9.951  0.00  0.00     0.031 C 
HETATM   62  C   UNK N   1      20.817  12.633  10.795  0.00  0.00     0.007 C 
ENDBRANCH  12  61
BRANCH  20  63
HETATM   63  O   UNK N   1      19.464  15.147   7.462  0.00  0.00    -0.385 OA
HETATM   64  H   UNK N   1      18.808  14.991   6.765  0.00  0.00     0.210 HD
ENDBRANCH  20  63
TORSDOF 18
ENDMDL
MODEL 3
REMARK VINA RESULT:      -6.7      2.241     10.094
REMARK  18 active torsions:
REMARK  status: ('A' for Active; 'I' for Inactive)
REMARK    1  A    between atoms: C_1  and  O_13 
REMARK    2  A    between atoms: C_4  and  O_16 
REMARK    3  A    between atoms: C_11  and  O_37 
REMARK    4  A    between atoms: C_12  and  C_49 
REMARK    5  A    between atoms: C_15  and  O_13 
REMARK    6  A    between atoms: C_20  and  O_16 
REMARK    7  A    between atoms: C_17  and  O_23 
REMARK    8  A    between atoms: C_22  and  N_31 
REMARK    9  A    between atoms: N_25  and  O_42 
REMARK   10  A    between atoms: C_38  and  O_40 
REMARK   11  A    between atoms: C_41  and  O_51 
REMARK   12  A    between atoms: O_42  and  C_43 
REMARK   13  A    between atoms: C_43  and  O_44 
REMARK   14  A    between atoms: O_44  and  C_45 
REMARK   15  A    between atoms: C_45  and  C_46 
REMARK   16  A    between atoms: C_46  and  O_47 
REMARK   17  A    between atoms: C_54  and  O_56 
REMARK   18  A    between atoms: C_55  and  O_57 
ROOT
HETATM    1  C   UNK N   1      28.088  13.942   4.869  0.00  0.00     0.165 C 
HETATM    2  C   UNK N   1      28.457  15.443   4.688  0.00  0.00     0.043 C 
HETATM    3  C   UNK N   1      25.518  14.368   4.435  0.00  0.00     0.050 C 
HETATM    4  C   UNK N   1      29.570  15.946   5.653  0.00  0.00     0.144 C 
HETATM    5  C   UNK N   1      25.486  15.346   3.243  0.00  0.00     0.033 C 
HETATM    6  C   UNK N   1      29.811  17.480   5.614  0.00  0.00     0.111 C 
HETATM    7  C   UNK N   1      24.200  16.156   3.243  0.00  0.00     0.020 C 
HETATM    8  C   UNK N   1      28.580  18.323   5.797  0.00  0.00     0.265 C 
HETATM    9  C   UNK N   1      24.208  17.564   3.805  0.00  0.00     0.061 C 
HETATM   10  O   UNK N   1      28.190  19.130   4.775  0.00  0.00    -0.312 OA
HETATM   11  C   UNK N   1      25.609  18.054   4.230  0.00  0.00     0.164 C 
HETATM   12  C   UNK N   1      27.147  20.038   4.727  0.00  0.00     0.168 C 
HETATM   13  C   UNK N   1      28.675  15.843   3.234  0.00  0.00     0.015 C 
HETATM   14  C   UNK N   1      25.838  14.796   1.866  0.00  0.00     0.016 C 
HETATM   15  C   UNK N   1      30.566  17.898   4.357  0.00  0.00     0.023 C 
HETATM   16  N   UNK N   1      23.076  15.708   2.756  0.00  0.00    -0.272 N 
ATOM     17  HN  UNK N   1      22.268  16.327   2.813  1.00  0.00     0.193 HD
HETATM   18  O   UNK N   1      27.954  18.280   6.846  0.00  0.00    -0.265 OA
HETATM   19  C   UNK N   1      23.211  17.659   4.953  0.00  0.00     0.019 C 
HETATM   20  C   UNK N   1      25.696  19.504   4.761  0.00  0.00     0.107 C 
HETATM   21  C   UNK N   1      26.681  13.374   4.532  0.00  0.00     0.081 C 
HETATM   22  C   UNK N   1      24.876  20.438   3.881  0.00  0.00     0.051 C 
HETATM   23  C   UNK N   1      26.326  12.426   5.660  0.00  0.00     0.049 C 
ENDROOT
BRANCH   1  24
HETATM   24  O   UNK N   1      29.109  12.960   4.730  0.00  0.00    -0.350 OA
BRANCH  24  25
HETATM   25  C   UNK N   1      29.843  13.135   3.535  0.00  0.00     0.291 C 
HETATM   26  C   UNK N   1      31.226  12.484   3.633  0.00  0.00     0.206 C 
HETATM   27  C   UNK N   1      31.178  10.948   3.465  0.00  0.00     0.257 C 
HETATM   28  C   UNK N   1      29.761  10.468   3.149  0.00  0.00     0.070 C 
HETATM   29  C   UNK N   1      29.116  11.361   2.089  0.00  0.00     0.122 C 
HETATM   30  O   UNK N   1      29.123  12.759   2.364  0.00  0.00    -0.354 OA
HETATM   31  C   UNK N   1      29.705  11.096   0.717  0.00  0.00     0.040 C 
BRANCH  26  32
HETATM   32  O   UNK N   1      32.054  13.016   2.644  0.00  0.00    -0.388 OA
HETATM   33  H   UNK N   1      32.281  13.536   1.856  0.00  0.00     0.210 HD
ENDBRANCH  26  32
BRANCH  27  34
HETATM   34  N   UNK N   1      31.696  10.199   4.618  0.00  0.00     0.087 N 
HETATM   35  C   UNK N   1      30.567   9.513   5.226  0.00  0.00     0.310 C 
HETATM   36  C   UNK N   1      32.615   9.146   4.213  0.00  0.00     0.310 C 
ENDBRANCH  27  34
ENDBRANCH  24  25
ENDBRANCH   1  24
BRANCH  21  37
HETATM   37  O   UNK N   1      26.722  12.621   3.367  0.00  0.00    -0.388 OA
HETATM   38  H   UNK N   1      26.485  11.697   3.188  0.00  0.00     0.210 HD
ENDBRANCH  21  37
BRANCH   4  39
HETATM   39  O   UNK N   1      30.797  15.278   5.444  0.00  0.00    -0.355 OA
BRANCH  39  40
HETATM   40  C   UNK N   1      31.406  15.138   6.706  0.00  0.00     0.263 C 
HETATM   41  C   UNK N   1      32.297  16.343   7.091  0.00  0.00     0.101 C 
HETATM   42  C   UNK N   1      33.664  16.332   6.365  0.00  0.00     0.089 C 
HETATM   43  C   UNK N   1      34.279  14.926   6.465  0.00  0.00     0.181 C 
HETATM   44  C   UNK N   1      33.436  16.624   4.890  0.00  0.00     0.049 C 
HETATM   45  C   UNK N   1      33.235  13.903   5.990  0.00  0.00     0.152 C 
HETATM   46  O   UNK N   1      32.096  13.903   6.831  0.00  0.00    -0.354 OA
HETATM   47  C   UNK N   1      33.855  12.522   5.949  0.00  0.00     0.042 C 
BRANCH  42  48
HETATM   48  O   UNK N   1      34.558  17.337   6.818  0.00  0.00    -0.383 OA
HETATM   49  C   UNK N   1      33.999  18.096   7.860  0.00  0.00     0.202 C 
ENDBRANCH  42  48
BRANCH  43  50
HETATM   50  O   UNK N   1      34.666  14.632   7.777  0.00  0.00    -0.390 OA
HETATM   51  H   UNK N   1      34.808  14.970   8.675  0.00  0.00     0.210 HD
ENDBRANCH  43  50
ENDBRANCH  39  40
ENDBRANCH   4  39
BRANCH  16  52
HETATM   52  O   UNK N   1      22.887  14.523   2.198  0.00  0.00    -0.255 OA
BRANCH  52  53
HETATM   53  C   UNK N   1      21.788  14.180   1.439  0.00  0.00     0.369 C 
BRANCH  53  54
HETATM   54  O   UNK N   1      21.435  15.269   0.639  0.00  0.00    -0.363 OA
BRANCH  54  55
HETATM   55  C   UNK N   1      20.123  15.582   0.994  0.00  0.00     0.196 C 
BRANCH  55  56
HETATM   56  C   UNK N   1      19.984  17.085   1.167  0.00  0.00     0.193 C 
BRANCH  56  57
HETATM   57  O   UNK N   1      20.683  17.497   2.303  0.00  0.00    -0.394 OA
HETATM   58  C   UNK N   1      19.852  17.165   3.375  0.00  0.00     0.201 C 
ENDBRANCH  56  57
ENDBRANCH  55  56
ENDBRANCH  54  55
ENDBRANCH  53  54
ENDBRANCH  52  53
ENDBRANCH  16  52
BRANCH  11  59
HETATM   59  O   UNK N   1      26.116  17.186   5.199  0.00  0.00    -0.392 OA
HETATM   60  H   UNK N   1      26.022  17.035   6.152  0.00  0.00     0.210 HD
ENDBRANCH  11  59
BRANCH  12  61
HETATM   61  C   UNK N   1      27.435  21.368   5.430  0.00  0.00     0.031 C 
HETATM   62  C   UNK N   1      26.817  21.442   6.813  0.00  0.00     0.007 C 
ENDBRANCH  12  61
BRANCH  20  63
HETATM   63  O   UNK N   1      25.190  19.554   6.062  0.00  0.00    -0.385 OA
HETATM   64  H   UNK N   1      24.796  19.245   6.893  0.00  0.00     0.210 HD
ENDBRANCH  20  63
TORSDOF 18
ENDMDL
MODEL 4
REMARK VINA RESULT:      -6.7      2.181     10.038
REMARK  18 active torsions:
REMARK  status: ('A' for Active; 'I' for Inactive)
REMARK    1  A    between atoms: C_1  and  O_13 
REMARK    2  A    between atoms: C_4  and  O_16 
REMARK    3  A    between atoms: C_11  and  O_37 
REMARK    4  A    between atoms: C_12  and  C_49 
REMARK    5  A    between atoms: C_15  and  O_13 
REMARK    6  A    between atoms: C_20  and  O_16 
REMARK    7  A    between atoms: C_17  and  O_23 
REMARK    8  A    between atoms: C_22  and  N_31 
REMARK    9  A    between atoms: N_25  and  O_42 
REMARK   10  A    between atoms: C_38  and  O_40 
REMARK   11  A    between atoms: C_41  and  O_51 
REMARK   12  A    between atoms: O_42  and  C_43 
REMARK   13  A    between atoms: C_43  and  O_44 
REMARK   14  A    between atoms: O_44  and  C_45 
REMARK   15  A    between atoms: C_45  and  C_46 
REMARK   16  A    between atoms: C_46  and  O_47 
REMARK   17  A    between atoms: C_54  and  O_56 
REMARK   18  A    between atoms: C_55  and  O_57 
ROOT
HETATM    1  C   UNK N   1      28.155  13.918   4.978  0.00  0.00     0.165 C 
HETATM    2  C   UNK N   1      28.516  15.420   4.782  0.00  0.00     0.043 C 
HETATM    3  C   UNK N   1      25.599  14.309   4.441  0.00  0.00     0.050 C 
HETATM    4  C   UNK N   1      29.587  15.952   5.778  0.00  0.00     0.144 C 
HETATM    5  C   UNK N   1      25.602  15.263   3.230  0.00  0.00     0.033 C 
HETATM    6  C   UNK N   1      29.814  17.487   5.718  0.00  0.00     0.111 C 
HETATM    7  C   UNK N   1      24.309  16.060   3.166  0.00  0.00     0.020 C 
HETATM    8  C   UNK N   1      28.569  18.321   5.839  0.00  0.00     0.265 C 
HETATM    9  C   UNK N   1      24.282  17.479   3.702  0.00  0.00     0.061 C 
HETATM   10  O   UNK N   1      28.209  19.104   4.788  0.00  0.00    -0.312 OA
HETATM   11  C   UNK N   1      25.661  17.991   4.169  0.00  0.00     0.164 C 
HETATM   12  C   UNK N   1      27.160  20.000   4.684  0.00  0.00     0.168 C 
HETATM   13  C   UNK N   1      28.783  15.794   3.330  0.00  0.00     0.015 C 
HETATM   14  C   UNK N   1      26.011  14.692   1.878  0.00  0.00     0.016 C 
HETATM   15  C   UNK N   1      30.612  17.889   4.482  0.00  0.00     0.023 C 
HETATM   16  N   UNK N   1      23.208  15.591   2.648  0.00  0.00    -0.272 N 
ATOM     17  HN  UNK N   1      22.392  16.203   2.663  1.00  0.00     0.193 HD
HETATM   18  O   UNK N   1      27.905  18.291   6.865  0.00  0.00    -0.265 OA
HETATM   19  C   UNK N   1      23.242  17.585   4.810  0.00  0.00     0.019 C 
HETATM   20  C   UNK N   1      25.714  19.451   4.675  0.00  0.00     0.107 C 
HETATM   21  C   UNK N   1      26.768  13.329   4.600  0.00  0.00     0.081 C 
HETATM   22  C   UNK N   1      24.919  20.360   3.747  0.00  0.00     0.051 C 
HETATM   23  C   UNK N   1      26.380  12.398   5.732  0.00  0.00     0.049 C 
ENDROOT
BRANCH   1  24
HETATM   24  O   UNK N   1      29.190  12.945   4.896  0.00  0.00    -0.350 OA
BRANCH  24  25
HETATM   25  C   UNK N   1      29.040  12.116   3.760  0.00  0.00     0.291 C 
HETATM   26  C   UNK N   1      30.096  12.434   2.697  0.00  0.00     0.206 C 
HETATM   27  C   UNK N   1      31.483  11.844   3.036  0.00  0.00     0.257 C 
HETATM   28  C   UNK N   1      31.433  11.005   4.313  0.00  0.00     0.070 C 
HETATM   29  C   UNK N   1      30.208  10.090   4.306  0.00  0.00     0.122 C 
HETATM   30  O   UNK N   1      28.956  10.729   4.075  0.00  0.00    -0.354 OA
HETATM   31  C   UNK N   1      30.391   8.935   3.340  0.00  0.00     0.040 C 
BRANCH  26  32
HETATM   32  O   UNK N   1      29.678  11.921   1.469  0.00  0.00    -0.388 OA
HETATM   33  H   UNK N   1      29.281  11.277   0.861  0.00  0.00     0.210 HD
ENDBRANCH  26  32
BRANCH  27  34
HETATM   34  N   UNK N   1      32.551  12.845   3.157  0.00  0.00     0.087 N 
HETATM   35  C   UNK N   1      33.617  12.447   2.250  0.00  0.00     0.310 C 
HETATM   36  C   UNK N   1      32.122  14.157   2.695  0.00  0.00     0.310 C 
ENDBRANCH  27  34
ENDBRANCH  24  25
ENDBRANCH   1  24
BRANCH  21  37
HETATM   37  O   UNK N   1      26.859  12.555   3.452  0.00  0.00    -0.388 OA
HETATM   38  H   UNK N   1      26.427  12.633   2.586  0.00  0.00     0.210 HD
ENDBRANCH  21  37
BRANCH   4  39
HETATM   39  O   UNK N   1      30.828  15.293   5.627  0.00  0.00    -0.355 OA
BRANCH  39  40
HETATM   40  C   UNK N   1      31.418  15.236   6.904  0.00  0.00     0.263 C 
HETATM   41  C   UNK N   1      32.323  16.452   7.215  0.00  0.00     0.101 C 
HETATM   42  C   UNK N   1      33.699  16.367   6.511  0.00  0.00     0.089 C 
HETATM   43  C   UNK N   1      34.290  14.963   6.721  0.00  0.00     0.181 C 
HETATM   44  C   UNK N   1      33.496  16.554   5.015  0.00  0.00     0.049 C 
HETATM   45  C   UNK N   1      33.236  13.924   6.307  0.00  0.00     0.152 C 
HETATM   46  O   UNK N   1      32.086  14.003   7.129  0.00  0.00    -0.354 OA
HETATM   47  C   UNK N   1      33.833  12.535   6.375  0.00  0.00     0.042 C 
BRANCH  42  48
HETATM   48  O   UNK N   1      34.603  17.389   6.903  0.00  0.00    -0.383 OA
HETATM   49  C   UNK N   1      34.039  18.236   7.871  0.00  0.00     0.202 C 
ENDBRANCH  42  48
BRANCH  43  50
HETATM   50  O   UNK N   1      34.654  14.759   8.057  0.00  0.00    -0.390 OA
HETATM   51  H   UNK N   1      35.368  14.543   8.678  0.00  0.00     0.210 HD
ENDBRANCH  43  50
ENDBRANCH  39  40
ENDBRANCH   4  39
BRANCH  16  52
HETATM   52  O   UNK N   1      23.052  14.394   2.105  0.00  0.00    -0.255 OA
BRANCH  52  53
HETATM   53  C   UNK N   1      21.978  14.021   1.325  0.00  0.00     0.369 C 
BRANCH  53  54
HETATM   54  O   UNK N   1      21.555  15.125   0.581  0.00  0.00    -0.363 OA
BRANCH  54  55
HETATM   55  C   UNK N   1      20.229  15.340   0.956  0.00  0.00     0.196 C 
BRANCH  55  56
HETATM   56  C   UNK N   1      19.981  16.828   1.133  0.00  0.00     0.193 C 
BRANCH  56  57
HETATM   57  O   UNK N   1      20.692  17.298   2.239  0.00  0.00    -0.394 OA
HETATM   58  C   UNK N   1      19.916  16.939   3.342  0.00  0.00     0.201 C 
ENDBRANCH  56  57
ENDBRANCH  55  56
ENDBRANCH  54  55
ENDBRANCH  53  54
ENDBRANCH  52  53
ENDBRANCH  16  52
BRANCH  11  59
HETATM   59  O   UNK N   1      26.140  17.147   5.172  0.00  0.00    -0.392 OA
HETATM   60  H   UNK N   1      26.598  16.294   5.241  0.00  0.00     0.210 HD
ENDBRANCH  11  59
BRANCH  12  61
HETATM   61  C   UNK N   1      27.409  21.346   5.371  0.00  0.00     0.031 C 
HETATM   62  C   UNK N   1      26.730  21.444   6.724  0.00  0.00     0.007 C 
ENDBRANCH  12  61
BRANCH  20  63
HETATM   63  O   UNK N   1      25.160  19.521   5.955  0.00  0.00    -0.385 OA
HETATM   64  H   UNK N   1      25.116  19.518   6.924  0.00  0.00     0.210 HD
ENDBRANCH  20  63
TORSDOF 18
ENDMDL
MODEL 5
REMARK VINA RESULT:      -6.6      4.643     11.611
REMARK  18 active torsions:
REMARK  status: ('A' for Active; 'I' for Inactive)
REMARK    1  A    between atoms: C_1  and  O_13 
REMARK    2  A    between atoms: C_4  and  O_16 
REMARK    3  A    between atoms: C_11  and  O_37 
REMARK    4  A    between atoms: C_12  and  C_49 
REMARK    5  A    between atoms: C_15  and  O_13 
REMARK    6  A    between atoms: C_20  and  O_16 
REMARK    7  A    between atoms: C_17  and  O_23 
REMARK    8  A    between atoms: C_22  and  N_31 
REMARK    9  A    between atoms: N_25  and  O_42 
REMARK   10  A    between atoms: C_38  and  O_40 
REMARK   11  A    between atoms: C_41  and  O_51 
REMARK   12  A    between atoms: O_42  and  C_43 
REMARK   13  A    between atoms: C_43  and  O_44 
REMARK   14  A    between atoms: O_44  and  C_45 
REMARK   15  A    between atoms: C_45  and  C_46 
REMARK   16  A    between atoms: C_46  and  O_47 
REMARK   17  A    between atoms: C_54  and  O_56 
REMARK   18  A    between atoms: C_55  and  O_57 
ROOT
HETATM    1  C   UNK N   1      35.431  14.312   9.626  0.00  0.00     0.165 C 
HETATM    2  C   UNK N   1      35.117  13.490   8.342  0.00  0.00     0.043 C 
HETATM    3  C   UNK N   1      33.750  16.243   8.980  0.00  0.00     0.050 C 
HETATM    4  C   UNK N   1      36.354  12.774   7.726  0.00  0.00     0.144 C 
HETATM    5  C   UNK N   1      32.501  15.507   8.455  0.00  0.00     0.033 C 
HETATM    6  C   UNK N   1      36.093  12.111   6.346  0.00  0.00     0.111 C 
HETATM    7  C   UNK N   1      31.711  16.391   7.504  0.00  0.00     0.020 C 
HETATM    8  C   UNK N   1      35.478  13.013   5.312  0.00  0.00     0.265 C 
HETATM    9  C   UNK N   1      31.881  16.211   6.008  0.00  0.00     0.061 C 
HETATM   10  O   UNK N   1      34.242  12.705   4.837  0.00  0.00    -0.312 OA
HETATM   11  C   UNK N   1      32.797  15.029   5.625  0.00  0.00     0.164 C 
HETATM   12  C   UNK N   1      33.506  13.331   3.847  0.00  0.00     0.168 C 
HETATM   13  C   UNK N   1      33.892  12.595   8.480  0.00  0.00     0.015 C 
HETATM   14  C   UNK N   1      31.617  14.797   9.474  0.00  0.00     0.016 C 
HETATM   15  C   UNK N   1      35.286  10.825   6.484  0.00  0.00     0.023 C 
HETATM   16  N   UNK N   1      30.865  17.296   7.911  0.00  0.00    -0.272 N 
ATOM     17  HN  UNK N   1      30.393  17.844   7.191  1.00  0.00     0.193 HD
HETATM   18  O   UNK N   1      36.085  13.996   4.912  0.00  0.00    -0.265 OA
HETATM   19  C   UNK N   1      32.366  17.517   5.390  0.00  0.00     0.019 C 
HETATM   20  C   UNK N   1      32.967  14.756   4.113  0.00  0.00     0.107 C 
HETATM   21  C   UNK N   1      34.605  15.557  10.052  0.00  0.00     0.081 C 
HETATM   22  C   UNK N   1      31.621  14.843   3.406  0.00  0.00     0.051 C 
HETATM   23  C   UNK N   1      35.610  16.595  10.511  0.00  0.00     0.049 C 
ENDROOT
BRANCH   1  24
HETATM   24  O   UNK N   1      36.015  13.650  10.742  0.00  0.00    -0.350 OA
BRANCH  24  25
HETATM   25  C   UNK N   1      35.034  13.200  11.655  0.00  0.00     0.291 C 
HETATM   26  C   UNK N   1      35.041  11.673  11.771  0.00  0.00     0.206 C 
HETATM   27  C   UNK N   1      36.202  11.144  12.643  0.00  0.00     0.257 C 
HETATM   28  C   UNK N   1      37.006  12.292  13.254  0.00  0.00     0.070 C 
HETATM   29  C   UNK N   1      36.070  13.363  13.815  0.00  0.00     0.122 C 
HETATM   30  O   UNK N   1      35.085  13.862  12.916  0.00  0.00    -0.354 OA
HETATM   31  C   UNK N   1      35.415  12.899  15.102  0.00  0.00     0.040 C 
BRANCH  26  32
HETATM   32  O   UNK N   1      33.834  11.250  12.327  0.00  0.00    -0.388 OA
HETATM   33  H   UNK N   1      33.076  10.661  12.469  0.00  0.00     0.210 HD
ENDBRANCH  26  32
BRANCH  27  34
HETATM   34  N   UNK N   1      37.117  10.233  11.942  0.00  0.00     0.087 N 
HETATM   35  C   UNK N   1      37.856   9.501  12.959  0.00  0.00     0.310 C 
HETATM   36  C   UNK N   1      36.399   9.219  11.184  0.00  0.00     0.310 C 
ENDBRANCH  27  34
ENDBRANCH  24  25
ENDBRANCH   1  24
BRANCH  21  37
HETATM   37  O   UNK N   1      33.799  15.263  11.143  0.00  0.00    -0.388 OA
HETATM   38  H   UNK N   1      33.825  14.536  11.785  0.00  0.00     0.210 HD
ENDBRANCH  21  37
BRANCH   4  39
HETATM   39  O   UNK N   1      36.906  11.815   8.605  0.00  0.00    -0.355 OA
BRANCH  39  40
HETATM   40  C   UNK N   1      38.080  12.379   9.141  0.00  0.00     0.263 C 
HETATM   41  C   UNK N   1      38.964  13.075   8.079  0.00  0.00     0.101 C 
HETATM   42  C   UNK N   1      39.769  12.070   7.221  0.00  0.00     0.089 C 
HETATM   43  C   UNK N   1      40.438  11.038   8.144  0.00  0.00     0.181 C 
HETATM   44  C   UNK N   1      38.806  11.315   6.319  0.00  0.00     0.049 C 
HETATM   45  C   UNK N   1      39.365  10.449   9.074  0.00  0.00     0.152 C 
HETATM   46  O   UNK N   1      38.814  11.444   9.917  0.00  0.00    -0.354 OA
HETATM   47  C   UNK N   1      39.965   9.333   9.903  0.00  0.00     0.042 C 
BRANCH  42  48
HETATM   48  O   UNK N   1      40.704  12.687   6.348  0.00  0.00    -0.383 OA
HETATM   49  C   UNK N   1      40.672  14.087   6.461  0.00  0.00     0.202 C 
ENDBRANCH  42  48
BRANCH  43  50
HETATM   50  O   UNK N   1      41.456  11.621   8.907  0.00  0.00    -0.390 OA
HETATM   51  H   UNK N   1      42.391  11.594   9.167  0.00  0.00     0.210 HD
ENDBRANCH  43  50
ENDBRANCH  39  40
ENDBRANCH   4  39
BRANCH  16  52
HETATM   52  O   UNK N   1      30.564  17.571   9.170  0.00  0.00    -0.255 OA
BRANCH  52  53
HETATM   53  C   UNK N   1      29.423  18.230   9.577  0.00  0.00     0.369 C 
BRANCH  53  54
HETATM   54  O   UNK N   1      28.389  17.935   8.686  0.00  0.00    -0.363 OA
BRANCH  54  55
HETATM   55  C   UNK N   1      28.059  19.150   8.084  0.00  0.00     0.196 C 
BRANCH  55  56
HETATM   56  C   UNK N   1      27.846  18.943   6.594  0.00  0.00     0.193 C 
BRANCH  56  57
HETATM   57  O   UNK N   1      28.728  17.970   6.121  0.00  0.00    -0.394 OA
HETATM   58  C   UNK N   1      28.691  18.098   4.732  0.00  0.00     0.201 C 
ENDBRANCH  56  57
ENDBRANCH  55  56
ENDBRANCH  54  55
ENDBRANCH  53  54
ENDBRANCH  52  53
ENDBRANCH  16  52
BRANCH  11  59
HETATM   59  O   UNK N   1      34.056  15.232   6.193  0.00  0.00    -0.392 OA
HETATM   60  H   UNK N   1      34.640  15.976   6.406  0.00  0.00     0.210 HD
ENDBRANCH  11  59
BRANCH  12  61
HETATM   61  C   UNK N   1      33.944  12.987   2.420  0.00  0.00     0.031 C 
HETATM   62  C   UNK N   1      34.043  11.491   2.186  0.00  0.00     0.007 C 
ENDBRANCH  12  61
BRANCH  20  63
HETATM   63  O   UNK N   1      33.825  15.711   3.561  0.00  0.00    -0.385 OA
HETATM   64  H   UNK N   1      34.651  16.114   3.250  0.00  0.00     0.210 HD
ENDBRANCH  20  63
TORSDOF 18
ENDMDL
MODEL 6
REMARK VINA RESULT:      -6.6      3.711      8.969
REMARK  18 active torsions:
REMARK  status: ('A' for Active; 'I' for Inactive)
REMARK    1  A    between atoms: C_1  and  O_13 
REMARK    2  A    between atoms: C_4  and  O_16 
REMARK    3  A    between atoms: C_11  and  O_37 
REMARK    4  A    between atoms: C_12  and  C_49 
REMARK    5  A    between atoms: C_15  and  O_13 
REMARK    6  A    between atoms: C_20  and  O_16 
REMARK    7  A    between atoms: C_17  and  O_23 
REMARK    8  A    between atoms: C_22  and  N_31 
REMARK    9  A    between atoms: N_25  and  O_42 
REMARK   10  A    between atoms: C_38  and  O_40 
REMARK   11  A    between atoms: C_41  and  O_51 
REMARK   12  A    between atoms: O_42  and  C_43 
REMARK   13  A    between atoms: C_43  and  O_44 
REMARK   14  A    between atoms: O_44  and  C_45 
REMARK   15  A    between atoms: C_45  and  C_46 
REMARK   16  A    between atoms: C_46  and  O_47 
REMARK   17  A    between atoms: C_54  and  O_56 
REMARK   18  A    between atoms: C_55  and  O_57 
ROOT
HETATM    1  C   UNK N   1      24.269  13.009   3.711  0.00  0.00     0.165 C 
HETATM    2  C   UNK N   1      23.865  12.898   5.210  0.00  0.00     0.043 C 
HETATM    3  C   UNK N   1      23.300  15.455   3.478  0.00  0.00     0.050 C 
HETATM    4  C   UNK N   1      23.363  11.486   5.631  0.00  0.00     0.144 C 
HETATM    5  C   UNK N   1      23.749  16.171   4.766  0.00  0.00     0.033 C 
HETATM    6  C   UNK N   1      22.779  11.413   7.069  0.00  0.00     0.111 C 
HETATM    7  C   UNK N   1      22.818  17.326   5.096  0.00  0.00     0.020 C 
HETATM    8  C   UNK N   1      21.714  12.428   7.376  0.00  0.00     0.265 C 
HETATM    9  C   UNK N   1      21.728  17.130   6.132  0.00  0.00     0.061 C 
HETATM   10  O   UNK N   1      21.959  13.350   8.346  0.00  0.00    -0.312 OA
HETATM   11  C   UNK N   1      21.773  15.752   6.826  0.00  0.00     0.164 C 
HETATM   12  C   UNK N   1      21.122  14.329   8.851  0.00  0.00     0.168 C 
HETATM   13  C   UNK N   1      24.894  13.495   6.161  0.00  0.00     0.015 C 
HETATM   14  C   UNK N   1      25.221  16.545   4.893  0.00  0.00     0.016 C 
HETATM   15  C   UNK N   1      23.879  11.452   8.124  0.00  0.00     0.023 C 
HETATM   16  N   UNK N   1      22.920  18.503   4.543  0.00  0.00    -0.272 N 
ATOM     17  HN  UNK N   1      22.238  19.207   4.827  1.00  0.00     0.193 HD
HETATM   18  O   UNK N   1      20.655  12.415   6.766  0.00  0.00    -0.265 OA
HETATM   19  C   UNK N   1      20.368  17.391   5.496  0.00  0.00     0.019 C 
HETATM   20  C   UNK N   1      20.722  15.509   7.934  0.00  0.00     0.107 C 
HETATM   21  C   UNK N   1      24.190  14.340   2.914  0.00  0.00     0.081 C 
HETATM   22  C   UNK N   1      20.612  16.732   8.835  0.00  0.00     0.051 C 
HETATM   23  C   UNK N   1      23.611  13.989   1.558  0.00  0.00     0.049 C 
ENDROOT
BRANCH   1  24
HETATM   24  O   UNK N   1      25.275  12.139   3.203  0.00  0.00    -0.350 OA
BRANCH  24  25
HETATM   25  C   UNK N   1      26.494  12.284   3.903  0.00  0.00     0.291 C 
HETATM   26  C   UNK N   1      27.276  10.967   3.934  0.00  0.00     0.206 C 
HETATM   27  C   UNK N   1      27.994  10.666   2.599  0.00  0.00     0.257 C 
HETATM   28  C   UNK N   1      27.817  11.811   1.602  0.00  0.00     0.070 C 
HETATM   29  C   UNK N   1      28.042  13.159   2.290  0.00  0.00     0.122 C 
HETATM   30  O   UNK N   1      27.273  13.393   3.465  0.00  0.00    -0.354 OA
HETATM   31  C   UNK N   1      29.514  13.392   2.572  0.00  0.00     0.040 C 
BRANCH  26  32
HETATM   32  O   UNK N   1      28.229  11.024   4.951  0.00  0.00    -0.388 OA
HETATM   33  H   UNK N   1      28.979  11.385   5.451  0.00  0.00     0.210 HD
ENDBRANCH  26  32
BRANCH  27  34
HETATM   34  N   UNK N   1      27.582   9.406   1.965  0.00  0.00     0.087 N 
HETATM   35  C   UNK N   1      26.642   9.745   0.908  0.00  0.00     0.310 C 
HETATM   36  C   UNK N   1      28.693   8.746   1.294  0.00  0.00     0.310 C 
ENDBRANCH  27  34
ENDBRANCH  24  25
ENDBRANCH   1  24
BRANCH  21  37
HETATM   37  O   UNK N   1      25.460  14.855   2.691  0.00  0.00    -0.388 OA
HETATM   38  H   UNK N   1      25.836  15.735   2.854  0.00  0.00     0.210 HD
ENDBRANCH  21  37
BRANCH   4  39
HETATM   39  O   UNK N   1      24.365  10.500   5.486  0.00  0.00    -0.355 OA
BRANCH  39  40
HETATM   40  C   UNK N   1      23.882   9.561   4.555  0.00  0.00     0.263 C 
HETATM   41  C   UNK N   1      22.712   8.706   5.099  0.00  0.00     0.101 C 
HETATM   42  C   UNK N   1      23.185   7.593   6.065  0.00  0.00     0.089 C 
HETATM   43  C   UNK N   1      24.381   6.855   5.440  0.00  0.00     0.181 C 
HETATM   44  C   UNK N   1      23.672   8.238   7.354  0.00  0.00     0.049 C 
HETATM   45  C   UNK N   1      25.430   7.896   5.019  0.00  0.00     0.152 C 
HETATM   46  O   UNK N   1      24.924   8.759   4.018  0.00  0.00    -0.354 OA
HETATM   47  C   UNK N   1      26.676   7.194   4.524  0.00  0.00     0.042 C 
BRANCH  42  48
HETATM   48  O   UNK N   1      22.152   6.699   6.453  0.00  0.00    -0.383 OA
HETATM   49  C   UNK N   1      20.929   7.024   5.841  0.00  0.00     0.202 C 
ENDBRANCH  42  48
BRANCH  43  50
HETATM   50  O   UNK N   1      23.990   6.102   4.328  0.00  0.00    -0.390 OA
HETATM   51  H   UNK N   1      24.244   5.434   3.671  0.00  0.00     0.210 HD
ENDBRANCH  43  50
ENDBRANCH  39  40
ENDBRANCH   4  39
BRANCH  16  52
HETATM   52  O   UNK N   1      23.824  18.867   3.648  0.00  0.00    -0.255 OA
BRANCH  52  53
HETATM   53  C   UNK N   1      24.618  19.989   3.749  0.00  0.00     0.369 C 
BRANCH  53  54
HETATM   54  O   UNK N   1      25.757  19.809   2.961  0.00  0.00    -0.363 OA
BRANCH  54  55
HETATM   55  C   UNK N   1      26.831  19.815   3.851  0.00  0.00     0.196 C 
BRANCH  55  56
HETATM   56  C   UNK N   1      26.507  20.707   5.038  0.00  0.00     0.193 C 
BRANCH  56  57
HETATM   57  O   UNK N   1      27.556  20.669   5.958  0.00  0.00    -0.394 OA
HETATM   58  C   UNK N   1      27.767  19.312   6.205  0.00  0.00     0.201 C 
ENDBRANCH  56  57
ENDBRANCH  55  56
ENDBRANCH  54  55
ENDBRANCH  53  54
ENDBRANCH  52  53
ENDBRANCH  16  52
BRANCH  11  59
HETATM   59  O   UNK N   1      21.649  14.755   5.857  0.00  0.00    -0.392 OA
HETATM   60  H   UNK N   1      21.197  14.625   5.009  0.00  0.00     0.210 HD
ENDBRANCH  11  59
BRANCH  12  61
HETATM   61  C   UNK N   1      20.082  13.816   9.851  0.00  0.00     0.031 C 
HETATM   62  C   UNK N   1      20.640  12.754  10.780  0.00  0.00     0.007 C 
ENDBRANCH  12  61
BRANCH  20  63
HETATM   63  O   UNK N   1      19.476  15.269   7.349  0.00  0.00    -0.385 OA
HETATM   64  H   UNK N   1      18.821  14.921   6.724  0.00  0.00     0.210 HD
ENDBRANCH  20  63
TORSDOF 18
ENDMDL
MODEL 7
REMARK VINA RESULT:      -6.3      3.022      7.702
REMARK  18 active torsions:
REMARK  status: ('A' for Active; 'I' for Inactive)
REMARK    1  A    between atoms: C_1  and  O_13 
REMARK    2  A    between atoms: C_4  and  O_16 
REMARK    3  A    between atoms: C_11  and  O_37 
REMARK    4  A    between atoms: C_12  and  C_49 
REMARK    5  A    between atoms: C_15  and  O_13 
REMARK    6  A    between atoms: C_20  and  O_16 
REMARK    7  A    between atoms: C_17  and  O_23 
REMARK    8  A    between atoms: C_22  and  N_31 
REMARK    9  A    between atoms: N_25  and  O_42 
REMARK   10  A    between atoms: C_38  and  O_40 
REMARK   11  A    between atoms: C_41  and  O_51 
REMARK   12  A    between atoms: O_42  and  C_43 
REMARK   13  A    between atoms: C_43  and  O_44 
REMARK   14  A    between atoms: O_44  and  C_45 
REMARK   15  A    between atoms: C_45  and  C_46 
REMARK   16  A    between atoms: C_46  and  O_47 
REMARK   17  A    between atoms: C_54  and  O_56 
REMARK   18  A    between atoms: C_55  and  O_57 
ROOT
HETATM    1  C   UNK N   1      29.145  13.393   4.141  0.00  0.00     0.165 C 
HETATM    2  C   UNK N   1      27.855  13.976   3.495  0.00  0.00     0.043 C 
HETATM    3  C   UNK N   1      28.950  11.111   2.826  0.00  0.00     0.050 C 
HETATM    4  C   UNK N   1      26.991  14.835   4.464  0.00  0.00     0.144 C 
HETATM    5  C   UNK N   1      28.559  11.524   1.394  0.00  0.00     0.033 C 
HETATM    6  C   UNK N   1      25.612  15.261   3.890  0.00  0.00     0.111 C 
HETATM    7  C   UNK N   1      27.829  10.395   0.685  0.00  0.00     0.020 C 
HETATM    8  C   UNK N   1      24.774  14.138   3.344  0.00  0.00     0.265 C 
HETATM    9  C   UNK N   1      26.314  10.419   0.613  0.00  0.00     0.061 C 
HETATM   10  O   UNK N   1      24.469  14.143   2.019  0.00  0.00    -0.312 OA
HETATM   11  C   UNK N   1      25.685  11.699   1.205  0.00  0.00     0.164 C 
HETATM   12  C   UNK N   1      23.668  13.270   1.304  0.00  0.00     0.168 C 
HETATM   13  C   UNK N   1      28.096  14.630   2.141  0.00  0.00     0.015 C 
HETATM   14  C   UNK N   1      29.631  12.171   0.524  0.00  0.00     0.016 C 
HETATM   15  C   UNK N   1      25.753  16.376   2.859  0.00  0.00     0.023 C 
HETATM   16  N   UNK N   1      28.444   9.402   0.107  0.00  0.00    -0.272 N 
ATOM     17  HN  UNK N   1      27.860   8.690  -0.333  1.00  0.00     0.193 HD
HETATM   18  O   UNK N   1      24.379  13.249   4.083  0.00  0.00    -0.265 OA
HETATM   19  C   UNK N   1      25.753   9.165   1.272  0.00  0.00     0.019 C 
HETATM   20  C   UNK N   1      24.146  11.812   1.112  0.00  0.00     0.107 C 
HETATM   21  C   UNK N   1      29.808  12.074   3.655  0.00  0.00     0.081 C 
HETATM   22  C   UNK N   1      23.667  11.383  -0.268  0.00  0.00     0.051 C 
HETATM   23  C   UNK N   1      30.202  11.313   4.905  0.00  0.00     0.049 C 
ENDROOT
BRANCH   1  24
HETATM   24  O   UNK N   1      30.091  14.287   4.717  0.00  0.00    -0.350 OA
BRANCH  24  25
HETATM   25  C   UNK N   1      30.558  15.233   3.777  0.00  0.00     0.291 C 
HETATM   26  C   UNK N   1      31.011  16.524   4.466  0.00  0.00     0.206 C 
HETATM   27  C   UNK N   1      32.401  16.390   5.130  0.00  0.00     0.257 C 
HETATM   28  C   UNK N   1      33.020  15.021   4.853  0.00  0.00     0.070 C 
HETATM   29  C   UNK N   1      32.851  14.644   3.381  0.00  0.00     0.122 C 
HETATM   30  O   UNK N   1      31.523  14.707   2.871  0.00  0.00    -0.354 OA
HETATM   31  C   UNK N   1      33.788  15.446   2.498  0.00  0.00     0.040 C 
BRANCH  26  32
HETATM   32  O   UNK N   1      31.062  17.552   3.525  0.00  0.00    -0.388 OA
HETATM   33  H   UNK N   1      30.711  18.232   2.928  0.00  0.00     0.210 HD
ENDBRANCH  26  32
BRANCH  27  34
HETATM   34  N   UNK N   1      32.402  16.637   6.579  0.00  0.00     0.087 N 
HETATM   35  C   UNK N   1      32.806  15.398   7.224  0.00  0.00     0.310 C 
HETATM   36  C   UNK N   1      33.408  17.617   6.962  0.00  0.00     0.310 C 
ENDBRANCH  27  34
ENDBRANCH  24  25
ENDBRANCH   1  24
BRANCH  21  37
HETATM   37  O   UNK N   1      30.979  12.341   2.957  0.00  0.00    -0.388 OA
HETATM   38  H   UNK N   1      31.767  11.800   2.793  0.00  0.00     0.210 HD
ENDBRANCH  21  37
BRANCH   4  39
HETATM   39  O   UNK N   1      27.680  15.982   4.916  0.00  0.00    -0.355 OA
BRANCH  39  40
HETATM   40  C   UNK N   1      26.969  16.473   6.029  0.00  0.00     0.263 C 
HETATM   41  C   UNK N   1      26.266  17.825   5.757  0.00  0.00     0.101 C 
HETATM   42  C   UNK N   1      27.246  19.023   5.780  0.00  0.00     0.089 C 
HETATM   43  C   UNK N   1      28.143  18.920   7.025  0.00  0.00     0.181 C 
HETATM   44  C   UNK N   1      28.151  18.938   4.560  0.00  0.00     0.049 C 
HETATM   45  C   UNK N   1      28.766  17.516   7.061  0.00  0.00     0.152 C 
HETATM   46  O   UNK N   1      27.773  16.516   7.198  0.00  0.00    -0.354 OA
HETATM   47  C   UNK N   1      29.759  17.427   8.201  0.00  0.00     0.042 C 
BRANCH  42  48
HETATM   48  O   UNK N   1      26.604  20.286   5.689  0.00  0.00    -0.383 OA
HETATM   49  C   UNK N   1      25.770  20.363   4.561  0.00  0.00     0.202 C 
ENDBRANCH  42  48
BRANCH  43  50
HETATM   50  O   UNK N   1      27.413  19.143   8.198  0.00  0.00    -0.390 OA
HETATM   51  H   UNK N   1      26.844  19.752   8.695  0.00  0.00     0.210 HD
ENDBRANCH  43  50
ENDBRANCH  39  40
ENDBRANCH   4  39
BRANCH  16  52
HETATM   52  O   UNK N   1      29.754   9.231   0.039  0.00  0.00    -0.255 OA
BRANCH  52  53
HETATM   53  C   UNK N   1      30.444   8.906  -1.110  0.00  0.00     0.369 C 
BRANCH  53  54
HETATM   54  O   UNK N   1      29.720   9.361  -2.215  0.00  0.00    -0.363 OA
BRANCH  54  55
HETATM   55  C   UNK N   1      30.678   9.744  -3.154  0.00  0.00     0.196 C 
BRANCH  55  56
HETATM   56  C   UNK N   1      31.142  11.161  -2.863  0.00  0.00     0.193 C 
BRANCH  56  57
HETATM   57  O   UNK N   1      32.242  11.473  -3.664  0.00  0.00    -0.394 OA
HETATM   58  C   UNK N   1      33.188  10.489  -3.371  0.00  0.00     0.201 C 
ENDBRANCH  56  57
ENDBRANCH  55  56
ENDBRANCH  54  55
ENDBRANCH  53  54
ENDBRANCH  52  53
ENDBRANCH  16  52
BRANCH  11  59
HETATM   59  O   UNK N   1      26.068  11.813   2.543  0.00  0.00    -0.392 OA
HETATM   60  H   UNK N   1      25.657  12.020   3.396  0.00  0.00     0.210 HD
ENDBRANCH  11  59
BRANCH  12  61
HETATM   61  C   UNK N   1      22.165  13.515   1.468  0.00  0.00     0.031 C 
HETATM   62  C   UNK N   1      21.781  14.964   1.237  0.00  0.00     0.007 C 
ENDBRANCH  12  61
BRANCH  20  63
HETATM   63  O   UNK N   1      23.560  10.979   2.069  0.00  0.00    -0.385 OA
HETATM   64  H   UNK N   1      22.874  10.467   2.525  0.00  0.00     0.210 HD
ENDBRANCH  20  63
TORSDOF 18
ENDMDL
MODEL 8
REMARK VINA RESULT:      -6.2      2.152      9.674
REMARK  18 active torsions:
REMARK  status: ('A' for Active; 'I' for Inactive)
REMARK    1  A    between atoms: C_1  and  O_13 
REMARK    2  A    between atoms: C_4  and  O_16 
REMARK    3  A    between atoms: C_11  and  O_37 
REMARK    4  A    between atoms: C_12  and  C_49 
REMARK    5  A    between atoms: C_15  and  O_13 
REMARK    6  A    between atoms: C_20  and  O_16 
REMARK    7  A    between atoms: C_17  and  O_23 
REMARK    8  A    between atoms: C_22  and  N_31 
REMARK    9  A    between atoms: N_25  and  O_42 
REMARK   10  A    between atoms: C_38  and  O_40 
REMARK   11  A    between atoms: C_41  and  O_51 
REMARK   12  A    between atoms: O_42  and  C_43 
REMARK   13  A    between atoms: C_43  and  O_44 
REMARK   14  A    between atoms: O_44  and  C_45 
REMARK   15  A    between atoms: C_45  and  C_46 
REMARK   16  A    between atoms: C_46  and  O_47 
REMARK   17  A    between atoms: C_54  and  O_56 
REMARK   18  A    between atoms: C_55  and  O_57 
ROOT
HETATM    1  C   UNK N   1      29.085  13.664   4.374  0.00  0.00     0.165 C 
HETATM    2  C   UNK N   1      29.081  15.217   4.480  0.00  0.00     0.043 C 
HETATM    3  C   UNK N   1      26.603  13.571   3.475  0.00  0.00     0.050 C 
HETATM    4  C   UNK N   1      29.847  15.773   5.715  0.00  0.00     0.144 C 
HETATM    5  C   UNK N   1      26.523  14.716   2.447  0.00  0.00     0.033 C 
HETATM    6  C   UNK N   1      29.688  17.302   5.936  0.00  0.00     0.111 C 
HETATM    7  C   UNK N   1      25.091  15.201   2.288  0.00  0.00     0.020 C 
HETATM    8  C   UNK N   1      28.269  17.798   5.971  0.00  0.00     0.265 C 
HETATM    9  C   UNK N   1      24.642  16.448   3.026  0.00  0.00     0.061 C 
HETATM   10  O   UNK N   1      27.864  18.668   5.009  0.00  0.00    -0.312 OA
HETATM   11  C   UNK N   1      25.777  17.155   3.797  0.00  0.00     0.164 C 
HETATM   12  C   UNK N   1      26.646  19.310   4.868  0.00  0.00     0.168 C 
HETATM   13  C   UNK N   1      29.431  15.915   3.172  0.00  0.00     0.015 C 
HETATM   14  C   UNK N   1      27.233  14.522   1.112  0.00  0.00     0.016 C 
HETATM   15  C   UNK N   1      30.512  18.103   4.933  0.00  0.00     0.023 C 
HETATM   16  N   UNK N   1      24.220  14.607   1.521  0.00  0.00    -0.272 N 
ATOM     17  HN  UNK N   1      23.282  15.007   1.492  1.00  0.00     0.193 HD
HETATM   18  O   UNK N   1      27.507  17.423   6.850  0.00  0.00    -0.265 OA
HETATM   19  C   UNK N   1      23.474  16.103   3.942  0.00  0.00     0.019 C 
HETATM   20  C   UNK N   1      25.397  18.464   4.525  0.00  0.00     0.107 C 
HETATM   21  C   UNK N   1      27.950  12.864   3.677  0.00  0.00     0.081 C 
HETATM   22  C   UNK N   1      24.525  19.334   3.629  0.00  0.00     0.051 C 
HETATM   23  C   UNK N   1      27.665  11.670   4.566  0.00  0.00     0.049 C 
ENDROOT
BRANCH   1  24
HETATM   24  O   UNK N   1      30.332  12.981   4.320  0.00  0.00    -0.350 OA
BRANCH  24  25
HETATM   25  C   UNK N   1      31.159  13.483   3.289  0.00  0.00     0.291 C 
HETATM   26  C   UNK N   1      32.639  13.229   3.590  0.00  0.00     0.206 C 
HETATM   27  C   UNK N   1      33.062  11.768   3.318  0.00  0.00     0.257 C 
HETATM   28  C   UNK N   1      31.911  10.957   2.725  0.00  0.00     0.070 C 
HETATM   29  C   UNK N   1      31.206  11.753   1.625  0.00  0.00     0.122 C 
HETATM   30  O   UNK N   1      30.766  13.058   1.987  0.00  0.00    -0.354 OA
HETATM   31  C   UNK N   1      32.049  11.815   0.366  0.00  0.00     0.040 C 
BRANCH  26  32
HETATM   32  O   UNK N   1      33.419  14.075   2.802  0.00  0.00    -0.388 OA
HETATM   33  H   UNK N   1      33.696  14.536   1.994  0.00  0.00     0.210 HD
ENDBRANCH  26  32
BRANCH  27  34
HETATM   34  N   UNK N   1      33.592  11.065   4.495  0.00  0.00     0.087 N 
HETATM   35  C   UNK N   1      32.502  10.278   5.051  0.00  0.00     0.310 C 
HETATM   36  C   UNK N   1      34.619  10.099   4.134  0.00  0.00     0.310 C 
ENDBRANCH  27  34
ENDBRANCH  24  25
ENDBRANCH   1  24
BRANCH  21  37
HETATM   37  O   UNK N   1      28.379  12.366   2.455  0.00  0.00    -0.388 OA
HETATM   38  H   UNK N   1      28.812  12.796   1.700  0.00  0.00     0.210 HD
ENDBRANCH  21  37
BRANCH   4  39
HETATM   39  O   UNK N   1      31.222  15.449   5.678  0.00  0.00    -0.355 OA
BRANCH  39  40
HETATM   40  C   UNK N   1      31.563  14.969   6.957  0.00  0.00     0.263 C 
HETATM   41  C   UNK N   1      31.867  16.097   7.973  0.00  0.00     0.101 C 
HETATM   42  C   UNK N   1      33.269  16.721   7.768  0.00  0.00     0.089 C 
HETATM   43  C   UNK N   1      34.307  15.597   7.616  0.00  0.00     0.181 C 
HETATM   44  C   UNK N   1      33.266  17.517   6.472  0.00  0.00     0.049 C 
HETATM   45  C   UNK N   1      33.817  14.628   6.528  0.00  0.00     0.152 C 
HETATM   46  O   UNK N   1      32.603  14.004   6.905  0.00  0.00    -0.354 OA
HETATM   47  C   UNK N   1      34.880  13.584   6.258  0.00  0.00     0.042 C 
BRANCH  42  48
HETATM   48  O   UNK N   1      33.633  17.647   8.782  0.00  0.00    -0.383 OA
HETATM   49  C   UNK N   1      34.562  18.591   8.312  0.00  0.00     0.202 C 
ENDBRANCH  42  48
BRANCH  43  50
HETATM   50  O   UNK N   1      34.490  14.906   8.818  0.00  0.00    -0.390 OA
HETATM   51  H   UNK N   1      34.135  14.703   9.698  0.00  0.00     0.210 HD
ENDBRANCH  43  50
ENDBRANCH  39  40
ENDBRANCH   4  39
BRANCH  16  52
HETATM   52  O   UNK N   1      24.439  13.533   0.780  0.00  0.00    -0.255 OA
BRANCH  52  53
HETATM   53  C   UNK N   1      24.174  12.239   1.177  0.00  0.00     0.369 C 
BRANCH  53  54
HETATM   54  O   UNK N   1      25.325  11.468   1.000  0.00  0.00    -0.363 OA
BRANCH  54  55
HETATM   55  C   UNK N   1      25.228  10.435   1.933  0.00  0.00     0.196 C 
BRANCH  55  56
HETATM   56  C   UNK N   1      26.316   9.407   1.674  0.00  0.00     0.193 C 
BRANCH  56  57
HETATM   57  O   UNK N   1      27.355   9.991   0.947  0.00  0.00    -0.394 OA
HETATM   58  C   UNK N   1      28.454   9.157   1.162  0.00  0.00     0.201 C 
ENDBRANCH  56  57
ENDBRANCH  55  56
ENDBRANCH  54  55
ENDBRANCH  53  54
ENDBRANCH  52  53
ENDBRANCH  16  52
BRANCH  11  59
HETATM   59  O   UNK N   1      26.319  16.262   4.722  0.00  0.00    -0.392 OA
HETATM   60  H   UNK N   1      26.435  15.304   4.818  0.00  0.00     0.210 HD
ENDBRANCH  11  59
BRANCH  12  61
HETATM   61  C   UNK N   1      26.460  20.519   5.789  0.00  0.00     0.031 C 
HETATM   62  C   UNK N   1      27.760  21.255   6.055  0.00  0.00     0.007 C 
ENDBRANCH  12  61
BRANCH  20  63
HETATM   63  O   UNK N   1      24.682  18.160   5.687  0.00  0.00    -0.385 OA
HETATM   64  H   UNK N   1      23.954  18.159   6.328  0.00  0.00     0.210 HD
ENDBRANCH  20  63
TORSDOF 18
ENDMDL
MODEL 9
REMARK VINA RESULT:      -6.2      2.810      9.793
REMARK  18 active torsions:
REMARK  status: ('A' for Active; 'I' for Inactive)
REMARK    1  A    between atoms: C_1  and  O_13 
REMARK    2  A    between atoms: C_4  and  O_16 
REMARK    3  A    between atoms: C_11  and  O_37 
REMARK    4  A    between atoms: C_12  and  C_49 
REMARK    5  A    between atoms: C_15  and  O_13 
REMARK    6  A    between atoms: C_20  and  O_16 
REMARK    7  A    between atoms: C_17  and  O_23 
REMARK    8  A    between atoms: C_22  and  N_31 
REMARK    9  A    between atoms: N_25  and  O_42 
REMARK   10  A    between atoms: C_38  and  O_40 
REMARK   11  A    between atoms: C_41  and  O_51 
REMARK   12  A    between atoms: O_42  and  C_43 
REMARK   13  A    between atoms: C_43  and  O_44 
REMARK   14  A    between atoms: O_44  and  C_45 
REMARK   15  A    between atoms: C_45  and  C_46 
REMARK   16  A    between atoms: C_46  and  O_47 
REMARK   17  A    between atoms: C_54  and  O_56 
REMARK   18  A    between atoms: C_55  and  O_57 
ROOT
HETATM    1  C   UNK N   1      25.691  13.452   3.812  0.00  0.00     0.165 C 
HETATM    2  C   UNK N   1      25.251  14.929   3.597  0.00  0.00     0.043 C 
HETATM    3  C   UNK N   1      23.367  12.486   3.012  0.00  0.00     0.050 C 
HETATM    4  C   UNK N   1      25.788  15.916   4.673  0.00  0.00     0.144 C 
HETATM    5  C   UNK N   1      23.006  13.329   1.773  0.00  0.00     0.033 C 
HETATM    6  C   UNK N   1      25.202  17.352   4.580  0.00  0.00     0.111 C 
HETATM    7  C   UNK N   1      21.502  13.351   1.553  0.00  0.00     0.020 C 
HETATM    8  C   UNK N   1      23.701  17.427   4.546  0.00  0.00     0.265 C 
HETATM    9  C   UNK N   1      20.698  14.545   2.030  0.00  0.00     0.061 C 
HETATM   10  O   UNK N   1      23.102  17.934   3.436  0.00  0.00    -0.312 OA
HETATM   11  C   UNK N   1      21.563  15.683   2.611  0.00  0.00     0.164 C 
HETATM   12  C   UNK N   1      21.759  18.167   3.197  0.00  0.00     0.168 C 
HETATM   13  C   UNK N   1      25.437  15.415   2.166  0.00  0.00     0.015 C 
HETATM   14  C   UNK N   1      23.788  13.074   0.490  0.00  0.00     0.016 C 
HETATM   15  C   UNK N   1      25.804  18.129   3.414  0.00  0.00     0.023 C 
HETATM   16  N   UNK N   1      20.858  12.393   0.946  0.00  0.00    -0.272 N 
ATOM     17  HN  UNK N   1      19.847  12.500   0.858  1.00  0.00     0.193 HD
HETATM   18  O   UNK N   1      23.044  17.041   5.502  0.00  0.00    -0.265 OA
HETATM   19  C   UNK N   1      19.642  14.081   3.026  0.00  0.00     0.019 C 
HETATM   20  C   UNK N   1      20.809  16.954   3.065  0.00  0.00     0.107 C 
HETATM   21  C   UNK N   1      24.849  12.242   3.322  0.00  0.00     0.081 C 
HETATM   22  C   UNK N   1      19.761  17.343   2.031  0.00  0.00     0.051 C 
HETATM   23  C   UNK N   1      24.878  11.223   4.444  0.00  0.00     0.049 C 
ENDROOT
BRANCH   1  24
HETATM   24  O   UNK N   1      27.081  13.149   3.869  0.00  0.00    -0.350 OA
BRANCH  24  25
HETATM   25  C   UNK N   1      27.782  13.702   2.773  0.00  0.00     0.291 C 
HETATM   26  C   UNK N   1      29.248  13.967   3.129  0.00  0.00     0.206 C 
HETATM   27  C   UNK N   1      30.106  12.682   3.123  0.00  0.00     0.257 C 
HETATM   28  C   UNK N   1      29.290  11.471   2.671  0.00  0.00     0.070 C 
HETATM   29  C   UNK N   1      28.450  11.820   1.442  0.00  0.00     0.122 C 
HETATM   30  O   UNK N   1      27.617  12.969   1.563  0.00  0.00    -0.354 OA
HETATM   31  C   UNK N   1      29.312  11.928   0.199  0.00  0.00     0.040 C 
BRANCH  26  32
HETATM   32  O   UNK N   1      29.786  14.869   2.211  0.00  0.00    -0.388 OA
HETATM   33  H   UNK N   1      29.877  15.327   1.360  0.00  0.00     0.210 HD
ENDBRANCH  26  32
BRANCH  27  34
HETATM   34  N   UNK N   1      30.748  12.379   4.410  0.00  0.00     0.087 N 
HETATM   35  C   UNK N   1      30.495  10.975   4.694  0.00  0.00     0.310 C 
HETATM   36  C   UNK N   1      32.196  12.504   4.338  0.00  0.00     0.310 C 
ENDBRANCH  27  34
ENDBRANCH  24  25
ENDBRANCH   1  24
BRANCH  21  37
HETATM   37  O   UNK N   1      25.442  11.645   2.218  0.00  0.00    -0.388 OA
HETATM   38  H   UNK N   1      25.072  11.343   1.373  0.00  0.00     0.210 HD
ENDBRANCH  21  37
BRANCH   4  39
HETATM   39  O   UNK N   1      27.199  15.990   4.670  0.00  0.00    -0.355 OA
BRANCH  39  40
HETATM   40  C   UNK N   1      27.622  15.782   5.997  0.00  0.00     0.263 C 
HETATM   41  C   UNK N   1      27.383  17.005   6.914  0.00  0.00     0.101 C 
HETATM   42  C   UNK N   1      28.426  18.127   6.696  0.00  0.00     0.089 C 
HETATM   43  C   UNK N   1      29.836  17.513   6.676  0.00  0.00     0.181 C 
HETATM   44  C   UNK N   1      28.187  18.760   5.334  0.00  0.00     0.049 C 
HETATM   45  C   UNK N   1      29.846  16.353   5.667  0.00  0.00     0.152 C 
HETATM   46  O   UNK N   1      28.963  15.320   6.063  0.00  0.00    -0.354 OA
HETATM   47  C   UNK N   1      31.254  15.814   5.525  0.00  0.00     0.042 C 
BRANCH  42  48
HETATM   48  O   UNK N   1      28.323  19.191   7.632  0.00  0.00    -0.383 OA
HETATM   49  C   UNK N   1      27.437  20.188   7.188  0.00  0.00     0.202 C 
ENDBRANCH  42  48
BRANCH  43  50
HETATM   50  O   UNK N   1      30.204  17.042   7.941  0.00  0.00    -0.390 OA
HETATM   51  H   UNK N   1      30.717  17.204   8.749  0.00  0.00     0.210 HD
ENDBRANCH  43  50
ENDBRANCH  39  40
ENDBRANCH   4  39
BRANCH  16  52
HETATM   52  O   UNK N   1      21.393  11.296   0.436  0.00  0.00    -0.255 OA
BRANCH  52  53
HETATM   53  C   UNK N   1      21.348  10.052   1.030  0.00  0.00     0.369 C 
BRANCH  53  54
HETATM   54  O   UNK N   1      22.654   9.596   1.220  0.00  0.00    -0.363 OA
BRANCH  54  55
HETATM   55  C   UNK N   1      22.923   8.771   0.127  0.00  0.00     0.196 C 
BRANCH  55  56
HETATM   56  C   UNK N   1      24.310   9.073  -0.413  0.00  0.00     0.193 C 
BRANCH  56  57
HETATM   57  O   UNK N   1      25.207   9.226   0.645  0.00  0.00    -0.394 OA
HETATM   58  C   UNK N   1      26.459   8.938   0.098  0.00  0.00     0.201 C 
ENDBRANCH  56  57
ENDBRANCH  55  56
ENDBRANCH  54  55
ENDBRANCH  53  54
ENDBRANCH  52  53
ENDBRANCH  16  52
BRANCH  11  59
HETATM   59  O   UNK N   1      22.300  15.185   3.687  0.00  0.00    -0.392 OA
HETATM   60  H   UNK N   1      23.188  14.831   3.852  0.00  0.00     0.210 HD
ENDBRANCH  11  59
BRANCH  12  61
HETATM   61  C   UNK N   1      21.212  19.437   3.854  0.00  0.00     0.031 C 
HETATM   62  C   UNK N   1      21.061  20.583   2.872  0.00  0.00     0.007 C 
ENDBRANCH  12  61
BRANCH  20  63
HETATM   63  O   UNK N   1      20.167  16.705   4.281  0.00  0.00    -0.385 OA
HETATM   64  H   UNK N   1      19.641  16.236   4.948  0.00  0.00     0.210 HD
ENDBRANCH  20  63
TORSDOF 18
ENDMDL
