MODEL 1
REMARK VINA RESULT:      -6.7      0.000      0.000
REMARK  7 active torsions:
REMARK  status: ('A' for Active; 'I' for Inactive)
REMARK    1  A    between atoms: C_2  and  O_6 
REMARK    2  A    between atoms: C_5  and  C_8 
REMARK    3  A    between atoms: C_8  and  C_9 
REMARK    4  A    between atoms: C_8  and  C_11 
REMARK    5  A    between atoms: C_11  and  C_12 
REMARK    6  A    between atoms: C_11  and  C_14 
REMARK    7  A    between atoms: C_17  and  O_18 
ROOT
HETATM    1  C   UNK N   1      37.168  12.142  14.672  0.00  0.00     0.027 C 
ENDROOT
BRANCH   1   2
HETATM    2  C   UNK N   1      36.841  12.994  13.443  0.00  0.00    -0.053 A 
HETATM    3  C   UNK N   1      36.277  14.277  13.561  0.00  0.00     0.010 A 
HETATM    4  C   UNK N   1      35.988  15.040  12.426  0.00  0.00     0.037 A 
HETATM    5  C   UNK N   1      36.258  14.526  11.158  0.00  0.00     0.065 A 
HETATM    6  C   UNK N   1      36.817  13.255  11.021  0.00  0.00     0.037 A 
HETATM    7  C   UNK N   1      37.107  12.493  12.158  0.00  0.00     0.010 A 
BRANCH   5   8
HETATM    8  O   UNK N   1      35.980  15.258  10.065  0.00  0.00    -0.361 OA
HETATM    9  H   UNK N   1      35.115  15.597   9.934  0.00  0.00     0.217 HD
ENDBRANCH   5   8
ENDBRANCH   1   2
BRANCH   1  10
HETATM   10  C   UNK N   1      38.156  11.033  14.262  0.00  0.00     0.005 C 
HETATM   11  C   UNK N   1      37.882   9.703  14.946  0.00  0.00     0.006 C 
ENDBRANCH   1  10
BRANCH   1  12
HETATM   12  C   UNK N   1      35.913  11.488  15.340  0.00  0.00     0.027 C 
BRANCH  12  13
HETATM   13  C   UNK N   1      34.678  11.763  14.463  0.00  0.00     0.005 C 
HETATM   14  C   UNK N   1      33.585  10.721  14.648  0.00  0.00     0.006 C 
ENDBRANCH  12  13
BRANCH  12  15
HETATM   15  C   UNK N   1      35.631  11.973  16.763  0.00  0.00    -0.053 A 
HETATM   16  C   UNK N   1      35.367  13.333  16.992  0.00  0.00     0.010 A 
HETATM   17  C   UNK N   1      35.091  13.799  18.284  0.00  0.00     0.037 A 
HETATM   18  C   UNK N   1      35.074  12.908  19.357  0.00  0.00     0.065 A 
HETATM   19  C   UNK N   1      35.338  11.555  19.148  0.00  0.00     0.037 A 
HETATM   20  C   UNK N   1      35.616  11.090  17.858  0.00  0.00     0.010 A 
BRANCH  18  21
HETATM   21  O   UNK N   1      34.802  13.354  20.596  0.00  0.00    -0.361 OA
HETATM   22  H   UNK N   1      35.345  13.100  21.316  0.00  0.00     0.217 HD
ENDBRANCH  18  21
ENDBRANCH  12  15
ENDBRANCH   1  12
TORSDOF 7
ENDMDL
MODEL 2
REMARK VINA RESULT:      -6.5     21.060     24.787
REMARK  7 active torsions:
REMARK  status: ('A' for Active; 'I' for Inactive)
REMARK    1  A    between atoms: C_2  and  O_6 
REMARK    2  A    between atoms: C_5  and  C_8 
REMARK    3  A    between atoms: C_8  and  C_9 
REMARK    4  A    between atoms: C_8  and  C_11 
REMARK    5  A    between atoms: C_11  and  C_12 
REMARK    6  A    between atoms: C_11  and  C_14 
REMARK    7  A    between atoms: C_17  and  O_18 
ROOT
HETATM    1  C   UNK N   1      28.371  23.634  -5.841  0.00  0.00     0.027 C 
ENDROOT
BRANCH   1   2
HETATM    2  C   UNK N   1      29.372  23.030  -4.851  0.00  0.00    -0.053 A 
HETATM    3  C   UNK N   1      29.836  21.709  -4.982  0.00  0.00     0.010 A 
HETATM    4  C   UNK N   1      30.752  21.179  -4.069  0.00  0.00     0.037 A 
HETATM    5  C   UNK N   1      31.213  21.964  -3.013  0.00  0.00     0.065 A 
HETATM    6  C   UNK N   1      30.762  23.276  -2.867  0.00  0.00     0.037 A 
HETATM    7  C   UNK N   1      29.846  23.807  -3.782  0.00  0.00     0.010 A 
BRANCH   5   8
HETATM    8  O   UNK N   1      32.093  21.455  -2.133  0.00  0.00    -0.361 OA
HETATM    9  H   UNK N   1      31.792  21.100  -1.318  0.00  0.00     0.217 HD
ENDBRANCH   5   8
ENDBRANCH   1   2
BRANCH   1  10
HETATM   10  C   UNK N   1      28.824  25.061  -6.201  0.00  0.00     0.005 C 
HETATM   11  C   UNK N   1      28.929  25.297  -7.699  0.00  0.00     0.006 C 
ENDBRANCH   1  10
BRANCH   1  12
HETATM   12  C   UNK N   1      26.902  23.683  -5.303  0.00  0.00     0.027 C 
BRANCH  12  13
HETATM   13  C   UNK N   1      25.948  23.187  -6.405  0.00  0.00     0.005 C 
HETATM   14  C   UNK N   1      26.621  22.224  -7.372  0.00  0.00     0.006 C 
ENDBRANCH  12  13
BRANCH  12  15
HETATM   15  C   UNK N   1      26.447  25.067  -4.836  0.00  0.00    -0.053 A 
HETATM   16  C   UNK N   1      26.791  25.512  -3.549  0.00  0.00     0.010 A 
HETATM   17  C   UNK N   1      26.400  26.780  -3.104  0.00  0.00     0.037 A 
HETATM   18  C   UNK N   1      25.662  27.615  -3.943  0.00  0.00     0.065 A 
HETATM   19  C   UNK N   1      25.307  27.188  -5.222  0.00  0.00     0.037 A 
HETATM   20  C   UNK N   1      25.697  25.919  -5.665  0.00  0.00     0.010 A 
BRANCH  18  21
HETATM   21  O   UNK N   1      25.292  28.837  -3.518  0.00  0.00    -0.361 OA
HETATM   22  H   UNK N   1      24.562  28.930  -2.937  0.00  0.00     0.217 HD
ENDBRANCH  18  21
ENDBRANCH  12  15
ENDBRANCH   1  12
TORSDOF 7
ENDMDL
MODEL 3
REMARK VINA RESULT:      -6.4      0.789      6.070
REMARK  7 active torsions:
REMARK  status: ('A' for Active; 'I' for Inactive)
REMARK    1  A    between atoms: C_2  and  O_6 
REMARK    2  A    between atoms: C_5  and  C_8 
REMARK    3  A    between atoms: C_8  and  C_9 
REMARK    4  A    between atoms: C_8  and  C_11 
REMARK    5  A    between atoms: C_11  and  C_12 
REMARK    6  A    between atoms: C_11  and  C_14 
REMARK    7  A    between atoms: C_17  and  O_18 
ROOT
HETATM    1  C   UNK N   1      35.868  11.476  15.196  0.00  0.00     0.027 C 
ENDROOT
BRANCH   1   2
HETATM    2  C   UNK N   1      35.615  11.969  16.623  0.00  0.00    -0.053 A 
HETATM    3  C   UNK N   1      35.377  13.326  16.906  0.00  0.00     0.010 A 
HETATM    4  C   UNK N   1      35.146  13.754  18.217  0.00  0.00     0.037 A 
HETATM    5  C   UNK N   1      35.153  12.829  19.260  0.00  0.00     0.065 A 
HETATM    6  C   UNK N   1      35.388  11.480  18.998  0.00  0.00     0.037 A 
HETATM    7  C   UNK N   1      35.618  11.051  17.686  0.00  0.00     0.010 A 
BRANCH   5   8
HETATM    8  O   UNK N   1      34.932  13.240  20.521  0.00  0.00    -0.361 OA
HETATM    9  H   UNK N   1      35.023  14.147  20.743  0.00  0.00     0.217 HD
ENDBRANCH   5   8
ENDBRANCH   1   2
BRANCH   1  10
HETATM   10  C   UNK N   1      37.255  11.966  14.737  0.00  0.00     0.005 C 
HETATM   11  C   UNK N   1      38.200  10.832  14.372  0.00  0.00     0.006 C 
ENDBRANCH   1  10
BRANCH   1  12
HETATM   12  C   UNK N   1      34.790  11.950  14.164  0.00  0.00     0.027 C 
BRANCH  12  13
HETATM   13  C   UNK N   1      34.115  10.714  13.543  0.00  0.00     0.005 C 
HETATM   14  C   UNK N   1      34.804   9.414  13.930  0.00  0.00     0.006 C 
ENDBRANCH  12  13
BRANCH  12  15
HETATM   15  C   UNK N   1      35.337  12.835  13.042  0.00  0.00    -0.053 A 
HETATM   16  C   UNK N   1      35.576  14.197  13.288  0.00  0.00     0.010 A 
HETATM   17  C   UNK N   1      36.090  15.024  12.282  0.00  0.00     0.037 A 
HETATM   18  C   UNK N   1      36.371  14.497  11.022  0.00  0.00     0.065 A 
HETATM   19  C   UNK N   1      36.135  13.148  10.759  0.00  0.00     0.037 A 
HETATM   20  C   UNK N   1      35.619  12.322  11.764  0.00  0.00     0.010 A 
BRANCH  18  21
HETATM   21  O   UNK N   1      36.871  15.290  10.058  0.00  0.00    -0.361 OA
HETATM   22  H   UNK N   1      36.293  15.765   9.494  0.00  0.00     0.217 HD
ENDBRANCH  18  21
ENDBRANCH  12  15
ENDBRANCH   1  12
TORSDOF 7
ENDMDL
MODEL 4
REMARK VINA RESULT:      -6.4      7.788     11.124
REMARK  7 active torsions:
REMARK  status: ('A' for Active; 'I' for Inactive)
REMARK    1  A    between atoms: C_2  and  O_6 
REMARK    2  A    between atoms: C_5  and  C_8 
REMARK    3  A    between atoms: C_8  and  C_9 
REMARK    4  A    between atoms: C_8  and  C_11 
REMARK    5  A    between atoms: C_11  and  C_12 
REMARK    6  A    between atoms: C_11  and  C_14 
REMARK    7  A    between atoms: C_17  and  O_18 
ROOT
HETATM    1  C   UNK N   1      32.174  16.182   5.903  0.00  0.00     0.027 C 
ENDROOT
BRANCH   1   2
HETATM    2  C   UNK N   1      33.091  16.583   7.062  0.00  0.00    -0.053 A 
HETATM    3  C   UNK N   1      33.660  17.867   7.144  0.00  0.00     0.010 A 
HETATM    4  C   UNK N   1      34.493  18.214   8.213  0.00  0.00     0.037 A 
HETATM    5  C   UNK N   1      34.766  17.279   9.210  0.00  0.00     0.065 A 
HETATM    6  C   UNK N   1      34.211  16.001   9.145  0.00  0.00     0.037 A 
HETATM    7  C   UNK N   1      33.377  15.655   8.076  0.00  0.00     0.010 A 
BRANCH   5   8
HETATM    8  O   UNK N   1      35.568  17.611  10.237  0.00  0.00    -0.361 OA
HETATM    9  H   UNK N   1      35.496  18.457  10.635  0.00  0.00     0.217 HD
ENDBRANCH   5   8
ENDBRANCH   1   2
BRANCH   1  10
HETATM   10  C   UNK N   1      32.007  17.387   4.958  0.00  0.00     0.005 C 
HETATM   11  C   UNK N   1      32.640  17.170   3.593  0.00  0.00     0.006 C 
ENDBRANCH   1  10
BRANCH   1  12
HETATM   12  C   UNK N   1      30.760  15.688   6.358  0.00  0.00     0.027 C 
BRANCH  12  13
HETATM   13  C   UNK N   1      30.090  14.945   5.189  0.00  0.00     0.005 C 
HETATM   14  C   UNK N   1      30.906  13.755   4.706  0.00  0.00     0.006 C 
ENDBRANCH  12  13
BRANCH  12  15
HETATM   15  C   UNK N   1      29.828  16.801   6.841  0.00  0.00    -0.053 A 
HETATM   16  C   UNK N   1      28.752  17.202   6.033  0.00  0.00     0.010 A 
HETATM   17  C   UNK N   1      27.876  18.208   6.460  0.00  0.00     0.037 A 
HETATM   18  C   UNK N   1      28.067  18.819   7.699  0.00  0.00     0.065 A 
HETATM   19  C   UNK N   1      29.133  18.436   8.512  0.00  0.00     0.037 A 
HETATM   20  C   UNK N   1      30.010  17.433   8.084  0.00  0.00     0.010 A 
BRANCH  18  21
HETATM   21  O   UNK N   1      27.221  19.780   8.112  0.00  0.00    -0.361 OA
HETATM   22  H   UNK N   1      26.359  19.834   7.747  0.00  0.00     0.217 HD
ENDBRANCH  18  21
ENDBRANCH  12  15
ENDBRANCH   1  12
TORSDOF 7
ENDMDL
MODEL 5
REMARK VINA RESULT:      -6.4      0.858      6.295
REMARK  7 active torsions:
REMARK  status: ('A' for Active; 'I' for Inactive)
REMARK    1  A    between atoms: C_2  and  O_6 
REMARK    2  A    between atoms: C_5  and  C_8 
REMARK    3  A    between atoms: C_8  and  C_9 
REMARK    4  A    between atoms: C_8  and  C_11 
REMARK    5  A    between atoms: C_11  and  C_12 
REMARK    6  A    between atoms: C_11  and  C_14 
REMARK    7  A    between atoms: C_17  and  O_18 
ROOT
HETATM    1  C   UNK N   1      34.615  11.927  14.763  0.00  0.00     0.027 C 
ENDROOT
BRANCH   1   2
HETATM    2  C   UNK N   1      34.882  12.151  16.255  0.00  0.00    -0.053 A 
HETATM    3  C   UNK N   1      34.941  13.441  16.810  0.00  0.00     0.010 A 
HETATM    4  C   UNK N   1      35.183  13.623  18.175  0.00  0.00     0.037 A 
HETATM    5  C   UNK N   1      35.370  12.514  19.000  0.00  0.00     0.065 A 
HETATM    6  C   UNK N   1      35.314  11.227  18.466  0.00  0.00     0.037 A 
HETATM    7  C   UNK N   1      35.071  11.046  17.100  0.00  0.00     0.010 A 
BRANCH   5   8
HETATM    8  O   UNK N   1      35.604  12.687  20.312  0.00  0.00    -0.361 OA
HETATM    9  H   UNK N   1      36.263  12.178  20.744  0.00  0.00     0.217 HD
ENDBRANCH   5   8
ENDBRANCH   1   2
BRANCH   1  10
HETATM   10  C   UNK N   1      33.920  10.565  14.579  0.00  0.00     0.005 C 
HETATM   11  C   UNK N   1      34.564   9.705  13.503  0.00  0.00     0.006 C 
ENDBRANCH   1  10
BRANCH   1  12
HETATM   12  C   UNK N   1      35.905  11.968  13.878  0.00  0.00     0.027 C 
BRANCH  12  13
HETATM   13  C   UNK N   1      37.141  12.017  14.795  0.00  0.00     0.005 C 
HETATM   14  C   UNK N   1      38.095  10.857  14.553  0.00  0.00     0.006 C 
ENDBRANCH  12  13
BRANCH  12  15
HETATM   15  C   UNK N   1      35.963  13.145  12.901  0.00  0.00    -0.053 A 
HETATM   16  C   UNK N   1      35.921  12.900  11.519  0.00  0.00     0.010 A 
HETATM   17  C   UNK N   1      35.957  13.961  10.605  0.00  0.00     0.037 A 
HETATM   18  C   UNK N   1      36.034  15.275  11.066  0.00  0.00     0.065 A 
HETATM   19  C   UNK N   1      36.082  15.536  12.435  0.00  0.00     0.037 A 
HETATM   20  C   UNK N   1      36.048  14.475  13.347  0.00  0.00     0.010 A 
BRANCH  18  21
HETATM   21  O   UNK N   1      36.061  16.294  10.189  0.00  0.00    -0.361 OA
HETATM   22  H   UNK N   1      35.419  16.344   9.508  0.00  0.00     0.217 HD
ENDBRANCH  18  21
ENDBRANCH  12  15
ENDBRANCH   1  12
TORSDOF 7
ENDMDL
MODEL 6
REMARK VINA RESULT:      -6.3      1.298      2.127
REMARK  7 active torsions:
REMARK  status: ('A' for Active; 'I' for Inactive)
REMARK    1  A    between atoms: C_2  and  O_6 
REMARK    2  A    between atoms: C_5  and  C_8 
REMARK    3  A    between atoms: C_8  and  C_9 
REMARK    4  A    between atoms: C_8  and  C_11 
REMARK    5  A    between atoms: C_11  and  C_12 
REMARK    6  A    between atoms: C_11  and  C_14 
REMARK    7  A    between atoms: C_17  and  O_18 
ROOT
HETATM    1  C   UNK N   1      36.005  13.724  14.784  0.00  0.00     0.027 C 
ENDROOT
BRANCH   1   2
HETATM    2  C   UNK N   1      36.286  13.857  13.285  0.00  0.00    -0.053 A 
HETATM    3  C   UNK N   1      36.987  12.868  12.574  0.00  0.00     0.010 A 
HETATM    4  C   UNK N   1      37.231  13.008  11.204  0.00  0.00     0.037 A 
HETATM    5  C   UNK N   1      36.776  14.142  10.531  0.00  0.00     0.065 A 
HETATM    6  C   UNK N   1      36.079  15.134  11.221  0.00  0.00     0.037 A 
HETATM    7  C   UNK N   1      35.835  14.992  12.592  0.00  0.00     0.010 A 
BRANCH   5   8
HETATM    8  O   UNK N   1      37.010  14.278   9.214  0.00  0.00    -0.361 OA
HETATM    9  H   UNK N   1      37.367  15.080   8.880  0.00  0.00     0.217 HD
ENDBRANCH   5   8
ENDBRANCH   1   2
BRANCH   1  10
HETATM   10  C   UNK N   1      37.281  14.093  15.566  0.00  0.00     0.005 C 
HETATM   11  C   UNK N   1      37.339  15.560  15.961  0.00  0.00     0.006 C 
ENDBRANCH   1  10
BRANCH   1  12
HETATM   12  C   UNK N   1      35.536  12.294  15.215  0.00  0.00     0.027 C 
BRANCH  12  13
HETATM   13  C   UNK N   1      34.107  12.059  14.695  0.00  0.00     0.005 C 
HETATM   14  C   UNK N   1      33.788  10.582  14.508  0.00  0.00     0.006 C 
ENDBRANCH  12  13
BRANCH  12  15
HETATM   15  C   UNK N   1      35.564  12.049  16.725  0.00  0.00    -0.053 A 
HETATM   16  C   UNK N   1      35.072  13.034  17.596  0.00  0.00     0.010 A 
HETATM   17  C   UNK N   1      35.073  12.826  18.981  0.00  0.00     0.037 A 
HETATM   18  C   UNK N   1      35.563  11.631  19.506  0.00  0.00     0.065 A 
HETATM   19  C   UNK N   1      36.060  10.644  18.656  0.00  0.00     0.037 A 
HETATM   20  C   UNK N   1      36.061  10.853  17.272  0.00  0.00     0.010 A 
BRANCH  18  21
HETATM   21  O   UNK N   1      35.557  11.429  20.836  0.00  0.00    -0.361 OA
HETATM   22  H   UNK N   1      34.801  11.062  21.250  0.00  0.00     0.217 HD
ENDBRANCH  18  21
ENDBRANCH  12  15
ENDBRANCH   1  12
TORSDOF 7
ENDMDL
MODEL 7
REMARK VINA RESULT:      -6.2      0.745      2.401
REMARK  7 active torsions:
REMARK  status: ('A' for Active; 'I' for Inactive)
REMARK    1  A    between atoms: C_2  and  O_6 
REMARK    2  A    between atoms: C_5  and  C_8 
REMARK    3  A    between atoms: C_8  and  C_9 
REMARK    4  A    between atoms: C_8  and  C_11 
REMARK    5  A    between atoms: C_11  and  C_12 
REMARK    6  A    between atoms: C_11  and  C_14 
REMARK    7  A    between atoms: C_17  and  O_18 
ROOT
HETATM    1  C   UNK N   1      35.721  11.641  14.156  0.00  0.00     0.027 C 
ENDROOT
BRANCH   1   2
HETATM    2  C   UNK N   1      36.090  12.758  13.175  0.00  0.00    -0.053 A 
HETATM    3  C   UNK N   1      36.883  12.513  12.040  0.00  0.00     0.010 A 
HETATM    4  C   UNK N   1      37.206  13.547  11.156  0.00  0.00     0.037 A 
HETATM    5  C   UNK N   1      36.740  14.838  11.399  0.00  0.00     0.065 A 
HETATM    6  C   UNK N   1      35.953  15.100  12.520  0.00  0.00     0.037 A 
HETATM    7  C   UNK N   1      35.629  14.064  13.404  0.00  0.00     0.010 A 
BRANCH   5   8
HETATM    8  O   UNK N   1      37.051  15.833  10.550  0.00  0.00    -0.361 OA
HETATM    9  H   UNK N   1      36.554  16.629  10.555  0.00  0.00     0.217 HD
ENDBRANCH   5   8
ENDBRANCH   1   2
BRANCH   1  10
HETATM   10  C   UNK N   1      34.290  11.883  14.672  0.00  0.00     0.005 C 
HETATM   11  C   UNK N   1      33.412  10.643  14.610  0.00  0.00     0.006 C 
ENDBRANCH   1  10
BRANCH   1  12
HETATM   12  C   UNK N   1      36.694  11.525  15.377  0.00  0.00     0.027 C 
BRANCH  12  13
HETATM   13  C   UNK N   1      37.107  10.053  15.550  0.00  0.00     0.005 C 
HETATM   14  C   UNK N   1      37.112   9.288  14.235  0.00  0.00     0.006 C 
ENDBRANCH  12  13
BRANCH  12  15
HETATM   15  C   UNK N   1      36.114  12.039  16.696  0.00  0.00    -0.053 A 
HETATM   16  C   UNK N   1      35.871  11.136  17.744  0.00  0.00     0.010 A 
HETATM   17  C   UNK N   1      35.356  11.584  18.966  0.00  0.00     0.037 A 
HETATM   18  C   UNK N   1      35.081  12.938  19.152  0.00  0.00     0.065 A 
HETATM   19  C   UNK N   1      35.312  13.848  18.121  0.00  0.00     0.037 A 
HETATM   20  C   UNK N   1      35.825  13.400  16.899  0.00  0.00     0.010 A 
BRANCH  18  21
HETATM   21  O   UNK N   1      34.593  13.369  20.329  0.00  0.00    -0.361 OA
HETATM   22  H   UNK N   1      35.174  13.534  21.046  0.00  0.00     0.217 HD
ENDBRANCH  18  21
ENDBRANCH  12  15
ENDBRANCH   1  12
TORSDOF 7
ENDMDL
MODEL 8
REMARK VINA RESULT:      -6.2     22.909     26.405
REMARK  7 active torsions:
REMARK  status: ('A' for Active; 'I' for Inactive)
REMARK    1  A    between atoms: C_2  and  O_6 
REMARK    2  A    between atoms: C_5  and  C_8 
REMARK    3  A    between atoms: C_8  and  C_9 
REMARK    4  A    between atoms: C_8  and  C_11 
REMARK    5  A    between atoms: C_11  and  C_12 
REMARK    6  A    between atoms: C_11  and  C_14 
REMARK    7  A    between atoms: C_17  and  O_18 
ROOT
HETATM    1  C   UNK N   1      25.806  23.952  -6.331  0.00  0.00     0.027 C 
ENDROOT
BRANCH   1   2
HETATM    2  C   UNK N   1      26.956  23.940  -5.321  0.00  0.00    -0.053 A 
HETATM    3  C   UNK N   1      28.294  23.781  -5.726  0.00  0.00     0.010 A 
HETATM    4  C   UNK N   1      29.330  23.776  -4.787  0.00  0.00     0.037 A 
HETATM    5  C   UNK N   1      29.039  23.926  -3.431  0.00  0.00     0.065 A 
HETATM    6  C   UNK N   1      27.718  24.084  -3.012  0.00  0.00     0.037 A 
HETATM    7  C   UNK N   1      26.682  24.091  -3.952  0.00  0.00     0.010 A 
BRANCH   5   8
HETATM    8  O   UNK N   1      30.034  23.920  -2.528  0.00  0.00    -0.361 OA
HETATM    9  H   UNK N   1      30.534  24.698  -2.372  0.00  0.00     0.217 HD
ENDBRANCH   5   8
ENDBRANCH   1   2
BRANCH   1  10
HETATM   10  C   UNK N   1      26.011  22.802  -7.335  0.00  0.00     0.005 C 
HETATM   11  C   UNK N   1      24.916  21.749  -7.272  0.00  0.00     0.006 C 
ENDBRANCH   1  10
BRANCH   1  12
HETATM   12  C   UNK N   1      25.669  25.300  -7.116  0.00  0.00     0.027 C 
BRANCH  12  13
HETATM   13  C   UNK N   1      26.616  25.271  -8.329  0.00  0.00     0.005 C 
HETATM   14  C   UNK N   1      25.934  25.717  -9.614  0.00  0.00     0.006 C 
ENDBRANCH  12  13
BRANCH  12  15
HETATM   15  C   UNK N   1      25.964  26.549  -6.283  0.00  0.00    -0.053 A 
HETATM   16  C   UNK N   1      27.119  27.302  -6.550  0.00  0.00     0.010 A 
HETATM   17  C   UNK N   1      27.403  28.457  -5.812  0.00  0.00     0.037 A 
HETATM   18  C   UNK N   1      26.535  28.870  -4.802  0.00  0.00     0.065 A 
HETATM   19  C   UNK N   1      25.386  28.132  -4.521  0.00  0.00     0.037 A 
HETATM   20  C   UNK N   1      25.103  26.976  -5.257  0.00  0.00     0.010 A 
BRANCH  18  21
HETATM   21  O   UNK N   1      26.804  29.984  -4.098  0.00  0.00    -0.361 OA
HETATM   22  H   UNK N   1      26.121  30.412  -3.618  0.00  0.00     0.217 HD
ENDBRANCH  18  21
ENDBRANCH  12  15
ENDBRANCH   1  12
TORSDOF 7
ENDMDL
MODEL 9
REMARK VINA RESULT:      -6.2     12.033     15.574
REMARK  7 active torsions:
REMARK  status: ('A' for Active; 'I' for Inactive)
REMARK    1  A    between atoms: C_2  and  O_6 
REMARK    2  A    between atoms: C_5  and  C_8 
REMARK    3  A    between atoms: C_8  and  C_9 
REMARK    4  A    between atoms: C_8  and  C_11 
REMARK    5  A    between atoms: C_11  and  C_12 
REMARK    6  A    between atoms: C_11  and  C_14 
REMARK    7  A    between atoms: C_17  and  O_18 
ROOT
HETATM    1  C   UNK N   1      27.781  19.285   5.844  0.00  0.00     0.027 C 
ENDROOT
BRANCH   1   2
HETATM    2  C   UNK N   1      28.519  18.554   6.969  0.00  0.00    -0.053 A 
HETATM    3  C   UNK N   1      28.182  18.747   8.320  0.00  0.00     0.010 A 
HETATM    4  C   UNK N   1      28.867  18.067   9.333  0.00  0.00     0.037 A 
HETATM    5  C   UNK N   1      29.898  17.187   9.003  0.00  0.00     0.065 A 
HETATM    6  C   UNK N   1      30.245  16.984   7.668  0.00  0.00     0.037 A 
HETATM    7  C   UNK N   1      29.559  17.664   6.655  0.00  0.00     0.010 A 
BRANCH   5   8
HETATM    8  O   UNK N   1      30.557  16.534   9.975  0.00  0.00    -0.361 OA
HETATM    9  H   UNK N   1      30.342  16.688  10.875  0.00  0.00     0.217 HD
ENDBRANCH   5   8
ENDBRANCH   1   2
BRANCH   1  10
HETATM   10  C   UNK N   1      26.842  20.337   6.463  0.00  0.00     0.005 C 
HETATM   11  C   UNK N   1      27.313  21.765   6.242  0.00  0.00     0.006 C 
ENDBRANCH   1  10
BRANCH   1  12
HETATM   12  C   UNK N   1      26.949  18.339   4.915  0.00  0.00     0.027 C 
BRANCH  12  13
HETATM   13  C   UNK N   1      27.874  17.765   3.826  0.00  0.00     0.005 C 
HETATM   14  C   UNK N   1      27.487  16.352   3.415  0.00  0.00     0.006 C 
ENDBRANCH  12  13
BRANCH  12  15
HETATM   15  C   UNK N   1      25.748  19.009   4.245  0.00  0.00    -0.053 A 
HETATM   16  C   UNK N   1      25.960  20.027   3.300  0.00  0.00     0.010 A 
HETATM   17  C   UNK N   1      24.877  20.644   2.662  0.00  0.00     0.037 A 
HETATM   18  C   UNK N   1      23.574  20.249   2.962  0.00  0.00     0.065 A 
HETATM   19  C   UNK N   1      23.345  19.243   3.900  0.00  0.00     0.037 A 
HETATM   20  C   UNK N   1      24.427  18.628   4.539  0.00  0.00     0.010 A 
BRANCH  18  21
HETATM   21  O   UNK N   1      22.535  20.837   2.343  0.00  0.00    -0.361 OA
HETATM   22  H   UNK N   1      22.298  21.719   2.559  0.00  0.00     0.217 HD
ENDBRANCH  18  21
ENDBRANCH  12  15
ENDBRANCH   1  12
TORSDOF 7
ENDMDL
