REMARK  7 active torsions:
REMARK  status: ('A' for Active; 'I' for Inactive)
REMARK    1  A    between atoms: C_2  and  O_6 
REMARK    2  A    between atoms: C_5  and  C_8 
REMARK    3  A    between atoms: C_8  and  C_9 
REMARK    4  A    between atoms: C_8  and  C_11 
REMARK    5  A    between atoms: C_11  and  C_12 
REMARK    6  A    between atoms: C_11  and  C_14 
REMARK    7  A    between atoms: C_17  and  O_18 
ROOT
HETATM    1  C   UNK N   1      -0.661   0.333  -0.165  0.00  0.00     0.027 C 
ENDROOT
BRANCH   1   2
HETATM    2  C   UNK N   1      -0.595   1.860  -0.075  0.00  0.00    -0.053 A 
HETATM    3  C   UNK N   1       0.561   2.525   0.371  0.00  0.00     0.010 A 
HETATM    4  C   UNK N   1       0.601   3.921   0.443  0.00  0.00     0.037 A 
HETATM    5  C   UNK N   1      -0.517   4.667   0.071  0.00  0.00     0.065 A 
HETATM    6  C   UNK N   1      -1.672   4.024  -0.373  0.00  0.00     0.037 A 
HETATM    7  C   UNK N   1      -1.711   2.627  -0.446  0.00  0.00     0.010 A 
BRANCH   5   8
HETATM    8  O   UNK N   1      -0.480   6.009   0.141  0.00  0.00    -0.361 OA
HETATM    9  H   UNK N   1       0.344   6.455   0.190  0.00  0.00     0.217 HD
ENDBRANCH   5   8
ENDBRANCH   1   2
BRANCH   1  10
HETATM   10  C   UNK N   1      -1.723  -0.180   0.826  0.00  0.00     0.005 C 
HETATM   11  C   UNK N   1      -3.148   0.099   0.375  0.00  0.00     0.006 C 
ENDBRANCH   1  10
BRANCH   1  12
HETATM   12  C   UNK N   1       0.702  -0.377   0.132  0.00  0.00     0.027 C 
BRANCH  12  13
HETATM   13  C   UNK N   1       1.762   0.140  -0.857  0.00  0.00     0.005 C 
HETATM   14  C   UNK N   1       3.180  -0.007  -0.325  0.00  0.00     0.006 C 
ENDBRANCH  12  13
BRANCH  12  15
HETATM   15  C   UNK N   1       0.649  -1.904   0.052  0.00  0.00    -0.053 A 
HETATM   16  C   UNK N   1       1.781  -2.656   0.406  0.00  0.00     0.010 A 
HETATM   17  C   UNK N   1       1.752  -4.055   0.356  0.00  0.00     0.037 A 
HETATM   18  C   UNK N   1       0.591  -4.714  -0.047  0.00  0.00     0.065 A 
HETATM   19  C   UNK N   1      -0.541  -3.983  -0.406  0.00  0.00     0.037 A 
HETATM   20  C   UNK N   1      -0.511  -2.585  -0.358  0.00  0.00     0.010 A 
BRANCH  18  21
HETATM   21  O   UNK N   1       0.561  -6.058  -0.088  0.00  0.00    -0.361 OA
HETATM   22  H   UNK N   1      -0.261  -6.508  -0.117  0.00  0.00     0.217 HD
ENDBRANCH  18  21
ENDBRANCH  12  15
ENDBRANCH   1  12
TORSDOF 7
