MODEL 1
REMARK VINA RESULT:      -4.9      0.000      0.000
REMARK  3 active torsions:
REMARK  status: ('A' for Active; 'I' for Inactive)
REMARK    1  A    between atoms: O_5  and  C_6 
REMARK    2  A    between atoms: O_5  and  C_12 
REMARK    3  A    between atoms: C_12  and  C_13 
ROOT
HETATM    1 Cl   UNK N   1      29.702  16.200   5.795  0.00  0.00    -0.081 Cl
HETATM    2 Cl   UNK N   1      26.526  21.625   6.386  0.00  0.00    -0.082 Cl
HETATM    3 Cl   UNK N   1      26.997  20.305   3.470  0.00  0.00    -0.082 Cl
HETATM    4  C   UNK N   1      28.608  18.290   7.225  0.00  0.00     0.093 A 
HETATM    5  C   UNK N   1      28.818  17.710   5.962  0.00  0.00     0.069 A 
HETATM    6  C   UNK N   1      27.900  19.494   7.323  0.00  0.00     0.064 A 
HETATM    7  C   UNK N   1      27.403  20.120   6.188  0.00  0.00     0.058 A 
HETATM    8  C   UNK N   1      28.318  18.339   4.818  0.00  0.00     0.052 A 
HETATM    9  C   UNK N   1      27.611  19.542   4.925  0.00  0.00     0.057 A 
ENDROOT
BRANCH   4  10
HETATM   10  O   UNK N   1      29.087  17.688   8.331  0.00  0.00    -0.338 OA
BRANCH  10  11
HETATM   11  C   UNK N   1      29.955  18.299   9.209  0.00  0.00     0.270 C 
BRANCH  11  12
HETATM   12  C   UNK N   1      31.286  18.095   8.676  0.00  0.00    -0.069 C 
HETATM   13  C   UNK N   1      32.302  17.804   8.111  0.00  0.00    -0.028 C 
HETATM   14  I   UNK N   1      33.846  17.087   6.934  0.00  0.00     0.018 I 
ENDBRANCH  11  12
ENDBRANCH  10  11
ENDBRANCH   4  10
TORSDOF 3
ENDMDL
MODEL 2
REMARK VINA RESULT:      -4.8      1.654      2.717
REMARK  3 active torsions:
REMARK  status: ('A' for Active; 'I' for Inactive)
REMARK    1  A    between atoms: O_5  and  C_6 
REMARK    2  A    between atoms: O_5  and  C_12 
REMARK    3  A    between atoms: C_12  and  C_13 
ROOT
HETATM    1 Cl   UNK N   1      29.670  17.320   8.453  0.00  0.00    -0.081 Cl
HETATM    2 Cl   UNK N   1      26.916  20.337   3.640  0.00  0.00    -0.082 Cl
HETATM    3 Cl   UNK N   1      26.445  21.325   6.685  0.00  0.00    -0.082 Cl
HETATM    4  C   UNK N   1      29.104  17.737   5.786  0.00  0.00     0.093 A 
HETATM    5  C   UNK N   1      28.905  18.158   7.112  0.00  0.00     0.069 A 
HETATM    6  C   UNK N   1      28.479  18.426   4.740  0.00  0.00     0.064 A 
HETATM    7  C   UNK N   1      27.666  19.522   4.998  0.00  0.00     0.058 A 
HETATM    8  C   UNK N   1      28.086  19.261   7.373  0.00  0.00     0.052 A 
HETATM    9  C   UNK N   1      27.465  19.945   6.323  0.00  0.00     0.057 A 
ENDROOT
BRANCH   4  10
HETATM   10  O   UNK N   1      29.892  16.675   5.528  0.00  0.00    -0.338 OA
BRANCH  10  11
HETATM   11  C   UNK N   1      30.992  16.731   4.699  0.00  0.00     0.270 C 
BRANCH  11  12
HETATM   12  C   UNK N   1      32.104  17.153   5.524  0.00  0.00    -0.069 C 
HETATM   13  C   UNK N   1      32.913  17.449   6.358  0.00  0.00    -0.028 C 
HETATM   14  I   UNK N   1      34.064  17.844   8.032  0.00  0.00     0.018 I 
ENDBRANCH  11  12
ENDBRANCH  10  11
ENDBRANCH   4  10
TORSDOF 3
ENDMDL
MODEL 3
REMARK VINA RESULT:      -4.7      3.529      5.691
REMARK  3 active torsions:
REMARK  status: ('A' for Active; 'I' for Inactive)
REMARK    1  A    between atoms: O_5  and  C_6 
REMARK    2  A    between atoms: O_5  and  C_12 
REMARK    3  A    between atoms: C_12  and  C_13 
ROOT
HETATM    1 Cl   UNK N   1      29.365  18.285   9.574  0.00  0.00    -0.081 Cl
HETATM    2 Cl   UNK N   1      33.919  16.735   5.486  0.00  0.00    -0.082 Cl
HETATM    3 Cl   UNK N   1      34.608  18.450   8.141  0.00  0.00    -0.082 Cl
HETATM    4  C   UNK N   1      30.342  17.106   7.280  0.00  0.00     0.093 A 
HETATM    5  C   UNK N   1      30.631  17.852   8.435  0.00  0.00     0.069 A 
HETATM    6  C   UNK N   1      31.373  16.779   6.392  0.00  0.00     0.064 A 
HETATM    7  C   UNK N   1      32.679  17.182   6.641  0.00  0.00     0.058 A 
HETATM    8  C   UNK N   1      31.945  18.258   8.687  0.00  0.00     0.052 A 
HETATM    9  C   UNK N   1      32.971  17.926   7.795  0.00  0.00     0.057 A 
ENDROOT
BRANCH   4  10
HETATM   10  O   UNK N   1      29.077  16.713   7.032  0.00  0.00    -0.338 OA
BRANCH  10  11
HETATM   11  C   UNK N   1      28.458  16.879   5.813  0.00  0.00     0.270 C 
BRANCH  11  12
HETATM   12  C   UNK N   1      28.064  18.271   5.741  0.00  0.00    -0.069 C 
HETATM   13  C   UNK N   1      27.654  19.391   5.855  0.00  0.00    -0.028 C 
HETATM   14  I   UNK N   1      26.808  21.210   6.363  0.00  0.00     0.018 I 
ENDBRANCH  11  12
ENDBRANCH  10  11
ENDBRANCH   4  10
TORSDOF 3
ENDMDL
MODEL 4
REMARK VINA RESULT:      -4.6     11.892     13.539
REMARK  3 active torsions:
REMARK  status: ('A' for Active; 'I' for Inactive)
REMARK    1  A    between atoms: O_5  and  C_6 
REMARK    2  A    between atoms: O_5  and  C_12 
REMARK    3  A    between atoms: C_12  and  C_13 
ROOT
HETATM    1 Cl   UNK N   1      33.483  10.592  14.703  0.00  0.00    -0.081 Cl
HETATM    2 Cl   UNK N   1      37.446  15.405  15.695  0.00  0.00    -0.082 Cl
HETATM    3 Cl   UNK N   1      36.233  14.855  12.746  0.00  0.00    -0.082 Cl
HETATM    4  C   UNK N   1      35.117  12.178  16.259  0.00  0.00     0.093 A 
HETATM    5  C   UNK N   1      34.586  11.930  14.981  0.00  0.00     0.069 A 
HETATM    6  C   UNK N   1      35.994  13.253  16.447  0.00  0.00     0.064 A 
HETATM    7  C   UNK N   1      36.343  14.078  15.386  0.00  0.00     0.058 A 
HETATM    8  C   UNK N   1      34.937  12.760  13.912  0.00  0.00     0.052 A 
HETATM    9  C   UNK N   1      35.813  13.833  14.108  0.00  0.00     0.057 A 
ENDROOT
BRANCH   4  10
HETATM   10  O   UNK N   1      34.782  11.382  17.293  0.00  0.00    -0.338 OA
BRANCH  10  11
HETATM   11  C   UNK N   1      35.464  10.229  17.613  0.00  0.00     0.270 C 
BRANCH  11  12
HETATM   12  C   UNK N   1      34.555   9.420  18.398  0.00  0.00    -0.069 C 
HETATM   13  C   UNK N   1      33.697   8.914  19.065  0.00  0.00    -0.028 C 
HETATM   14  I   UNK N   1      32.067   8.368  20.217  0.00  0.00     0.018 I 
ENDBRANCH  11  12
ENDBRANCH  10  11
ENDBRANCH   4  10
TORSDOF 3
ENDMDL
MODEL 5
REMARK VINA RESULT:      -4.5     11.168     12.993
REMARK  3 active torsions:
REMARK  status: ('A' for Active; 'I' for Inactive)
REMARK    1  A    between atoms: O_5  and  C_6 
REMARK    2  A    between atoms: O_5  and  C_12 
REMARK    3  A    between atoms: C_12  and  C_13 
ROOT
HETATM    1 Cl   UNK N   1      34.330  10.475  13.124  0.00  0.00    -0.081 Cl
HETATM    2 Cl   UNK N   1      35.337  12.842  18.889  0.00  0.00    -0.082 Cl
HETATM    3 Cl   UNK N   1      34.867   9.668  18.475  0.00  0.00    -0.082 Cl
HETATM    4  C   UNK N   1      34.817  12.513  14.917  0.00  0.00     0.093 A 
HETATM    5  C   UNK N   1      34.611  11.136  14.727  0.00  0.00     0.069 A 
HETATM    6  C   UNK N   1      35.037  13.008  16.208  0.00  0.00     0.064 A 
HETATM    7  C   UNK N   1      35.055  12.153  17.302  0.00  0.00     0.058 A 
HETATM    8  C   UNK N   1      34.628  10.274  15.828  0.00  0.00     0.052 A 
HETATM    9  C   UNK N   1      34.850  10.776  17.115  0.00  0.00     0.057 A 
ENDROOT
BRANCH   4  10
HETATM   10  O   UNK N   1      34.801  13.348  13.860  0.00  0.00    -0.338 OA
BRANCH  10  11
HETATM   11  C   UNK N   1      35.879  14.122  13.490  0.00  0.00     0.270 C 
BRANCH  11  12
HETATM   12  C   UNK N   1      36.686  13.303  12.609  0.00  0.00    -0.069 C 
HETATM   13  C   UNK N   1      37.258  12.713  11.736  0.00  0.00    -0.028 C 
HETATM   14  I   UNK N   1      38.036  11.887  10.005  0.00  0.00     0.018 I 
ENDBRANCH  11  12
ENDBRANCH  10  11
ENDBRANCH   4  10
TORSDOF 3
ENDMDL
MODEL 6
REMARK VINA RESULT:      -4.5      1.089      1.089
REMARK  3 active torsions:
REMARK  status: ('A' for Active; 'I' for Inactive)
REMARK    1  A    between atoms: O_5  and  C_6 
REMARK    2  A    between atoms: O_5  and  C_12 
REMARK    3  A    between atoms: C_12  and  C_13 
ROOT
HETATM    1 Cl   UNK N   1      28.306  15.722   5.201  0.00  0.00    -0.081 Cl
HETATM    2 Cl   UNK N   1      27.040  21.827   6.189  0.00  0.00    -0.082 Cl
HETATM    3 Cl   UNK N   1      26.565  20.500   3.277  0.00  0.00    -0.082 Cl
HETATM    4  C   UNK N   1      28.157  18.005   6.740  0.00  0.00     0.093 A 
HETATM    5  C   UNK N   1      27.955  17.420   5.478  0.00  0.00     0.069 A 
HETATM    6  C   UNK N   1      27.867  19.362   6.927  0.00  0.00     0.064 A 
HETATM    7  C   UNK N   1      27.382  20.136   5.881  0.00  0.00     0.058 A 
HETATM    8  C   UNK N   1      27.466  18.198   4.424  0.00  0.00     0.052 A 
HETATM    9  C   UNK N   1      27.178  19.553   4.620  0.00  0.00     0.057 A 
ENDROOT
BRANCH   4  10
HETATM   10  O   UNK N   1      28.628  17.261   7.759  0.00  0.00    -0.338 OA
BRANCH  10  11
HETATM   11  C   UNK N   1      29.785  17.560   8.444  0.00  0.00     0.270 C 
BRANCH  11  12
HETATM   12  C   UNK N   1      30.882  17.189   7.574  0.00  0.00    -0.069 C 
HETATM   13  C   UNK N   1      31.742  17.042   6.752  0.00  0.00    -0.028 C 
HETATM   14  I   UNK N   1      33.097  17.090   5.188  0.00  0.00     0.018 I 
ENDBRANCH  11  12
ENDBRANCH  10  11
ENDBRANCH   4  10
TORSDOF 3
ENDMDL
MODEL 7
REMARK VINA RESULT:      -4.5     10.033     12.180
REMARK  3 active torsions:
REMARK  status: ('A' for Active; 'I' for Inactive)
REMARK    1  A    between atoms: O_5  and  C_6 
REMARK    2  A    between atoms: O_5  and  C_12 
REMARK    3  A    between atoms: C_12  and  C_13 
ROOT
HETATM    1 Cl   UNK N   1      34.011  10.490  14.460  0.00  0.00    -0.081 Cl
HETATM    2 Cl   UNK N   1      37.462  15.500  16.147  0.00  0.00    -0.082 Cl
HETATM    3 Cl   UNK N   1      35.348  14.189  18.215  0.00  0.00    -0.082 Cl
HETATM    4  C   UNK N   1      35.895  12.460  14.036  0.00  0.00     0.093 A 
HETATM    5  C   UNK N   1      34.973  11.884  14.927  0.00  0.00     0.069 A 
HETATM    6  C   UNK N   1      36.645  13.571  14.439  0.00  0.00     0.064 A 
HETATM    7  C   UNK N   1      36.489  14.109  15.710  0.00  0.00     0.058 A 
HETATM    8  C   UNK N   1      34.815  12.425  16.207  0.00  0.00     0.052 A 
HETATM    9  C   UNK N   1      35.569  13.535  16.602  0.00  0.00     0.057 A 
ENDROOT
BRANCH   4  10
HETATM   10  O   UNK N   1      36.051  11.943  12.802  0.00  0.00    -0.338 OA
BRANCH  10  11
HETATM   11  C   UNK N   1      36.653  12.623  11.766  0.00  0.00     0.270 C 
BRANCH  11  12
HETATM   12  C   UNK N   1      35.588  13.053  10.885  0.00  0.00    -0.069 C 
HETATM   13  C   UNK N   1      34.715  13.578  10.253  0.00  0.00    -0.028 C 
HETATM   14  I   UNK N   1      33.268  14.768   9.374  0.00  0.00     0.018 I 
ENDBRANCH  11  12
ENDBRANCH  10  11
ENDBRANCH   4  10
TORSDOF 3
ENDMDL
MODEL 8
REMARK VINA RESULT:      -4.5     12.437     14.385
REMARK  3 active torsions:
REMARK  status: ('A' for Active; 'I' for Inactive)
REMARK    1  A    between atoms: O_5  and  C_6 
REMARK    2  A    between atoms: O_5  and  C_12 
REMARK    3  A    between atoms: C_12  and  C_13 
ROOT
HETATM    1 Cl   UNK N   1      35.299  13.642  18.188  0.00  0.00    -0.081 Cl
HETATM    2 Cl   UNK N   1      34.623   9.709  13.296  0.00  0.00    -0.082 Cl
HETATM    3 Cl   UNK N   1      34.891  12.897  12.817  0.00  0.00    -0.082 Cl
HETATM    4  C   UNK N   1      34.995  11.159  17.026  0.00  0.00     0.093 A 
HETATM    5  C   UNK N   1      35.111  12.546  16.828  0.00  0.00     0.069 A 
HETATM    6  C   UNK N   1      34.845  10.313  15.921  0.00  0.00     0.064 A 
HETATM    7  C   UNK N   1      34.812  10.828  14.632  0.00  0.00     0.058 A 
HETATM    8  C   UNK N   1      35.077  13.066  15.531  0.00  0.00     0.052 A 
HETATM    9  C   UNK N   1      34.929  12.213  14.431  0.00  0.00     0.057 A 
ENDROOT
BRANCH   4  10
HETATM   10  O   UNK N   1      35.026  10.652  18.275  0.00  0.00    -0.338 OA
BRANCH  10  11
HETATM   11  C   UNK N   1      35.006   9.302  18.544  0.00  0.00     0.270 C 
BRANCH  11  12
HETATM   12  C   UNK N   1      33.744   9.036  19.204  0.00  0.00    -0.069 C 
HETATM   13  C   UNK N   1      32.710   8.641  19.665  0.00  0.00    -0.028 C 
HETATM   14  I   UNK N   1      30.996   7.658  20.277  0.00  0.00     0.018 I 
ENDBRANCH  11  12
ENDBRANCH  10  11
ENDBRANCH   4  10
TORSDOF 3
ENDMDL
MODEL 9
REMARK VINA RESULT:      -4.4     13.408     14.496
REMARK  3 active torsions:
REMARK  status: ('A' for Active; 'I' for Inactive)
REMARK    1  A    between atoms: O_5  and  C_6 
REMARK    2  A    between atoms: O_5  and  C_12 
REMARK    3  A    between atoms: C_12  and  C_13 
ROOT
HETATM    1 Cl   UNK N   1      35.961   9.817  14.286  0.00  0.00    -0.081 Cl
HETATM    2 Cl   UNK N   1      35.518  14.833  18.095  0.00  0.00    -0.082 Cl
HETATM    3 Cl   UNK N   1      37.048  15.057  15.253  0.00  0.00    -0.082 Cl
HETATM    4  C   UNK N   1      35.173  11.124  16.584  0.00  0.00     0.093 A 
HETATM    5  C   UNK N   1      35.837  11.212  15.348  0.00  0.00     0.069 A 
HETATM    6  C   UNK N   1      35.092  12.254  17.406  0.00  0.00     0.064 A 
HETATM    7  C   UNK N   1      35.659  13.460  17.014  0.00  0.00     0.058 A 
HETATM    8  C   UNK N   1      36.408  12.425  14.952  0.00  0.00     0.052 A 
HETATM    9  C   UNK N   1      36.322  13.550  15.780  0.00  0.00     0.057 A 
ENDROOT
BRANCH   4  10
HETATM   10  O   UNK N   1      34.621   9.958  16.970  0.00  0.00    -0.338 OA
BRANCH  10  11
HETATM   11  C   UNK N   1      35.125   9.184  17.993  0.00  0.00     0.270 C 
BRANCH  11  12
HETATM   12  C   UNK N   1      34.022   8.936  18.898  0.00  0.00    -0.069 C 
HETATM   13  C   UNK N   1      33.027   8.640  19.497  0.00  0.00    -0.028 C 
HETATM   14  I   UNK N   1      31.206   7.976  20.221  0.00  0.00     0.018 I 
ENDBRANCH  11  12
ENDBRANCH  10  11
ENDBRANCH   4  10
TORSDOF 3
ENDMDL
