MODEL 1
REMARK VINA RESULT:      -7.1      0.000      0.000
REMARK  3 active torsions:
REMARK  status: ('A' for Active; 'I' for Inactive)
REMARK    1  A    between atoms: N_6  and  C_11 
REMARK    2  A    between atoms: C_11  and  C_18 
REMARK    3  A    between atoms: C_12  and  C_17 
ROOT
HETATM    1 Cl   UNK N   1      20.615  10.804   5.128  0.00  0.00    -0.084 Cl
HETATM    2  O   UNK N   1      20.903  18.687   7.155  0.00  0.00    -0.271 OA
HETATM    3  N   UNK N   1      20.791  16.756   6.022  0.00  0.00    -0.307 N 
HETATM    4  N   UNK N   1      20.797  15.876   9.015  0.00  0.00    -0.380 N 
ATOM      5  HN  UNK N   1      21.154  16.060   9.953  1.00  0.00     0.160 HD
HETATM    6  C   UNK N   1      20.665  15.313   5.940  0.00  0.00     0.050 A 
HETATM    7  C   UNK N   1      20.787  14.378   7.046  0.00  0.00     0.020 A 
HETATM    8  C   UNK N   1      21.044  14.715   8.518  0.00  0.00     0.051 C 
HETATM    9  C   UNK N   1      20.669  17.484   7.167  0.00  0.00     0.242 C 
HETATM   10  C   UNK N   1      20.073  16.926   8.384  0.00  0.00     0.223 C 
HETATM   11  C   UNK N   1      20.524  14.776   4.639  0.00  0.00     0.032 A 
HETATM   12  C   UNK N   1      20.760  13.007   6.725  0.00  0.00     0.040 A 
HETATM   13  C   UNK N   1      20.487  13.415   4.384  0.00  0.00     0.026 A 
HETATM   14  C   UNK N   1      20.610  12.528   5.432  0.00  0.00     0.035 A 
ENDROOT
BRANCH   8  15
HETATM   15  C   UNK N   1      21.450  13.669   9.538  0.00  0.00    -0.009 A 
HETATM   16  C   UNK N   1      22.817  13.364   9.691  0.00  0.00     0.014 A 
HETATM   17  C   UNK N   1      23.257  12.490  10.691  0.00  0.00     0.001 A 
HETATM   18  C   UNK N   1      22.337  11.920  11.572  0.00  0.00     0.000 A 
HETATM   19  C   UNK N   1      20.980  12.205  11.438  0.00  0.00     0.001 A 
HETATM   20  C   UNK N   1      20.542  13.069  10.430  0.00  0.00     0.014 A 
ENDBRANCH   8  15
BRANCH   3  21
HETATM   21  C   UNK N   1      21.004  17.502   4.787  0.00  0.00     0.249 C 
BRANCH  21  22
HETATM   22  C   UNK N   1      22.505  17.622   4.461  0.00  0.00     0.403 C 
HETATM   23  F   UNK N   1      23.279  17.182   5.520  0.00  0.00    -0.169 F 
HETATM   24  F   UNK N   1      22.840  18.934   4.185  0.00  0.00    -0.169 F 
HETATM   25  F   UNK N   1      22.795  16.851   3.353  0.00  0.00    -0.169 F 
ENDBRANCH  21  22
ENDBRANCH   3  21
TORSDOF 3
ENDMDL
MODEL 2
REMARK VINA RESULT:      -7.0      8.878     11.107
REMARK  3 active torsions:
REMARK  status: ('A' for Active; 'I' for Inactive)
REMARK    1  A    between atoms: N_6  and  C_11 
REMARK    2  A    between atoms: C_11  and  C_18 
REMARK    3  A    between atoms: C_12  and  C_17 
ROOT
HETATM    1 Cl   UNK N   1      28.179  17.986   9.419  0.00  0.00    -0.084 Cl
HETATM    2  O   UNK N   1      32.999  16.762   2.970  0.00  0.00    -0.271 OA
HETATM    3  N   UNK N   1      32.209  17.020   5.052  0.00  0.00    -0.307 N 
HETATM    4  N   UNK N   1      29.667  17.203   3.252  0.00  0.00    -0.380 N 
ATOM      5  HN  UNK N   1      29.277  17.521   2.364  1.00  0.00     0.160 HD
HETATM    6  C   UNK N   1      31.134  17.173   6.015  0.00  0.00     0.050 A 
HETATM    7  C   UNK N   1      29.747  17.475   5.710  0.00  0.00     0.020 A 
HETATM    8  C   UNK N   1      29.125  17.667   4.323  0.00  0.00     0.051 C 
HETATM    9  C   UNK N   1      32.033  16.764   3.725  0.00  0.00     0.242 C 
HETATM   10  C   UNK N   1      30.756  16.290   3.186  0.00  0.00     0.223 C 
HETATM   11  C   UNK N   1      31.514  17.133   7.377  0.00  0.00     0.032 A 
HETATM   12  C   UNK N   1      28.892  17.711   6.804  0.00  0.00     0.040 A 
HETATM   13  C   UNK N   1      30.624  17.357   8.415  0.00  0.00     0.026 A 
HETATM   14  C   UNK N   1      29.310  17.651   8.126  0.00  0.00     0.035 A 
ENDROOT
BRANCH   8  15
HETATM   15  C   UNK N   1      27.748  18.269   4.119  0.00  0.00    -0.009 A 
HETATM   16  C   UNK N   1      27.630  19.668   3.989  0.00  0.00     0.014 A 
HETATM   17  C   UNK N   1      26.403  20.266   3.690  0.00  0.00     0.001 A 
HETATM   18  C   UNK N   1      25.270  19.475   3.495  0.00  0.00     0.000 A 
HETATM   19  C   UNK N   1      25.362  18.090   3.622  0.00  0.00     0.001 A 
HETATM   20  C   UNK N   1      26.588  17.495   3.933  0.00  0.00     0.014 A 
ENDBRANCH   8  15
BRANCH   3  21
HETATM   21  C   UNK N   1      33.584  17.082   5.534  0.00  0.00     0.249 C 
BRANCH  21  22
HETATM   22  C   UNK N   1      34.133  15.674   5.832  0.00  0.00     0.403 C 
HETATM   23  F   UNK N   1      35.027  15.274   4.855  0.00  0.00    -0.169 F 
HETATM   24  F   UNK N   1      33.104  14.753   5.894  0.00  0.00    -0.169 F 
HETATM   25  F   UNK N   1      34.786  15.687   7.049  0.00  0.00    -0.169 F 
ENDBRANCH  21  22
ENDBRANCH   3  21
TORSDOF 3
ENDMDL
MODEL 3
REMARK VINA RESULT:      -6.9     16.026     17.581
REMARK  3 active torsions:
REMARK  status: ('A' for Active; 'I' for Inactive)
REMARK    1  A    between atoms: N_6  and  C_11 
REMARK    2  A    between atoms: C_11  and  C_18 
REMARK    3  A    between atoms: C_12  and  C_17 
ROOT
HETATM    1 Cl   UNK N   1      27.779  21.721  -9.177  0.00  0.00    -0.084 Cl
HETATM    2  O   UNK N   1      30.963  23.147  -1.818  0.00  0.00    -0.271 OA
HETATM    3  N   UNK N   1      30.398  22.219  -3.779  0.00  0.00    -0.307 N 
HETATM    4  N   UNK N   1      29.093  25.051  -3.881  0.00  0.00    -0.380 N 
ATOM      5  HN  UNK N   1      28.628  25.791  -3.354  1.00  0.00     0.160 HD
HETATM    6  C   UNK N   1      29.792  22.254  -5.096  0.00  0.00     0.050 A 
HETATM    7  C   UNK N   1      28.903  23.285  -5.604  0.00  0.00     0.020 A 
HETATM    8  C   UNK N   1      28.446  24.552  -4.875  0.00  0.00     0.051 C 
HETATM    9  C   UNK N   1      30.539  23.297  -2.959  0.00  0.00     0.242 C 
HETATM   10  C   UNK N   1      30.394  24.671  -3.447  0.00  0.00     0.223 C 
HETATM   11  C   UNK N   1      30.006  21.114  -5.907  0.00  0.00     0.032 A 
HETATM   12  C   UNK N   1      28.322  23.058  -6.867  0.00  0.00     0.040 A 
HETATM   13  C   UNK N   1      29.419  20.952  -7.151  0.00  0.00     0.026 A 
HETATM   14  C   UNK N   1      28.570  21.927  -7.630  0.00  0.00     0.035 A 
ENDROOT
BRANCH   8  15
HETATM   15  C   UNK N   1      27.294  25.408  -5.366  0.00  0.00    -0.009 A 
HETATM   16  C   UNK N   1      25.988  25.106  -4.929  0.00  0.00     0.014 A 
HETATM   17  C   UNK N   1      24.905  25.926  -5.261  0.00  0.00     0.001 A 
HETATM   18  C   UNK N   1      25.111  27.078  -6.021  0.00  0.00     0.000 A 
HETATM   19  C   UNK N   1      26.393  27.396  -6.466  0.00  0.00     0.001 A 
HETATM   20  C   UNK N   1      27.472  26.567  -6.143  0.00  0.00     0.014 A 
ENDBRANCH   8  15
BRANCH   3  21
HETATM   21  C   UNK N   1      30.955  20.956  -3.308  0.00  0.00     0.249 C 
BRANCH  21  22
HETATM   22  C   UNK N   1      32.478  20.900  -3.537  0.00  0.00     0.403 C 
HETATM   23  F   UNK N   1      33.163  20.967  -2.337  0.00  0.00    -0.169 F 
HETATM   24  F   UNK N   1      32.888  21.948  -4.339  0.00  0.00    -0.169 F 
HETATM   25  F   UNK N   1      32.801  19.712  -4.164  0.00  0.00    -0.169 F 
ENDBRANCH  21  22
ENDBRANCH   3  21
TORSDOF 3
ENDMDL
MODEL 4
REMARK VINA RESULT:      -6.9      8.579      9.655
REMARK  3 active torsions:
REMARK  status: ('A' for Active; 'I' for Inactive)
REMARK    1  A    between atoms: N_6  and  C_11 
REMARK    2  A    between atoms: C_11  and  C_18 
REMARK    3  A    between atoms: C_12  and  C_17 
ROOT
HETATM    1 Cl   UNK N   1      31.703  14.356   3.700  0.00  0.00    -0.084 Cl
HETATM    2  O   UNK N   1      27.296  19.845   7.796  0.00  0.00    -0.271 OA
HETATM    3  N   UNK N   1      28.058  18.415   6.246  0.00  0.00    -0.307 N 
HETATM    4  N   UNK N   1      30.066  18.103   8.613  0.00  0.00    -0.380 N 
ATOM      5  HN  UNK N   1      30.568  18.572   9.368  1.00  0.00     0.160 HD
HETATM    6  C   UNK N   1      28.959  17.379   5.778  0.00  0.00     0.050 A 
HETATM    7  C   UNK N   1      30.192  16.960   6.422  0.00  0.00     0.020 A 
HETATM    8  C   UNK N   1      30.780  17.497   7.731  0.00  0.00     0.051 C 
HETATM    9  C   UNK N   1      28.015  18.891   7.522  0.00  0.00     0.242 C 
HETATM   10  C   UNK N   1      28.645  18.181   8.638  0.00  0.00     0.223 C 
HETATM   11  C   UNK N   1      28.652  16.815   4.517  0.00  0.00     0.032 A 
HETATM   12  C   UNK N   1      30.985  16.025   5.730  0.00  0.00     0.040 A 
HETATM   13  C   UNK N   1      29.464  15.885   3.889  0.00  0.00     0.026 A 
HETATM   14  C   UNK N   1      30.637  15.493   4.497  0.00  0.00     0.035 A 
ENDROOT
BRANCH   8  15
HETATM   15  C   UNK N   1      32.206  17.214   8.164  0.00  0.00    -0.009 A 
HETATM   16  C   UNK N   1      33.193  18.194   7.935  0.00  0.00     0.014 A 
HETATM   17  C   UNK N   1      34.498  18.033   8.412  0.00  0.00     0.001 A 
HETATM   18  C   UNK N   1      34.836  16.895   9.146  0.00  0.00     0.000 A 
HETATM   19  C   UNK N   1      33.877  15.912   9.382  0.00  0.00     0.001 A 
HETATM   20  C   UNK N   1      32.577  16.070   8.894  0.00  0.00     0.014 A 
ENDBRANCH   8  15
BRANCH   3  21
HETATM   21  C   UNK N   1      27.079  18.955   5.309  0.00  0.00     0.249 C 
BRANCH  21  22
HETATM   22  C   UNK N   1      27.636  20.188   4.572  0.00  0.00     0.403 C 
HETATM   23  F   UNK N   1      29.018  20.162   4.535  0.00  0.00    -0.169 F 
HETATM   24  F   UNK N   1      27.233  21.353   5.198  0.00  0.00    -0.169 F 
HETATM   25  F   UNK N   1      27.159  20.198   3.276  0.00  0.00    -0.169 F 
ENDBRANCH  21  22
ENDBRANCH   3  21
TORSDOF 3
ENDMDL
MODEL 5
REMARK VINA RESULT:      -6.5     15.840     17.167
REMARK  3 active torsions:
REMARK  status: ('A' for Active; 'I' for Inactive)
REMARK    1  A    between atoms: N_6  and  C_11 
REMARK    2  A    between atoms: C_11  and  C_18 
REMARK    3  A    between atoms: C_12  and  C_17 
ROOT
HETATM    1 Cl   UNK N   1      29.031  20.645  -8.763  0.00  0.00    -0.084 Cl
HETATM    2  O   UNK N   1      26.264  25.910  -3.199  0.00  0.00    -0.271 OA
HETATM    3  N   UNK N   1      26.507  24.637  -5.029  0.00  0.00    -0.307 N 
HETATM    4  N   UNK N   1      28.924  23.836  -3.225  0.00  0.00    -0.380 N 
ATOM      5  HN  UNK N   1      29.626  24.154  -2.556  1.00  0.00     0.160 HD
HETATM    6  C   UNK N   1      27.162  23.597  -5.799  0.00  0.00     0.050 A 
HETATM    7  C   UNK N   1      28.447  22.988  -5.500  0.00  0.00     0.020 A 
HETATM    8  C   UNK N   1      29.358  23.292  -4.307  0.00  0.00     0.051 C 
HETATM    9  C   UNK N   1      26.793  24.940  -3.732  0.00  0.00     0.242 C 
HETATM   10  C   UNK N   1      27.560  24.036  -2.871  0.00  0.00     0.223 C 
HETATM   11  C   UNK N   1      26.530  23.234  -7.012  0.00  0.00     0.032 A 
HETATM   12  C   UNK N   1      28.961  22.087  -6.453  0.00  0.00     0.040 A 
HETATM   13  C   UNK N   1      27.077  22.328  -7.906  0.00  0.00     0.026 A 
HETATM   14  C   UNK N   1      28.299  21.756  -7.626  0.00  0.00     0.035 A 
ENDROOT
BRANCH   8  15
HETATM   15  C   UNK N   1      30.801  22.829  -4.241  0.00  0.00    -0.009 A 
HETATM   16  C   UNK N   1      31.097  21.619  -3.582  0.00  0.00     0.014 A 
HETATM   17  C   UNK N   1      32.392  21.090  -3.586  0.00  0.00     0.001 A 
HETATM   18  C   UNK N   1      33.413  21.753  -4.267  0.00  0.00     0.000 A 
HETATM   19  C   UNK N   1      33.144  22.952  -4.924  0.00  0.00     0.001 A 
HETATM   20  C   UNK N   1      31.852  23.485  -4.908  0.00  0.00     0.014 A 
ENDBRANCH   8  15
BRANCH   3  21
HETATM   21  C   UNK N   1      25.420  25.381  -5.655  0.00  0.00     0.249 C 
BRANCH  21  22
HETATM   22  C   UNK N   1      25.955  26.599  -6.433  0.00  0.00     0.403 C 
HETATM   23  F   UNK N   1      25.554  26.557  -7.756  0.00  0.00    -0.169 F 
HETATM   24  F   UNK N   1      27.336  26.635  -6.390  0.00  0.00    -0.169 F 
HETATM   25  F   UNK N   1      25.467  27.756  -5.860  0.00  0.00    -0.169 F 
ENDBRANCH  21  22
ENDBRANCH   3  21
TORSDOF 3
ENDMDL
MODEL 6
REMARK VINA RESULT:      -6.5     11.364     13.044
REMARK  3 active torsions:
REMARK  status: ('A' for Active; 'I' for Inactive)
REMARK    1  A    between atoms: N_6  and  C_11 
REMARK    2  A    between atoms: C_11  and  C_18 
REMARK    3  A    between atoms: C_12  and  C_17 
ROOT
HETATM    1 Cl   UNK N   1      32.163  12.085   5.278  0.00  0.00    -0.084 Cl
HETATM    2  O   UNK N   1      35.471  17.564  10.314  0.00  0.00    -0.271 OA
HETATM    3  N   UNK N   1      34.996  15.689   9.181  0.00  0.00    -0.307 N 
HETATM    4  N   UNK N   1      33.041  17.807   7.988  0.00  0.00    -0.380 N 
ATOM      5  HN  UNK N   1      32.453  18.621   8.176  1.00  0.00     0.160 HD
HETATM    6  C   UNK N   1      34.299  14.948   8.147  0.00  0.00     0.050 A 
HETATM    7  C   UNK N   1      33.150  15.410   7.388  0.00  0.00     0.020 A 
HETATM    8  C   UNK N   1      32.458  16.772   7.496  0.00  0.00     0.051 C 
HETATM    9  C   UNK N   1      34.936  17.040   9.344  0.00  0.00     0.242 C 
HETATM   10  C   UNK N   1      34.425  17.928   8.296  0.00  0.00     0.223 C 
HETATM   11  C   UNK N   1      34.719  13.610   7.954  0.00  0.00     0.032 A 
HETATM   12  C   UNK N   1      32.545  14.479   6.521  0.00  0.00     0.040 A 
HETATM   13  C   UNK N   1      34.093  12.742   7.074  0.00  0.00     0.026 A 
HETATM   14  C   UNK N   1      32.999  13.178   6.359  0.00  0.00     0.035 A 
ENDROOT
BRANCH   8  15
HETATM   15  C   UNK N   1      31.098  17.049   6.883  0.00  0.00    -0.009 A 
HETATM   16  C   UNK N   1      29.990  17.218   7.737  0.00  0.00     0.014 A 
HETATM   17  C   UNK N   1      28.737  17.584   7.234  0.00  0.00     0.001 A 
HETATM   18  C   UNK N   1      28.574  17.809   5.867  0.00  0.00     0.000 A 
HETATM   19  C   UNK N   1      29.655  17.645   5.003  0.00  0.00     0.001 A 
HETATM   20  C   UNK N   1      30.903  17.267   5.507  0.00  0.00     0.014 A 
ENDBRANCH   8  15
BRANCH   3  21
HETATM   21  C   UNK N   1      35.878  14.956  10.082  0.00  0.00     0.249 C 
BRANCH  21  22
HETATM   22  C   UNK N   1      35.140  14.545  11.371  0.00  0.00     0.403 C 
HETATM   23  F   UNK N   1      35.216  13.179  11.571  0.00  0.00    -0.169 F 
HETATM   24  F   UNK N   1      33.808  14.909  11.306  0.00  0.00    -0.169 F 
HETATM   25  F   UNK N   1      35.719  15.183  12.451  0.00  0.00    -0.169 F 
ENDBRANCH  21  22
ENDBRANCH   3  21
TORSDOF 3
ENDMDL
MODEL 7
REMARK VINA RESULT:      -6.3     16.493     17.333
REMARK  3 active torsions:
REMARK  status: ('A' for Active; 'I' for Inactive)
REMARK    1  A    between atoms: N_6  and  C_11 
REMARK    2  A    between atoms: C_11  and  C_18 
REMARK    3  A    between atoms: C_12  and  C_17 
ROOT
HETATM    1 Cl   UNK N   1      29.689  18.905  -7.892  0.00  0.00    -0.084 Cl
HETATM    2  O   UNK N   1      28.238  26.308  -4.824  0.00  0.00    -0.271 OA
HETATM    3  N   UNK N   1      28.181  24.438  -6.058  0.00  0.00    -0.307 N 
HETATM    4  N   UNK N   1      30.309  23.827  -3.860  0.00  0.00    -0.380 N 
ATOM      5  HN  UNK N   1      31.060  24.200  -3.279  1.00  0.00     0.160 HD
HETATM    6  C   UNK N   1      28.568  23.070  -6.348  0.00  0.00     0.050 A 
HETATM    7  C   UNK N   1      29.662  22.341  -5.730  0.00  0.00     0.020 A 
HETATM    8  C   UNK N   1      30.608  22.845  -4.635  0.00  0.00     0.051 C 
HETATM    9  C   UNK N   1      28.518  25.120  -4.928  0.00  0.00     0.242 C 
HETATM   10  C   UNK N   1      29.032  24.442  -3.735  0.00  0.00     0.223 C 
HETATM   11  C   UNK N   1      27.880  22.444  -7.413  0.00  0.00     0.032 A 
HETATM   12  C   UNK N   1      29.950  21.064  -6.251  0.00  0.00     0.040 A 
HETATM   13  C   UNK N   1      28.197  21.177  -7.874  0.00  0.00     0.026 A 
HETATM   14  C   UNK N   1      29.239  20.487  -7.294  0.00  0.00     0.035 A 
ENDROOT
BRANCH   8  15
HETATM   15  C   UNK N   1      31.893  22.126  -4.270  0.00  0.00    -0.009 A 
HETATM   16  C   UNK N   1      33.005  22.243  -5.127  0.00  0.00     0.014 A 
HETATM   17  C   UNK N   1      34.245  21.695  -4.785  0.00  0.00     0.001 A 
HETATM   18  C   UNK N   1      34.402  21.034  -3.566  0.00  0.00     0.000 A 
HETATM   19  C   UNK N   1      33.315  20.903  -2.703  0.00  0.00     0.001 A 
HETATM   20  C   UNK N   1      32.074  21.442  -3.053  0.00  0.00     0.014 A 
ENDBRANCH   8  15
BRANCH   3  21
HETATM   21  C   UNK N   1      27.316  25.127  -7.009  0.00  0.00     0.249 C 
BRANCH  21  22
HETATM   22  C   UNK N   1      25.829  24.927  -6.656  0.00  0.00     0.403 C 
HETATM   23  F   UNK N   1      25.218  26.137  -6.381  0.00  0.00    -0.169 F 
HETATM   24  F   UNK N   1      25.698  24.105  -5.552  0.00  0.00    -0.169 F 
HETATM   25  F   UNK N   1      25.182  24.338  -7.724  0.00  0.00    -0.169 F 
ENDBRANCH  21  22
ENDBRANCH   3  21
TORSDOF 3
ENDMDL
MODEL 8
REMARK VINA RESULT:      -6.3      7.781      9.069
REMARK  3 active torsions:
REMARK  status: ('A' for Active; 'I' for Inactive)
REMARK    1  A    between atoms: N_6  and  C_11 
REMARK    2  A    between atoms: C_11  and  C_18 
REMARK    3  A    between atoms: C_12  and  C_17 
ROOT
HETATM    1 Cl   UNK N   1      28.723  14.400   1.748  0.00  0.00    -0.084 Cl
HETATM    2  O   UNK N   1      27.834  19.643   7.915  0.00  0.00    -0.271 OA
HETATM    3  N   UNK N   1      27.555  18.475   6.022  0.00  0.00    -0.307 N 
HETATM    4  N   UNK N   1      30.070  17.184   7.342  0.00  0.00    -0.380 N 
ATOM      5  HN  UNK N   1      30.916  17.342   7.890  1.00  0.00     0.160 HD
HETATM    6  C   UNK N   1      27.890  17.400   5.108  0.00  0.00     0.050 A 
HETATM    7  C   UNK N   1      29.087  16.578   5.153  0.00  0.00     0.020 A 
HETATM    8  C   UNK N   1      30.222  16.654   6.179  0.00  0.00     0.051 C 
HETATM    9  C   UNK N   1      28.098  18.641   7.260  0.00  0.00     0.242 C 
HETATM   10  C   UNK N   1      28.836  17.571   7.936  0.00  0.00     0.223 C 
HETATM   11  C   UNK N   1      27.014  17.225   4.011  0.00  0.00     0.032 A 
HETATM   12  C   UNK N   1      29.278  15.675   4.090  0.00  0.00     0.040 A 
HETATM   13  C   UNK N   1      27.245  16.306   3.000  0.00  0.00     0.026 A 
HETATM   14  C   UNK N   1      28.385  15.532   3.039  0.00  0.00     0.035 A 
ENDROOT
BRANCH   8  15
HETATM   15  C   UNK N   1      31.558  15.966   5.974  0.00  0.00    -0.009 A 
HETATM   16  C   UNK N   1      32.603  16.682   5.355  0.00  0.00     0.014 A 
HETATM   17  C   UNK N   1      33.885  16.137   5.239  0.00  0.00     0.001 A 
HETATM   18  C   UNK N   1      34.153  14.870   5.760  0.00  0.00     0.000 A 
HETATM   19  C   UNK N   1      33.136  14.143   6.374  0.00  0.00     0.001 A 
HETATM   20  C   UNK N   1      31.851  14.685   6.477  0.00  0.00     0.014 A 
ENDBRANCH   8  15
BRANCH   3  21
HETATM   21  C   UNK N   1      26.518  19.422   5.626  0.00  0.00     0.249 C 
BRANCH  21  22
HETATM   22  C   UNK N   1      27.119  20.616   4.860  0.00  0.00     0.403 C 
HETATM   23  F   UNK N   1      28.439  20.376   4.524  0.00  0.00    -0.169 F 
HETATM   24  F   UNK N   1      27.058  21.766   5.625  0.00  0.00    -0.169 F 
HETATM   25  F   UNK N   1      26.399  20.821   3.699  0.00  0.00    -0.169 F 
ENDBRANCH  21  22
ENDBRANCH   3  21
TORSDOF 3
ENDMDL
MODEL 9
REMARK VINA RESULT:      -6.3     17.924     19.326
REMARK  3 active torsions:
REMARK  status: ('A' for Active; 'I' for Inactive)
REMARK    1  A    between atoms: N_6  and  C_11 
REMARK    2  A    between atoms: C_11  and  C_18 
REMARK    3  A    between atoms: C_12  and  C_17 
ROOT
HETATM    1 Cl   UNK N   1      29.715  27.568 -10.104  0.00  0.00    -0.084 Cl
HETATM    2  O   UNK N   1      25.219  28.065  -3.332  0.00  0.00    -0.271 OA
HETATM    3  N   UNK N   1      26.679  28.470  -4.984  0.00  0.00    -0.307 N 
HETATM    4  N   UNK N   1      25.254  25.839  -5.865  0.00  0.00    -0.380 N 
ATOM      5  HN  UNK N   1      24.841  24.955  -5.564  1.00  0.00     0.160 HD
HETATM    6  C   UNK N   1      27.278  28.189  -6.275  0.00  0.00     0.050 A 
HETATM    7  C   UNK N   1      27.099  26.978  -7.057  0.00  0.00     0.020 A 
HETATM    8  C   UNK N   1      26.229  25.768  -6.702  0.00  0.00     0.051 C 
HETATM    9  C   UNK N   1      25.585  27.835  -4.479  0.00  0.00     0.242 C 
HETATM   10  C   UNK N   1      24.696  27.029  -5.319  0.00  0.00     0.223 C 
HETATM   11  C   UNK N   1      28.209  29.144  -6.747  0.00  0.00     0.032 A 
HETATM   12  C   UNK N   1      27.877  26.854  -8.224  0.00  0.00     0.040 A 
HETATM   13  C   UNK N   1      28.936  28.976  -7.914  0.00  0.00     0.026 A 
HETATM   14  C   UNK N   1      28.772  27.824  -8.652  0.00  0.00     0.035 A 
ENDROOT
BRANCH   8  15
HETATM   15  C   UNK N   1      26.338  24.440  -7.427  0.00  0.00    -0.009 A 
HETATM   16  C   UNK N   1      27.237  23.471  -6.938  0.00  0.00     0.014 A 
HETATM   17  C   UNK N   1      27.299  22.192  -7.499  0.00  0.00     0.001 A 
HETATM   18  C   UNK N   1      26.447  21.850  -8.550  0.00  0.00     0.000 A 
HETATM   19  C   UNK N   1      25.551  22.793  -9.051  0.00  0.00     0.001 A 
HETATM   20  C   UNK N   1      25.500  24.075  -8.496  0.00  0.00     0.014 A 
ENDBRANCH   8  15
BRANCH   3  21
HETATM   21  C   UNK N   1      27.242  29.550  -4.181  0.00  0.00     0.249 C 
BRANCH  21  22
HETATM   22  C   UNK N   1      28.341  29.028  -3.237  0.00  0.00     0.403 C 
HETATM   23  F   UNK N   1      28.609  27.692  -3.479  0.00  0.00    -0.169 F 
HETATM   24  F   UNK N   1      27.956  29.169  -1.917  0.00  0.00    -0.169 F 
HETATM   25  F   UNK N   1      29.499  29.754  -3.438  0.00  0.00    -0.169 F 
ENDBRANCH  21  22
ENDBRANCH   3  21
TORSDOF 3
ENDMDL
