REMARK  3 active torsions:
REMARK  status: ('A' for Active; 'I' for Inactive)
REMARK    1  A    between atoms: N_6  and  C_11 
REMARK    2  A    between atoms: C_11  and  C_18 
REMARK    3  A    between atoms: C_12  and  C_17 
ROOT
HETATM    1 Cl   UNK N   1       3.419  -4.471  -0.274  0.00  0.00    -0.084 Cl
HETATM    2  O   UNK N   1       3.764   3.665  -0.185  0.00  0.00    -0.271 OA
HETATM    3  N   UNK N   1       3.073   1.539  -0.352  0.00  0.00    -0.307 N 
HETATM    4  N   UNK N   1       6.054   1.296   0.536  0.00  0.00    -0.380 N 
ATOM      5  HN  UNK N   1       6.996   1.682   0.461  1.00  0.00     0.160 HD
HETATM    6  C   UNK N   1       3.259   0.107  -0.214  0.00  0.00     0.050 A 
HETATM    7  C   UNK N   1       4.521  -0.575   0.016  0.00  0.00     0.020 A 
HETATM    8  C   UNK N   1       5.901   0.067   0.188  0.00  0.00     0.051 C 
HETATM    9  C   UNK N   1       3.957   2.483   0.076  0.00  0.00     0.242 C 
HETATM   10  C   UNK N   1       5.037   2.169   1.015  0.00  0.00     0.223 C 
HETATM   11  C   UNK N   1       2.113  -0.691  -0.441  0.00  0.00     0.032 A 
HETATM   12  C   UNK N   1       4.497  -1.983  -0.012  0.00  0.00     0.040 A 
HETATM   13  C   UNK N   1       2.146  -2.076  -0.441  0.00  0.00     0.026 A 
HETATM   14  C   UNK N   1       3.344  -2.723  -0.230  0.00  0.00     0.035 A 
ENDROOT
BRANCH   8  15
HETATM   15  C   UNK N   1       7.189  -0.732   0.125  0.00  0.00    -0.009 A 
HETATM   16  C   UNK N   1       8.416  -0.057   0.283  0.00  0.00     0.014 A 
HETATM   17  C   UNK N   1       9.625  -0.757   0.344  0.00  0.00     0.001 A 
HETATM   18  C   UNK N   1       9.628  -2.150   0.268  0.00  0.00     0.000 A 
HETATM   19  C   UNK N   1       8.427  -2.839   0.109  0.00  0.00     0.001 A 
HETATM   20  C   UNK N   1       7.221  -2.136   0.036  0.00  0.00     0.014 A 
ENDBRANCH   8  15
BRANCH   3  21
HETATM   21  C   UNK N   1       1.826   2.021  -0.935  0.00  0.00     0.249 C 
BRANCH  21  22
HETATM   22  C   UNK N   1       0.784   2.330   0.157  0.00  0.00     0.403 C 
HETATM   23  F   UNK N   1       1.306   3.183   1.113  0.00  0.00    -0.169 F 
HETATM   24  F   UNK N   1       0.372   1.167   0.780  0.00  0.00    -0.169 F 
HETATM   25  F   UNK N   1      -0.316   2.934  -0.420  0.00  0.00    -0.169 F 
ENDBRANCH  21  22
ENDBRANCH   3  21
TORSDOF 3
