REMARK  3 active torsions:
REMARK  status: ('A' for Active; 'I' for Inactive)
REMARK    1  A    between atoms: O_2  and  C_18 
REMARK    2  A    between atoms: C_8  and  C_10 
REMARK    3  A    between atoms: C_10  and  C_18 
ROOT
HETATM    1 Cl   UNK N   1      -0.886  -2.550  -0.000  0.00  0.00    -0.084 Cl
HETATM    2  N   UNK N   1       3.159   1.707   0.000  0.00  0.00    -0.355 N 
HETATM    3  C   UNK N   1       3.887  -0.425  -0.000  0.00  0.00     0.003 A 
HETATM    4  C   UNK N   1       4.249   0.902   0.000  0.00  0.00     0.044 A 
HETATM    5  C   UNK N   1       2.527  -0.456  -0.000  0.00  0.00     0.005 A 
HETATM    6  C   UNK N   1       6.575   0.261  -0.000  0.00  0.00    -0.042 A 
HETATM    7  C   UNK N   1       2.104   0.852   0.000  0.00  0.00     0.043 A 
HETATM    8  C   UNK N   1       5.593   1.285   0.000  0.00  0.00     0.038 A 
HETATM    9  C   UNK N   1       4.814  -1.451  -0.000  0.00  0.00     0.015 A 
HETATM   10  C   UNK N   1       6.168  -1.096  -0.000  0.00  0.00     0.009 A 
HETATM   11  C   UNK N   1       1.641  -1.527  -0.000  0.00  0.00     0.038 A 
HETATM   12  C   UNK N   1       0.750   1.174   0.000  0.00  0.00     0.032 A 
HETATM   13  C   UNK N   1       0.269  -1.235  -0.000  0.00  0.00     0.035 A 
HETATM   14  C   UNK N   1      -0.177   0.109   0.000  0.00  0.00     0.026 A 
HETATM   15  H   UNK N   1       3.136   2.691   0.000  0.00  0.00     0.166 HD
ENDROOT
BRANCH   6  16
HETATM   16  C   UNK N   1       8.050   0.599  -0.000  0.00  0.00     0.112 C 
HETATM   17  C   UNK N   1       8.485   2.058   0.000  0.00  0.00     0.026 C 
BRANCH  16  18
HETATM   18  C   UNK N   1       9.129  -0.463   0.000  0.00  0.00     0.148 C 
HETATM   19  O   UNK N   1       8.843  -1.649   0.000  0.00  0.00    -0.649 OA
BRANCH  18  20
HETATM   20  O   UNK N   1      10.426  -0.102   0.000  0.00  0.00    -0.776 OA
HETATM   21  H   UNK N   1      11.095  -0.758   0.000  0.00  0.00     0.167 HD
ENDBRANCH  18  20
ENDBRANCH  16  18
ENDBRANCH   6  16
TORSDOF 3
