MODEL 1
REMARK VINA RESULT:      -6.6      0.000      0.000
REMARK  3 active torsions:
REMARK  status: ('A' for Active; 'I' for Inactive)
REMARK    1  A    between atoms: O_2  and  C_18 
REMARK    2  A    between atoms: C_8  and  C_10 
REMARK    3  A    between atoms: C_10  and  C_18 
ROOT
HETATM    1 Cl   UNK N   1      38.068  11.300  14.635  0.00  0.00    -0.084 Cl
HETATM    2  N   UNK N   1      34.190  12.605  10.422  0.00  0.00    -0.355 N 
HETATM    3  C   UNK N   1      35.427  14.291  11.261  0.00  0.00     0.003 A 
HETATM    4  C   UNK N   1      34.448  13.934  10.363  0.00  0.00     0.044 A 
HETATM    5  C   UNK N   1      35.796  13.151  11.906  0.00  0.00     0.005 A 
HETATM    6  C   UNK N   1      34.280  16.230   9.643  0.00  0.00    -0.042 A 
HETATM    7  C   UNK N   1      35.031  12.137  11.380  0.00  0.00     0.043 A 
HETATM    8  C   UNK N   1      33.848  14.884   9.532  0.00  0.00     0.038 A 
HETATM    9  C   UNK N   1      35.874  15.592  11.399  0.00  0.00     0.015 A 
HETATM   10  C   UNK N   1      35.290  16.564  10.579  0.00  0.00     0.009 A 
HETATM   11  C   UNK N   1      36.738  12.934  12.905  0.00  0.00     0.038 A 
HETATM   12  C   UNK N   1      35.163  10.825  11.827  0.00  0.00     0.032 A 
HETATM   13  C   UNK N   1      36.894  11.623  13.377  0.00  0.00     0.035 A 
HETATM   14  C   UNK N   1      36.111  10.571  12.842  0.00  0.00     0.026 A 
HETATM   15  H   UNK N   1      33.539  12.093   9.890  0.00  0.00     0.166 HD
ENDROOT
BRANCH   6  16
HETATM   16  C   UNK N   1      33.677  17.314   8.776  0.00  0.00     0.112 C 
HETATM   17  C   UNK N   1      32.167  17.509   8.762  0.00  0.00     0.026 C 
BRANCH  16  18
HETATM   18  C   UNK N   1      34.518  18.227   7.910  0.00  0.00     0.148 C 
HETATM   19  O   UNK N   1      34.571  18.073   6.701  0.00  0.00    -0.649 OA
BRANCH  18  20
HETATM   20  O   UNK N   1      35.223  19.226   8.474  0.00  0.00    -0.776 OA
HETATM   21  H   UNK N   1      35.727  19.066   9.248  0.00  0.00     0.167 HD
ENDBRANCH  18  20
ENDBRANCH  16  18
ENDBRANCH   6  16
TORSDOF 3
ENDMDL
MODEL 2
REMARK VINA RESULT:      -6.5      6.685     10.283
REMARK  3 active torsions:
REMARK  status: ('A' for Active; 'I' for Inactive)
REMARK    1  A    between atoms: O_2  and  C_18 
REMARK    2  A    between atoms: C_8  and  C_10 
REMARK    3  A    between atoms: C_10  and  C_18 
ROOT
HETATM    1 Cl   UNK N   1      25.815  20.580   2.699  0.00  0.00    -0.084 Cl
HETATM    2  N   UNK N   1      28.512  18.999   7.670  0.00  0.00    -0.355 N 
HETATM    3  C   UNK N   1      29.084  17.913   5.781  0.00  0.00     0.003 A 
HETATM    4  C   UNK N   1      29.297  18.033   7.134  0.00  0.00     0.044 A 
HETATM    5  C   UNK N   1      28.135  18.832   5.455  0.00  0.00     0.005 A 
HETATM    6  C   UNK N   1      30.940  16.270   7.026  0.00  0.00    -0.042 A 
HETATM    7  C   UNK N   1      27.801  19.482   6.619  0.00  0.00     0.043 A 
HETATM    8  C   UNK N   1      30.224  17.222   7.795  0.00  0.00     0.038 A 
HETATM    9  C   UNK N   1      29.762  16.997   4.997  0.00  0.00     0.015 A 
HETATM   10  C   UNK N   1      30.697  16.172   5.634  0.00  0.00     0.009 A 
HETATM   11  C   UNK N   1      27.549  19.140   4.233  0.00  0.00     0.038 A 
HETATM   12  C   UNK N   1      26.846  20.494   6.633  0.00  0.00     0.032 A 
HETATM   13  C   UNK N   1      26.582  20.156   4.214  0.00  0.00     0.035 A 
HETATM   14  C   UNK N   1      26.230  20.832   5.408  0.00  0.00     0.026 A 
HETATM   15  H   UNK N   1      28.466  19.286   8.610  0.00  0.00     0.166 HD
ENDROOT
BRANCH   6  16
HETATM   16  C   UNK N   1      31.960  15.358   7.672  0.00  0.00     0.112 C 
HETATM   17  C   UNK N   1      32.452  14.130   6.918  0.00  0.00     0.026 C 
BRANCH  16  18
HETATM   18  C   UNK N   1      32.522  15.614   9.054  0.00  0.00     0.148 C 
HETATM   19  O   UNK N   1      33.530  16.283   9.209  0.00  0.00    -0.649 OA
BRANCH  18  20
HETATM   20  O   UNK N   1      31.906  15.098  10.135  0.00  0.00    -0.776 OA
HETATM   21  H   UNK N   1      31.746  15.637  10.885  0.00  0.00     0.167 HD
ENDBRANCH  18  20
ENDBRANCH  16  18
ENDBRANCH   6  16
TORSDOF 3
ENDMDL
MODEL 3
REMARK VINA RESULT:      -6.5      5.147      7.550
REMARK  3 active torsions:
REMARK  status: ('A' for Active; 'I' for Inactive)
REMARK    1  A    between atoms: O_2  and  C_18 
REMARK    2  A    between atoms: C_8  and  C_10 
REMARK    3  A    between atoms: C_10  and  C_18 
ROOT
HETATM    1 Cl   UNK N   1      34.354  13.159   8.367  0.00  0.00    -0.084 Cl
HETATM    2  N   UNK N   1      36.544  14.764  13.574  0.00  0.00    -0.355 N 
HETATM    3  C   UNK N   1      35.179  12.972  13.523  0.00  0.00     0.003 A 
HETATM    4  C   UNK N   1      35.949  13.795  14.312  0.00  0.00     0.044 A 
HETATM    5  C   UNK N   1      35.292  13.438  12.250  0.00  0.00     0.005 A 
HETATM    6  C   UNK N   1      35.333  12.501  16.252  0.00  0.00    -0.042 A 
HETATM    7  C   UNK N   1      36.128  14.528  12.303  0.00  0.00     0.043 A 
HETATM    8  C   UNK N   1      36.050  13.588  15.690  0.00  0.00     0.038 A 
HETATM    9  C   UNK N   1      34.465  11.903  14.034  0.00  0.00     0.015 A 
HETATM   10  C   UNK N   1      34.549  11.673  15.412  0.00  0.00     0.009 A 
HETATM   11  C   UNK N   1      34.729  12.987  11.062  0.00  0.00     0.038 A 
HETATM   12  C   UNK N   1      36.455  15.245  11.156  0.00  0.00     0.032 A 
HETATM   13  C   UNK N   1      35.040  13.688   9.888  0.00  0.00     0.035 A 
HETATM   14  C   UNK N   1      35.899  14.813   9.932  0.00  0.00     0.026 A 
HETATM   15  H   UNK N   1      37.143  15.478  13.888  0.00  0.00     0.166 HD
ENDROOT
BRANCH   6  16
HETATM   16  C   UNK N   1      35.394  12.214  17.737  0.00  0.00     0.112 C 
HETATM   17  C   UNK N   1      35.600  10.784  18.217  0.00  0.00     0.026 C 
BRANCH  16  18
HETATM   18  C   UNK N   1      35.258  13.301  18.782  0.00  0.00     0.148 C 
HETATM   19  O   UNK N   1      35.259  14.480  18.467  0.00  0.00    -0.649 OA
BRANCH  18  20
HETATM   20  O   UNK N   1      35.132  12.970  20.082  0.00  0.00    -0.776 OA
HETATM   21  H   UNK N   1      35.361  13.589  20.747  0.00  0.00     0.167 HD
ENDBRANCH  18  20
ENDBRANCH  16  18
ENDBRANCH   6  16
TORSDOF 3
ENDMDL
MODEL 4
REMARK VINA RESULT:      -6.5      4.037      5.540
REMARK  3 active torsions:
REMARK  status: ('A' for Active; 'I' for Inactive)
REMARK    1  A    between atoms: O_2  and  C_18 
REMARK    2  A    between atoms: C_8  and  C_10 
REMARK    3  A    between atoms: C_10  and  C_18 
ROOT
HETATM    1 Cl   UNK N   1      34.073   8.108  18.892  0.00  0.00    -0.084 Cl
HETATM    2  N   UNK N   1      35.687  13.267  16.598  0.00  0.00    -0.355 N 
HETATM    3  C   UNK N   1      35.022  11.653  15.174  0.00  0.00     0.003 A 
HETATM    4  C   UNK N   1      35.478  12.945  15.298  0.00  0.00     0.044 A 
HETATM    5  C   UNK N   1      34.941  11.147  16.434  0.00  0.00     0.005 A 
HETATM    6  C   UNK N   1      35.388  13.202  12.901  0.00  0.00    -0.042 A 
HETATM    7  C   UNK N   1      35.350  12.145  17.285  0.00  0.00     0.043 A 
HETATM    8  C   UNK N   1      35.674  13.754  14.176  0.00  0.00     0.038 A 
HETATM    9  C   UNK N   1      34.732  11.080  13.949  0.00  0.00     0.015 A 
HETATM   10  C   UNK N   1      34.919  11.868  12.808  0.00  0.00     0.009 A 
HETATM   11  C   UNK N   1      34.542   9.895  16.888  0.00  0.00     0.038 A 
HETATM   12  C   UNK N   1      35.386  11.951  18.663  0.00  0.00     0.032 A 
HETATM   13  C   UNK N   1      34.567   9.668  18.272  0.00  0.00     0.035 A 
HETATM   14  C   UNK N   1      34.987  10.690  19.158  0.00  0.00     0.026 A 
HETATM   15  H   UNK N   1      36.010  14.122  16.963  0.00  0.00     0.166 HD
ENDROOT
BRANCH   6  16
HETATM   16  C   UNK N   1      35.576  14.018  11.641  0.00  0.00     0.112 C 
HETATM   17  C   UNK N   1      36.753  13.719  10.723  0.00  0.00     0.026 C 
BRANCH  16  18
HETATM   18  C   UNK N   1      34.633  15.134  11.245  0.00  0.00     0.148 C 
HETATM   19  O   UNK N   1      35.055  16.245  10.969  0.00  0.00    -0.649 OA
BRANCH  18  20
HETATM   20  O   UNK N   1      33.307  14.906  11.193  0.00  0.00    -0.776 OA
HETATM   21  H   UNK N   1      32.954  14.110  11.541  0.00  0.00     0.167 HD
ENDBRANCH  18  20
ENDBRANCH  16  18
ENDBRANCH   6  16
TORSDOF 3
ENDMDL
MODEL 5
REMARK VINA RESULT:      -6.4      4.261      6.906
REMARK  3 active torsions:
REMARK  status: ('A' for Active; 'I' for Inactive)
REMARK    1  A    between atoms: O_2  and  C_18 
REMARK    2  A    between atoms: C_8  and  C_10 
REMARK    3  A    between atoms: C_10  and  C_18 
ROOT
HETATM    1 Cl   UNK N   1      33.544  16.268   4.488  0.00  0.00    -0.084 Cl
HETATM    2  N   UNK N   1      34.725  17.065  10.185  0.00  0.00    -0.355 N 
HETATM    3  C   UNK N   1      35.103  15.021   9.316  0.00  0.00     0.003 A 
HETATM    4  C   UNK N   1      35.155  15.806  10.444  0.00  0.00     0.044 A 
HETATM    5  C   UNK N   1      34.626  15.810   8.316  0.00  0.00     0.005 A 
HETATM    6  C   UNK N   1      36.010  13.933  11.702  0.00  0.00    -0.042 A 
HETATM    7  C   UNK N   1      34.403  17.049   8.866  0.00  0.00     0.043 A 
HETATM    8  C   UNK N   1      35.606  15.292  11.663  0.00  0.00     0.038 A 
HETATM    9  C   UNK N   1      35.488  13.693   9.314  0.00  0.00     0.015 A 
HETATM   10  C   UNK N   1      35.945  13.152  10.521  0.00  0.00     0.009 A 
HETATM   11  C   UNK N   1      34.376  15.530   6.978  0.00  0.00     0.038 A 
HETATM   12  C   UNK N   1      33.907  18.101   8.101  0.00  0.00     0.032 A 
HETATM   13  C   UNK N   1      33.876  16.570   6.180  0.00  0.00     0.035 A 
HETATM   14  C   UNK N   1      33.642  17.851   6.737  0.00  0.00     0.026 A 
HETATM   15  H   UNK N   1      34.661  17.821  10.812  0.00  0.00     0.166 HD
ENDROOT
BRANCH   6  16
HETATM   16  C   UNK N   1      36.510  13.307  12.985  0.00  0.00     0.112 C 
HETATM   17  C   UNK N   1      37.404  12.076  12.921  0.00  0.00     0.026 C 
BRANCH  16  18
HETATM   18  C   UNK N   1      36.157  13.857  14.351  0.00  0.00     0.148 C 
HETATM   19  O   UNK N   1      36.880  14.666  14.909  0.00  0.00    -0.649 OA
BRANCH  18  20
HETATM   20  O   UNK N   1      35.030  13.452  14.967  0.00  0.00    -0.776 OA
HETATM   21  H   UNK N   1      34.226  13.407  14.489  0.00  0.00     0.167 HD
ENDBRANCH  18  20
ENDBRANCH  16  18
ENDBRANCH   6  16
TORSDOF 3
ENDMDL
MODEL 6
REMARK VINA RESULT:      -6.4     13.535     14.370
REMARK  3 active torsions:
REMARK  status: ('A' for Active; 'I' for Inactive)
REMARK    1  A    between atoms: O_2  and  C_18 
REMARK    2  A    between atoms: C_8  and  C_10 
REMARK    3  A    between atoms: C_10  and  C_18 
ROOT
HETATM    1 Cl   UNK N   1      22.583  12.032   9.071  0.00  0.00    -0.084 Cl
HETATM    2  N   UNK N   1      20.658  17.293   7.310  0.00  0.00    -0.355 N 
HETATM    3  C   UNK N   1      22.389  16.386   6.188  0.00  0.00     0.003 A 
HETATM    4  C   UNK N   1      21.538  17.462   6.294  0.00  0.00     0.044 A 
HETATM    5  C   UNK N   1      22.032  15.513   7.169  0.00  0.00     0.005 A 
HETATM    6  C   UNK N   1      22.645  18.511   4.424  0.00  0.00    -0.042 A 
HETATM    7  C   UNK N   1      20.977  16.084   7.840  0.00  0.00     0.043 A 
HETATM    8  C   UNK N   1      21.638  18.550   5.422  0.00  0.00     0.038 A 
HETATM    9  C   UNK N   1      23.382  16.311   5.229  0.00  0.00     0.015 A 
HETATM   10  C   UNK N   1      23.504  17.387   4.343  0.00  0.00     0.009 A 
HETATM   11  C   UNK N   1      22.553  14.272   7.516  0.00  0.00     0.038 A 
HETATM   12  C   UNK N   1      20.370  15.441   8.914  0.00  0.00     0.032 A 
HETATM   13  C   UNK N   1      21.962  13.598   8.596  0.00  0.00     0.035 A 
HETATM   14  C   UNK N   1      20.875  14.178   9.293  0.00  0.00     0.026 A 
HETATM   15  H   UNK N   1      19.947  17.908   7.600  0.00  0.00     0.166 HD
ENDROOT
BRANCH   6  16
HETATM   16  C   UNK N   1      22.813  19.652   3.444  0.00  0.00     0.112 C 
HETATM   17  C   UNK N   1      24.211  20.162   3.120  0.00  0.00     0.026 C 
BRANCH  16  18
HETATM   18  C   UNK N   1      21.638  20.320   2.763  0.00  0.00     0.148 C 
HETATM   19  O   UNK N   1      20.715  19.661   2.313  0.00  0.00    -0.649 OA
BRANCH  18  20
HETATM   20  O   UNK N   1      21.603  21.661   2.646  0.00  0.00    -0.776 OA
HETATM   21  H   UNK N   1      21.723  22.062   1.808  0.00  0.00     0.167 HD
ENDBRANCH  18  20
ENDBRANCH  16  18
ENDBRANCH   6  16
TORSDOF 3
ENDMDL
MODEL 7
REMARK VINA RESULT:      -6.2      2.166      2.760
REMARK  3 active torsions:
REMARK  status: ('A' for Active; 'I' for Inactive)
REMARK    1  A    between atoms: O_2  and  C_18 
REMARK    2  A    between atoms: C_8  and  C_10 
REMARK    3  A    between atoms: C_10  and  C_18 
ROOT
HETATM    1 Cl   UNK N   1      35.940  11.304  17.979  0.00  0.00    -0.084 Cl
HETATM    2  N   UNK N   1      34.208  11.557  12.374  0.00  0.00    -0.355 N 
HETATM    3  C   UNK N   1      35.352  13.316  13.194  0.00  0.00     0.003 A 
HETATM    4  C   UNK N   1      34.722  12.780  12.095  0.00  0.00     0.044 A 
HETATM    5  C   UNK N   1      35.231  12.403  14.195  0.00  0.00     0.005 A 
HETATM    6  C   UNK N   1      35.277  14.752  10.821  0.00  0.00    -0.042 A 
HETATM    7  C   UNK N   1      34.532  11.340  13.675  0.00  0.00     0.043 A 
HETATM    8  C   UNK N   1      34.664  13.474  10.883  0.00  0.00     0.038 A 
HETATM    9  C   UNK N   1      35.960  14.558  13.172  0.00  0.00     0.015 A 
HETATM   10  C   UNK N   1      35.918  15.275  11.971  0.00  0.00     0.009 A 
HETATM   11  C   UNK N   1      35.680  12.430  15.510  0.00  0.00     0.038 A 
HETATM   12  C   UNK N   1      34.234  10.222  14.448  0.00  0.00     0.032 A 
HETATM   13  C   UNK N   1      35.395  11.317  16.316  0.00  0.00     0.035 A 
HETATM   14  C   UNK N   1      34.676  10.217  15.790  0.00  0.00     0.026 A 
HETATM   15  H   UNK N   1      33.712  10.960  11.769  0.00  0.00     0.166 HD
ENDROOT
BRANCH   6  16
HETATM   16  C   UNK N   1      35.256  15.562   9.543  0.00  0.00     0.112 C 
HETATM   17  C   UNK N   1      35.750  14.933   8.248  0.00  0.00     0.026 C 
BRANCH  16  18
HETATM   18  C   UNK N   1      34.758  16.991   9.493  0.00  0.00     0.148 C 
HETATM   19  O   UNK N   1      35.514  17.927   9.692  0.00  0.00    -0.649 OA
BRANCH  18  20
HETATM   20  O   UNK N   1      33.462  17.241   9.225  0.00  0.00    -0.776 OA
HETATM   21  H   UNK N   1      33.222  18.014   8.753  0.00  0.00     0.167 HD
ENDBRANCH  18  20
ENDBRANCH  16  18
ENDBRANCH   6  16
TORSDOF 3
ENDMDL
MODEL 8
REMARK VINA RESULT:      -6.2     17.312     19.746
REMARK  3 active torsions:
REMARK  status: ('A' for Active; 'I' for Inactive)
REMARK    1  A    between atoms: O_2  and  C_18 
REMARK    2  A    between atoms: C_8  and  C_10 
REMARK    3  A    between atoms: C_10  and  C_18 
ROOT
HETATM    1 Cl   UNK N   1      31.715  19.806  -6.720  0.00  0.00    -0.084 Cl
HETATM    2  N   UNK N   1      28.926  23.513  -3.119  0.00  0.00    -0.355 N 
HETATM    3  C   UNK N   1      28.524  23.702  -5.327  0.00  0.00     0.003 A 
HETATM    4  C   UNK N   1      28.241  24.189  -4.072  0.00  0.00     0.044 A 
HETATM    5  C   UNK N   1      29.413  22.687  -5.158  0.00  0.00     0.005 A 
HETATM    6  C   UNK N   1      26.744  25.811  -5.047  0.00  0.00    -0.042 A 
HETATM    7  C   UNK N   1      29.644  22.588  -3.806  0.00  0.00     0.043 A 
HETATM    8  C   UNK N   1      27.350  25.251  -3.893  0.00  0.00     0.038 A 
HETATM    9  C   UNK N   1      27.953  24.221  -6.475  0.00  0.00     0.015 A 
HETATM   10  C   UNK N   1      27.057  25.285  -6.324  0.00  0.00     0.009 A 
HETATM   11  C   UNK N   1      30.029  21.852  -6.083  0.00  0.00     0.038 A 
HETATM   12  C   UNK N   1      30.518  21.636  -3.289  0.00  0.00     0.032 A 
HETATM   13  C   UNK N   1      30.915  20.881  -5.593  0.00  0.00     0.035 A 
HETATM   14  C   UNK N   1      31.160  20.772  -4.203  0.00  0.00     0.026 A 
HETATM   15  H   UNK N   1      28.907  23.658  -2.145  0.00  0.00     0.166 HD
ENDROOT
BRANCH   6  16
HETATM   16  C   UNK N   1      25.769  26.962  -4.930  0.00  0.00     0.112 C 
HETATM   17  C   UNK N   1      24.587  27.043  -5.887  0.00  0.00     0.026 C 
BRANCH  16  18
HETATM   18  C   UNK N   1      25.917  28.054  -3.891  0.00  0.00     0.148 C 
HETATM   19  O   UNK N   1      25.474  27.911  -2.764  0.00  0.00    -0.649 OA
BRANCH  18  20
HETATM   20  O   UNK N   1      26.545  29.201  -4.209  0.00  0.00    -0.776 OA
HETATM   21  H   UNK N   1      27.479  29.222  -4.274  0.00  0.00     0.167 HD
ENDBRANCH  18  20
ENDBRANCH  16  18
ENDBRANCH   6  16
TORSDOF 3
ENDMDL
MODEL 9
REMARK VINA RESULT:      -6.2      6.342      8.935
REMARK  3 active torsions:
REMARK  status: ('A' for Active; 'I' for Inactive)
REMARK    1  A    between atoms: O_2  and  C_18 
REMARK    2  A    between atoms: C_8  and  C_10 
REMARK    3  A    between atoms: C_10  and  C_18 
ROOT
HETATM    1 Cl   UNK N   1      36.081  15.682  11.491  0.00  0.00    -0.084 Cl
HETATM    2  N   UNK N   1      37.099  10.835  14.646  0.00  0.00    -0.355 N 
HETATM    3  C   UNK N   1      35.988  12.519  15.649  0.00  0.00     0.003 A 
HETATM    4  C   UNK N   1      36.501  11.251  15.789  0.00  0.00     0.044 A 
HETATM    5  C   UNK N   1      36.271  12.914  14.378  0.00  0.00     0.005 A 
HETATM    6  C   UNK N   1      35.707  11.189  18.067  0.00  0.00    -0.042 A 
HETATM    7  C   UNK N   1      36.947  11.874  13.785  0.00  0.00     0.043 A 
HETATM    8  C   UNK N   1      36.379  10.551  16.992  0.00  0.00     0.038 A 
HETATM    9  C   UNK N   1      35.327  13.174  16.672  0.00  0.00     0.015 A 
HETATM   10  C   UNK N   1      35.190  12.496  17.888  0.00  0.00     0.009 A 
HETATM   11  C   UNK N   1      35.986  14.097  13.707  0.00  0.00     0.038 A 
HETATM   12  C   UNK N   1      37.387  11.955  12.467  0.00  0.00     0.032 A 
HETATM   13  C   UNK N   1      36.416  14.210  12.377  0.00  0.00     0.035 A 
HETATM   14  C   UNK N   1      37.114  13.145  11.757  0.00  0.00     0.026 A 
HETATM   15  H   UNK N   1      37.543   9.973  14.477  0.00  0.00     0.166 HD
ENDROOT
BRANCH   6  16
HETATM   16  C   UNK N   1      35.536  10.493  19.399  0.00  0.00     0.112 C 
HETATM   17  C   UNK N   1      36.672  10.523  20.413  0.00  0.00     0.026 C 
BRANCH  16  18
HETATM   18  C   UNK N   1      34.268   9.757  19.777  0.00  0.00     0.148 C 
HETATM   19  O   UNK N   1      33.744   9.927  20.865  0.00  0.00    -0.649 OA
BRANCH  18  20
HETATM   20  O   UNK N   1      33.704   8.901  18.905  0.00  0.00    -0.776 OA
HETATM   21  H   UNK N   1      33.151   8.211  19.216  0.00  0.00     0.167 HD
ENDBRANCH  18  20
ENDBRANCH  16  18
ENDBRANCH   6  16
TORSDOF 3
ENDMDL
