MODEL 1
REMARK VINA RESULT:      -7.2      0.000      0.000
REMARK  3 active torsions:
REMARK  status: ('A' for Active; 'I' for Inactive)
REMARK    1  A    between atoms: O_4  and  C_20 
REMARK    2  A    between atoms: N_6  and  C_15 
REMARK    3  A    between atoms: C_17  and  C_20 
ROOT
HETATM    1  O   UNK N   1      28.621  16.329   4.327  0.00  0.00    -0.323 OA
HETATM    2  O   UNK N   1      30.403  16.559   3.032  0.00  0.00    -0.323 OA
HETATM    3  O   UNK N   1      34.332  17.738   6.036  0.00  0.00    -0.285 OA
HETATM    4  N   UNK N   1      31.124  17.327   8.386  0.00  0.00    -0.291 N 
HETATM    5  N   UNK N   1      32.319  17.640   8.903  0.00  0.00    -0.289 N 
ATOM      6  HN  UNK N   1      32.394  17.771   9.911  1.00  0.00     0.187 HD
HETATM    7  C   UNK N   1      30.981  17.141   7.035  0.00  0.00     0.068 A 
HETATM    8  C   UNK N   1      32.119  17.286   6.188  0.00  0.00     0.048 A 
HETATM    9  C   UNK N   1      29.673  16.639   5.081  0.00  0.00     0.107 A 
HETATM   10  C   UNK N   1      29.730  16.810   6.462  0.00  0.00     0.072 A 
HETATM   11  C   UNK N   1      30.747  16.777   4.297  0.00  0.00     0.106 A 
HETATM   12  C   UNK N   1      31.996  17.100   4.798  0.00  0.00     0.057 A 
HETATM   13  C   UNK N   1      33.348  17.611   6.750  0.00  0.00     0.219 A 
HETATM   14  C   UNK N   1      33.439  17.790   8.138  0.00  0.00     0.173 A 
HETATM   15  C   UNK N   1      29.037  16.264   2.992  0.00  0.00     0.352 A 
ENDROOT
BRANCH  14  16
HETATM   16  C   UNK N   1      34.721  18.137   8.798  0.00  0.00     0.199 C 
HETATM   17  O   UNK N   1      35.204  17.410   9.653  0.00  0.00    -0.645 OA
BRANCH  16  18
HETATM   18  O   UNK N   1      35.365  19.267   8.455  0.00  0.00    -0.771 OA
HETATM   19  H   UNK N   1      35.268  19.618   7.591  0.00  0.00     0.167 HD
ENDBRANCH  16  18
ENDBRANCH  14  16
BRANCH   4  20
HETATM   20  C   UNK N   1      29.956  17.180   9.269  0.00  0.00     0.145 C 
HETATM   21  C   UNK N   1      29.343  18.511   9.684  0.00  0.00     0.028 C 
ENDBRANCH   4  20
TORSDOF 3
ENDMDL
MODEL 2
REMARK VINA RESULT:      -6.4      4.162      7.274
REMARK  3 active torsions:
REMARK  status: ('A' for Active; 'I' for Inactive)
REMARK    1  A    between atoms: O_4  and  C_20 
REMARK    2  A    between atoms: N_6  and  C_15 
REMARK    3  A    between atoms: C_17  and  C_20 
ROOT
HETATM    1  O   UNK N   1      35.272  12.241  13.031  0.00  0.00    -0.323 OA
HETATM    2  O   UNK N   1      36.283  14.033  13.851  0.00  0.00    -0.323 OA
HETATM    3  O   UNK N   1      35.783  17.764  10.433  0.00  0.00    -0.285 OA
HETATM    4  N   UNK N   1      33.953  14.537   8.942  0.00  0.00    -0.291 N 
HETATM    5  N   UNK N   1      33.986  15.686   8.256  0.00  0.00    -0.289 N 
ATOM      6  HN  UNK N   1      33.534  15.722   7.343  1.00  0.00     0.187 HD
HETATM    7  C   UNK N   1      34.550  14.449  10.173  0.00  0.00     0.068 A 
HETATM    8  C   UNK N   1      35.205  15.594  10.713  0.00  0.00     0.048 A 
HETATM    9  C   UNK N   1      35.161  13.242  12.161  0.00  0.00     0.107 A 
HETATM   10  C   UNK N   1      34.531  13.246  10.920  0.00  0.00     0.072 A 
HETATM   11  C   UNK N   1      35.772  14.323  12.658  0.00  0.00     0.106 A 
HETATM   12  C   UNK N   1      35.825  15.526  11.976  0.00  0.00     0.057 A 
HETATM   13  C   UNK N   1      35.225  16.775   9.981  0.00  0.00     0.219 A 
HETATM   14  C   UNK N   1      34.599  16.812   8.727  0.00  0.00     0.173 A 
HETATM   15  C   UNK N   1      35.989  12.699  14.143  0.00  0.00     0.352 A 
ENDROOT
BRANCH  14  16
HETATM   16  C   UNK N   1      34.585  18.040   7.897  0.00  0.00     0.199 C 
HETATM   17  O   UNK N   1      34.209  18.009   6.735  0.00  0.00    -0.645 OA
BRANCH  16  18
HETATM   18  O   UNK N   1      34.989  19.209   8.426  0.00  0.00    -0.771 OA
HETATM   19  H   UNK N   1      34.818  19.400   9.328  0.00  0.00     0.167 HD
ENDBRANCH  16  18
ENDBRANCH  14  16
BRANCH   4  20
HETATM   20  C   UNK N   1      33.275  13.361   8.374  0.00  0.00     0.145 C 
HETATM   21  C   UNK N   1      32.982  13.494   6.886  0.00  0.00     0.028 C 
ENDBRANCH   4  20
TORSDOF 3
ENDMDL
MODEL 3
REMARK VINA RESULT:      -6.1      9.098     11.802
REMARK  3 active torsions:
REMARK  status: ('A' for Active; 'I' for Inactive)
REMARK    1  A    between atoms: O_4  and  C_20 
REMARK    2  A    between atoms: N_6  and  C_15 
REMARK    3  A    between atoms: C_17  and  C_20 
ROOT
HETATM    1  O   UNK N   1      21.726  15.324   7.219  0.00  0.00    -0.323 OA
HETATM    2  O   UNK N   1      19.695  15.086   6.369  0.00  0.00    -0.323 OA
HETATM    3  O   UNK N   1      19.243  18.405   2.544  0.00  0.00    -0.285 OA
HETATM    4  N   UNK N   1      22.913  18.845   4.069  0.00  0.00    -0.291 N 
HETATM    5  N   UNK N   1      22.503  19.594   3.037  0.00  0.00    -0.289 N 
ATOM      6  HN  UNK N   1      23.148  20.282   2.648  1.00  0.00     0.187 HD
HETATM    7  C   UNK N   1      22.076  17.910   4.621  0.00  0.00     0.068 A 
HETATM    8  C   UNK N   1      20.765  17.746   4.084  0.00  0.00     0.048 A 
HETATM    9  C   UNK N   1      21.570  16.180   6.212  0.00  0.00     0.107 A 
HETATM   10  C   UNK N   1      22.483  17.105   5.712  0.00  0.00     0.072 A 
HETATM   11  C   UNK N   1      20.343  16.034   5.700  0.00  0.00     0.106 A 
HETATM   12  C   UNK N   1      19.888  16.792   4.635  0.00  0.00     0.057 A 
HETATM   13  C   UNK N   1      20.364  18.536   3.014  0.00  0.00     0.219 A 
HETATM   14  C   UNK N   1      21.260  19.478   2.486  0.00  0.00     0.173 A 
HETATM   15  C   UNK N   1      20.542  14.591   7.364  0.00  0.00     0.352 A 
ENDROOT
BRANCH  14  16
HETATM   16  C   UNK N   1      20.893  20.350   1.345  0.00  0.00     0.199 C 
HETATM   17  O   UNK N   1      20.870  21.566   1.467  0.00  0.00    -0.645 OA
BRANCH  16  18
HETATM   18  O   UNK N   1      20.579  19.802   0.158  0.00  0.00    -0.771 OA
HETATM   19  H   UNK N   1      20.889  20.194  -0.636  0.00  0.00     0.167 HD
ENDBRANCH  16  18
ENDBRANCH  14  16
BRANCH   4  20
HETATM   20  C   UNK N   1      24.268  19.023   4.615  0.00  0.00     0.145 C 
HETATM   21  C   UNK N   1      25.351  19.048   3.544  0.00  0.00     0.028 C 
ENDBRANCH   4  20
TORSDOF 3
ENDMDL
MODEL 4
REMARK VINA RESULT:      -6.0      1.885      3.394
REMARK  3 active torsions:
REMARK  status: ('A' for Active; 'I' for Inactive)
REMARK    1  A    between atoms: O_4  and  C_20 
REMARK    2  A    between atoms: N_6  and  C_15 
REMARK    3  A    between atoms: C_17  and  C_20 
ROOT
HETATM    1  O   UNK N   1      27.758  16.442   4.382  0.00  0.00    -0.323 OA
HETATM    2  O   UNK N   1      27.211  16.660   6.518  0.00  0.00    -0.323 OA
HETATM    3  O   UNK N   1      31.468  17.741   9.079  0.00  0.00    -0.285 OA
HETATM    4  N   UNK N   1      32.469  17.349   5.228  0.00  0.00    -0.291 N 
HETATM    5  N   UNK N   1      33.394  17.637   6.152  0.00  0.00    -0.289 N 
ATOM      6  HN  UNK N   1      34.361  17.755   5.853  1.00  0.00     0.187 HD
HETATM    7  C   UNK N   1      31.157  17.183   5.590  0.00  0.00     0.068 A 
HETATM    8  C   UNK N   1      30.790  17.321   6.961  0.00  0.00     0.048 A 
HETATM    9  C   UNK N   1      28.851  16.726   5.087  0.00  0.00     0.107 A 
HETATM   10  C   UNK N   1      30.158  16.878   4.634  0.00  0.00     0.072 A 
HETATM   11  C   UNK N   1      28.518  16.857   6.375  0.00  0.00     0.106 A 
HETATM   12  C   UNK N   1      29.448  17.154   7.356  0.00  0.00     0.057 A 
HETATM   13  C   UNK N   1      31.769  17.620   7.901  0.00  0.00     0.219 A 
HETATM   14  C   UNK N   1      33.097  17.780   7.477  0.00  0.00     0.173 A 
HETATM   15  C   UNK N   1      26.668  16.387   5.259  0.00  0.00     0.352 A 
ENDROOT
BRANCH  14  16
HETATM   16  C   UNK N   1      34.187  18.099   8.430  0.00  0.00     0.199 C 
HETATM   17  O   UNK N   1      34.962  19.018   8.211  0.00  0.00    -0.645 OA
BRANCH  16  18
HETATM   18  O   UNK N   1      34.329  17.373   9.552  0.00  0.00    -0.771 OA
HETATM   19  H   UNK N   1      33.571  17.054  10.004  0.00  0.00     0.167 HD
ENDBRANCH  16  18
ENDBRANCH  14  16
BRANCH   4  20
HETATM   20  C   UNK N   1      32.859  17.209   3.816  0.00  0.00     0.145 C 
HETATM   21  C   UNK N   1      33.479  15.856   3.493  0.00  0.00     0.028 C 
ENDBRANCH   4  20
TORSDOF 3
ENDMDL
MODEL 5
REMARK VINA RESULT:      -6.0      6.507      9.424
REMARK  3 active torsions:
REMARK  status: ('A' for Active; 'I' for Inactive)
REMARK    1  A    between atoms: O_4  and  C_20 
REMARK    2  A    between atoms: N_6  and  C_15 
REMARK    3  A    between atoms: C_17  and  C_20 
ROOT
HETATM    1  O   UNK N   1      27.729  17.247   5.787  0.00  0.00    -0.323 OA
HETATM    2  O   UNK N   1      28.473  18.967   4.607  0.00  0.00    -0.323 OA
HETATM    3  O   UNK N   1      24.455  21.133   2.369  0.00  0.00    -0.285 OA
HETATM    4  N   UNK N   1      23.099  18.031   4.494  0.00  0.00    -0.291 N 
HETATM    5  N   UNK N   1      22.259  18.799   3.789  0.00  0.00    -0.289 N 
ATOM      6  HN  UNK N   1      21.264  18.577   3.805  1.00  0.00     0.187 HD
HETATM    7  C   UNK N   1      24.443  18.297   4.498  0.00  0.00     0.068 A 
HETATM    8  C   UNK N   1      24.937  19.401   3.744  0.00  0.00     0.048 A 
HETATM    9  C   UNK N   1      26.702  17.841   5.185  0.00  0.00     0.107 A 
HETATM   10  C   UNK N   1      25.353  17.500   5.235  0.00  0.00     0.072 A 
HETATM   11  C   UNK N   1      27.154  18.879   4.473  0.00  0.00     0.106 A 
HETATM   12  C   UNK N   1      26.315  19.694   3.733  0.00  0.00     0.057 A 
HETATM   13  C   UNK N   1      24.045  20.184   3.020  0.00  0.00     0.219 A 
HETATM   14  C   UNK N   1      22.679  19.868   3.050  0.00  0.00     0.173 A 
HETATM   15  C   UNK N   1      28.900  17.935   5.448  0.00  0.00     0.352 A 
ENDROOT
BRANCH  14  16
HETATM   16  C   UNK N   1      21.677  20.663   2.300  0.00  0.00     0.199 C 
HETATM   17  O   UNK N   1      21.541  20.524   1.093  0.00  0.00    -0.645 OA
BRANCH  16  18
HETATM   18  O   UNK N   1      20.905  21.552   2.950  0.00  0.00    -0.771 OA
HETATM   19  H   UNK N   1      20.654  21.392   3.839  0.00  0.00     0.167 HD
ENDBRANCH  16  18
ENDBRANCH  14  16
BRANCH   4  20
HETATM   20  C   UNK N   1      22.578  16.893   5.270  0.00  0.00     0.145 C 
HETATM   21  C   UNK N   1      21.547  17.298   6.315  0.00  0.00     0.028 C 
ENDBRANCH   4  20
TORSDOF 3
ENDMDL
MODEL 6
REMARK VINA RESULT:      -6.0      2.829      4.180
REMARK  3 active torsions:
REMARK  status: ('A' for Active; 'I' for Inactive)
REMARK    1  A    between atoms: O_4  and  C_20 
REMARK    2  A    between atoms: N_6  and  C_15 
REMARK    3  A    between atoms: C_17  and  C_20 
ROOT
HETATM    1  O   UNK N   1      32.413  16.178   2.687  0.00  0.00    -0.323 OA
HETATM    2  O   UNK N   1      33.677  15.473   4.363  0.00  0.00    -0.323 OA
HETATM    3  O   UNK N   1      31.298  16.695   8.687  0.00  0.00    -0.285 OA
HETATM    4  N   UNK N   1      29.006  17.973   5.671  0.00  0.00    -0.291 N 
HETATM    5  N   UNK N   1      28.632  18.157   6.944  0.00  0.00    -0.289 N 
ATOM      6  HN  UNK N   1      27.749  18.631   7.129  1.00  0.00     0.187 HD
HETATM    7  C   UNK N   1      30.187  17.340   5.382  0.00  0.00     0.068 A 
HETATM    8  C   UNK N   1      31.012  16.881   6.450  0.00  0.00     0.048 A 
HETATM    9  C   UNK N   1      31.820  16.481   3.839  0.00  0.00     0.107 A 
HETATM   10  C   UNK N   1      30.607  17.133   4.045  0.00  0.00     0.072 A 
HETATM   11  C   UNK N   1      32.585  16.055   4.850  0.00  0.00     0.106 A 
HETATM   12  C   UNK N   1      32.229  16.228   6.176  0.00  0.00     0.057 A 
HETATM   13  C   UNK N   1      30.601  17.084   7.762  0.00  0.00     0.219 A 
HETATM   14  C   UNK N   1      29.383  17.737   8.003  0.00  0.00     0.173 A 
HETATM   15  C   UNK N   1      33.618  15.524   2.968  0.00  0.00     0.352 A 
ENDROOT
BRANCH  14  16
HETATM   16  C   UNK N   1      28.890  17.984   9.379  0.00  0.00     0.199 C 
HETATM   17  O   UNK N   1      27.774  17.621   9.721  0.00  0.00    -0.645 OA
BRANCH  16  18
HETATM   18  O   UNK N   1      29.676  18.616  10.269  0.00  0.00    -0.771 OA
HETATM   19  H   UNK N   1      30.603  18.473  10.261  0.00  0.00     0.167 HD
ENDBRANCH  16  18
ENDBRANCH  14  16
BRANCH   4  20
HETATM   20  C   UNK N   1      28.147  18.452   4.576  0.00  0.00     0.145 C 
HETATM   21  C   UNK N   1      27.894  19.953   4.620  0.00  0.00     0.028 C 
ENDBRANCH   4  20
TORSDOF 3
ENDMDL
MODEL 7
REMARK VINA RESULT:      -6.0     11.172     12.834
REMARK  3 active torsions:
REMARK  status: ('A' for Active; 'I' for Inactive)
REMARK    1  A    between atoms: O_4  and  C_20 
REMARK    2  A    between atoms: N_6  and  C_15 
REMARK    3  A    between atoms: C_17  and  C_20 
ROOT
HETATM    1  O   UNK N   1      19.260  12.810   2.943  0.00  0.00    -0.323 OA
HETATM    2  O   UNK N   1      19.225  13.053   0.742  0.00  0.00    -0.323 OA
HETATM    3  O   UNK N   1      20.357  17.905  -0.274  0.00  0.00    -0.285 OA
HETATM    4  N   UNK N   1      20.423  17.479   3.701  0.00  0.00    -0.291 N 
HETATM    5  N   UNK N   1      20.686  18.663   3.132  0.00  0.00    -0.289 N 
ATOM      6  HN  UNK N   1      20.903  19.456   3.735  1.00  0.00     0.187 HD
HETATM    7  C   UNK N   1      20.126  16.389   2.924  0.00  0.00     0.068 A 
HETATM    8  C   UNK N   1      20.100  16.531   1.506  0.00  0.00     0.048 A 
HETATM    9  C   UNK N   1      19.552  14.072   2.638  0.00  0.00     0.107 A 
HETATM   10  C   UNK N   1      19.844  15.126   3.499  0.00  0.00     0.072 A 
HETATM   11  C   UNK N   1      19.531  14.216   1.309  0.00  0.00     0.106 A 
HETATM   12  C   UNK N   1      19.797  15.424   0.688  0.00  0.00     0.057 A 
HETATM   13  C   UNK N   1      20.376  17.770   0.940  0.00  0.00     0.219 A 
HETATM   14  C   UNK N   1      20.674  18.853   1.780  0.00  0.00     0.173 A 
HETATM   15  C   UNK N   1      19.039  12.106   1.753  0.00  0.00     0.352 A 
ENDROOT
BRANCH  14  16
HETATM   16  C   UNK N   1      20.978  20.199   1.239  0.00  0.00     0.199 C 
HETATM   17  O   UNK N   1      21.642  20.999   1.882  0.00  0.00    -0.645 OA
BRANCH  16  18
HETATM   18  O   UNK N   1      20.518  20.552   0.025  0.00  0.00    -0.771 OA
HETATM   19  H   UNK N   1      19.789  20.098  -0.350  0.00  0.00     0.167 HD
ENDBRANCH  16  18
ENDBRANCH  14  16
BRANCH   4  20
HETATM   20  C   UNK N   1      20.453  17.345   5.166  0.00  0.00     0.145 C 
HETATM   21  C   UNK N   1      21.657  18.019   5.809  0.00  0.00     0.028 C 
ENDBRANCH   4  20
TORSDOF 3
ENDMDL
MODEL 8
REMARK VINA RESULT:      -5.8      3.883      5.325
REMARK  3 active torsions:
REMARK  status: ('A' for Active; 'I' for Inactive)
REMARK    1  A    between atoms: O_4  and  C_20 
REMARK    2  A    between atoms: N_6  and  C_15 
REMARK    3  A    between atoms: C_17  and  C_20 
ROOT
HETATM    1  O   UNK N   1      33.198  16.140   5.552  0.00  0.00    -0.323 OA
HETATM    2  O   UNK N   1      34.068  17.932   6.520  0.00  0.00    -0.323 OA
HETATM    3  O   UNK N   1      35.502  16.589  11.209  0.00  0.00    -0.285 OA
HETATM    4  N   UNK N   1      33.935  13.346   9.474  0.00  0.00    -0.291 N 
HETATM    5  N   UNK N   1      34.404  13.296  10.728  0.00  0.00    -0.289 N 
ATOM      6  HN  UNK N   1      34.353  12.411  11.232  1.00  0.00     0.187 HD
HETATM    7  C   UNK N   1      33.985  14.517   8.763  0.00  0.00     0.068 A 
HETATM    8  C   UNK N   1      34.542  15.679   9.373  0.00  0.00     0.048 A 
HETATM    9  C   UNK N   1      33.586  15.826   6.786  0.00  0.00     0.107 A 
HETATM   10  C   UNK N   1      33.497  14.598   7.437  0.00  0.00     0.072 A 
HETATM   11  C   UNK N   1      34.111  16.910   7.368  0.00  0.00     0.106 A 
HETATM   12  C   UNK N   1      34.604  16.893   8.661  0.00  0.00     0.057 A 
HETATM   13  C   UNK N   1      35.022  15.601  10.675  0.00  0.00     0.219 A 
HETATM   14  C   UNK N   1      34.946  14.378  11.358  0.00  0.00     0.173 A 
HETATM   15  C   UNK N   1      33.486  17.491   5.328  0.00  0.00     0.352 A 
ENDROOT
BRANCH  14  16
HETATM   16  C   UNK N   1      35.441  14.229  12.748  0.00  0.00     0.199 C 
HETATM   17  O   UNK N   1      34.879  13.484  13.538  0.00  0.00    -0.645 OA
BRANCH  16  18
HETATM   18  O   UNK N   1      36.521  14.921  13.152  0.00  0.00    -0.771 OA
HETATM   19  H   UNK N   1      37.356  14.497  13.205  0.00  0.00     0.167 HD
ENDBRANCH  16  18
ENDBRANCH  14  16
BRANCH   4  20
HETATM   20  C   UNK N   1      33.362  12.140   8.855  0.00  0.00     0.145 C 
HETATM   21  C   UNK N   1      33.403  10.919   9.763  0.00  0.00     0.028 C 
ENDBRANCH   4  20
TORSDOF 3
ENDMDL
MODEL 9
REMARK VINA RESULT:      -5.8      6.404      8.309
REMARK  3 active torsions:
REMARK  status: ('A' for Active; 'I' for Inactive)
REMARK    1  A    between atoms: O_4  and  C_20 
REMARK    2  A    between atoms: N_6  and  C_15 
REMARK    3  A    between atoms: C_17  and  C_20 
ROOT
HETATM    1  O   UNK N   1      20.552  19.552   2.804  0.00  0.00    -0.323 OA
HETATM    2  O   UNK N   1      21.781  21.209   1.999  0.00  0.00    -0.323 OA
HETATM    3  O   UNK N   1      26.536  20.531   3.664  0.00  0.00    -0.285 OA
HETATM    4  N   UNK N   1      24.330  17.533   5.123  0.00  0.00    -0.291 N 
HETATM    5  N   UNK N   1      25.638  17.619   5.397  0.00  0.00    -0.289 N 
ATOM      6  HN  UNK N   1      26.062  16.904   5.986  1.00  0.00     0.187 HD
HETATM    7  C   UNK N   1      23.725  18.476   4.334  0.00  0.00     0.068 A 
HETATM    8  C   UNK N   1      24.503  19.549   3.808  0.00  0.00     0.048 A 
HETATM    9  C   UNK N   1      21.808  19.407   3.220  0.00  0.00     0.107 A 
HETATM   10  C   UNK N   1      22.343  18.408   4.028  0.00  0.00     0.072 A 
HETATM   11  C   UNK N   1      22.548  20.409   2.733  0.00  0.00     0.106 A 
HETATM   12  C   UNK N   1      23.901  20.529   2.996  0.00  0.00     0.057 A 
HETATM   13  C   UNK N   1      25.858  19.616   4.107  0.00  0.00     0.219 A 
HETATM   14  C   UNK N   1      26.429  18.625   4.920  0.00  0.00     0.173 A 
HETATM   15  C   UNK N   1      20.478  20.702   2.010  0.00  0.00     0.352 A 
ENDROOT
BRANCH  14  16
HETATM   16  C   UNK N   1      27.868  18.641   5.275  0.00  0.00     0.199 C 
HETATM   17  O   UNK N   1      28.236  18.392   6.413  0.00  0.00    -0.645 OA
BRANCH  16  18
HETATM   18  O   UNK N   1      28.786  18.932   4.336  0.00  0.00    -0.771 OA
HETATM   19  H   UNK N   1      28.564  19.499   3.623  0.00  0.00     0.167 HD
ENDBRANCH  16  18
ENDBRANCH  14  16
BRANCH   4  20
HETATM   20  C   UNK N   1      23.537  16.421   5.670  0.00  0.00     0.145 C 
HETATM   21  C   UNK N   1      23.893  15.070   5.063  0.00  0.00     0.028 C 
ENDBRANCH   4  20
TORSDOF 3
ENDMDL
