MODEL 1
REMARK VINA RESULT:      -5.5      0.000      0.000
REMARK  1 active torsions:
REMARK  status: ('A' for Active; 'I' for Inactive)
REMARK    1  A    between atoms: C_6  and  C_10 
ROOT
HETATM    1  S   UNK N   1      35.300  14.357  11.935  0.00  0.00    -0.093 SA
HETATM    2  N   UNK N   1      36.809  12.541  13.195  0.00  0.00    -0.359 N 
HETATM    3  N   UNK N   1      35.257  13.417  14.496  0.00  0.00    -0.361 N 
ATOM      4  HN  UNK N   1      34.482  14.000  14.810  1.00  0.00     0.162 HD
HETATM    5  C   UNK N   1      37.097  11.838  14.418  0.00  0.00     0.155 A 
HETATM    6  C   UNK N   1      35.968  12.443  15.292  0.00  0.00     0.135 A 
HETATM    7  C   UNK N   1      37.388  12.427  11.900  0.00  0.00     0.135 A 
HETATM    8  C   UNK N   1      35.771  13.413  13.342  0.00  0.00     0.139 A 
HETATM    9  C   UNK N   1      36.568  13.375  10.988  0.00  0.00     0.102 A 
ENDROOT
BRANCH   6  10
HETATM   10  C   UNK N   1      35.720  12.336  16.758  0.00  0.00    -0.034 A 
HETATM   11  C   UNK N   1      35.350  13.476  17.482  0.00  0.00     0.009 A 
HETATM   12  C   UNK N   1      35.103  13.388  18.852  0.00  0.00     0.001 A 
HETATM   13  C   UNK N   1      35.228  12.160  19.505  0.00  0.00     0.000 A 
HETATM   14  C   UNK N   1      35.598  11.019  18.785  0.00  0.00     0.001 A 
HETATM   15  C   UNK N   1      35.842  11.106  17.411  0.00  0.00     0.009 A 
ENDBRANCH   6  10
TORSDOF 1
ENDMDL
MODEL 2
REMARK VINA RESULT:      -5.3      1.252      1.858
REMARK  1 active torsions:
REMARK  status: ('A' for Active; 'I' for Inactive)
REMARK    1  A    between atoms: C_6  and  C_10 
ROOT
HETATM    1  S   UNK N   1      34.952  11.930  11.309  0.00  0.00    -0.093 SA
HETATM    2  N   UNK N   1      35.991  13.760  12.962  0.00  0.00    -0.359 N 
HETATM    3  N   UNK N   1      35.252  11.971  14.022  0.00  0.00    -0.361 N 
ATOM      4  HN  UNK N   1      34.823  11.061  14.190  1.00  0.00     0.162 HD
HETATM    5  C   UNK N   1      36.297  14.140  14.317  0.00  0.00     0.155 A 
HETATM    6  C   UNK N   1      35.806  12.851  15.025  0.00  0.00     0.135 A 
HETATM    7  C   UNK N   1      36.255  14.422  11.730  0.00  0.00     0.135 A 
HETATM    8  C   UNK N   1      35.395  12.535  12.899  0.00  0.00     0.139 A 
HETATM    9  C   UNK N   1      35.779  13.448  10.621  0.00  0.00     0.102 A 
ENDROOT
BRANCH   6  10
HETATM   10  C   UNK N   1      35.628  12.553  16.474  0.00  0.00    -0.034 A 
HETATM   11  C   UNK N   1      35.786  11.241  16.936  0.00  0.00     0.009 A 
HETATM   12  C   UNK N   1      35.635  10.951  18.292  0.00  0.00     0.001 A 
HETATM   13  C   UNK N   1      35.321  11.972  19.192  0.00  0.00     0.000 A 
HETATM   14  C   UNK N   1      35.162  13.284  18.734  0.00  0.00     0.001 A 
HETATM   15  C   UNK N   1      35.318  13.576  17.376  0.00  0.00     0.009 A 
ENDBRANCH   6  10
TORSDOF 1
ENDMDL
MODEL 3
REMARK VINA RESULT:      -5.2      2.053      2.892
REMARK  1 active torsions:
REMARK  status: ('A' for Active; 'I' for Inactive)
REMARK    1  A    between atoms: C_6  and  C_10 
ROOT
HETATM    1  S   UNK N   1      34.134  14.273   9.681  0.00  0.00    -0.093 SA
HETATM    2  N   UNK N   1      35.619  14.983  11.790  0.00  0.00    -0.359 N 
HETATM    3  N   UNK N   1      34.562  13.069  12.092  0.00  0.00    -0.361 N 
ATOM      4  HN  UNK N   1      33.956  12.267  11.920  1.00  0.00     0.162 HD
HETATM    5  C   UNK N   1      36.063  14.672  13.125  0.00  0.00     0.155 A 
HETATM    6  C   UNK N   1      35.339  13.310  13.286  0.00  0.00     0.135 A 
HETATM    7  C   UNK N   1      35.961  16.060  10.926  0.00  0.00     0.135 A 
HETATM    8  C   UNK N   1      34.771  14.033  11.302  0.00  0.00     0.139 A 
HETATM    9  C   UNK N   1      35.235  15.770   9.587  0.00  0.00     0.102 A 
ENDROOT
BRANCH   6  10
HETATM   10  C   UNK N   1      35.170  12.444  14.487  0.00  0.00    -0.034 A 
HETATM   11  C   UNK N   1      35.668  12.871  15.724  0.00  0.00     0.009 A 
HETATM   12  C   UNK N   1      35.505  12.077  16.859  0.00  0.00     0.001 A 
HETATM   13  C   UNK N   1      34.846  10.848  16.761  0.00  0.00     0.000 A 
HETATM   14  C   UNK N   1      34.347  10.419  15.527  0.00  0.00     0.001 A 
HETATM   15  C   UNK N   1      34.506  11.217  14.390  0.00  0.00     0.009 A 
ENDBRANCH   6  10
TORSDOF 1
ENDMDL
MODEL 4
REMARK VINA RESULT:      -5.1      6.738      9.631
REMARK  1 active torsions:
REMARK  status: ('A' for Active; 'I' for Inactive)
REMARK    1  A    between atoms: C_6  and  C_10 
ROOT
HETATM    1  S   UNK N   1      35.621  16.283  10.822  0.00  0.00    -0.093 SA
HETATM    2  N   UNK N   1      34.408  15.215   8.689  0.00  0.00    -0.359 N 
HETATM    3  N   UNK N   1      33.352  16.985   9.478  0.00  0.00    -0.361 N 
ATOM      4  HN  UNK N   1      33.119  17.781  10.072  1.00  0.00     0.162 HD
HETATM    5  C   UNK N   1      33.302  15.265   7.768  0.00  0.00     0.155 A 
HETATM    6  C   UNK N   1      32.609  16.536   8.323  0.00  0.00     0.135 A 
HETATM    7  C   UNK N   1      35.538  14.351   8.738  0.00  0.00     0.135 A 
HETATM    8  C   UNK N   1      34.341  16.211   9.618  0.00  0.00     0.139 A 
HETATM    9  C   UNK N   1      36.421  14.879   9.898  0.00  0.00     0.102 A 
ENDROOT
BRANCH   6  10
HETATM   10  C   UNK N   1      31.282  17.131   7.998  0.00  0.00    -0.034 A 
HETATM   11  C   UNK N   1      30.673  18.004   8.909  0.00  0.00     0.009 A 
HETATM   12  C   UNK N   1      29.437  18.578   8.612  0.00  0.00     0.001 A 
HETATM   13  C   UNK N   1      28.803  18.280   7.403  0.00  0.00     0.000 A 
HETATM   14  C   UNK N   1      29.408  17.409   6.491  0.00  0.00     0.001 A 
HETATM   15  C   UNK N   1      30.649  16.836   6.786  0.00  0.00     0.009 A 
ENDBRANCH   6  10
TORSDOF 1
ENDMDL
MODEL 5
REMARK VINA RESULT:      -5.0      6.286     10.706
REMARK  1 active torsions:
REMARK  status: ('A' for Active; 'I' for Inactive)
REMARK    1  A    between atoms: C_6  and  C_10 
ROOT
HETATM    1  S   UNK N   1      36.315  14.203   9.810  0.00  0.00    -0.093 SA
HETATM    2  N   UNK N   1      34.992  16.472   9.301  0.00  0.00    -0.359 N 
HETATM    3  N   UNK N   1      34.982  15.074   7.593  0.00  0.00    -0.361 N 
ATOM      4  HN  UNK N   1      35.172  14.248   7.025  1.00  0.00     0.162 HD
HETATM    5  C   UNK N   1      34.237  17.253   8.354  0.00  0.00     0.155 A 
HETATM    6  C   UNK N   1      34.215  16.229   7.190  0.00  0.00     0.135 A 
HETATM    7  C   UNK N   1      35.335  16.734  10.657  0.00  0.00     0.135 A 
HETATM    8  C   UNK N   1      35.377  15.273   8.778  0.00  0.00     0.139 A 
HETATM    9  C   UNK N   1      36.059  15.459  11.160  0.00  0.00     0.102 A 
ENDROOT
BRANCH   6  10
HETATM   10  C   UNK N   1      33.763  16.383   5.779  0.00  0.00    -0.034 A 
HETATM   11  C   UNK N   1      34.053  15.379   4.846  0.00  0.00     0.009 A 
HETATM   12  C   UNK N   1      33.625  15.504   3.524  0.00  0.00     0.001 A 
HETATM   13  C   UNK N   1      32.906  16.635   3.128  0.00  0.00     0.000 A 
HETATM   14  C   UNK N   1      32.615  17.640   4.057  0.00  0.00     0.001 A 
HETATM   15  C   UNK N   1      33.040  17.513   5.383  0.00  0.00     0.009 A 
ENDBRANCH   6  10
TORSDOF 1
ENDMDL
MODEL 6
REMARK VINA RESULT:      -5.0      3.462      5.156
REMARK  1 active torsions:
REMARK  status: ('A' for Active; 'I' for Inactive)
REMARK    1  A    between atoms: C_6  and  C_10 
ROOT
HETATM    1  S   UNK N   1      32.295  15.687   8.728  0.00  0.00    -0.093 SA
HETATM    2  N   UNK N   1      34.599  16.460   9.848  0.00  0.00    -0.359 N 
HETATM    3  N   UNK N   1      33.800  14.601  10.729  0.00  0.00    -0.361 N 
ATOM      4  HN  UNK N   1      33.180  13.811  10.911  1.00  0.00     0.162 HD
HETATM    5  C   UNK N   1      35.615  16.206  10.837  0.00  0.00     0.155 A 
HETATM    6  C   UNK N   1      35.046  14.879  11.403  0.00  0.00     0.135 A 
HETATM    7  C   UNK N   1      34.500  17.478   8.859  0.00  0.00     0.135 A 
HETATM    8  C   UNK N   1      33.617  15.514   9.874  0.00  0.00     0.139 A 
HETATM    9  C   UNK N   1      33.230  17.141   8.036  0.00  0.00     0.102 A 
ENDROOT
BRANCH   6  10
HETATM   10  C   UNK N   1      35.456  14.085  12.596  0.00  0.00    -0.034 A 
HETATM   11  C   UNK N   1      35.031  12.757  12.722  0.00  0.00     0.009 A 
HETATM   12  C   UNK N   1      35.417  11.998  13.826  0.00  0.00     0.001 A 
HETATM   13  C   UNK N   1      36.229  12.565  14.812  0.00  0.00     0.000 A 
HETATM   14  C   UNK N   1      36.655  13.892  14.690  0.00  0.00     0.001 A 
HETATM   15  C   UNK N   1      36.272  14.652  13.581  0.00  0.00     0.009 A 
ENDBRANCH   6  10
TORSDOF 1
ENDMDL
MODEL 7
REMARK VINA RESULT:      -4.9      1.468      2.329
REMARK  1 active torsions:
REMARK  status: ('A' for Active; 'I' for Inactive)
REMARK    1  A    between atoms: C_6  and  C_10 
ROOT
HETATM    1  S   UNK N   1      36.063  15.692  10.988  0.00  0.00    -0.093 SA
HETATM    2  N   UNK N   1      35.402  13.145  11.474  0.00  0.00    -0.359 N 
HETATM    3  N   UNK N   1      35.703  14.318  13.319  0.00  0.00    -0.361 N 
ATOM      4  HN  UNK N   1      35.918  15.100  13.937  1.00  0.00     0.162 HD
HETATM    5  C   UNK N   1      35.148  12.120  12.455  0.00  0.00     0.155 A 
HETATM    6  C   UNK N   1      35.327  12.985  13.729  0.00  0.00     0.135 A 
HETATM    7  C   UNK N   1      35.323  13.110  10.054  0.00  0.00     0.135 A 
HETATM    8  C   UNK N   1      35.718  14.337  12.055  0.00  0.00     0.139 A 
HETATM    9  C   UNK N   1      35.606  14.560   9.583  0.00  0.00     0.102 A 
ENDROOT
BRANCH   6  10
HETATM   10  C   UNK N   1      35.395  12.586  15.163  0.00  0.00    -0.034 A 
HETATM   11  C   UNK N   1      35.965  11.356  15.514  0.00  0.00     0.009 A 
HETATM   12  C   UNK N   1      36.047  10.976  16.853  0.00  0.00     0.001 A 
HETATM   13  C   UNK N   1      35.556  11.824  17.849  0.00  0.00     0.000 A 
HETATM   14  C   UNK N   1      34.986  13.053  17.503  0.00  0.00     0.001 A 
HETATM   15  C   UNK N   1      34.907  13.437  16.161  0.00  0.00     0.009 A 
ENDBRANCH   6  10
TORSDOF 1
ENDMDL
MODEL 8
REMARK VINA RESULT:      -4.9     21.948     24.840
REMARK  1 active torsions:
REMARK  status: ('A' for Active; 'I' for Inactive)
REMARK    1  A    between atoms: C_6  and  C_10 
ROOT
HETATM    1  S   UNK N   1      30.157  21.688  -5.960  0.00  0.00    -0.093 SA
HETATM    2  N   UNK N   1      29.360  22.913  -3.719  0.00  0.00    -0.359 N 
HETATM    3  N   UNK N   1      28.280  23.617  -5.510  0.00  0.00    -0.361 N 
ATOM      4  HN  UNK N   1      27.997  23.719  -6.484  1.00  0.00     0.162 HD
HETATM    5  C   UNK N   1      28.500  23.896  -3.110  0.00  0.00     0.155 A 
HETATM    6  C   UNK N   1      27.732  24.336  -4.383  0.00  0.00     0.135 A 
HETATM    7  C   UNK N   1      30.296  22.012  -3.138  0.00  0.00     0.135 A 
HETATM    8  C   UNK N   1      29.173  22.840  -5.068  0.00  0.00     0.139 A 
HETATM    9  C   UNK N   1      30.819  21.140  -4.309  0.00  0.00     0.102 A 
ENDROOT
BRANCH   6  10
HETATM   10  C   UNK N   1      26.781  25.464  -4.594  0.00  0.00    -0.034 A 
HETATM   11  C   UNK N   1      26.678  26.472  -3.628  0.00  0.00     0.009 A 
HETATM   12  C   UNK N   1      25.801  27.540  -3.819  0.00  0.00     0.001 A 
HETATM   13  C   UNK N   1      25.020  27.603  -4.976  0.00  0.00     0.000 A 
HETATM   14  C   UNK N   1      25.120  26.597  -5.943  0.00  0.00     0.001 A 
HETATM   15  C   UNK N   1      26.002  25.529  -5.754  0.00  0.00     0.009 A 
ENDBRANCH   6  10
TORSDOF 1
ENDMDL
MODEL 9
REMARK VINA RESULT:      -4.8     25.202     26.128
REMARK  1 active torsions:
REMARK  status: ('A' for Active; 'I' for Inactive)
REMARK    1  A    between atoms: C_6  and  C_10 
ROOT
HETATM    1  S   UNK N   1      29.353  21.449  -6.864  0.00  0.00    -0.093 SA
HETATM    2  N   UNK N   1      26.862  22.312  -7.322  0.00  0.00    -0.359 N 
HETATM    3  N   UNK N   1      28.006  23.660  -6.001  0.00  0.00    -0.361 N 
ATOM      4  HN  UNK N   1      28.769  24.035  -5.437  1.00  0.00     0.162 HD
HETATM    5  C   UNK N   1      25.858  23.315  -7.073  0.00  0.00     0.155 A 
HETATM    6  C   UNK N   1      26.705  24.260  -6.182  0.00  0.00     0.135 A 
HETATM    7  C   UNK N   1      26.836  21.159  -8.154  0.00  0.00     0.135 A 
HETATM    8  C   UNK N   1      28.027  22.586  -6.667  0.00  0.00     0.139 A 
HETATM    9  C   UNK N   1      28.261  20.553  -8.076  0.00  0.00     0.102 A 
ENDROOT
BRANCH   6  10
HETATM   10  C   UNK N   1      26.300  25.448  -5.379  0.00  0.00    -0.034 A 
HETATM   11  C   UNK N   1      25.435  26.398  -5.936  0.00  0.00     0.009 A 
HETATM   12  C   UNK N   1      25.039  27.509  -5.191  0.00  0.00     0.001 A 
HETATM   13  C   UNK N   1      25.508  27.676  -3.886  0.00  0.00     0.000 A 
HETATM   14  C   UNK N   1      26.372  26.729  -3.326  0.00  0.00     0.001 A 
HETATM   15  C   UNK N   1      26.767  25.614  -4.071  0.00  0.00     0.009 A 
ENDBRANCH   6  10
TORSDOF 1
ENDMDL
