REMARK  1 active torsions:
REMARK  status: ('A' for Active; 'I' for Inactive)
REMARK    1  A    between atoms: C_6  and  C_10 
ROOT
HETATM    1  S   UNK N   1       8.012  -1.265  -0.187  0.00  0.00    -0.093 SA
HETATM    2  N   UNK N   1       6.532   0.954   0.026  0.00  0.00    -0.359 N 
HETATM    3  N   UNK N   1       5.320  -0.890   0.059  0.00  0.00    -0.361 N 
ATOM      4  HN  UNK N   1       5.072  -1.879   0.029  1.00  0.00     0.162 HD
HETATM    5  C   UNK N   1       5.218   1.532   0.148  0.00  0.00     0.155 A 
HETATM    6  C   UNK N   1       4.402   0.215   0.210  0.00  0.00     0.135 A 
HETATM    7  C   UNK N   1       7.817   1.565   0.009  0.00  0.00     0.135 A 
HETATM    8  C   UNK N   1       6.485  -0.408  -0.030  0.00  0.00     0.139 A 
HETATM    9  C   UNK N   1       8.836   0.397  -0.033  0.00  0.00     0.102 A 
ENDROOT
BRANCH   6  10
HETATM   10  C   UNK N   1       2.930  -0.011   0.159  0.00  0.00    -0.034 A 
HETATM   11  C   UNK N   1       2.430  -1.319   0.166  0.00  0.00     0.009 A 
HETATM   12  C   UNK N   1       1.054  -1.545   0.131  0.00  0.00     0.001 A 
HETATM   13  C   UNK N   1       0.171  -0.463   0.086  0.00  0.00     0.000 A 
HETATM   14  C   UNK N   1       0.667   0.845   0.079  0.00  0.00     0.001 A 
HETATM   15  C   UNK N   1       2.046   1.072   0.118  0.00  0.00     0.009 A 
ENDBRANCH   6  10
TORSDOF 1
