MODEL 1
REMARK VINA RESULT:      -5.0      0.000      0.000
REMARK  6 active torsions:
REMARK  status: ('A' for Active; 'I' for Inactive)
REMARK    1  A    between atoms: O_2  and  C_6 
REMARK    2  A    between atoms: O_2  and  C_8 
REMARK    3  A    between atoms: O_3  and  C_5 
REMARK    4  A    between atoms: O_4  and  C_7 
REMARK    5  A    between atoms: C_5  and  C_6 
REMARK    6  A    between atoms: C_5  and  C_7 
ROOT
HETATM    1  O   UNK N   1      34.074  17.271   9.207  0.00  0.00    -0.349 OA
ENDROOT
BRANCH   1   2
HETATM    2  C   UNK N   1      35.044  16.314   9.414  0.00  0.00     0.209 C 
BRANCH   2   3
HETATM    3  C   UNK N   1      35.458  16.258  10.871  0.00  0.00     0.166 C 
BRANCH   3   4
HETATM    4  O   UNK N   1      36.846  16.138  10.956  0.00  0.00    -0.391 OA
HETATM    5  H   UNK N   1      37.410  16.530  10.271  0.00  0.00     0.210 HD
ENDBRANCH   3   4
BRANCH   3   6
HETATM    6  C   UNK N   1      34.802  15.043  11.502  0.00  0.00     0.198 C 
BRANCH   6   7
HETATM    7  O   UNK N   1      33.446  15.006  11.178  0.00  0.00    -0.398 OA
HETATM    8  H   UNK N   1      32.708  15.627  11.283  0.00  0.00     0.209 HD
ENDBRANCH   6   7
ENDBRANCH   3   6
ENDBRANCH   2   3
ENDBRANCH   1   2
BRANCH   1   9
HETATM    9  C   UNK N   1      33.303  17.296   8.093  0.00  0.00     0.069 A 
HETATM   10  C   UNK N   1      31.905  17.143   8.165  0.00  0.00     0.038 A 
HETATM   11  C   UNK N   1      31.135  17.134   6.999  0.00  0.00     0.026 A 
HETATM   12  C   UNK N   1      31.752  17.273   5.754  0.00  0.00     0.034 A 
HETATM   13 Cl   UNK N   1      30.787  17.231   4.294  0.00  0.00    -0.084 Cl
HETATM   14  C   UNK N   1      33.138  17.435   5.675  0.00  0.00     0.026 A 
HETATM   15  C   UNK N   1      33.910  17.450   6.842  0.00  0.00     0.038 A 
ENDBRANCH   1   9
TORSDOF 6
ENDMDL
MODEL 2
REMARK VINA RESULT:      -5.0      0.158      1.351
REMARK  6 active torsions:
REMARK  status: ('A' for Active; 'I' for Inactive)
REMARK    1  A    between atoms: O_2  and  C_6 
REMARK    2  A    between atoms: O_2  and  C_8 
REMARK    3  A    between atoms: O_3  and  C_5 
REMARK    4  A    between atoms: O_4  and  C_7 
REMARK    5  A    between atoms: C_5  and  C_6 
REMARK    6  A    between atoms: C_5  and  C_7 
ROOT
HETATM    1  O   UNK N   1      33.867  17.154   9.265  0.00  0.00    -0.349 OA
ENDROOT
BRANCH   1   2
HETATM    2  C   UNK N   1      35.056  16.470   9.410  0.00  0.00     0.209 C 
BRANCH   2   3
HETATM    3  C   UNK N   1      35.395  16.263  10.872  0.00  0.00     0.166 C 
BRANCH   3   4
HETATM    4  O   UNK N   1      36.779  16.151  11.019  0.00  0.00    -0.391 OA
HETATM    5  H   UNK N   1      37.357  16.246  10.246  0.00  0.00     0.210 HD
ENDBRANCH   3   4
BRANCH   3   6
HETATM    6  C   UNK N   1      34.729  14.979  11.334  0.00  0.00     0.198 C 
BRANCH   6   7
HETATM    7  O   UNK N   1      33.349  15.058  11.143  0.00  0.00    -0.398 OA
HETATM    8  H   UNK N   1      32.714  14.574  10.593  0.00  0.00     0.209 HD
ENDBRANCH   6   7
ENDBRANCH   3   6
ENDBRANCH   2   3
ENDBRANCH   1   2
BRANCH   1   9
HETATM    9  C   UNK N   1      33.165  17.155   8.106  0.00  0.00     0.069 A 
HETATM   10  C   UNK N   1      33.794  17.392   6.868  0.00  0.00     0.038 A 
HETATM   11  C   UNK N   1      33.043  17.426   5.691  0.00  0.00     0.026 A 
HETATM   12  C   UNK N   1      31.661  17.228   5.738  0.00  0.00     0.034 A 
HETATM   13 Cl   UNK N   1      30.720  17.302   4.264  0.00  0.00    -0.084 Cl
HETATM   14  C   UNK N   1      31.031  16.983   6.961  0.00  0.00     0.026 A 
HETATM   15  C   UNK N   1      31.783  16.943   8.141  0.00  0.00     0.038 A 
ENDBRANCH   1   9
TORSDOF 6
ENDMDL
MODEL 3
REMARK VINA RESULT:      -4.9      5.558      8.275
REMARK  6 active torsions:
REMARK  status: ('A' for Active; 'I' for Inactive)
REMARK    1  A    between atoms: O_2  and  C_6 
REMARK    2  A    between atoms: O_2  and  C_8 
REMARK    3  A    between atoms: O_3  and  C_5 
REMARK    4  A    between atoms: O_4  and  C_7 
REMARK    5  A    between atoms: C_5  and  C_6 
REMARK    6  A    between atoms: C_5  and  C_7 
ROOT
HETATM    1  O   UNK N   1      36.274  13.224  12.420  0.00  0.00    -0.349 OA
ENDROOT
BRANCH   1   2
HETATM    2  C   UNK N   1      35.302  13.485  11.478  0.00  0.00     0.209 C 
BRANCH   2   3
HETATM    3  C   UNK N   1      34.860  14.934  11.532  0.00  0.00     0.166 C 
BRANCH   3   4
HETATM    4  O   UNK N   1      33.499  15.018  11.235  0.00  0.00    -0.391 OA
HETATM    5  H   UNK N   1      33.109  15.870  10.984  0.00  0.00     0.210 HD
ENDBRANCH   3   4
BRANCH   3   6
HETATM    6  C   UNK N   1      35.657  15.710  10.499  0.00  0.00     0.198 C 
BRANCH   6   7
HETATM    7  O   UNK N   1      36.919  16.026  11.003  0.00  0.00    -0.398 OA
HETATM    8  H   UNK N   1      37.291  16.105  11.894  0.00  0.00     0.209 HD
ENDBRANCH   6   7
ENDBRANCH   3   6
ENDBRANCH   2   3
ENDBRANCH   1   2
BRANCH   1   9
HETATM    9  C   UNK N   1      36.014  13.215  13.750  0.00  0.00     0.069 A 
HETATM   10  C   UNK N   1      34.981  12.425  14.290  0.00  0.00     0.038 A 
HETATM   11  C   UNK N   1      34.708  12.461  15.659  0.00  0.00     0.026 A 
HETATM   12  C   UNK N   1      35.457  13.287  16.500  0.00  0.00     0.034 A 
HETATM   13 Cl   UNK N   1      35.091  13.353  18.210  0.00  0.00    -0.084 Cl
HETATM   14  C   UNK N   1      36.490  14.068  15.973  0.00  0.00     0.026 A 
HETATM   15  C   UNK N   1      36.769  14.029  14.602  0.00  0.00     0.038 A 
ENDBRANCH   1   9
TORSDOF 6
ENDMDL
MODEL 4
REMARK VINA RESULT:      -4.9      1.876      3.178
REMARK  6 active torsions:
REMARK  status: ('A' for Active; 'I' for Inactive)
REMARK    1  A    between atoms: O_2  and  C_6 
REMARK    2  A    between atoms: O_2  and  C_8 
REMARK    3  A    between atoms: O_3  and  C_5 
REMARK    4  A    between atoms: O_4  and  C_7 
REMARK    5  A    between atoms: C_5  and  C_6 
REMARK    6  A    between atoms: C_5  and  C_7 
ROOT
HETATM    1  O   UNK N   1      34.058  17.835   6.040  0.00  0.00    -0.349 OA
ENDROOT
BRANCH   1   2
HETATM    2  C   UNK N   1      34.473  17.123   7.146  0.00  0.00     0.209 C 
BRANCH   2   3
HETATM    3  C   UNK N   1      34.308  17.936   8.414  0.00  0.00     0.166 C 
BRANCH   3   4
HETATM    4  O   UNK N   1      35.191  19.017   8.393  0.00  0.00    -0.391 OA
HETATM    5  H   UNK N   1      36.051  18.932   7.953  0.00  0.00     0.210 HD
ENDBRANCH   3   4
BRANCH   3   6
HETATM    6  C   UNK N   1      34.629  17.039   9.596  0.00  0.00     0.198 C 
BRANCH   6   7
HETATM    7  O   UNK N   1      35.713  17.552  10.309  0.00  0.00    -0.398 OA
HETATM    8  H   UNK N   1      36.530  17.170  10.665  0.00  0.00     0.209 HD
ENDBRANCH   6   7
ENDBRANCH   3   6
ENDBRANCH   2   3
ENDBRANCH   1   2
BRANCH   1   9
HETATM    9  C   UNK N   1      33.013  17.442   5.272  0.00  0.00     0.069 A 
HETATM   10  C   UNK N   1      33.123  17.360   3.871  0.00  0.00     0.038 A 
HETATM   11  C   UNK N   1      32.021  16.988   3.097  0.00  0.00     0.026 A 
HETATM   12  C   UNK N   1      30.801  16.700   3.712  0.00  0.00     0.034 A 
HETATM   13 Cl   UNK N   1      29.415  16.265   2.737  0.00  0.00    -0.084 Cl
HETATM   14  C   UNK N   1      30.686  16.770   5.104  0.00  0.00     0.026 A 
HETATM   15  C   UNK N   1      31.791  17.137   5.881  0.00  0.00     0.038 A 
ENDBRANCH   1   9
TORSDOF 6
ENDMDL
MODEL 5
REMARK VINA RESULT:      -4.9     10.658     13.107
REMARK  6 active torsions:
REMARK  status: ('A' for Active; 'I' for Inactive)
REMARK    1  A    between atoms: O_2  and  C_6 
REMARK    2  A    between atoms: O_2  and  C_8 
REMARK    3  A    between atoms: O_3  and  C_5 
REMARK    4  A    between atoms: O_4  and  C_7 
REMARK    5  A    between atoms: C_5  and  C_6 
REMARK    6  A    between atoms: C_5  and  C_7 
ROOT
HETATM    1  O   UNK N   1      22.583  20.242   2.755  0.00  0.00    -0.349 OA
ENDROOT
BRANCH   1   2
HETATM    2  C   UNK N   1      21.524  19.417   3.068  0.00  0.00     0.209 C 
BRANCH   2   3
HETATM    3  C   UNK N   1      20.300  19.758   2.241  0.00  0.00     0.166 C 
BRANCH   3   4
HETATM    4  O   UNK N   1      19.931  18.650   1.476  0.00  0.00    -0.391 OA
HETATM    5  H   UNK N   1      20.393  17.805   1.592  0.00  0.00     0.210 HD
ENDBRANCH   3   4
BRANCH   3   6
HETATM    6  C   UNK N   1      20.656  20.915   1.325  0.00  0.00     0.198 C 
BRANCH   6   7
HETATM    7  O   UNK N   1      20.708  20.480  -0.000  0.00  0.00    -0.398 OA
HETATM    8  H   UNK N   1      20.238  19.801  -0.508  0.00  0.00     0.209 HD
ENDBRANCH   6   7
ENDBRANCH   3   6
ENDBRANCH   2   3
ENDBRANCH   1   2
BRANCH   1   9
HETATM    9  C   UNK N   1      23.844  20.005   3.193  0.00  0.00     0.069 A 
HETATM   10  C   UNK N   1      24.100  19.085   4.227  0.00  0.00     0.038 A 
HETATM   11  C   UNK N   1      25.403  18.885   4.688  0.00  0.00     0.026 A 
HETATM   12  C   UNK N   1      26.460  19.605   4.125  0.00  0.00     0.034 A 
HETATM   13 Cl   UNK N   1      28.088  19.375   4.726  0.00  0.00    -0.084 Cl
HETATM   14  C   UNK N   1      26.215  20.514   3.093  0.00  0.00     0.026 A 
HETATM   15  C   UNK N   1      24.911  20.711   2.626  0.00  0.00     0.038 A 
ENDBRANCH   1   9
TORSDOF 6
ENDMDL
MODEL 6
REMARK VINA RESULT:      -4.9     17.555     18.787
REMARK  6 active torsions:
REMARK  status: ('A' for Active; 'I' for Inactive)
REMARK    1  A    between atoms: O_2  and  C_6 
REMARK    2  A    between atoms: O_2  and  C_8 
REMARK    3  A    between atoms: O_3  and  C_5 
REMARK    4  A    between atoms: O_4  and  C_7 
REMARK    5  A    between atoms: C_5  and  C_6 
REMARK    6  A    between atoms: C_5  and  C_7 
ROOT
HETATM    1  O   UNK N   1      25.122  24.110  -6.121  0.00  0.00    -0.349 OA
ENDROOT
BRANCH   1   2
HETATM    2  C   UNK N   1      26.075  23.279  -6.670  0.00  0.00     0.209 C 
BRANCH   2   3
HETATM    3  C   UNK N   1      25.552  22.593  -7.916  0.00  0.00     0.166 C 
BRANCH   3   4
HETATM    4  O   UNK N   1      24.605  23.410  -8.535  0.00  0.00    -0.391 OA
HETATM    5  H   UNK N   1      23.935  23.865  -8.002  0.00  0.00     0.210 HD
ENDBRANCH   3   4
BRANCH   3   6
HETATM    6  C   UNK N   1      24.903  21.285  -7.499  0.00  0.00     0.198 C 
BRANCH   6   7
HETATM    7  O   UNK N   1      23.712  21.536  -6.817  0.00  0.00    -0.398 OA
HETATM    8  H   UNK N   1      22.853  21.907  -7.070  0.00  0.00     0.209 HD
ENDBRANCH   6   7
ENDBRANCH   3   6
ENDBRANCH   2   3
ENDBRANCH   1   2
BRANCH   1   9
HETATM    9  C   UNK N   1      25.446  25.215  -5.406  0.00  0.00     0.069 A 
HETATM   10  C   UNK N   1      25.006  26.495  -5.794  0.00  0.00     0.038 A 
HETATM   11  C   UNK N   1      25.384  27.623  -5.063  0.00  0.00     0.026 A 
HETATM   12  C   UNK N   1      26.206  27.485  -3.942  0.00  0.00     0.034 A 
HETATM   13 Cl   UNK N   1      26.703  28.904  -3.047  0.00  0.00    -0.084 Cl
HETATM   14  C   UNK N   1      26.640  26.217  -3.545  0.00  0.00     0.026 A 
HETATM   15  C   UNK N   1      26.258  25.085  -4.274  0.00  0.00     0.038 A 
ENDBRANCH   1   9
TORSDOF 6
ENDMDL
MODEL 7
REMARK VINA RESULT:      -4.9     10.778     13.108
REMARK  6 active torsions:
REMARK  status: ('A' for Active; 'I' for Inactive)
REMARK    1  A    between atoms: O_2  and  C_6 
REMARK    2  A    between atoms: O_2  and  C_8 
REMARK    3  A    between atoms: O_3  and  C_5 
REMARK    4  A    between atoms: O_4  and  C_7 
REMARK    5  A    between atoms: C_5  and  C_6 
REMARK    6  A    between atoms: C_5  and  C_7 
ROOT
HETATM    1  O   UNK N   1      22.461  20.899   2.774  0.00  0.00    -0.349 OA
ENDROOT
BRANCH   1   2
HETATM    2  C   UNK N   1      21.506  20.342   1.951  0.00  0.00     0.209 C 
BRANCH   2   3
HETATM    3  C   UNK N   1      20.174  20.216   2.662  0.00  0.00     0.166 C 
BRANCH   3   4
HETATM    4  O   UNK N   1      20.303  20.669   3.977  0.00  0.00    -0.391 OA
HETATM    5  H   UNK N   1      20.673  21.548   4.153  0.00  0.00     0.210 HD
ENDBRANCH   3   4
BRANCH   3   6
HETATM    6  C   UNK N   1      19.775  18.752   2.664  0.00  0.00     0.198 C 
BRANCH   6   7
HETATM    7  O   UNK N   1      18.406  18.626   2.428  0.00  0.00    -0.398 OA
HETATM    8  H   UNK N   1      17.813  18.911   1.716  0.00  0.00     0.209 HD
ENDBRANCH   6   7
ENDBRANCH   3   6
ENDBRANCH   2   3
ENDBRANCH   1   2
BRANCH   1   9
HETATM    9  C   UNK N   1      23.595  20.243   3.121  0.00  0.00     0.069 A 
HETATM   10  C   UNK N   1      23.554  19.055   3.874  0.00  0.00     0.038 A 
HETATM   11  C   UNK N   1      24.738  18.417   4.251  0.00  0.00     0.026 A 
HETATM   12  C   UNK N   1      25.971  18.960   3.885  0.00  0.00     0.034 A 
HETATM   13 Cl   UNK N   1      27.453  18.175   4.386  0.00  0.00    -0.084 Cl
HETATM   14  C   UNK N   1      26.020  20.135   3.130  0.00  0.00     0.026 A 
HETATM   15  C   UNK N   1      24.835  20.773   2.746  0.00  0.00     0.038 A 
ENDBRANCH   1   9
TORSDOF 6
ENDMDL
MODEL 8
REMARK VINA RESULT:      -4.9      7.575     10.060
REMARK  6 active torsions:
REMARK  status: ('A' for Active; 'I' for Inactive)
REMARK    1  A    between atoms: O_2  and  C_6 
REMARK    2  A    between atoms: O_2  and  C_8 
REMARK    3  A    between atoms: O_3  and  C_5 
REMARK    4  A    between atoms: O_4  and  C_7 
REMARK    5  A    between atoms: C_5  and  C_6 
REMARK    6  A    between atoms: C_5  and  C_7 
ROOT
HETATM    1  O   UNK N   1      34.946  13.309  14.880  0.00  0.00    -0.349 OA
ENDROOT
BRANCH   1   2
HETATM    2  C   UNK N   1      36.026  13.864  14.226  0.00  0.00     0.209 C 
BRANCH   2   3
HETATM    3  C   UNK N   1      36.406  13.049  13.006  0.00  0.00     0.166 C 
BRANCH   3   4
HETATM    4  O   UNK N   1      37.196  13.824  12.155  0.00  0.00    -0.391 OA
HETATM    5  H   UNK N   1      36.792  14.287  11.405  0.00  0.00     0.210 HD
ENDBRANCH   3   4
BRANCH   3   6
HETATM    6  C   UNK N   1      35.129  12.647  12.289  0.00  0.00     0.198 C 
BRANCH   6   7
HETATM    7  O   UNK N   1      34.308  13.761  12.107  0.00  0.00    -0.398 OA
HETATM    8  H   UNK N   1      33.433  13.899  11.714  0.00  0.00     0.209 HD
ENDBRANCH   6   7
ENDBRANCH   3   6
ENDBRANCH   2   3
ENDBRANCH   1   2
BRANCH   1   9
HETATM    9  C   UNK N   1      35.045  12.768  16.118  0.00  0.00     0.069 A 
HETATM   10  C   UNK N   1      35.035  13.573  17.273  0.00  0.00     0.038 A 
HETATM   11  C   UNK N   1      35.177  12.995  18.537  0.00  0.00     0.026 A 
HETATM   12  C   UNK N   1      35.335  11.613  18.659  0.00  0.00     0.034 A 
HETATM   13 Cl   UNK N   1      35.544  10.896  20.242  0.00  0.00    -0.084 Cl
HETATM   14  C   UNK N   1      35.338  10.806  17.518  0.00  0.00     0.026 A 
HETATM   15  C   UNK N   1      35.190  11.382  16.251  0.00  0.00     0.038 A 
ENDBRANCH   1   9
TORSDOF 6
ENDMDL
MODEL 9
REMARK VINA RESULT:      -4.7      5.568      8.456
REMARK  6 active torsions:
REMARK  status: ('A' for Active; 'I' for Inactive)
REMARK    1  A    between atoms: O_2  and  C_6 
REMARK    2  A    between atoms: O_2  and  C_8 
REMARK    3  A    between atoms: O_3  and  C_5 
REMARK    4  A    between atoms: O_4  and  C_7 
REMARK    5  A    between atoms: C_5  and  C_6 
REMARK    6  A    between atoms: C_5  and  C_7 
ROOT
HETATM    1  O   UNK N   1      35.033  13.405  12.711  0.00  0.00    -0.349 OA
ENDROOT
BRANCH   1   2
HETATM    2  C   UNK N   1      35.662  14.626  12.594  0.00  0.00     0.209 C 
BRANCH   2   3
HETATM    3  C   UNK N   1      35.869  14.998  11.140  0.00  0.00     0.166 C 
BRANCH   3   4
HETATM    4  O   UNK N   1      36.922  15.909  11.038  0.00  0.00    -0.391 OA
HETATM    5  H   UNK N   1      36.951  16.684  11.620  0.00  0.00     0.210 HD
ENDBRANCH   3   4
BRANCH   3   6
HETATM    6  C   UNK N   1      34.591  15.637  10.628  0.00  0.00     0.198 C 
BRANCH   6   7
HETATM    7  O   UNK N   1      33.480  15.017  11.200  0.00  0.00    -0.398 OA
HETATM    8  H   UNK N   1      32.601  14.771  10.875  0.00  0.00     0.209 HD
ENDBRANCH   6   7
ENDBRANCH   3   6
ENDBRANCH   2   3
ENDBRANCH   1   2
BRANCH   1   9
HETATM    9  C   UNK N   1      34.990  12.718  13.879  0.00  0.00     0.069 A 
HETATM   10  C   UNK N   1      35.638  13.195  15.034  0.00  0.00     0.038 A 
HETATM   11  C   UNK N   1      35.613  12.450  16.216  0.00  0.00     0.026 A 
HETATM   12  C   UNK N   1      34.946  11.224  16.254  0.00  0.00     0.034 A 
HETATM   13 Cl   UNK N   1      34.942  10.280  17.728  0.00  0.00    -0.084 Cl
HETATM   14  C   UNK N   1      34.292  10.748  15.114  0.00  0.00     0.026 A 
HETATM   15  C   UNK N   1      34.312  11.495  13.931  0.00  0.00     0.038 A 
ENDBRANCH   1   9
TORSDOF 6
ENDMDL
