REMARK  6 active torsions:
REMARK  status: ('A' for Active; 'I' for Inactive)
REMARK    1  A    between atoms: O_2  and  C_6 
REMARK    2  A    between atoms: O_2  and  C_8 
REMARK    3  A    between atoms: O_3  and  C_5 
REMARK    4  A    between atoms: O_4  and  C_7 
REMARK    5  A    between atoms: C_5  and  C_6 
REMARK    6  A    between atoms: C_5  and  C_7 
ROOT
HETATM    1  O   UNK N   1       1.958   0.664  -0.268  0.00  0.00    -0.349 OA
ENDROOT
BRANCH   1   2
HETATM    2  C   UNK N   1       3.003   1.425  -0.747  0.00  0.00     0.209 C 
BRANCH   2   3
HETATM    3  C   UNK N   1       3.330   2.564   0.198  0.00  0.00     0.166 C 
BRANCH   3   4
HETATM    4  O   UNK N   1       2.290   3.495   0.183  0.00  0.00    -0.391 OA
HETATM    5  H   UNK N   1       2.489   4.444   0.173  0.00  0.00     0.210 HD
ENDBRANCH   3   4
BRANCH   3   6
HETATM    6  C   UNK N   1       4.611   3.223  -0.281  0.00  0.00     0.198 C 
BRANCH   6   7
HETATM    7  O   UNK N   1       4.987   4.239   0.598  0.00  0.00    -0.398 OA
HETATM    8  H   UNK N   1       5.730   4.365   1.208  0.00  0.00     0.209 HD
ENDBRANCH   6   7
ENDBRANCH   3   6
ENDBRANCH   2   3
ENDBRANCH   1   2
BRANCH   1   9
HETATM    9  C   UNK N   1       2.047  -0.680  -0.116  0.00  0.00     0.069 A 
HETATM   10  C   UNK N   1       3.267  -1.359  -0.297  0.00  0.00     0.038 A 
HETATM   11  C   UNK N   1       3.326  -2.749  -0.172  0.00  0.00     0.026 A 
HETATM   12  C   UNK N   1       2.170  -3.473   0.129  0.00  0.00     0.034 A 
HETATM   13 Cl   UNK N   1       2.242  -5.217   0.254  0.00  0.00    -0.084 Cl
HETATM   14  C   UNK N   1       0.957  -2.805   0.319  0.00  0.00     0.026 A 
HETATM   15  C   UNK N   1       0.897  -1.412   0.200  0.00  0.00     0.038 A 
ENDBRANCH   1   9
TORSDOF 6
