MODEL 1
REMARK VINA RESULT:      -5.6      0.000      0.000
REMARK  9 active torsions:
REMARK  status: ('A' for Active; 'I' for Inactive)
REMARK    1  A    between atoms: O_1  and  C_7 
REMARK    2  A    between atoms: O_1  and  C_10 
REMARK    3  A    between atoms: O_2  and  C_4 
REMARK    4  A    between atoms: N_3  and  C_5 
REMARK    5  A    between atoms: N_3  and  C_6 
REMARK    6  A    between atoms: C_4  and  C_5 
REMARK    7  A    between atoms: C_4  and  C_7 
REMARK    8  A    between atoms: C_11  and  C_12 
REMARK    9  A    between atoms: C_12  and  C_17 
ROOT
HETATM    1  O   UNK N   1      30.342  17.145   7.923  0.00  0.00    -0.348 OA
ENDROOT
BRANCH   1   2
HETATM    2  C   UNK N   1      28.973  17.254   7.788  0.00  0.00     0.209 C 
BRANCH   2   3
HETATM    3  C   UNK N   1      28.487  18.508   8.508  0.00  0.00     0.159 C 
BRANCH   3   4
HETATM    4  O   UNK N   1      27.424  18.186   9.354  0.00  0.00    -0.392 OA
HETATM    5  H   UNK N   1      27.230  18.462  10.264  0.00  0.00     0.210 HD
ENDBRANCH   3   4
BRANCH   3   6
HETATM    6  C   UNK N   1      28.004  19.541   7.505  0.00  0.00     0.147 C 
BRANCH   6   7
HETATM    7  N   UNK N   1      27.082  18.942   6.554  0.00  0.00    -0.415 N 
HETATM    8  H   UNK N   1      26.693  18.001   6.593  0.00  0.00     0.153 HD
BRANCH   7   9
HETATM    9  C   UNK N   1      26.823  19.947   5.537  0.00  0.00     0.068 C 
HETATM   10  C   UNK N   1      27.839  19.802   4.423  0.00  0.00     0.031 C 
HETATM   11  C   UNK N   1      26.931  21.332   6.141  0.00  0.00     0.031 C 
ENDBRANCH   7   9
ENDBRANCH   6   7
ENDBRANCH   3   6
ENDBRANCH   2   3
ENDBRANCH   1   2
BRANCH   1  12
HETATM   12  C   UNK N   1      31.227  17.254   6.901  0.00  0.00     0.075 A 
HETATM   13  C   UNK N   1      32.617  17.409   7.166  0.00  0.00    -0.021 A 
HETATM   14  C   UNK N   1      33.505  17.520   6.090  0.00  0.00     0.010 A 
HETATM   15  C   UNK N   1      33.048  17.481   4.773  0.00  0.00     0.001 A 
HETATM   16  C   UNK N   1      31.688  17.328   4.511  0.00  0.00     0.003 A 
HETATM   17  C   UNK N   1      30.782  17.214   5.567  0.00  0.00     0.037 A 
BRANCH  13  18
HETATM   18  C   UNK N   1      33.231  17.447   8.548  0.00  0.00     0.067 C 
BRANCH  18  19
HETATM   19  C   UNK N   1      33.813  16.175   9.073  0.00  0.00    -0.032 C 
HETATM   20  C   UNK N   1      33.026  15.136   9.328  0.00  0.00     0.007 C 
ENDBRANCH  18  19
ENDBRANCH  13  18
ENDBRANCH   1  12
TORSDOF 9
ENDMDL
MODEL 2
REMARK VINA RESULT:      -5.5      6.078      9.309
REMARK  9 active torsions:
REMARK  status: ('A' for Active; 'I' for Inactive)
REMARK    1  A    between atoms: O_1  and  C_7 
REMARK    2  A    between atoms: O_1  and  C_10 
REMARK    3  A    between atoms: O_2  and  C_4 
REMARK    4  A    between atoms: N_3  and  C_5 
REMARK    5  A    between atoms: N_3  and  C_6 
REMARK    6  A    between atoms: C_4  and  C_5 
REMARK    7  A    between atoms: C_4  and  C_7 
REMARK    8  A    between atoms: C_11  and  C_12 
REMARK    9  A    between atoms: C_12  and  C_17 
ROOT
HETATM    1  O   UNK N   1      35.045  13.920  12.874  0.00  0.00    -0.348 OA
ENDROOT
BRANCH   1   2
HETATM    2  C   UNK N   1      36.256  14.412  12.431  0.00  0.00     0.209 C 
BRANCH   2   3
HETATM    3  C   UNK N   1      36.082  15.029  11.046  0.00  0.00     0.159 C 
BRANCH   3   4
HETATM    4  O   UNK N   1      37.023  16.042  10.858  0.00  0.00    -0.392 OA
HETATM    5  H   UNK N   1      37.170  16.871  11.340  0.00  0.00     0.210 HD
ENDBRANCH   3   4
BRANCH   3   6
HETATM    6  C   UNK N   1      34.695  15.631  10.904  0.00  0.00     0.147 C 
BRANCH   6   7
HETATM    7  N   UNK N   1      34.767  16.951  10.300  0.00  0.00    -0.415 N 
HETATM    8  H   UNK N   1      35.037  17.818  10.763  0.00  0.00     0.153 HD
BRANCH   7   9
HETATM    9  C   UNK N   1      34.381  16.793   8.909  0.00  0.00     0.068 C 
HETATM   10  C   UNK N   1      34.431  18.141   8.221  0.00  0.00     0.031 C 
HETATM   11  C   UNK N   1      32.974  16.237   8.823  0.00  0.00     0.031 C 
ENDBRANCH   7   9
ENDBRANCH   6   7
ENDBRANCH   3   6
ENDBRANCH   2   3
ENDBRANCH   1   2
BRANCH   1  12
HETATM   12  C   UNK N   1      34.839  12.649  13.298  0.00  0.00     0.075 A 
HETATM   13  C   UNK N   1      34.921  12.330  14.682  0.00  0.00    -0.021 A 
HETATM   14  C   UNK N   1      34.705  11.008  15.088  0.00  0.00     0.010 A 
HETATM   15  C   UNK N   1      34.412  10.009  14.161  0.00  0.00     0.001 A 
HETATM   16  C   UNK N   1      34.329  10.319  12.804  0.00  0.00     0.003 A 
HETATM   17  C   UNK N   1      34.540  11.630  12.374  0.00  0.00     0.037 A 
BRANCH  13  18
HETATM   18  C   UNK N   1      35.214  13.328  15.781  0.00  0.00     0.067 C 
BRANCH  18  19
HETATM   19  C   UNK N   1      35.183  12.825  17.187  0.00  0.00    -0.032 C 
HETATM   20  C   UNK N   1      35.177  13.681  18.203  0.00  0.00     0.007 C 
ENDBRANCH  18  19
ENDBRANCH  13  18
ENDBRANCH   1  12
TORSDOF 9
ENDMDL
MODEL 3
REMARK VINA RESULT:      -5.4      1.368      3.015
REMARK  9 active torsions:
REMARK  status: ('A' for Active; 'I' for Inactive)
REMARK    1  A    between atoms: O_1  and  C_7 
REMARK    2  A    between atoms: O_1  and  C_10 
REMARK    3  A    between atoms: O_2  and  C_4 
REMARK    4  A    between atoms: N_3  and  C_5 
REMARK    5  A    between atoms: N_3  and  C_6 
REMARK    6  A    between atoms: C_4  and  C_5 
REMARK    7  A    between atoms: C_4  and  C_7 
REMARK    8  A    between atoms: C_11  and  C_12 
REMARK    9  A    between atoms: C_12  and  C_17 
ROOT
HETATM    1  O   UNK N   1      30.150  17.272   8.229  0.00  0.00    -0.348 OA
ENDROOT
BRANCH   1   2
HETATM    2  C   UNK N   1      29.743  18.121   9.239  0.00  0.00     0.209 C 
BRANCH   2   3
HETATM    3  C   UNK N   1      28.289  18.523   9.014  0.00  0.00     0.159 C 
BRANCH   3   4
HETATM    4  O   UNK N   1      27.462  17.407   9.155  0.00  0.00    -0.392 OA
HETATM    5  H   UNK N   1      26.495  17.332   9.186  0.00  0.00     0.210 HD
ENDBRANCH   3   4
BRANCH   3   6
HETATM    6  C   UNK N   1      28.104  19.083   7.615  0.00  0.00     0.147 C 
BRANCH   6   7
HETATM    7  N   UNK N   1      27.470  18.102   6.749  0.00  0.00    -0.415 N 
HETATM    8  H   UNK N   1      27.406  17.098   6.911  0.00  0.00     0.153 HD
BRANCH   7   9
HETATM    9  C   UNK N   1      26.946  18.833   5.608  0.00  0.00     0.068 C 
HETATM   10  C   UNK N   1      26.264  17.863   4.666  0.00  0.00     0.031 C 
HETATM   11  C   UNK N   1      28.075  19.533   4.879  0.00  0.00     0.031 C 
ENDBRANCH   7   9
ENDBRANCH   6   7
ENDBRANCH   3   6
ENDBRANCH   2   3
ENDBRANCH   1   2
BRANCH   1  12
HETATM   12  C   UNK N   1      31.333  17.368   7.573  0.00  0.00     0.075 A 
HETATM   13  C   UNK N   1      31.424  17.013   6.198  0.00  0.00    -0.021 A 
HETATM   14  C   UNK N   1      32.660  17.121   5.550  0.00  0.00     0.010 A 
HETATM   15  C   UNK N   1      33.792  17.569   6.229  0.00  0.00     0.001 A 
HETATM   16  C   UNK N   1      33.705  17.919   7.575  0.00  0.00     0.003 A 
HETATM   17  C   UNK N   1      32.484  17.820   8.244  0.00  0.00     0.037 A 
BRANCH  13  18
HETATM   18  C   UNK N   1      30.264  16.532   5.354  0.00  0.00     0.067 C 
BRANCH  18  19
HETATM   19  C   UNK N   1      30.385  16.692   3.873  0.00  0.00    -0.032 C 
HETATM   20  C   UNK N   1      29.342  16.449   3.087  0.00  0.00     0.007 C 
ENDBRANCH  18  19
ENDBRANCH  13  18
ENDBRANCH   1  12
TORSDOF 9
ENDMDL
MODEL 4
REMARK VINA RESULT:      -5.3      2.026      3.610
REMARK  9 active torsions:
REMARK  status: ('A' for Active; 'I' for Inactive)
REMARK    1  A    between atoms: O_1  and  C_7 
REMARK    2  A    between atoms: O_1  and  C_10 
REMARK    3  A    between atoms: O_2  and  C_4 
REMARK    4  A    between atoms: N_3  and  C_5 
REMARK    5  A    between atoms: N_3  and  C_6 
REMARK    6  A    between atoms: C_4  and  C_5 
REMARK    7  A    between atoms: C_4  and  C_7 
REMARK    8  A    between atoms: C_11  and  C_12 
REMARK    9  A    between atoms: C_12  and  C_17 
ROOT
HETATM    1  O   UNK N   1      29.721  16.645   5.899  0.00  0.00    -0.348 OA
ENDROOT
BRANCH   1   2
HETATM    2  C   UNK N   1      28.662  16.096   5.205  0.00  0.00     0.209 C 
BRANCH   2   3
HETATM    3  C   UNK N   1      28.535  16.774   3.844  0.00  0.00     0.159 C 
BRANCH   3   4
HETATM    4  O   UNK N   1      29.800  17.130   3.373  0.00  0.00    -0.392 OA
HETATM    5  H   UNK N   1      30.087  17.455   2.505  0.00  0.00     0.210 HD
ENDBRANCH   3   4
BRANCH   3   6
HETATM    6  C   UNK N   1      27.695  18.035   3.957  0.00  0.00     0.147 C 
BRANCH   6   7
HETATM    7  N   UNK N   1      28.511  19.160   4.382  0.00  0.00    -0.415 N 
HETATM    8  H   UNK N   1      29.519  19.159   4.530  0.00  0.00     0.153 HD
BRANCH   7   9
HETATM    9  C   UNK N   1      27.609  20.286   4.552  0.00  0.00     0.068 C 
HETATM   10  C   UNK N   1      27.568  20.674   6.015  0.00  0.00     0.031 C 
HETATM   11  C   UNK N   1      26.216  19.906   4.093  0.00  0.00     0.031 C 
ENDBRANCH   7   9
ENDBRANCH   6   7
ENDBRANCH   3   6
ENDBRANCH   2   3
ENDBRANCH   1   2
BRANCH   1  12
HETATM   12  C   UNK N   1      29.620  17.237   7.114  0.00  0.00     0.075 A 
HETATM   13  C   UNK N   1      30.791  17.610   7.832  0.00  0.00    -0.021 A 
HETATM   14  C   UNK N   1      30.654  18.219   9.085  0.00  0.00     0.010 A 
HETATM   15  C   UNK N   1      29.395  18.463   9.633  0.00  0.00     0.001 A 
HETATM   16  C   UNK N   1      28.247  18.100   8.931  0.00  0.00     0.003 A 
HETATM   17  C   UNK N   1      28.357  17.492   7.680  0.00  0.00     0.037 A 
BRANCH  13  18
HETATM   18  C   UNK N   1      32.206  17.414   7.335  0.00  0.00     0.067 C 
BRANCH  18  19
HETATM   19  C   UNK N   1      33.279  18.219   7.992  0.00  0.00    -0.032 C 
HETATM   20  C   UNK N   1      34.309  17.613   8.573  0.00  0.00     0.007 C 
ENDBRANCH  18  19
ENDBRANCH  13  18
ENDBRANCH   1  12
TORSDOF 9
ENDMDL
MODEL 5
REMARK VINA RESULT:      -5.3      7.557     10.955
REMARK  9 active torsions:
REMARK  status: ('A' for Active; 'I' for Inactive)
REMARK    1  A    between atoms: O_1  and  C_7 
REMARK    2  A    between atoms: O_1  and  C_10 
REMARK    3  A    between atoms: O_2  and  C_4 
REMARK    4  A    between atoms: N_3  and  C_5 
REMARK    5  A    between atoms: N_3  and  C_6 
REMARK    6  A    between atoms: C_4  and  C_5 
REMARK    7  A    between atoms: C_4  and  C_7 
REMARK    8  A    between atoms: C_11  and  C_12 
REMARK    9  A    between atoms: C_12  and  C_17 
ROOT
HETATM    1  O   UNK N   1      36.504  13.014  14.478  0.00  0.00    -0.348 OA
ENDROOT
BRANCH   1   2
HETATM    2  C   UNK N   1      35.577  13.047  13.456  0.00  0.00     0.209 C 
BRANCH   2   3
HETATM    3  C   UNK N   1      36.275  12.794  12.123  0.00  0.00     0.159 C 
BRANCH   3   4
HETATM    4  O   UNK N   1      37.430  13.574  12.039  0.00  0.00    -0.392 OA
HETATM    5  H   UNK N   1      38.367  13.323  12.022  0.00  0.00     0.210 HD
ENDBRANCH   3   4
BRANCH   3   6
HETATM    6  C   UNK N   1      35.362  13.165  10.968  0.00  0.00     0.147 C 
BRANCH   6   7
HETATM    7  N   UNK N   1      34.366  14.136  11.391  0.00  0.00    -0.415 N 
HETATM    8  H   UNK N   1      33.716  14.041  12.170  0.00  0.00     0.153 HD
BRANCH   7   9
HETATM    9  C   UNK N   1      34.480  15.268  10.487  0.00  0.00     0.068 C 
HETATM   10  C   UNK N   1      35.110  14.808   9.189  0.00  0.00     0.031 C 
HETATM   11  C   UNK N   1      35.345  16.343  11.113  0.00  0.00     0.031 C 
ENDBRANCH   7   9
ENDBRANCH   6   7
ENDBRANCH   3   6
ENDBRANCH   2   3
ENDBRANCH   1   2
BRANCH   1  12
HETATM   12  C   UNK N   1      36.505  13.852  15.544  0.00  0.00     0.075 A 
HETATM   13  C   UNK N   1      35.753  13.533  16.710  0.00  0.00    -0.021 A 
HETATM   14  C   UNK N   1      35.774  14.420  17.793  0.00  0.00     0.010 A 
HETATM   15  C   UNK N   1      36.515  15.600  17.745  0.00  0.00     0.001 A 
HETATM   16  C   UNK N   1      37.253  15.913  16.604  0.00  0.00     0.003 A 
HETATM   17  C   UNK N   1      37.249  15.045  15.511  0.00  0.00     0.037 A 
BRANCH  13  18
HETATM   18  C   UNK N   1      34.928  12.278  16.887  0.00  0.00     0.067 C 
BRANCH  18  19
HETATM   19  C   UNK N   1      35.633  11.061  17.389  0.00  0.00    -0.032 C 
HETATM   20  C   UNK N   1      35.693  10.813  18.693  0.00  0.00     0.007 C 
ENDBRANCH  18  19
ENDBRANCH  13  18
ENDBRANCH   1  12
TORSDOF 9
ENDMDL
MODEL 6
REMARK VINA RESULT:      -5.3      2.073      5.478
REMARK  9 active torsions:
REMARK  status: ('A' for Active; 'I' for Inactive)
REMARK    1  A    between atoms: O_1  and  C_7 
REMARK    2  A    between atoms: O_1  and  C_10 
REMARK    3  A    between atoms: O_2  and  C_4 
REMARK    4  A    between atoms: N_3  and  C_5 
REMARK    5  A    between atoms: N_3  and  C_6 
REMARK    6  A    between atoms: C_4  and  C_5 
REMARK    7  A    between atoms: C_4  and  C_7 
REMARK    8  A    between atoms: C_11  and  C_12 
REMARK    9  A    between atoms: C_12  and  C_17 
ROOT
HETATM    1  O   UNK N   1      28.768  18.170   7.502  0.00  0.00    -0.348 OA
ENDROOT
BRANCH   1   2
HETATM    2  C   UNK N   1      28.215  17.752   8.695  0.00  0.00     0.209 C 
BRANCH   2   3
HETATM    3  C   UNK N   1      29.321  17.544   9.726  0.00  0.00     0.159 C 
BRANCH   3   4
HETATM    4  O   UNK N   1      29.673  18.768  10.296  0.00  0.00    -0.392 OA
HETATM    5  H   UNK N   1      30.426  19.356  10.124  0.00  0.00     0.210 HD
ENDBRANCH   3   4
BRANCH   3   6
HETATM    6  C   UNK N   1      30.553  16.949   9.068  0.00  0.00     0.147 C 
BRANCH   6   7
HETATM    7  N   UNK N   1      31.524  17.986   8.762  0.00  0.00    -0.415 N 
HETATM    8  H   UNK N   1      31.476  18.966   9.040  0.00  0.00     0.153 HD
BRANCH   7   9
HETATM    9  C   UNK N   1      32.576  17.355   7.984  0.00  0.00     0.068 C 
HETATM   10  C   UNK N   1      33.818  18.220   8.032  0.00  0.00     0.031 C 
HETATM   11  C   UNK N   1      32.130  17.194   6.545  0.00  0.00     0.031 C 
ENDBRANCH   7   9
ENDBRANCH   6   7
ENDBRANCH   3   6
ENDBRANCH   2   3
ENDBRANCH   1   2
BRANCH   1  12
HETATM   12  C   UNK N   1      28.174  19.030   6.638  0.00  0.00     0.075 A 
HETATM   13  C   UNK N   1      28.274  18.823   5.234  0.00  0.00    -0.021 A 
HETATM   14  C   UNK N   1      27.650  19.729   4.368  0.00  0.00     0.010 A 
HETATM   15  C   UNK N   1      26.938  20.822   4.860  0.00  0.00     0.001 A 
HETATM   16  C   UNK N   1      26.837  21.026   6.236  0.00  0.00     0.003 A 
HETATM   17  C   UNK N   1      27.450  20.137   7.119  0.00  0.00     0.037 A 
BRANCH  13  18
HETATM   18  C   UNK N   1      29.002  17.668   4.583  0.00  0.00     0.067 C 
BRANCH  18  19
HETATM   19  C   UNK N   1      28.265  16.372   4.470  0.00  0.00    -0.032 C 
HETATM   20  C   UNK N   1      27.259  16.248   3.611  0.00  0.00     0.007 C 
ENDBRANCH  18  19
ENDBRANCH  13  18
ENDBRANCH   1  12
TORSDOF 9
ENDMDL
MODEL 7
REMARK VINA RESULT:      -5.3      3.201      6.076
REMARK  9 active torsions:
REMARK  status: ('A' for Active; 'I' for Inactive)
REMARK    1  A    between atoms: O_1  and  C_7 
REMARK    2  A    between atoms: O_1  and  C_10 
REMARK    3  A    between atoms: O_2  and  C_4 
REMARK    4  A    between atoms: N_3  and  C_5 
REMARK    5  A    between atoms: N_3  and  C_6 
REMARK    6  A    between atoms: C_4  and  C_5 
REMARK    7  A    between atoms: C_4  and  C_7 
REMARK    8  A    between atoms: C_11  and  C_12 
REMARK    9  A    between atoms: C_12  and  C_17 
ROOT
HETATM    1  O   UNK N   1      33.097  17.625   8.299  0.00  0.00    -0.348 OA
ENDROOT
BRANCH   1   2
HETATM    2  C   UNK N   1      34.426  17.798   8.627  0.00  0.00     0.209 C 
BRANCH   2   3
HETATM    3  C   UNK N   1      34.809  16.824   9.738  0.00  0.00     0.159 C 
BRANCH   3   4
HETATM    4  O   UNK N   1      35.914  17.315  10.436  0.00  0.00    -0.392 OA
HETATM    5  H   UNK N   1      36.628  16.853  10.903  0.00  0.00     0.210 HD
ENDBRANCH   3   4
BRANCH   3   6
HETATM    6  C   UNK N   1      35.176  15.471   9.153  0.00  0.00     0.147 C 
BRANCH   6   7
HETATM    7  N   UNK N   1      33.982  14.687   8.885  0.00  0.00    -0.415 N 
HETATM    8  H   UNK N   1      33.123  14.680   9.434  0.00  0.00     0.153 HD
BRANCH   7   9
HETATM    9  C   UNK N   1      34.251  13.917   7.684  0.00  0.00     0.068 C 
HETATM   10  C   UNK N   1      35.368  14.580   6.906  0.00  0.00     0.031 C 
HETATM   11  C   UNK N   1      33.007  13.853   6.821  0.00  0.00     0.031 C 
ENDBRANCH   7   9
ENDBRANCH   6   7
ENDBRANCH   3   6
ENDBRANCH   2   3
ENDBRANCH   1   2
BRANCH   1  12
HETATM   12  C   UNK N   1      32.629  17.472   7.036  0.00  0.00     0.075 A 
HETATM   13  C   UNK N   1      31.254  17.185   6.807  0.00  0.00    -0.021 A 
HETATM   14  C   UNK N   1      30.803  17.032   5.491  0.00  0.00     0.010 A 
HETATM   15  C   UNK N   1      31.676  17.156   4.411  0.00  0.00     0.001 A 
HETATM   16  C   UNK N   1      33.023  17.439   4.632  0.00  0.00     0.003 A 
HETATM   17  C   UNK N   1      33.498  17.597   5.935  0.00  0.00     0.037 A 
BRANCH  13  18
HETATM   18  C   UNK N   1      30.211  17.045   7.893  0.00  0.00     0.067 C 
BRANCH  18  19
HETATM   19  C   UNK N   1      29.624  18.304   8.444  0.00  0.00    -0.032 C 
HETATM   20  C   UNK N   1      28.488  18.267   9.131  0.00  0.00     0.007 C 
ENDBRANCH  18  19
ENDBRANCH  13  18
ENDBRANCH   1  12
TORSDOF 9
ENDMDL
MODEL 8
REMARK VINA RESULT:      -5.3      8.759     11.356
REMARK  9 active torsions:
REMARK  status: ('A' for Active; 'I' for Inactive)
REMARK    1  A    between atoms: O_1  and  C_7 
REMARK    2  A    between atoms: O_1  and  C_10 
REMARK    3  A    between atoms: O_2  and  C_4 
REMARK    4  A    between atoms: N_3  and  C_5 
REMARK    5  A    between atoms: N_3  and  C_6 
REMARK    6  A    between atoms: C_4  and  C_5 
REMARK    7  A    between atoms: C_4  and  C_7 
REMARK    8  A    between atoms: C_11  and  C_12 
REMARK    9  A    between atoms: C_12  and  C_17 
ROOT
HETATM    1  O   UNK N   1      34.690  13.322  14.123  0.00  0.00    -0.348 OA
ENDROOT
BRANCH   1   2
HETATM    2  C   UNK N   1      35.751  14.013  13.574  0.00  0.00     0.209 C 
BRANCH   2   3
HETATM    3  C   UNK N   1      35.388  14.475  12.166  0.00  0.00     0.159 C 
BRANCH   3   4
HETATM    4  O   UNK N   1      34.104  14.034  11.840  0.00  0.00    -0.392 OA
HETATM    5  H   UNK N   1      33.231  14.389  12.073  0.00  0.00     0.210 HD
ENDBRANCH   3   4
BRANCH   3   6
HETATM    6  C   UNK N   1      36.362  13.901  11.152  0.00  0.00     0.147 C 
BRANCH   6   7
HETATM    7  N   UNK N   1      37.539  13.366  11.816  0.00  0.00    -0.415 N 
HETATM    8  H   UNK N   1      37.753  13.418  12.811  0.00  0.00     0.153 HD
BRANCH   7   9
HETATM    9  C   UNK N   1      38.349  12.740  10.785  0.00  0.00     0.068 C 
HETATM   10  C   UNK N   1      38.512  13.701   9.627  0.00  0.00     0.031 C 
HETATM   11  C   UNK N   1      37.675  11.473  10.297  0.00  0.00     0.031 C 
ENDBRANCH   7   9
ENDBRANCH   6   7
ENDBRANCH   3   6
ENDBRANCH   2   3
ENDBRANCH   1   2
BRANCH   1  12
HETATM   12  C   UNK N   1      34.793  12.439  15.146  0.00  0.00     0.075 A 
HETATM   13  C   UNK N   1      34.403  11.082  14.968  0.00  0.00    -0.021 A 
HETATM   14  C   UNK N   1      34.521  10.195  16.045  0.00  0.00     0.010 A 
HETATM   15  C   UNK N   1      35.012  10.621  17.279  0.00  0.00     0.001 A 
HETATM   16  C   UNK N   1      35.396  11.950  17.455  0.00  0.00     0.003 A 
HETATM   17  C   UNK N   1      35.289  12.853  16.397  0.00  0.00     0.037 A 
BRANCH  13  18
HETATM   18  C   UNK N   1      33.875  10.500  13.676  0.00  0.00     0.067 C 
BRANCH  18  19
HETATM   19  C   UNK N   1      34.878  10.126  12.634  0.00  0.00    -0.032 C 
HETATM   20  C   UNK N   1      34.833   8.928  12.061  0.00  0.00     0.007 C 
ENDBRANCH  18  19
ENDBRANCH  13  18
ENDBRANCH   1  12
TORSDOF 9
ENDMDL
MODEL 9
REMARK VINA RESULT:      -5.2     11.239     14.361
REMARK  9 active torsions:
REMARK  status: ('A' for Active; 'I' for Inactive)
REMARK    1  A    between atoms: O_1  and  C_7 
REMARK    2  A    between atoms: O_1  and  C_10 
REMARK    3  A    between atoms: O_2  and  C_4 
REMARK    4  A    between atoms: N_3  and  C_5 
REMARK    5  A    between atoms: N_3  and  C_6 
REMARK    6  A    between atoms: C_4  and  C_5 
REMARK    7  A    between atoms: C_4  and  C_7 
REMARK    8  A    between atoms: C_11  and  C_12 
REMARK    9  A    between atoms: C_12  and  C_17 
ROOT
HETATM    1  O   UNK N   1      27.581  23.984  -3.439  0.00  0.00    -0.348 OA
ENDROOT
BRANCH   1   2
HETATM    2  C   UNK N   1      28.943  24.074  -3.237  0.00  0.00     0.209 C 
BRANCH   2   3
HETATM    3  C   UNK N   1      29.447  22.799  -2.568  0.00  0.00     0.159 C 
BRANCH   3   4
HETATM    4  O   UNK N   1      30.195  23.123  -1.435  0.00  0.00    -0.392 OA
HETATM    5  H   UNK N   1      29.930  23.523  -0.591  0.00  0.00     0.210 HD
ENDBRANCH   3   4
BRANCH   3   6
HETATM    6  C   UNK N   1      30.334  22.016  -3.519  0.00  0.00     0.147 C 
BRANCH   6   7
HETATM    7  N   UNK N   1      29.807  22.068  -4.873  0.00  0.00    -0.415 N 
HETATM    8  H   UNK N   1      28.983  22.580  -5.186  0.00  0.00     0.153 HD
BRANCH   7   9
HETATM    9  C   UNK N   1      30.685  21.250  -5.692  0.00  0.00     0.068 C 
HETATM   10  C   UNK N   1      29.852  20.457  -6.677  0.00  0.00     0.031 C 
HETATM   11  C   UNK N   1      31.470  20.296  -4.815  0.00  0.00     0.031 C 
ENDBRANCH   7   9
ENDBRANCH   6   7
ENDBRANCH   3   6
ENDBRANCH   2   3
ENDBRANCH   1   2
BRANCH   1  12
HETATM   12  C   UNK N   1      26.818  24.960  -3.990  0.00  0.00     0.075 A 
HETATM   13  C   UNK N   1      26.031  24.692  -5.145  0.00  0.00    -0.021 A 
HETATM   14  C   UNK N   1      25.255  25.721  -5.692  0.00  0.00     0.010 A 
HETATM   15  C   UNK N   1      25.243  26.994  -5.123  0.00  0.00     0.001 A 
HETATM   16  C   UNK N   1      26.012  27.258  -3.990  0.00  0.00     0.003 A 
HETATM   17  C   UNK N   1      26.794  26.249  -3.426  0.00  0.00     0.037 A 
BRANCH  13  18
HETATM   18  C   UNK N   1      25.948  23.350  -5.839  0.00  0.00     0.067 C 
BRANCH  18  19
HETATM   19  C   UNK N   1      26.954  23.071  -6.908  0.00  0.00    -0.032 C 
HETATM   20  C   UNK N   1      26.730  22.116  -7.805  0.00  0.00     0.007 C 
ENDBRANCH  18  19
ENDBRANCH  13  18
ENDBRANCH   1  12
TORSDOF 9
ENDMDL
