REMARK  5 active torsions:
REMARK  status: ('A' for Active; 'I' for Inactive)
REMARK    1  A    between atoms: O_2  and  C_13 
REMARK    2  A    between atoms: C_5  and  C_6 
REMARK    3  A    between atoms: C_5  and  C_13 
REMARK    4  A    between atoms: C_9  and  C_14 
REMARK    5  A    between atoms: C_14  and  C_15 
ROOT
HETATM    1  C   UNK N   1       2.829  -1.529   0.000  0.00  0.00    -0.044 A 
HETATM    2  C   UNK N   1       1.628  -0.800   0.000  0.00  0.00     0.009 A 
HETATM    3  C   UNK N   1       4.042  -0.836  -0.000  0.00  0.00     0.009 A 
HETATM    4  C   UNK N   1       2.872   1.291  -0.000  0.00  0.00     0.015 A 
HETATM    5  C   UNK N   1       1.649   0.601   0.000  0.00  0.00     0.016 A 
HETATM    6  C   UNK N   1       4.061   0.553  -0.000  0.00  0.00     0.016 A 
ENDROOT
BRANCH   4   7
HETATM    7  C   UNK N   1       2.903   2.780  -0.000  0.00  0.00     0.199 C 
HETATM    8  O   UNK N   1       1.850   3.400  -0.000  0.00  0.00    -0.286 OA
BRANCH   7   9
HETATM    9  C   UNK N   1       4.181   3.541  -0.000  0.00  0.00     0.055 A 
HETATM   10  S   UNK N   1       4.329   5.189  -0.000  0.00  0.00    -0.098 SA
HETATM   11  C   UNK N   1       5.984   5.335   0.000  0.00  0.00     0.050 A 
HETATM   12  C   UNK N   1       6.486   4.027   0.000  0.00  0.00     0.009 A 
HETATM   13  C   UNK N   1       5.479   3.024   0.000  0.00  0.00     0.023 A 
ENDBRANCH   7   9
ENDBRANCH   4   7
BRANCH   1  14
HETATM   14  C   UNK N   1       2.846  -3.040   0.000  0.00  0.00     0.112 C 
HETATM   15  C   UNK N   1       4.190  -3.760  -0.000  0.00  0.00     0.026 C 
BRANCH  14  16
HETATM   16  C   UNK N   1       1.602  -3.888   0.000  0.00  0.00     0.148 C 
HETATM   17  O   UNK N   1       0.495  -3.374   0.000  0.00  0.00    -0.649 OA
BRANCH  16  18
HETATM   18  O   UNK N   1       1.708  -5.231  -0.000  0.00  0.00    -0.776 OA
HETATM   19  H   UNK N   1       0.936  -5.762  -0.000  0.00  0.00     0.167 HD
ENDBRANCH  16  18
ENDBRANCH  14  16
ENDBRANCH   1  14
TORSDOF 5
