MODEL 1
REMARK VINA RESULT:      -6.4      0.000      0.000
REMARK  5 active torsions:
REMARK  status: ('A' for Active; 'I' for Inactive)
REMARK    1  A    between atoms: O_2  and  C_13 
REMARK    2  A    between atoms: C_5  and  C_6 
REMARK    3  A    between atoms: C_5  and  C_13 
REMARK    4  A    between atoms: C_9  and  C_14 
REMARK    5  A    between atoms: C_14  and  C_15 
ROOT
HETATM    1  C   UNK N   1      32.485  17.299   7.512  0.00  0.00    -0.044 A 
HETATM    2  C   UNK N   1      31.638  17.767   8.531  0.00  0.00     0.009 A 
HETATM    3  C   UNK N   1      31.934  16.974   6.270  0.00  0.00     0.009 A 
HETATM    4  C   UNK N   1      29.716  17.576   7.053  0.00  0.00     0.015 A 
HETATM    5  C   UNK N   1      30.263  17.904   8.303  0.00  0.00     0.016 A 
HETATM    6  C   UNK N   1      30.570  17.111   6.046  0.00  0.00     0.016 A 
ENDROOT
BRANCH   4   7
HETATM    7  C   UNK N   1      28.255  17.720   6.802  0.00  0.00     0.199 C 
HETATM    8  O   UNK N   1      27.498  16.826   7.152  0.00  0.00    -0.286 OA
BRANCH   7   9
HETATM    9  C   UNK N   1      27.684  18.921   6.137  0.00  0.00     0.055 A 
HETATM   10  S   UNK N   1      27.096  18.988   4.591  0.00  0.00    -0.098 SA
HETATM   11  C   UNK N   1      26.638  20.583   4.520  0.00  0.00     0.050 A 
HETATM   12  C   UNK N   1      26.951  21.130   5.771  0.00  0.00     0.009 A 
HETATM   13  C   UNK N   1      27.536  20.202   6.675  0.00  0.00     0.023 A 
ENDBRANCH   7   9
ENDBRANCH   4   7
BRANCH   1  14
HETATM   14  C   UNK N   1      33.973  17.138   7.720  0.00  0.00     0.112 C 
HETATM   15  C   UNK N   1      34.704  16.029   6.972  0.00  0.00     0.026 C 
BRANCH  14  16
HETATM   16  C   UNK N   1      34.787  18.015   8.633  0.00  0.00     0.148 C 
HETATM   17  O   UNK N   1      35.042  19.169   8.327  0.00  0.00    -0.649 OA
BRANCH  16  18
HETATM   18  O   UNK N   1      35.241  17.525   9.803  0.00  0.00    -0.776 OA
HETATM   19  H   UNK N   1      34.635  17.214  10.447  0.00  0.00     0.167 HD
ENDBRANCH  16  18
ENDBRANCH  14  16
ENDBRANCH   1  14
TORSDOF 5
ENDMDL
MODEL 2
REMARK VINA RESULT:      -6.3     11.176     14.270
REMARK  5 active torsions:
REMARK  status: ('A' for Active; 'I' for Inactive)
REMARK    1  A    between atoms: O_2  and  C_13 
REMARK    2  A    between atoms: C_5  and  C_6 
REMARK    3  A    between atoms: C_5  and  C_13 
REMARK    4  A    between atoms: C_9  and  C_14 
REMARK    5  A    between atoms: C_14  and  C_15 
ROOT
HETATM    1  C   UNK N   1      27.261  25.612  -4.086  0.00  0.00    -0.044 A 
HETATM    2  C   UNK N   1      28.624  25.885  -4.290  0.00  0.00     0.009 A 
HETATM    3  C   UNK N   1      26.898  24.457  -3.389  0.00  0.00     0.009 A 
HETATM    4  C   UNK N   1      29.231  23.851  -3.100  0.00  0.00     0.015 A 
HETATM    5  C   UNK N   1      29.603  25.010  -3.800  0.00  0.00     0.016 A 
HETATM    6  C   UNK N   1      27.870  23.591  -2.904  0.00  0.00     0.016 A 
ENDROOT
BRANCH   4   7
HETATM    7  C   UNK N   1      30.265  22.916  -2.577  0.00  0.00     0.199 C 
HETATM    8  O   UNK N   1      30.581  22.973  -1.398  0.00  0.00    -0.286 OA
BRANCH   7   9
HETATM    9  C   UNK N   1      30.929  21.909  -3.448  0.00  0.00     0.055 A 
HETATM   10  S   UNK N   1      32.492  21.384  -3.305  0.00  0.00    -0.098 SA
HETATM   11  C   UNK N   1      32.553  20.300  -4.563  0.00  0.00     0.050 A 
HETATM   12  C   UNK N   1      31.283  20.326  -5.156  0.00  0.00     0.009 A 
HETATM   13  C   UNK N   1      30.376  21.225  -4.533  0.00  0.00     0.023 A 
ENDBRANCH   7   9
ENDBRANCH   4   7
BRANCH   1  14
HETATM   14  C   UNK N   1      26.177  26.532  -4.599  0.00  0.00     0.112 C 
HETATM   15  C   UNK N   1      25.285  26.053  -5.739  0.00  0.00     0.026 C 
BRANCH  14  16
HETATM   16  C   UNK N   1      25.920  27.908  -4.045  0.00  0.00     0.148 C 
HETATM   17  O   UNK N   1      25.403  28.055  -2.949  0.00  0.00    -0.649 OA
BRANCH  16  18
HETATM   18  O   UNK N   1      26.264  28.994  -4.766  0.00  0.00    -0.776 OA
HETATM   19  H   UNK N   1      26.052  29.037  -5.677  0.00  0.00     0.167 HD
ENDBRANCH  16  18
ENDBRANCH  14  16
ENDBRANCH   1  14
TORSDOF 5
ENDMDL
MODEL 3
REMARK VINA RESULT:      -6.0     12.094     14.447
REMARK  5 active torsions:
REMARK  status: ('A' for Active; 'I' for Inactive)
REMARK    1  A    between atoms: O_2  and  C_13 
REMARK    2  A    between atoms: C_5  and  C_6 
REMARK    3  A    between atoms: C_5  and  C_13 
REMARK    4  A    between atoms: C_9  and  C_14 
REMARK    5  A    between atoms: C_14  and  C_15 
ROOT
HETATM    1  C   UNK N   1      35.743  12.648  16.395  0.00  0.00    -0.044 A 
HETATM    2  C   UNK N   1      35.265  13.298  17.545  0.00  0.00     0.009 A 
HETATM    3  C   UNK N   1      36.058  11.288  16.467  0.00  0.00     0.009 A 
HETATM    4  C   UNK N   1      35.426  11.225  18.810  0.00  0.00     0.015 A 
HETATM    5  C   UNK N   1      35.107  12.591  18.745  0.00  0.00     0.016 A 
HETATM    6  C   UNK N   1      35.901  10.590  17.657  0.00  0.00     0.016 A 
ENDROOT
BRANCH   4   7
HETATM    7  C   UNK N   1      35.262  10.467  20.081  0.00  0.00     0.199 C 
HETATM    8  O   UNK N   1      36.184  10.436  20.882  0.00  0.00    -0.286 OA
BRANCH   7   9
HETATM    9  C   UNK N   1      34.004   9.744  20.409  0.00  0.00     0.055 A 
HETATM   10  S   UNK N   1      33.224   9.767  21.868  0.00  0.00    -0.098 SA
HETATM   11  C   UNK N   1      31.937   8.772  21.529  0.00  0.00     0.050 A 
HETATM   12  C   UNK N   1      32.097   8.378  20.194  0.00  0.00     0.009 A 
HETATM   13  C   UNK N   1      33.252   8.920  19.568  0.00  0.00     0.023 A 
ENDBRANCH   7   9
ENDBRANCH   4   7
BRANCH   1  14
HETATM   14  C   UNK N   1      35.926  13.376  15.084  0.00  0.00     0.112 C 
HETATM   15  C   UNK N   1      35.171  12.879  13.855  0.00  0.00     0.026 C 
BRANCH  14  16
HETATM   16  C   UNK N   1      36.817  14.577  14.914  0.00  0.00     0.148 C 
HETATM   17  O   UNK N   1      37.562  14.934  15.813  0.00  0.00    -0.649 OA
BRANCH  16  18
HETATM   18  O   UNK N   1      36.796  15.268  13.758  0.00  0.00    -0.776 OA
HETATM   19  H   UNK N   1      36.559  16.174  13.758  0.00  0.00     0.167 HD
ENDBRANCH  16  18
ENDBRANCH  14  16
ENDBRANCH   1  14
TORSDOF 5
ENDMDL
MODEL 4
REMARK VINA RESULT:      -6.0      8.871     11.473
REMARK  5 active torsions:
REMARK  status: ('A' for Active; 'I' for Inactive)
REMARK    1  A    between atoms: O_2  and  C_13 
REMARK    2  A    between atoms: C_5  and  C_6 
REMARK    3  A    between atoms: C_5  and  C_13 
REMARK    4  A    between atoms: C_9  and  C_14 
REMARK    5  A    between atoms: C_14  and  C_15 
ROOT
HETATM    1  C   UNK N   1      35.410  12.585  16.405  0.00  0.00    -0.044 A 
HETATM    2  C   UNK N   1      36.274  13.608  15.979  0.00  0.00     0.009 A 
HETATM    3  C   UNK N   1      34.557  11.987  15.474  0.00  0.00     0.009 A 
HETATM    4  C   UNK N   1      35.420  13.414  13.710  0.00  0.00     0.015 A 
HETATM    5  C   UNK N   1      36.280  14.019  14.640  0.00  0.00     0.016 A 
HETATM    6  C   UNK N   1      34.564  12.397  14.147  0.00  0.00     0.016 A 
ENDROOT
BRANCH   4   7
HETATM    7  C   UNK N   1      35.419  13.845  12.284  0.00  0.00     0.199 C 
HETATM    8  O   UNK N   1      34.417  14.365  11.817  0.00  0.00    -0.286 OA
BRANCH   7   9
HETATM    9  C   UNK N   1      36.606  13.664  11.406  0.00  0.00     0.055 A 
HETATM   10  S   UNK N   1      36.997  14.598  10.097  0.00  0.00    -0.098 SA
HETATM   11  C   UNK N   1      38.397  13.849   9.610  0.00  0.00     0.050 A 
HETATM   12  C   UNK N   1      38.603  12.794  10.508  0.00  0.00     0.009 A 
HETATM   13  C   UNK N   1      37.602  12.690  11.512  0.00  0.00     0.023 A 
ENDBRANCH   7   9
ENDBRANCH   4   7
BRANCH   1  14
HETATM   14  C   UNK N   1      35.376  12.115  17.841  0.00  0.00     0.112 C 
HETATM   15  C   UNK N   1      35.365  10.617  18.124  0.00  0.00     0.026 C 
BRANCH  14  16
HETATM   16  C   UNK N   1      35.352  13.046  19.024  0.00  0.00     0.148 C 
HETATM   17  O   UNK N   1      35.019  14.213  18.894  0.00  0.00    -0.649 OA
BRANCH  16  18
HETATM   18  O   UNK N   1      35.702  12.590  20.242  0.00  0.00    -0.776 OA
HETATM   19  H   UNK N   1      36.603  12.590  20.501  0.00  0.00     0.167 HD
ENDBRANCH  16  18
ENDBRANCH  14  16
ENDBRANCH   1  14
TORSDOF 5
ENDMDL
MODEL 5
REMARK VINA RESULT:      -5.8      3.875      6.200
REMARK  5 active torsions:
REMARK  status: ('A' for Active; 'I' for Inactive)
REMARK    1  A    between atoms: O_2  and  C_13 
REMARK    2  A    between atoms: C_5  and  C_6 
REMARK    3  A    between atoms: C_5  and  C_13 
REMARK    4  A    between atoms: C_9  and  C_14 
REMARK    5  A    between atoms: C_14  and  C_15 
ROOT
HETATM    1  C   UNK N   1      35.932  14.666  10.735  0.00  0.00    -0.044 A 
HETATM    2  C   UNK N   1      35.755  15.961  11.250  0.00  0.00     0.009 A 
HETATM    3  C   UNK N   1      35.615  14.419   9.397  0.00  0.00     0.009 A 
HETATM    4  C   UNK N   1      34.952  16.734   9.087  0.00  0.00     0.015 A 
HETATM    5  C   UNK N   1      35.268  16.989  10.432  0.00  0.00     0.016 A 
HETATM    6  C   UNK N   1      35.133  15.439   8.587  0.00  0.00     0.016 A 
ENDROOT
BRANCH   4   7
HETATM    7  C   UNK N   1      34.434  17.821   8.211  0.00  0.00     0.199 C 
HETATM    8  O   UNK N   1      34.881  18.952   8.333  0.00  0.00    -0.286 OA
BRANCH   7   9
HETATM    9  C   UNK N   1      33.385  17.573   7.185  0.00  0.00     0.055 A 
HETATM   10  S   UNK N   1      31.783  17.288   7.486  0.00  0.00    -0.098 SA
HETATM   11  C   UNK N   1      31.222  17.105   5.933  0.00  0.00     0.050 A 
HETATM   12  C   UNK N   1      32.335  17.273   5.099  0.00  0.00     0.009 A 
HETATM   13  C   UNK N   1      33.544  17.534   5.798  0.00  0.00     0.023 A 
ENDBRANCH   7   9
ENDBRANCH   4   7
BRANCH   1  14
HETATM   14  C   UNK N   1      36.454  13.532  11.587  0.00  0.00     0.112 C 
HETATM   15  C   UNK N   1      37.764  12.859  11.193  0.00  0.00     0.026 C 
BRANCH  14  16
HETATM   16  C   UNK N   1      35.752  13.021  12.817  0.00  0.00     0.148 C 
HETATM   17  O   UNK N   1      36.380  12.506  13.728  0.00  0.00    -0.649 OA
BRANCH  16  18
HETATM   18  O   UNK N   1      34.413  13.130  12.916  0.00  0.00    -0.776 OA
HETATM   19  H   UNK N   1      34.007  13.974  12.875  0.00  0.00     0.167 HD
ENDBRANCH  16  18
ENDBRANCH  14  16
ENDBRANCH   1  14
TORSDOF 5
ENDMDL
MODEL 6
REMARK VINA RESULT:      -5.8      3.079      6.685
REMARK  5 active torsions:
REMARK  status: ('A' for Active; 'I' for Inactive)
REMARK    1  A    between atoms: O_2  and  C_13 
REMARK    2  A    between atoms: C_5  and  C_6 
REMARK    3  A    between atoms: C_5  and  C_13 
REMARK    4  A    between atoms: C_9  and  C_14 
REMARK    5  A    between atoms: C_14  and  C_15 
ROOT
HETATM    1  C   UNK N   1      28.121  18.766   6.282  0.00  0.00    -0.044 A 
HETATM    2  C   UNK N   1      28.506  18.498   7.607  0.00  0.00     0.009 A 
HETATM    3  C   UNK N   1      28.848  18.192   5.236  0.00  0.00     0.009 A 
HETATM    4  C   UNK N   1      30.328  17.093   6.816  0.00  0.00     0.015 A 
HETATM    5  C   UNK N   1      29.602  17.667   7.872  0.00  0.00     0.016 A 
HETATM    6  C   UNK N   1      29.935  17.368   5.502  0.00  0.00     0.016 A 
ENDROOT
BRANCH   4   7
HETATM    7  C   UNK N   1      31.494  16.208   7.090  0.00  0.00     0.199 C 
HETATM    8  O   UNK N   1      31.450  15.036   6.747  0.00  0.00    -0.286 OA
BRANCH   7   9
HETATM    9  C   UNK N   1      32.718  16.708   7.771  0.00  0.00     0.055 A 
HETATM   10  S   UNK N   1      33.565  15.914   8.951  0.00  0.00    -0.098 SA
HETATM   11  C   UNK N   1      34.771  17.019   9.241  0.00  0.00     0.050 A 
HETATM   12  C   UNK N   1      34.526  18.092   8.375  0.00  0.00     0.009 A 
HETATM   13  C   UNK N   1      33.379  17.919   7.554  0.00  0.00     0.023 A 
ENDBRANCH   7   9
ENDBRANCH   4   7
BRANCH   1  14
HETATM   14  C   UNK N   1      26.945  19.658   5.957  0.00  0.00     0.112 C 
HETATM   15  C   UNK N   1      25.980  19.229   4.857  0.00  0.00     0.026 C 
BRANCH  14  16
HETATM   16  C   UNK N   1      26.664  20.958   6.661  0.00  0.00     0.148 C 
HETATM   17  O   UNK N   1      27.112  22.010   6.233  0.00  0.00    -0.649 OA
BRANCH  16  18
HETATM   18  O   UNK N   1      25.911  20.965   7.778  0.00  0.00    -0.776 OA
HETATM   19  H   UNK N   1      26.303  20.785   8.609  0.00  0.00     0.167 HD
ENDBRANCH  16  18
ENDBRANCH  14  16
ENDBRANCH   1  14
TORSDOF 5
ENDMDL
MODEL 7
REMARK VINA RESULT:      -5.8     12.949     15.100
REMARK  5 active torsions:
REMARK  status: ('A' for Active; 'I' for Inactive)
REMARK    1  A    between atoms: O_2  and  C_13 
REMARK    2  A    between atoms: C_5  and  C_6 
REMARK    3  A    between atoms: C_5  and  C_13 
REMARK    4  A    between atoms: C_9  and  C_14 
REMARK    5  A    between atoms: C_14  and  C_15 
ROOT
HETATM    1  C   UNK N   1      35.335  12.237  17.813  0.00  0.00    -0.044 A 
HETATM    2  C   UNK N   1      35.080  11.014  17.172  0.00  0.00     0.009 A 
HETATM    3  C   UNK N   1      35.272  12.298  19.207  0.00  0.00     0.009 A 
HETATM    4  C   UNK N   1      34.704   9.941  19.323  0.00  0.00     0.015 A 
HETATM    5  C   UNK N   1      34.766   9.872  17.922  0.00  0.00     0.016 A 
HETATM    6  C   UNK N   1      34.960  11.166  19.949  0.00  0.00     0.016 A 
ENDROOT
BRANCH   4   7
HETATM    7  C   UNK N   1      34.371   8.732  20.127  0.00  0.00     0.199 C 
HETATM    8  O   UNK N   1      35.205   8.277  20.895  0.00  0.00    -0.286 OA
BRANCH   7   9
HETATM    9  C   UNK N   1      33.049   8.058  20.025  0.00  0.00     0.055 A 
HETATM   10  S   UNK N   1      32.799   6.459  19.682  0.00  0.00    -0.098 SA
HETATM   11  C   UNK N   1      31.139   6.405  19.728  0.00  0.00     0.050 A 
HETATM   12  C   UNK N   1      30.720   7.707  20.030  0.00  0.00     0.009 A 
HETATM   13  C   UNK N   1      31.786   8.631  20.196  0.00  0.00     0.023 A 
ENDBRANCH   7   9
ENDBRANCH   4   7
BRANCH   1  14
HETATM   14  C   UNK N   1      35.677  13.489  17.037  0.00  0.00     0.112 C 
HETATM   15  C   UNK N   1      35.734  14.820  17.779  0.00  0.00     0.026 C 
BRANCH  14  16
HETATM   16  C   UNK N   1      35.968  13.502  15.560  0.00  0.00     0.148 C 
HETATM   17  O   UNK N   1      35.060  13.474  14.744  0.00  0.00    -0.649 OA
BRANCH  16  18
HETATM   18  O   UNK N   1      37.243  13.543  15.130  0.00  0.00    -0.776 OA
HETATM   19  H   UNK N   1      37.948  13.507  15.747  0.00  0.00     0.167 HD
ENDBRANCH  16  18
ENDBRANCH  14  16
ENDBRANCH   1  14
TORSDOF 5
ENDMDL
MODEL 8
REMARK VINA RESULT:      -5.7     11.115     12.649
REMARK  5 active torsions:
REMARK  status: ('A' for Active; 'I' for Inactive)
REMARK    1  A    between atoms: O_2  and  C_13 
REMARK    2  A    between atoms: C_5  and  C_6 
REMARK    3  A    between atoms: C_5  and  C_13 
REMARK    4  A    between atoms: C_9  and  C_14 
REMARK    5  A    between atoms: C_14  and  C_15 
ROOT
HETATM    1  C   UNK N   1      31.302  22.584  -4.000  0.00  0.00    -0.044 A 
HETATM    2  C   UNK N   1      30.841  23.055  -2.760  0.00  0.00     0.009 A 
HETATM    3  C   UNK N   1      30.460  22.666  -5.112  0.00  0.00     0.009 A 
HETATM    4  C   UNK N   1      28.713  23.676  -3.762  0.00  0.00     0.015 A 
HETATM    5  C   UNK N   1      29.555  23.597  -2.641  0.00  0.00     0.016 A 
HETATM    6  C   UNK N   1      29.185  23.204  -4.992  0.00  0.00     0.016 A 
ENDROOT
BRANCH   4   7
HETATM    7  C   UNK N   1      27.344  24.251  -3.645  0.00  0.00     0.199 C 
HETATM    8  O   UNK N   1      26.635  23.921  -2.706  0.00  0.00    -0.286 OA
BRANCH   7   9
HETATM    9  C   UNK N   1      26.809  25.220  -4.638  0.00  0.00     0.055 A 
HETATM   10  S   UNK N   1      27.363  26.760  -4.887  0.00  0.00    -0.098 SA
HETATM   11  C   UNK N   1      26.339  27.247  -6.102  0.00  0.00     0.050 A 
HETATM   12  C   UNK N   1      25.495  26.157  -6.354  0.00  0.00     0.009 A 
HETATM   13  C   UNK N   1      25.757  25.024  -5.536  0.00  0.00     0.023 A 
ENDBRANCH   7   9
ENDBRANCH   4   7
BRANCH   1  14
HETATM   14  C   UNK N   1      32.683  21.993  -4.167  0.00  0.00     0.112 C 
HETATM   15  C   UNK N   1      33.556  22.477  -5.320  0.00  0.00     0.026 C 
BRANCH  14  16
HETATM   16  C   UNK N   1      33.256  20.943  -3.253  0.00  0.00     0.148 C 
HETATM   17  O   UNK N   1      33.925  20.024  -3.698  0.00  0.00    -0.649 OA
BRANCH  16  18
HETATM   18  O   UNK N   1      33.031  21.015  -1.927  0.00  0.00    -0.776 OA
HETATM   19  H   UNK N   1      32.301  21.504  -1.601  0.00  0.00     0.167 HD
ENDBRANCH  16  18
ENDBRANCH  14  16
ENDBRANCH   1  14
TORSDOF 5
ENDMDL
MODEL 9
REMARK VINA RESULT:      -5.7      8.052     10.496
REMARK  5 active torsions:
REMARK  status: ('A' for Active; 'I' for Inactive)
REMARK    1  A    between atoms: O_2  and  C_13 
REMARK    2  A    between atoms: C_5  and  C_6 
REMARK    3  A    between atoms: C_5  and  C_13 
REMARK    4  A    between atoms: C_9  and  C_14 
REMARK    5  A    between atoms: C_14  and  C_15 
ROOT
HETATM    1  C   UNK N   1      35.436  12.649  16.106  0.00  0.00    -0.044 A 
HETATM    2  C   UNK N   1      34.472  12.106  15.240  0.00  0.00     0.009 A 
HETATM    3  C   UNK N   1      36.508  13.363  15.565  0.00  0.00     0.009 A 
HETATM    4  C   UNK N   1      35.667  12.997  13.317  0.00  0.00     0.015 A 
HETATM    5  C   UNK N   1      34.587  12.278  13.855  0.00  0.00     0.016 A 
HETATM    6  C   UNK N   1      36.619  13.534  14.191  0.00  0.00     0.016 A 
ENDROOT
BRANCH   4   7
HETATM    7  C   UNK N   1      35.795  13.186  11.846  0.00  0.00     0.199 C 
HETATM    8  O   UNK N   1      36.232  12.272  11.162  0.00  0.00    -0.286 OA
BRANCH   7   9
HETATM    9  C   UNK N   1      35.407  14.457  11.177  0.00  0.00     0.055 A 
HETATM   10  S   UNK N   1      34.241  14.626  10.016  0.00  0.00    -0.098 SA
HETATM   11  C   UNK N   1      34.342  16.260   9.734  0.00  0.00     0.050 A 
HETATM   12  C   UNK N   1      35.345  16.737  10.588  0.00  0.00     0.009 A 
HETATM   13  C   UNK N   1      35.941  15.730  11.395  0.00  0.00     0.023 A 
ENDBRANCH   7   9
ENDBRANCH   4   7
BRANCH   1  14
HETATM   14  C   UNK N   1      35.346  12.483  17.606  0.00  0.00     0.112 C 
HETATM   15  C   UNK N   1      35.351  11.076  18.191  0.00  0.00     0.026 C 
BRANCH  14  16
HETATM   16  C   UNK N   1      35.251  13.637  18.568  0.00  0.00     0.148 C 
HETATM   17  O   UNK N   1      34.858  13.467  19.711  0.00  0.00    -0.649 OA
BRANCH  16  18
HETATM   18  O   UNK N   1      35.603  14.874  18.166  0.00  0.00    -0.776 OA
HETATM   19  H   UNK N   1      35.158  15.623  18.511  0.00  0.00     0.167 HD
ENDBRANCH  16  18
ENDBRANCH  14  16
ENDBRANCH   1  14
TORSDOF 5
ENDMDL
