MODEL 1
REMARK VINA RESULT:      -7.4      0.000      0.000
REMARK  1 active torsions:
REMARK  status: ('A' for Active; 'I' for Inactive)
REMARK    1  A    between atoms: C_17  and  O_20 
ROOT
HETATM    1  C   UNK N   1      30.779  22.606  -3.368  0.00  0.00     0.021 C 
HETATM    2  C   UNK N   1      29.898  21.975  -4.438  0.00  0.00     0.006 C 
HETATM    3  C   UNK N   1      30.856  21.215  -5.349  0.00  0.00     0.013 C 
HETATM    4  C   UNK N   1      31.849  20.589  -4.356  0.00  0.00     0.079 C 
HETATM    5  C   UNK N   1      31.778  21.524  -3.193  0.00  0.00     0.135 C 
HETATM    6  C   UNK N   1      29.860  22.884  -2.187  0.00  0.00     0.018 C 
HETATM    7  C   UNK N   1      28.858  23.970  -2.588  0.00  0.00     0.007 C 
HETATM    8  C   UNK N   1      28.109  23.782  -3.947  0.00  0.00     0.002 C 
HETATM    9  C   UNK N   1      28.875  22.946  -5.052  0.00  0.00    -0.004 C 
HETATM   10  C   UNK N   1      27.708  25.221  -4.445  0.00  0.00    -0.013 C 
HETATM   11  C   UNK N   1      27.310  25.199  -5.917  0.00  0.00    -0.034 C 
HETATM   12  C   UNK N   1      28.219  24.477  -6.892  0.00  0.00     0.038 C 
HETATM   13  C   UNK N   1      29.420  23.832  -6.173  0.00  0.00     0.010 C 
HETATM   14  C   UNK N   1      26.591  25.748  -3.523  0.00  0.00     0.022 C 
HETATM   15  C   UNK N   1      25.927  26.996  -4.073  0.00  0.00     0.087 C 
HETATM   16  C   UNK N   1      25.424  26.713  -5.450  0.00  0.00     0.182 C 
HETATM   17  C   UNK N   1      26.220  25.864  -6.370  0.00  0.00     0.114 C 
HETATM   18  O   UNK N   1      24.414  27.273  -5.849  0.00  0.00    -0.290 OA
HETATM   19  O   UNK N   1      32.571  21.488  -2.266  0.00  0.00    -0.297 OA
HETATM   20  C   UNK N   1      28.906  26.178  -4.362  0.00  0.00     0.020 C 
HETATM   21  C   UNK N   1      31.530  23.867  -3.806  0.00  0.00     0.024 C 
ENDROOT
BRANCH  17  22
HETATM   22  O   UNK N   1      25.880  25.804  -7.672  0.00  0.00    -0.357 OA
HETATM   23  H   UNK N   1      24.982  25.872  -7.932  0.00  0.00     0.218 HD
ENDBRANCH  17  22
TORSDOF 1
ENDMDL
MODEL 2
REMARK VINA RESULT:      -7.4      4.035      6.284
REMARK  1 active torsions:
REMARK  status: ('A' for Active; 'I' for Inactive)
REMARK    1  A    between atoms: C_17  and  O_20 
ROOT
HETATM    1  C   UNK N   1      27.646  28.503  -5.383  0.00  0.00     0.021 C 
HETATM    2  C   UNK N   1      26.202  28.060  -5.192  0.00  0.00     0.006 C 
HETATM    3  C   UNK N   1      25.887  28.340  -3.727  0.00  0.00     0.013 C 
HETATM    4  C   UNK N   1      26.572  29.694  -3.481  0.00  0.00     0.079 C 
HETATM    5  C   UNK N   1      27.664  29.694  -4.502  0.00  0.00     0.135 C 
HETATM    6  C   UNK N   1      27.808  28.755  -6.876  0.00  0.00     0.018 C 
HETATM    7  C   UNK N   1      27.684  27.421  -7.617  0.00  0.00     0.007 C 
HETATM    8  C   UNK N   1      26.465  26.513  -7.253  0.00  0.00     0.002 C 
HETATM    9  C   UNK N   1      25.892  26.675  -5.785  0.00  0.00    -0.004 C 
HETATM   10  C   UNK N   1      26.890  25.032  -7.578  0.00  0.00    -0.013 C 
HETATM   11  C   UNK N   1      25.939  24.035  -6.926  0.00  0.00    -0.034 C 
HETATM   12  C   UNK N   1      25.588  24.233  -5.464  0.00  0.00     0.038 C 
HETATM   13  C   UNK N   1      26.262  25.493  -4.887  0.00  0.00     0.010 C 
HETATM   14  C   UNK N   1      26.965  24.886  -9.110  0.00  0.00     0.022 C 
HETATM   15  C   UNK N   1      27.082  23.438  -9.548  0.00  0.00     0.087 C 
HETATM   16  C   UNK N   1      25.946  22.660  -8.970  0.00  0.00     0.182 C 
HETATM   17  C   UNK N   1      25.472  22.954  -7.596  0.00  0.00     0.114 C 
HETATM   18  O   UNK N   1      25.487  21.713  -9.590  0.00  0.00    -0.290 OA
HETATM   19  O   UNK N   1      28.567  30.516  -4.504  0.00  0.00    -0.297 OA
HETATM   20  C   UNK N   1      28.272  24.722  -6.986  0.00  0.00     0.020 C 
HETATM   21  C   UNK N   1      28.699  27.521  -4.861  0.00  0.00     0.024 C 
ENDROOT
BRANCH  17  22
HETATM   22  O   UNK N   1      24.612  22.105  -7.000  0.00  0.00    -0.357 OA
HETATM   23  H   UNK N   1      24.708  21.892  -6.092  0.00  0.00     0.218 HD
ENDBRANCH  17  22
TORSDOF 1
ENDMDL
MODEL 3
REMARK VINA RESULT:      -7.2     20.344     23.446
REMARK  1 active torsions:
REMARK  status: ('A' for Active; 'I' for Inactive)
REMARK    1  A    between atoms: C_17  and  O_20 
ROOT
HETATM    1  C   UNK N   1      35.508  10.921  15.899  0.00  0.00     0.021 C 
HETATM    2  C   UNK N   1      36.267  12.240  15.952  0.00  0.00     0.006 C 
HETATM    3  C   UNK N   1      35.517  13.093  16.969  0.00  0.00     0.013 C 
HETATM    4  C   UNK N   1      35.166  12.082  18.072  0.00  0.00     0.079 C 
HETATM    5  C   UNK N   1      35.134  10.787  17.327  0.00  0.00     0.135 C 
HETATM    6  C   UNK N   1      36.495   9.898  15.353  0.00  0.00     0.018 C 
HETATM    7  C   UNK N   1      36.812  10.249  13.896  0.00  0.00     0.007 C 
HETATM    8  C   UNK N   1      37.197  11.732  13.588  0.00  0.00     0.002 C 
HETATM    9  C   UNK N   1      36.597  12.823  14.567  0.00  0.00    -0.004 C 
HETATM   10  C   UNK N   1      36.818  11.994  12.083  0.00  0.00    -0.013 C 
HETATM   11  C   UNK N   1      36.799  13.488  11.775  0.00  0.00    -0.034 C 
HETATM   12  C   UNK N   1      36.060  14.405  12.731  0.00  0.00     0.038 C 
HETATM   13  C   UNK N   1      35.465  13.622  13.918  0.00  0.00     0.010 C 
HETATM   14  C   UNK N   1      37.807  11.207  11.200  0.00  0.00     0.022 C 
HETATM   15  C   UNK N   1      37.724  11.607   9.739  0.00  0.00     0.087 C 
HETATM   16  C   UNK N   1      37.929  13.081   9.625  0.00  0.00     0.182 C 
HETATM   17  C   UNK N   1      37.356  13.990  10.647  0.00  0.00     0.114 C 
HETATM   18  O   UNK N   1      38.474  13.538   8.631  0.00  0.00    -0.290 OA
HETATM   19  O   UNK N   1      34.694   9.756  17.811  0.00  0.00    -0.297 OA
HETATM   20  C   UNK N   1      35.395  11.501  11.787  0.00  0.00     0.020 C 
HETATM   21  C   UNK N   1      34.215  10.949  15.079  0.00  0.00     0.024 C 
ENDROOT
BRANCH  17  22
HETATM   22  O   UNK N   1      37.345  15.318  10.417  0.00  0.00    -0.357 OA
HETATM   23  H   UNK N   1      37.580  15.656   9.575  0.00  0.00     0.218 HD
ENDBRANCH  17  22
TORSDOF 1
ENDMDL
MODEL 4
REMARK VINA RESULT:      -7.2     22.104     25.657
REMARK  1 active torsions:
REMARK  status: ('A' for Active; 'I' for Inactive)
REMARK    1  A    between atoms: C_17  and  O_20 
ROOT
HETATM    1  C   UNK N   1      35.564  11.193  13.139  0.00  0.00     0.021 C 
HETATM    2  C   UNK N   1      34.793  12.337  13.785  0.00  0.00     0.006 C 
HETATM    3  C   UNK N   1      35.255  13.593  13.056  0.00  0.00     0.013 C 
HETATM    4  C   UNK N   1      35.340  13.129  11.592  0.00  0.00     0.079 C 
HETATM    5  C   UNK N   1      35.577  11.659  11.732  0.00  0.00     0.135 C 
HETATM    6  C   UNK N   1      34.759   9.934  13.433  0.00  0.00     0.018 C 
HETATM    7  C   UNK N   1      34.803   9.662  14.939  0.00  0.00     0.007 C 
HETATM    8  C   UNK N   1      34.482  10.860  15.890  0.00  0.00     0.002 C 
HETATM    9  C   UNK N   1      34.804  12.303  15.323  0.00  0.00    -0.004 C 
HETATM   10  C   UNK N   1      35.215  10.566  17.252  0.00  0.00    -0.013 C 
HETATM   11  C   UNK N   1      35.284  11.819  18.118  0.00  0.00    -0.034 C 
HETATM   12  C   UNK N   1      35.750  13.109  17.471  0.00  0.00     0.038 C 
HETATM   13  C   UNK N   1      36.048  12.914  15.971  0.00  0.00     0.010 C 
HETATM   14  C   UNK N   1      34.487   9.394  17.940  0.00  0.00     0.022 C 
HETATM   15  C   UNK N   1      34.921   9.210  19.382  0.00  0.00     0.087 C 
HETATM   16  C   UNK N   1      34.725  10.495  20.117  0.00  0.00     0.182 C 
HETATM   17  C   UNK N   1      35.014  11.784  19.445  0.00  0.00     0.114 C 
HETATM   18  O   UNK N   1      34.433  10.471  21.304  0.00  0.00    -0.290 OA
HETATM   19  O   UNK N   1      35.901  10.950  10.793  0.00  0.00    -0.297 OA
HETATM   20  C   UNK N   1      36.675  10.161  17.006  0.00  0.00     0.020 C 
HETATM   21  C   UNK N   1      37.018  11.050  13.596  0.00  0.00     0.024 C 
ENDROOT
BRANCH  17  22
HETATM   22  O   UNK N   1      35.059  12.915  20.177  0.00  0.00    -0.357 OA
HETATM   23  H   UNK N   1      34.333  13.508  20.179  0.00  0.00     0.218 HD
ENDBRANCH  17  22
TORSDOF 1
ENDMDL
MODEL 5
REMARK VINA RESULT:      -7.0     19.993     23.727
REMARK  1 active torsions:
REMARK  status: ('A' for Active; 'I' for Inactive)
REMARK    1  A    between atoms: C_17  and  O_20 
ROOT
HETATM    1  C   UNK N   1      36.136  12.986  11.237  0.00  0.00     0.021 C 
HETATM    2  C   UNK N   1      35.357  13.952  12.120  0.00  0.00     0.006 C 
HETATM    3  C   UNK N   1      35.878  15.337  11.755  0.00  0.00     0.013 C 
HETATM    4  C   UNK N   1      36.026  15.257  10.227  0.00  0.00     0.079 C 
HETATM    5  C   UNK N   1      36.227  13.793   9.997  0.00  0.00     0.135 C 
HETATM    6  C   UNK N   1      35.293  11.720  11.166  0.00  0.00     0.018 C 
HETATM    7  C   UNK N   1      35.258  11.073  12.553  0.00  0.00     0.007 C 
HETATM    8  C   UNK N   1      34.914  11.999  13.763  0.00  0.00     0.002 C 
HETATM    9  C   UNK N   1      35.292  13.529  13.597  0.00  0.00    -0.004 C 
HETATM   10  C   UNK N   1      35.574  11.347  15.035  0.00  0.00    -0.013 C 
HETATM   11  C   UNK N   1      35.624  12.337  16.194  0.00  0.00    -0.034 C 
HETATM   12  C   UNK N   1      36.147  13.734  15.918  0.00  0.00     0.038 C 
HETATM   13  C   UNK N   1      36.513  13.916  14.432  0.00  0.00     0.010 C 
HETATM   14  C   UNK N   1      34.790  10.063  15.370  0.00  0.00     0.022 C 
HETATM   15  C   UNK N   1      35.149   9.505  16.734  0.00  0.00     0.087 C 
HETATM   16  C   UNK N   1      34.942  10.566  17.764  0.00  0.00     0.182 C 
HETATM   17  C   UNK N   1      35.289  11.975  17.456  0.00  0.00     0.114 C 
HETATM   18  O   UNK N   1      34.592  10.252  18.892  0.00  0.00    -0.290 OA
HETATM   19  O   UNK N   1      36.583  13.335   8.923  0.00  0.00    -0.297 OA
HETATM   20  C   UNK N   1      37.036  10.972  14.757  0.00  0.00     0.020 C 
HETATM   21  C   UNK N   1      37.563  12.686  11.704  0.00  0.00     0.024 C 
ENDROOT
BRANCH  17  22
HETATM   22  O   UNK N   1      35.319  12.880  18.453  0.00  0.00    -0.357 OA
HETATM   23  H   UNK N   1      34.819  13.670  18.392  0.00  0.00     0.218 HD
ENDBRANCH  17  22
TORSDOF 1
ENDMDL
MODEL 6
REMARK VINA RESULT:      -7.0      3.059      4.546
REMARK  1 active torsions:
REMARK  status: ('A' for Active; 'I' for Inactive)
REMARK    1  A    between atoms: C_17  and  O_20 
ROOT
HETATM    1  C   UNK N   1      27.435  22.541  -7.449  0.00  0.00     0.021 C 
HETATM    2  C   UNK N   1      26.185  22.719  -6.596  0.00  0.00     0.006 C 
HETATM    3  C   UNK N   1      25.029  22.264  -7.479  0.00  0.00     0.013 C 
HETATM    4  C   UNK N   1      25.604  21.026  -8.187  0.00  0.00     0.079 C 
HETATM    5  C   UNK N   1      27.074  21.297  -8.169  0.00  0.00     0.135 C 
HETATM    6  C   UNK N   1      28.596  22.451  -6.468  0.00  0.00     0.018 C 
HETATM    7  C   UNK N   1      28.760  23.806  -5.774  0.00  0.00     0.007 C 
HETATM    8  C   UNK N   1      27.474  24.462  -5.178  0.00  0.00     0.002 C 
HETATM    9  C   UNK N   1      26.108  24.080  -5.884  0.00  0.00    -0.004 C 
HETATM   10  C   UNK N   1      27.729  26.016  -5.153  0.00  0.00    -0.013 C 
HETATM   11  C   UNK N   1      26.426  26.781  -4.946  0.00  0.00    -0.034 C 
HETATM   12  C   UNK N   1      25.230  26.400  -5.798  0.00  0.00     0.038 C 
HETATM   13  C   UNK N   1      25.559  25.224  -6.738  0.00  0.00     0.010 C 
HETATM   14  C   UNK N   1      28.781  26.306  -4.065  0.00  0.00     0.022 C 
HETATM   15  C   UNK N   1      28.896  27.786  -3.752  0.00  0.00     0.087 C 
HETATM   16  C   UNK N   1      27.549  28.311  -3.377  0.00  0.00     0.182 C 
HETATM   17  C   UNK N   1      26.341  27.824  -4.085  0.00  0.00     0.114 C 
HETATM   18  O   UNK N   1      27.462  29.219  -2.564  0.00  0.00    -0.290 OA
HETATM   19  O   UNK N   1      27.875  20.640  -8.815  0.00  0.00    -0.297 OA
HETATM   20  C   UNK N   1      28.273  26.499  -6.505  0.00  0.00     0.020 C 
HETATM   21  C   UNK N   1      27.666  23.635  -8.496  0.00  0.00     0.024 C 
ENDROOT
BRANCH  17  22
HETATM   22  O   UNK N   1      25.168  28.462  -3.906  0.00  0.00    -0.357 OA
HETATM   23  H   UNK N   1      24.683  28.349  -3.112  0.00  0.00     0.218 HD
ENDBRANCH  17  22
TORSDOF 1
ENDMDL
MODEL 7
REMARK VINA RESULT:      -7.0      1.165      6.691
REMARK  1 active torsions:
REMARK  status: ('A' for Active; 'I' for Inactive)
REMARK    1  A    between atoms: C_17  and  O_20 
ROOT
HETATM    1  C   UNK N   1      27.583  24.844  -5.886  0.00  0.00     0.021 C 
HETATM    2  C   UNK N   1      27.447  24.194  -4.515  0.00  0.00     0.006 C 
HETATM    3  C   UNK N   1      26.875  25.281  -3.612  0.00  0.00     0.013 C 
HETATM    4  C   UNK N   1      25.837  25.967  -4.515  0.00  0.00     0.079 C 
HETATM    5  C   UNK N   1      26.369  25.693  -5.885  0.00  0.00     0.135 C 
HETATM    6  C   UNK N   1      27.613  23.696  -6.886  0.00  0.00     0.018 C 
HETATM    7  C   UNK N   1      28.903  22.897  -6.680  0.00  0.00     0.007 C 
HETATM    8  C   UNK N   1      29.254  22.475  -5.217  0.00  0.00     0.002 C 
HETATM    9  C   UNK N   1      28.697  23.416  -4.070  0.00  0.00    -0.004 C 
HETATM   10  C   UNK N   1      30.818  22.307  -5.157  0.00  0.00    -0.013 C 
HETATM   11  C   UNK N   1      31.309  22.263  -3.713  0.00  0.00    -0.034 C 
HETATM   12  C   UNK N   1      30.799  23.320  -2.753  0.00  0.00     0.038 C 
HETATM   13  C   UNK N   1      29.797  24.270  -3.439  0.00  0.00     0.010 C 
HETATM   14  C   UNK N   1      31.191  21.046  -5.962  0.00  0.00     0.022 C 
HETATM   15  C   UNK N   1      32.630  20.621  -5.738  0.00  0.00     0.087 C 
HETATM   16  C   UNK N   1      32.861  20.435  -4.275  0.00  0.00     0.182 C 
HETATM   17  C   UNK N   1      32.231  21.360  -3.302  0.00  0.00     0.114 C 
HETATM   18  O   UNK N   1      33.656  19.589  -3.893  0.00  0.00    -0.290 OA
HETATM   19  O   UNK N   1      25.934  26.243  -6.885  0.00  0.00    -0.297 OA
HETATM   20  C   UNK N   1      31.519  23.518  -5.787  0.00  0.00     0.020 C 
HETATM   21  C   UNK N   1      28.796  25.765  -6.050  0.00  0.00     0.024 C 
ENDROOT
BRANCH  17  22
HETATM   22  O   UNK N   1      32.625  21.331  -2.014  0.00  0.00    -0.357 OA
HETATM   23  H   UNK N   1      32.006  21.480  -1.325  0.00  0.00     0.218 HD
ENDBRANCH  17  22
TORSDOF 1
ENDMDL
MODEL 8
REMARK VINA RESULT:      -6.8     21.998     24.816
REMARK  1 active torsions:
REMARK  status: ('A' for Active; 'I' for Inactive)
REMARK    1  A    between atoms: C_17  and  O_20 
ROOT
HETATM    1  C   UNK N   1      36.694  11.538  12.115  0.00  0.00     0.021 C 
HETATM    2  C   UNK N   1      37.493  10.666  13.075  0.00  0.00     0.006 C 
HETATM    3  C   UNK N   1      37.575   9.301  12.403  0.00  0.00     0.013 C 
HETATM    4  C   UNK N   1      37.810   9.659  10.926  0.00  0.00     0.079 C 
HETATM    5  C   UNK N   1      37.201  11.020  10.822  0.00  0.00     0.135 C 
HETATM    6  C   UNK N   1      37.056  12.975  12.464  0.00  0.00     0.018 C 
HETATM    7  C   UNK N   1      36.513  13.295  13.859  0.00  0.00     0.007 C 
HETATM    8  C   UNK N   1      36.820  12.268  14.996  0.00  0.00     0.002 C 
HETATM    9  C   UNK N   1      37.028  10.766  14.538  0.00  0.00    -0.004 C 
HETATM   10  C   UNK N   1      35.675  12.422  16.066  0.00  0.00    -0.013 C 
HETATM   11  C   UNK N   1      35.658  11.235  17.024  0.00  0.00    -0.034 C 
HETATM   12  C   UNK N   1      35.720   9.840  16.433  0.00  0.00     0.038 C 
HETATM   13  C   UNK N   1      35.833   9.881  14.896  0.00  0.00     0.010 C 
HETATM   14  C   UNK N   1      35.872  13.773  16.781  0.00  0.00     0.022 C 
HETATM   15  C   UNK N   1      35.008  13.904  18.021  0.00  0.00     0.087 C 
HETATM   16  C   UNK N   1      35.282  12.750  18.929  0.00  0.00     0.182 C 
HETATM   17  C   UNK N   1      35.515  11.400  18.361  0.00  0.00     0.114 C 
HETATM   18  O   UNK N   1      35.202  12.904  20.138  0.00  0.00    -0.290 OA
HETATM   19  O   UNK N   1      37.004  11.576   9.753  0.00  0.00    -0.297 OA
HETATM   20  C   UNK N   1      34.297  12.419  15.391  0.00  0.00     0.020 C 
HETATM   21  C   UNK N   1      35.180  11.316  12.145  0.00  0.00     0.024 C 
ENDROOT
BRANCH  17  22
HETATM   22  O   UNK N   1      35.530  10.333  19.182  0.00  0.00    -0.357 OA
HETATM   23  H   UNK N   1      34.733  10.007  19.552  0.00  0.00     0.218 HD
ENDBRANCH  17  22
TORSDOF 1
ENDMDL
MODEL 9
REMARK VINA RESULT:      -6.7      3.884      5.365
REMARK  1 active torsions:
REMARK  status: ('A' for Active; 'I' for Inactive)
REMARK    1  A    between atoms: C_17  and  O_20 
ROOT
HETATM    1  C   UNK N   1      26.752  23.904  -8.852  0.00  0.00     0.021 C 
HETATM    2  C   UNK N   1      27.408  23.383  -7.580  0.00  0.00     0.006 C 
HETATM    3  C   UNK N   1      27.017  21.913  -7.500  0.00  0.00     0.013 C 
HETATM    4  C   UNK N   1      27.129  21.447  -8.961  0.00  0.00     0.079 C 
HETATM    5  C   UNK N   1      26.909  22.714  -9.722  0.00  0.00     0.135 C 
HETATM    6  C   UNK N   1      27.539  25.146  -9.245  0.00  0.00     0.018 C 
HETATM    7  C   UNK N   1      27.308  26.231  -8.189  0.00  0.00     0.007 C 
HETATM    8  C   UNK N   1      27.479  25.816  -6.692  0.00  0.00     0.002 C 
HETATM    9  C   UNK N   1      27.201  24.293  -6.357  0.00  0.00    -0.004 C 
HETATM   10  C   UNK N   1      26.584  26.796  -5.846  0.00  0.00    -0.013 C 
HETATM   11  C   UNK N   1      26.378  26.266  -4.431  0.00  0.00    -0.034 C 
HETATM   12  C   UNK N   1      25.971  24.814  -4.265  0.00  0.00     0.038 C 
HETATM   13  C   UNK N   1      25.872  24.096  -5.626  0.00  0.00     0.010 C 
HETATM   14  C   UNK N   1      27.243  28.189  -5.880  0.00  0.00     0.022 C 
HETATM   15  C   UNK N   1      26.633  29.143  -4.871  0.00  0.00     0.087 C 
HETATM   16  C   UNK N   1      26.705  28.527  -3.512  0.00  0.00     0.182 C 
HETATM   17  C   UNK N   1      26.476  27.071  -3.347  0.00  0.00     0.114 C 
HETATM   18  O   UNK N   1      26.842  29.244  -2.532  0.00  0.00    -0.290 OA
HETATM   19  O   UNK N   1      26.723  22.737 -10.929  0.00  0.00    -0.297 OA
HETATM   20  C   UNK N   1      25.176  26.904  -6.449  0.00  0.00     0.020 C 
HETATM   21  C   UNK N   1      25.254  24.201  -8.734  0.00  0.00     0.024 C 
ENDROOT
BRANCH  17  22
HETATM   22  O   UNK N   1      26.314  26.566  -2.108  0.00  0.00    -0.357 OA
HETATM   23  H   UNK N   1      25.964  27.098  -1.421  0.00  0.00     0.218 HD
ENDBRANCH  17  22
TORSDOF 1
ENDMDL
