MODEL 1
REMARK VINA RESULT:      -7.4      0.000      0.000
REMARK  11 active torsions:
REMARK  status: ('A' for Active; 'I' for Inactive)
REMARK    1  A    between atoms: O_1  and  C_9 
REMARK    2  A    between atoms: O_2  and  C_16 
REMARK    3  A    between atoms: O_2  and  C_19 
REMARK    4  A    between atoms: O_3  and  C_18 
REMARK    5  A    between atoms: O_3  and  C_20 
REMARK    6  A    between atoms: N_6  and  C_7 
REMARK    7  A    between atoms: N_6  and  C_8 
REMARK    8  A    between atoms: C_8  and  C_9 
REMARK    9  A    between atoms: C_9  and  C_13 
REMARK   10  A    between atoms: C_19  and  C_21 
REMARK   11  A    between atoms: C_20  and  C_22 
ROOT
HETATM    1  C   UNK N   1      35.585  14.656  11.510  0.00  0.00    -0.025 A 
HETATM    2  C   UNK N   1      34.593  14.157  10.672  0.00  0.00     0.050 A 
HETATM    3  C   UNK N   1      35.890  16.029  11.463  0.00  0.00     0.013 A 
HETATM    4  C   UNK N   1      33.901  14.987   9.787  0.00  0.00     0.114 A 
HETATM    5  C   UNK N   1      35.222  16.871  10.557  0.00  0.00     0.041 A 
HETATM    6  C   UNK N   1      34.221  16.346   9.722  0.00  0.00     0.113 A 
ENDROOT
BRANCH   1   7
HETATM    7  C   UNK N   1      36.231  13.725  12.507  0.00  0.00     0.168 C 
BRANCH   7   8
HETATM    8  O   UNK N   1      36.812  14.433  13.565  0.00  0.00    -0.389 OA
HETATM    9  H   UNK N   1      36.780  15.400  13.618  0.00  0.00     0.210 HD
ENDBRANCH   7   8
BRANCH   7  10
HETATM   10  C   UNK N   1      35.291  12.676  13.052  0.00  0.00     0.151 C 
BRANCH  10  11
HETATM   11  N   UNK N   1      35.957  12.028  14.179  0.00  0.00    -0.411 N 
HETATM   12  H   UNK N   1      36.960  11.850  14.222  0.00  0.00     0.154 HD
BRANCH  11  13
HETATM   13  C   UNK N   1      35.016  11.667  15.238  0.00  0.00     0.014 C 
HETATM   14  C   UNK N   1      34.590  12.938  15.939  0.00  0.00     0.037 C 
HETATM   15  C   UNK N   1      33.776  10.998  14.666  0.00  0.00     0.037 C 
HETATM   16  C   UNK N   1      35.674  10.758  16.264  0.00  0.00     0.037 C 
ENDBRANCH  11  13
ENDBRANCH  10  11
ENDBRANCH   7  10
ENDBRANCH   1   7
BRANCH   4  17
HETATM   17  O   UNK N   1      32.893  14.514   9.007  0.00  0.00    -0.272 OA
BRANCH  17  18
HETATM   18  C   UNK N   1      32.939  13.456   8.151  0.00  0.00     0.298 C 
HETATM   19  O   UNK N   1      32.683  12.322   8.536  0.00  0.00    -0.259 OA
BRANCH  18  20
HETATM   20  C   UNK N   1      33.282  13.679   6.737  0.00  0.00     0.040 A 
HETATM   21  C   UNK N   1      32.338  13.415   5.735  0.00  0.00     0.018 A 
HETATM   22  C   UNK N   1      32.653  13.634   4.394  0.00  0.00     0.007 A 
HETATM   23  C   UNK N   1      33.915  14.120   4.043  0.00  0.00    -0.062 A 
HETATM   24  C   UNK N   1      34.862  14.388   5.037  0.00  0.00     0.007 A 
HETATM   25  C   UNK N   1      34.247  14.351   2.615  0.00  0.00     0.048 C 
HETATM   26  C   UNK N   1      34.547  14.169   6.382  0.00  0.00     0.018 A 
ENDBRANCH  18  20
ENDBRANCH  17  18
ENDBRANCH   4  17
BRANCH   6  27
HETATM   27  O   UNK N   1      33.503  17.099   8.853  0.00  0.00    -0.272 OA
BRANCH  27  28
HETATM   28  C   UNK N   1      33.836  17.691   7.681  0.00  0.00     0.298 C 
HETATM   29  O   UNK N   1      34.816  18.413   7.581  0.00  0.00    -0.259 OA
BRANCH  28  30
HETATM   30  C   UNK N   1      32.951  17.434   6.526  0.00  0.00     0.040 A 
HETATM   31  C   UNK N   1      31.647  16.978   6.772  0.00  0.00     0.018 A 
HETATM   32  C   UNK N   1      30.766  16.734   5.721  0.00  0.00     0.007 A 
HETATM   33  C   UNK N   1      31.181  16.944   4.406  0.00  0.00    -0.062 A 
HETATM   34  C   UNK N   1      32.480  17.396   4.145  0.00  0.00     0.007 A 
HETATM   35  C   UNK N   1      30.235  16.685   3.289  0.00  0.00     0.048 C 
HETATM   36  C   UNK N   1      33.367  17.644   5.202  0.00  0.00     0.018 A 
ENDBRANCH  28  30
ENDBRANCH  27  28
ENDBRANCH   6  27
TORSDOF 11
ENDMDL
MODEL 2
REMARK VINA RESULT:      -7.3      1.719      2.728
REMARK  11 active torsions:
REMARK  status: ('A' for Active; 'I' for Inactive)
REMARK    1  A    between atoms: O_1  and  C_9 
REMARK    2  A    between atoms: O_2  and  C_16 
REMARK    3  A    between atoms: O_2  and  C_19 
REMARK    4  A    between atoms: O_3  and  C_18 
REMARK    5  A    between atoms: O_3  and  C_20 
REMARK    6  A    between atoms: N_6  and  C_7 
REMARK    7  A    between atoms: N_6  and  C_8 
REMARK    8  A    between atoms: C_8  and  C_9 
REMARK    9  A    between atoms: C_9  and  C_13 
REMARK   10  A    between atoms: C_19  and  C_21 
REMARK   11  A    between atoms: C_20  and  C_22 
ROOT
HETATM    1  C   UNK N   1      35.470  14.980  11.397  0.00  0.00    -0.025 A 
HETATM    2  C   UNK N   1      34.494  14.384  10.605  0.00  0.00     0.050 A 
HETATM    3  C   UNK N   1      35.744  16.350  11.226  0.00  0.00     0.013 A 
HETATM    4  C   UNK N   1      33.789  15.113   9.645  0.00  0.00     0.114 A 
HETATM    5  C   UNK N   1      35.062  17.090  10.245  0.00  0.00     0.041 A 
HETATM    6  C   UNK N   1      34.078  16.468   9.457  0.00  0.00     0.113 A 
ENDROOT
BRANCH   1   7
HETATM    7  C   UNK N   1      36.131  14.159  12.477  0.00  0.00     0.168 C 
BRANCH   7   8
HETATM    8  O   UNK N   1      35.208  13.752  13.447  0.00  0.00    -0.389 OA
HETATM    9  H   UNK N   1      35.474  13.532  14.353  0.00  0.00     0.210 HD
ENDBRANCH   7   8
BRANCH   7  10
HETATM   10  C   UNK N   1      36.879  12.956  11.951  0.00  0.00     0.151 C 
BRANCH  10  11
HETATM   11  N   UNK N   1      37.998  13.445  11.152  0.00  0.00    -0.411 N 
HETATM   12  H   UNK N   1      38.683  14.123  11.485  0.00  0.00     0.154 HD
BRANCH  11  13
HETATM   13  C   UNK N   1      38.022  12.846   9.819  0.00  0.00     0.014 C 
HETATM   14  C   UNK N   1      37.035  11.700   9.802  0.00  0.00     0.037 C 
HETATM   15  C   UNK N   1      37.606  13.851   8.757  0.00  0.00     0.037 C 
HETATM   16  C   UNK N   1      39.400  12.289   9.498  0.00  0.00     0.037 C 
ENDBRANCH  11  13
ENDBRANCH  10  11
ENDBRANCH   7  10
ENDBRANCH   1   7
BRANCH   4  17
HETATM   17  O   UNK N   1      32.796  14.548   8.908  0.00  0.00    -0.272 OA
BRANCH  17  18
HETATM   18  C   UNK N   1      32.894  13.470   8.082  0.00  0.00     0.298 C 
HETATM   19  O   UNK N   1      32.664  12.339   8.491  0.00  0.00    -0.259 OA
BRANCH  18  20
HETATM   20  C   UNK N   1      33.261  13.666   6.670  0.00  0.00     0.040 A 
HETATM   21  C   UNK N   1      32.331  13.394   5.658  0.00  0.00     0.018 A 
HETATM   22  C   UNK N   1      32.669  13.588   4.318  0.00  0.00     0.007 A 
HETATM   23  C   UNK N   1      33.941  14.057   3.980  0.00  0.00    -0.062 A 
HETATM   24  C   UNK N   1      34.875  14.333   4.984  0.00  0.00     0.007 A 
HETATM   25  C   UNK N   1      34.298  14.261   2.553  0.00  0.00     0.048 C 
HETATM   26  C   UNK N   1      34.536  14.139   6.327  0.00  0.00     0.018 A 
ENDBRANCH  18  20
ENDBRANCH  17  18
ENDBRANCH   4  17
BRANCH   6  27
HETATM   27  O   UNK N   1      33.348  17.121   8.521  0.00  0.00    -0.272 OA
BRANCH  27  28
HETATM   28  C   UNK N   1      33.678  17.627   7.308  0.00  0.00     0.298 C 
HETATM   29  O   UNK N   1      34.694  18.285   7.141  0.00  0.00    -0.259 OA
BRANCH  28  30
HETATM   30  C   UNK N   1      32.747  17.355   6.193  0.00  0.00     0.040 A 
HETATM   31  C   UNK N   1      33.193  17.577   4.881  0.00  0.00     0.018 A 
HETATM   32  C   UNK N   1      32.361  17.325   3.793  0.00  0.00     0.007 A 
HETATM   33  C   UNK N   1      31.069  16.845   4.005  0.00  0.00    -0.062 A 
HETATM   34  C   UNK N   1      30.609  16.622   5.309  0.00  0.00     0.007 A 
HETATM   35  C   UNK N   1      30.187  16.574   2.840  0.00  0.00     0.048 C 
HETATM   36  C   UNK N   1      31.446  16.874   6.405  0.00  0.00     0.018 A 
ENDBRANCH  28  30
ENDBRANCH  27  28
ENDBRANCH   6  27
TORSDOF 11
ENDMDL
MODEL 3
REMARK VINA RESULT:      -7.3     15.694     19.363
REMARK  11 active torsions:
REMARK  status: ('A' for Active; 'I' for Inactive)
REMARK    1  A    between atoms: O_1  and  C_9 
REMARK    2  A    between atoms: O_2  and  C_16 
REMARK    3  A    between atoms: O_2  and  C_19 
REMARK    4  A    between atoms: O_3  and  C_18 
REMARK    5  A    between atoms: O_3  and  C_20 
REMARK    6  A    between atoms: N_6  and  C_7 
REMARK    7  A    between atoms: N_6  and  C_8 
REMARK    8  A    between atoms: C_8  and  C_9 
REMARK    9  A    between atoms: C_9  and  C_13 
REMARK   10  A    between atoms: C_19  and  C_21 
REMARK   11  A    between atoms: C_20  and  C_22 
ROOT
HETATM    1  C   UNK N   1      26.046  27.556  -4.153  0.00  0.00    -0.025 A 
HETATM    2  C   UNK N   1      26.504  26.382  -3.562  0.00  0.00     0.050 A 
HETATM    3  C   UNK N   1      25.350  27.478  -5.373  0.00  0.00     0.013 A 
HETATM    4  C   UNK N   1      26.291  25.136  -4.157  0.00  0.00     0.114 A 
HETATM    5  C   UNK N   1      25.153  26.234  -5.997  0.00  0.00     0.041 A 
HETATM    6  C   UNK N   1      25.622  25.061  -5.381  0.00  0.00     0.113 A 
ENDROOT
BRANCH   1   7
HETATM    7  C   UNK N   1      26.230  28.860  -3.415  0.00  0.00     0.168 C 
BRANCH   7   8
HETATM    8  O   UNK N   1      27.016  28.693  -2.270  0.00  0.00    -0.389 OA
HETATM    9  H   UNK N   1      27.308  27.819  -1.967  0.00  0.00     0.210 HD
ENDBRANCH   7   8
BRANCH   7  10
HETATM   10  C   UNK N   1      26.805  29.963  -4.270  0.00  0.00     0.151 C 
BRANCH  10  11
HETATM   11  N   UNK N   1      28.222  30.086  -3.941  0.00  0.00    -0.411 N 
HETATM   12  H   UNK N   1      28.571  30.439  -3.050  0.00  0.00     0.154 HD
BRANCH  11  13
HETATM   13  C   UNK N   1      29.081  29.642  -5.036  0.00  0.00     0.014 C 
HETATM   14  C   UNK N   1      30.201  30.647  -5.192  0.00  0.00     0.037 C 
HETATM   15  C   UNK N   1      29.696  28.284  -4.736  0.00  0.00     0.037 C 
HETATM   16  C   UNK N   1      28.309  29.587  -6.345  0.00  0.00     0.037 C 
ENDBRANCH  11  13
ENDBRANCH  10  11
ENDBRANCH   7  10
ENDBRANCH   1   7
BRANCH   4  17
HETATM   17  O   UNK N   1      26.688  23.983  -3.556  0.00  0.00    -0.272 OA
BRANCH  17  18
HETATM   18  C   UNK N   1      27.729  23.818  -2.695  0.00  0.00     0.298 C 
HETATM   19  O   UNK N   1      27.549  23.801  -1.483  0.00  0.00    -0.259 OA
BRANCH  18  20
HETATM   20  C   UNK N   1      29.090  23.634  -3.225  0.00  0.00     0.040 A 
HETATM   21  C   UNK N   1      29.745  22.405  -3.069  0.00  0.00     0.018 A 
HETATM   22  C   UNK N   1      31.031  22.221  -3.579  0.00  0.00     0.007 A 
HETATM   23  C   UNK N   1      31.672  23.266  -4.250  0.00  0.00    -0.062 A 
HETATM   24  C   UNK N   1      31.024  24.495  -4.411  0.00  0.00     0.007 A 
HETATM   25  C   UNK N   1      33.040  23.067  -4.790  0.00  0.00     0.048 C 
HETATM   26  C   UNK N   1      29.736  24.680  -3.901  0.00  0.00     0.018 A 
ENDBRANCH  18  20
ENDBRANCH  17  18
ENDBRANCH   4  17
BRANCH   6  27
HETATM   27  O   UNK N   1      25.434  23.822  -5.897  0.00  0.00    -0.272 OA
BRANCH  27  28
HETATM   28  C   UNK N   1      25.700  23.302  -7.120  0.00  0.00     0.298 C 
HETATM   29  O   UNK N   1      24.992  23.541  -8.087  0.00  0.00    -0.259 OA
BRANCH  28  30
HETATM   30  C   UNK N   1      26.880  22.421  -7.232  0.00  0.00     0.040 A 
HETATM   31  C   UNK N   1      26.795  21.292  -8.060  0.00  0.00     0.018 A 
HETATM   32  C   UNK N   1      27.883  20.435  -8.213  0.00  0.00     0.007 A 
HETATM   33  C   UNK N   1      29.073  20.698  -7.536  0.00  0.00    -0.062 A 
HETATM   34  C   UNK N   1      29.172  21.821  -6.704  0.00  0.00     0.007 A 
HETATM   35  C   UNK N   1      30.231  19.783  -7.706  0.00  0.00     0.048 C 
HETATM   36  C   UNK N   1      28.079  22.684  -6.550  0.00  0.00     0.018 A 
ENDBRANCH  28  30
ENDBRANCH  27  28
ENDBRANCH   6  27
TORSDOF 11
ENDMDL
MODEL 4
REMARK VINA RESULT:      -7.0      2.682      9.796
REMARK  11 active torsions:
REMARK  status: ('A' for Active; 'I' for Inactive)
REMARK    1  A    between atoms: O_1  and  C_9 
REMARK    2  A    between atoms: O_2  and  C_16 
REMARK    3  A    between atoms: O_2  and  C_19 
REMARK    4  A    between atoms: O_3  and  C_18 
REMARK    5  A    between atoms: O_3  and  C_20 
REMARK    6  A    between atoms: N_6  and  C_7 
REMARK    7  A    between atoms: N_6  and  C_8 
REMARK    8  A    between atoms: C_8  and  C_9 
REMARK    9  A    between atoms: C_9  and  C_13 
REMARK   10  A    between atoms: C_19  and  C_21 
REMARK   11  A    between atoms: C_20  and  C_22 
ROOT
HETATM    1  C   UNK N   1      35.009  15.714   9.706  0.00  0.00    -0.025 A 
HETATM    2  C   UNK N   1      34.698  15.325  11.005  0.00  0.00     0.050 A 
HETATM    3  C   UNK N   1      35.655  14.798   8.856  0.00  0.00     0.013 A 
HETATM    4  C   UNK N   1      35.016  14.050  11.480  0.00  0.00     0.114 A 
HETATM    5  C   UNK N   1      36.006  13.521   9.328  0.00  0.00     0.041 A 
HETATM    6  C   UNK N   1      35.679  13.148  10.643  0.00  0.00     0.113 A 
ENDROOT
BRANCH   1   7
HETATM    7  C   UNK N   1      34.557  17.073   9.227  0.00  0.00     0.168 C 
BRANCH   7   8
HETATM    8  O   UNK N   1      35.432  18.080   9.650  0.00  0.00    -0.389 OA
HETATM    9  H   UNK N   1      35.223  18.666  10.393  0.00  0.00     0.210 HD
ENDBRANCH   7   8
BRANCH   7  10
HETATM   10  C   UNK N   1      34.372  17.155   7.730  0.00  0.00     0.151 C 
BRANCH  10  11
HETATM   11  N   UNK N   1      32.995  17.568   7.477  0.00  0.00    -0.411 N 
HETATM   12  H   UNK N   1      32.485  18.237   8.054  0.00  0.00     0.154 HD
BRANCH  11  13
HETATM   13  C   UNK N   1      32.433  16.912   6.298  0.00  0.00     0.014 C 
HETATM   14  C   UNK N   1      32.688  15.425   6.423  0.00  0.00     0.037 C 
HETATM   15  C   UNK N   1      30.932  17.133   6.209  0.00  0.00     0.037 C 
HETATM   16  C   UNK N   1      33.110  17.403   5.028  0.00  0.00     0.037 C 
ENDBRANCH  11  13
ENDBRANCH  10  11
ENDBRANCH   7  10
ENDBRANCH   1   7
BRANCH   4  17
HETATM   17  O   UNK N   1      34.664  13.646  12.730  0.00  0.00    -0.272 OA
BRANCH  17  18
HETATM   18  C   UNK N   1      35.459  13.596  13.834  0.00  0.00     0.298 C 
HETATM   19  O   UNK N   1      36.345  14.423  14.012  0.00  0.00    -0.259 OA
BRANCH  18  20
HETATM   20  C   UNK N   1      35.239  12.545  14.841  0.00  0.00     0.040 A 
HETATM   21  C   UNK N   1      35.910  12.599  16.071  0.00  0.00     0.018 A 
HETATM   22  C   UNK N   1      35.697  11.613  17.034  0.00  0.00     0.007 A 
HETATM   23  C   UNK N   1      34.810  10.564  16.776  0.00  0.00    -0.062 A 
HETATM   24  C   UNK N   1      34.134  10.505  15.553  0.00  0.00     0.007 A 
HETATM   25  C   UNK N   1      34.587   9.515  17.803  0.00  0.00     0.048 C 
HETATM   26  C   UNK N   1      34.347  11.493  14.587  0.00  0.00     0.018 A 
ENDBRANCH  18  20
ENDBRANCH  17  18
ENDBRANCH   4  17
BRANCH   6  27
HETATM   27  O   UNK N   1      35.946  11.923  11.159  0.00  0.00    -0.272 OA
BRANCH  27  28
HETATM   28  C   UNK N   1      37.109  11.249  11.334  0.00  0.00     0.298 C 
HETATM   29  O   UNK N   1      38.019  11.317  10.521  0.00  0.00    -0.259 OA
BRANCH  28  30
HETATM   30  C   UNK N   1      37.224  10.415  12.548  0.00  0.00     0.040 A 
HETATM   31  C   UNK N   1      38.099  10.830  13.563  0.00  0.00     0.018 A 
HETATM   32  C   UNK N   1      38.235  10.089  14.734  0.00  0.00     0.007 A 
HETATM   33  C   UNK N   1      37.495   8.920  14.905  0.00  0.00    -0.062 A 
HETATM   34  C   UNK N   1      36.620   8.492  13.899  0.00  0.00     0.007 A 
HETATM   35  C   UNK N   1      37.642   8.136  16.159  0.00  0.00     0.048 C 
HETATM   36  C   UNK N   1      36.481   9.238  12.721  0.00  0.00     0.018 A 
ENDBRANCH  28  30
ENDBRANCH  27  28
ENDBRANCH   6  27
TORSDOF 11
ENDMDL
MODEL 5
REMARK VINA RESULT:      -7.0     14.373     18.023
REMARK  11 active torsions:
REMARK  status: ('A' for Active; 'I' for Inactive)
REMARK    1  A    between atoms: O_1  and  C_9 
REMARK    2  A    between atoms: O_2  and  C_16 
REMARK    3  A    between atoms: O_2  and  C_19 
REMARK    4  A    between atoms: O_3  and  C_18 
REMARK    5  A    between atoms: O_3  and  C_20 
REMARK    6  A    between atoms: N_6  and  C_7 
REMARK    7  A    between atoms: N_6  and  C_8 
REMARK    8  A    between atoms: C_8  and  C_9 
REMARK    9  A    between atoms: C_9  and  C_13 
REMARK   10  A    between atoms: C_19  and  C_21 
REMARK   11  A    between atoms: C_20  and  C_22 
ROOT
HETATM    1  C   UNK N   1      29.443  23.266  -3.576  0.00  0.00    -0.025 A 
HETATM    2  C   UNK N   1      29.424  23.037  -4.948  0.00  0.00     0.050 A 
HETATM    3  C   UNK N   1      28.329  23.877  -2.972  0.00  0.00     0.013 A 
HETATM    4  C   UNK N   1      28.329  23.404  -5.734  0.00  0.00     0.114 A 
HETATM    5  C   UNK N   1      27.231  24.277  -3.754  0.00  0.00     0.041 A 
HETATM    6  C   UNK N   1      27.232  24.033  -5.138  0.00  0.00     0.113 A 
ENDROOT
BRANCH   1   7
HETATM    7  C   UNK N   1      30.617  22.764  -2.771  0.00  0.00     0.168 C 
BRANCH   7   8
HETATM    8  O   UNK N   1      30.435  22.997  -1.403  0.00  0.00    -0.389 OA
HETATM    9  H   UNK N   1      30.834  23.757  -0.952  0.00  0.00     0.210 HD
ENDBRANCH   7   8
BRANCH   7  10
HETATM   10  C   UNK N   1      30.930  21.305  -3.002  0.00  0.00     0.151 C 
BRANCH  10  11
HETATM   11  N   UNK N   1      32.381  21.153  -2.976  0.00  0.00    -0.411 N 
HETATM   12  H   UNK N   1      32.960  21.348  -2.159  0.00  0.00     0.154 HD
BRANCH  11  13
HETATM   13  C   UNK N   1      32.907  20.686  -4.257  0.00  0.00     0.014 C 
HETATM   14  C   UNK N   1      31.783  20.000  -5.003  0.00  0.00     0.037 C 
HETATM   15  C   UNK N   1      33.401  21.848  -5.104  0.00  0.00     0.037 C 
HETATM   16  C   UNK N   1      34.026  19.677  -4.052  0.00  0.00     0.037 C 
ENDBRANCH  11  13
ENDBRANCH  10  11
ENDBRANCH   7  10
ENDBRANCH   1   7
BRANCH   4  17
HETATM   17  O   UNK N   1      28.283  23.131  -7.065  0.00  0.00    -0.272 OA
BRANCH  17  18
HETATM   18  C   UNK N   1      27.992  21.938  -7.653  0.00  0.00     0.298 C 
HETATM   19  O   UNK N   1      26.836  21.632  -7.920  0.00  0.00    -0.259 OA
BRANCH  18  20
HETATM   20  C   UNK N   1      29.082  21.010  -7.993  0.00  0.00     0.040 A 
HETATM   21  C   UNK N   1      30.334  21.508  -8.378  0.00  0.00     0.018 A 
HETATM   22  C   UNK N   1      31.375  20.633  -8.692  0.00  0.00     0.007 A 
HETATM   23  C   UNK N   1      31.172  19.252  -8.621  0.00  0.00    -0.062 A 
HETATM   24  C   UNK N   1      29.926  18.747  -8.235  0.00  0.00     0.007 A 
HETATM   25  C   UNK N   1      32.281  18.324  -8.957  0.00  0.00     0.048 C 
HETATM   26  C   UNK N   1      28.882  19.623  -7.921  0.00  0.00     0.018 A 
ENDBRANCH  18  20
ENDBRANCH  17  18
ENDBRANCH   4  17
BRANCH   6  27
HETATM   27  O   UNK N   1      26.196  24.350  -5.953  0.00  0.00    -0.272 OA
BRANCH  27  28
HETATM   28  C   UNK N   1      25.923  25.462  -6.676  0.00  0.00     0.298 C 
HETATM   29  O   UNK N   1      25.485  25.397  -7.815  0.00  0.00    -0.259 OA
BRANCH  28  30
HETATM   30  C   UNK N   1      26.191  26.764  -6.030  0.00  0.00     0.040 A 
HETATM   31  C   UNK N   1      27.226  27.562  -6.540  0.00  0.00     0.018 A 
HETATM   32  C   UNK N   1      27.513  28.804  -5.978  0.00  0.00     0.007 A 
HETATM   33  C   UNK N   1      26.763  29.264  -4.896  0.00  0.00    -0.062 A 
HETATM   34  C   UNK N   1      25.728  28.478  -4.375  0.00  0.00     0.007 A 
HETATM   35  C   UNK N   1      27.071  30.592  -4.304  0.00  0.00     0.048 C 
HETATM   36  C   UNK N   1      25.439  27.228  -4.941  0.00  0.00     0.018 A 
ENDBRANCH  28  30
ENDBRANCH  27  28
ENDBRANCH   6  27
TORSDOF 11
ENDMDL
MODEL 6
REMARK VINA RESULT:      -7.0      1.383      3.786
REMARK  11 active torsions:
REMARK  status: ('A' for Active; 'I' for Inactive)
REMARK    1  A    between atoms: O_1  and  C_9 
REMARK    2  A    between atoms: O_2  and  C_16 
REMARK    3  A    between atoms: O_2  and  C_19 
REMARK    4  A    between atoms: O_3  and  C_18 
REMARK    5  A    between atoms: O_3  and  C_20 
REMARK    6  A    between atoms: N_6  and  C_7 
REMARK    7  A    between atoms: N_6  and  C_8 
REMARK    8  A    between atoms: C_8  and  C_9 
REMARK    9  A    between atoms: C_9  and  C_13 
REMARK   10  A    between atoms: C_19  and  C_21 
REMARK   11  A    between atoms: C_20  and  C_22 
ROOT
HETATM    1  C   UNK N   1      35.990  13.314  12.593  0.00  0.00    -0.025 A 
HETATM    2  C   UNK N   1      36.042  14.409  11.736  0.00  0.00     0.050 A 
HETATM    3  C   UNK N   1      35.591  12.065  12.080  0.00  0.00     0.013 A 
HETATM    4  C   UNK N   1      35.703  14.294  10.386  0.00  0.00     0.114 A 
HETATM    5  C   UNK N   1      35.220  11.941  10.730  0.00  0.00     0.041 A 
HETATM    6  C   UNK N   1      35.283  13.060   9.882  0.00  0.00     0.113 A 
ENDROOT
BRANCH   1   7
HETATM    7  C   UNK N   1      36.455  13.484  14.019  0.00  0.00     0.168 C 
BRANCH   7   8
HETATM    8  O   UNK N   1      36.874  14.796  14.266  0.00  0.00    -0.389 OA
HETATM    9  H   UNK N   1      36.255  15.494  14.530  0.00  0.00     0.210 HD
ENDBRANCH   7   8
BRANCH   7  10
HETATM   10  C   UNK N   1      35.424  13.077  15.045  0.00  0.00     0.151 C 
BRANCH  10  11
HETATM   11  N   UNK N   1      35.955  11.931  15.776  0.00  0.00    -0.411 N 
HETATM   12  H   UNK N   1      36.809  11.957  16.333  0.00  0.00     0.154 HD
BRANCH  11  13
HETATM   13  C   UNK N   1      35.117  10.744  15.619  0.00  0.00     0.014 C 
HETATM   14  C   UNK N   1      34.832  10.185  16.996  0.00  0.00     0.037 C 
HETATM   15  C   UNK N   1      33.791  11.091  14.960  0.00  0.00     0.037 C 
HETATM   16  C   UNK N   1      35.836   9.673  14.813  0.00  0.00     0.037 C 
ENDBRANCH  11  13
ENDBRANCH  10  11
ENDBRANCH   7  10
ENDBRANCH   1   7
BRANCH   4  17
HETATM   17  O   UNK N   1      35.805  15.349   9.534  0.00  0.00    -0.272 OA
BRANCH  17  18
HETATM   18  C   UNK N   1      35.111  16.519   9.582  0.00  0.00     0.298 C 
HETATM   19  O   UNK N   1      35.453  17.425  10.333  0.00  0.00    -0.259 OA
BRANCH  18  20
HETATM   20  C   UNK N   1      33.944  16.710   8.706  0.00  0.00     0.040 A 
HETATM   21  C   UNK N   1      34.063  17.469   7.533  0.00  0.00     0.018 A 
HETATM   22  C   UNK N   1      32.963  17.644   6.693  0.00  0.00     0.007 A 
HETATM   23  C   UNK N   1      31.735  17.061   7.018  0.00  0.00    -0.062 A 
HETATM   24  C   UNK N   1      31.610  16.300   8.184  0.00  0.00     0.007 A 
HETATM   25  C   UNK N   1      30.567  17.251   6.122  0.00  0.00     0.048 C 
HETATM   26  C   UNK N   1      32.711  16.123   9.028  0.00  0.00     0.018 A 
ENDBRANCH  18  20
ENDBRANCH  17  18
ENDBRANCH   4  17
BRANCH   6  27
HETATM   27  O   UNK N   1      34.983  13.013   8.561  0.00  0.00    -0.272 OA
BRANCH  27  28
HETATM   28  C   UNK N   1      33.807  12.857   7.906  0.00  0.00     0.298 C 
HETATM   29  O   UNK N   1      32.916  12.146   8.347  0.00  0.00    -0.259 OA
BRANCH  28  30
HETATM   30  C   UNK N   1      33.653  13.575   6.624  0.00  0.00     0.040 A 
HETATM   31  C   UNK N   1      34.766  14.250   6.099  0.00  0.00     0.018 A 
HETATM   32  C   UNK N   1      34.680  14.932   4.888  0.00  0.00     0.007 A 
HETATM   33  C   UNK N   1      33.477  14.946   4.184  0.00  0.00    -0.062 A 
HETATM   34  C   UNK N   1      32.357  14.279   4.697  0.00  0.00     0.007 A 
HETATM   35  C   UNK N   1      33.393  15.671   2.890  0.00  0.00     0.048 C 
HETATM   36  C   UNK N   1      32.443  13.592   5.915  0.00  0.00     0.018 A 
ENDBRANCH  28  30
ENDBRANCH  27  28
ENDBRANCH   6  27
TORSDOF 11
ENDMDL
MODEL 7
REMARK VINA RESULT:      -6.9      3.611      8.098
REMARK  11 active torsions:
REMARK  status: ('A' for Active; 'I' for Inactive)
REMARK    1  A    between atoms: O_1  and  C_9 
REMARK    2  A    between atoms: O_2  and  C_16 
REMARK    3  A    between atoms: O_2  and  C_19 
REMARK    4  A    between atoms: O_3  and  C_18 
REMARK    5  A    between atoms: O_3  and  C_20 
REMARK    6  A    between atoms: N_6  and  C_7 
REMARK    7  A    between atoms: N_6  and  C_8 
REMARK    8  A    between atoms: C_8  and  C_9 
REMARK    9  A    between atoms: C_9  and  C_13 
REMARK   10  A    between atoms: C_19  and  C_21 
REMARK   11  A    between atoms: C_20  and  C_22 
ROOT
HETATM    1  C   UNK N   1      29.370  16.888   6.926  0.00  0.00    -0.025 A 
HETATM    2  C   UNK N   1      30.305  16.410   6.015  0.00  0.00     0.050 A 
HETATM    3  C   UNK N   1      29.807  17.699   7.990  0.00  0.00     0.013 A 
HETATM    4  C   UNK N   1      31.663  16.714   6.137  0.00  0.00     0.114 A 
HETATM    5  C   UNK N   1      31.173  17.991   8.141  0.00  0.00     0.041 A 
HETATM    6  C   UNK N   1      32.101  17.500   7.206  0.00  0.00     0.113 A 
ENDROOT
BRANCH   1   7
HETATM    7  C   UNK N   1      27.908  16.597   6.687  0.00  0.00     0.168 C 
BRANCH   7   8
HETATM    8  O   UNK N   1      27.146  16.829   7.838  0.00  0.00    -0.389 OA
HETATM    9  H   UNK N   1      26.759  16.106   8.355  0.00  0.00     0.210 HD
ENDBRANCH   7   8
BRANCH   7  10
HETATM   10  C   UNK N   1      27.320  17.363   5.526  0.00  0.00     0.151 C 
BRANCH  10  11
HETATM   11  N   UNK N   1      26.587  18.502   6.071  0.00  0.00    -0.411 N 
HETATM   12  H   UNK N   1      25.843  18.421   6.764  0.00  0.00     0.154 HD
BRANCH  11  13
HETATM   13  C   UNK N   1      27.047  19.770   5.509  0.00  0.00     0.014 C 
HETATM   14  C   UNK N   1      25.901  20.383   4.735  0.00  0.00     0.037 C 
HETATM   15  C   UNK N   1      27.455  20.741   6.606  0.00  0.00     0.037 C 
HETATM   16  C   UNK N   1      28.205  19.551   4.548  0.00  0.00     0.037 C 
ENDBRANCH  11  13
ENDBRANCH  10  11
ENDBRANCH   7  10
ENDBRANCH   1   7
BRANCH   4  17
HETATM   17  O   UNK N   1      32.573  16.296   5.217  0.00  0.00    -0.272 OA
BRANCH  17  18
HETATM   18  C   UNK N   1      33.011  15.023   5.010  0.00  0.00     0.298 C 
HETATM   19  O   UNK N   1      32.631  14.374   4.044  0.00  0.00    -0.259 OA
BRANCH  18  20
HETATM   20  C   UNK N   1      33.972  14.424   5.950  0.00  0.00     0.040 A 
HETATM   21  C   UNK N   1      33.639  13.252   6.644  0.00  0.00     0.018 A 
HETATM   22  C   UNK N   1      34.549  12.673   7.528  0.00  0.00     0.007 A 
HETATM   23  C   UNK N   1      35.802  13.260   7.724  0.00  0.00    -0.062 A 
HETATM   24  C   UNK N   1      36.144  14.427   7.034  0.00  0.00     0.007 A 
HETATM   25  C   UNK N   1      36.768  12.641   8.667  0.00  0.00     0.048 C 
HETATM   26  C   UNK N   1      35.232  15.009   6.148  0.00  0.00     0.018 A 
ENDBRANCH  18  20
ENDBRANCH  17  18
ENDBRANCH   4  17
BRANCH   6  27
HETATM   27  O   UNK N   1      33.428  17.772   7.259  0.00  0.00    -0.272 OA
BRANCH  27  28
HETATM   28  C   UNK N   1      34.263  17.998   8.301  0.00  0.00     0.298 C 
HETATM   29  O   UNK N   1      34.862  19.056   8.427  0.00  0.00    -0.259 OA
BRANCH  28  30
HETATM   30  C   UNK N   1      34.430  16.901   9.277  0.00  0.00     0.040 A 
HETATM   31  C   UNK N   1      35.515  16.956  10.164  0.00  0.00     0.018 A 
HETATM   32  C   UNK N   1      35.712  15.956  11.113  0.00  0.00     0.007 A 
HETATM   33  C   UNK N   1      34.822  14.885  11.186  0.00  0.00    -0.062 A 
HETATM   34  C   UNK N   1      33.735  14.815  10.305  0.00  0.00     0.007 A 
HETATM   35  C   UNK N   1      35.034  13.823  12.204  0.00  0.00     0.048 C 
HETATM   36  C   UNK N   1      33.536  15.822   9.351  0.00  0.00     0.018 A 
ENDBRANCH  28  30
ENDBRANCH  27  28
ENDBRANCH   6  27
TORSDOF 11
ENDMDL
MODEL 8
REMARK VINA RESULT:      -6.9      1.422      2.221
REMARK  11 active torsions:
REMARK  status: ('A' for Active; 'I' for Inactive)
REMARK    1  A    between atoms: O_1  and  C_9 
REMARK    2  A    between atoms: O_2  and  C_16 
REMARK    3  A    between atoms: O_2  and  C_19 
REMARK    4  A    between atoms: O_3  and  C_18 
REMARK    5  A    between atoms: O_3  and  C_20 
REMARK    6  A    between atoms: N_6  and  C_7 
REMARK    7  A    between atoms: N_6  and  C_8 
REMARK    8  A    between atoms: C_8  and  C_9 
REMARK    9  A    between atoms: C_9  and  C_13 
REMARK   10  A    between atoms: C_19  and  C_21 
REMARK   11  A    between atoms: C_20  and  C_22 
ROOT
HETATM    1  C   UNK N   1      36.413  12.906  12.348  0.00  0.00    -0.025 A 
HETATM    2  C   UNK N   1      35.945  12.678  11.058  0.00  0.00     0.050 A 
HETATM    3  C   UNK N   1      36.098  14.123  12.982  0.00  0.00     0.013 A 
HETATM    4  C   UNK N   1      35.176  13.629  10.383  0.00  0.00     0.114 A 
HETATM    5  C   UNK N   1      35.349  15.100  12.304  0.00  0.00     0.041 A 
HETATM    6  C   UNK N   1      34.884  14.847  11.002  0.00  0.00     0.113 A 
ENDROOT
BRANCH   1   7
HETATM    7  C   UNK N   1      37.161  11.803  13.056  0.00  0.00     0.168 C 
BRANCH   7   8
HETATM    8  O   UNK N   1      37.939  12.305  14.105  0.00  0.00    -0.389 OA
HETATM    9  H   UNK N   1      37.564  12.499  14.978  0.00  0.00     0.210 HD
ENDBRANCH   7   8
BRANCH   7  10
HETATM   10  C   UNK N   1      36.268  10.698  13.569  0.00  0.00     0.151 C 
BRANCH  10  11
HETATM   11  N   UNK N   1      36.302  10.742  15.028  0.00  0.00    -0.411 N 
HETATM   12  H   UNK N   1      37.148  10.610  15.582  0.00  0.00     0.154 HD
BRANCH  11  13
HETATM   13  C   UNK N   1      34.982  10.998  15.600  0.00  0.00     0.014 C 
HETATM   14  C   UNK N   1      33.949  10.771  14.517  0.00  0.00     0.037 C 
HETATM   15  C   UNK N   1      34.687  10.046  16.748  0.00  0.00     0.037 C 
HETATM   16  C   UNK N   1      34.864  12.439  16.072  0.00  0.00     0.037 C 
ENDBRANCH  11  13
ENDBRANCH  10  11
ENDBRANCH   7  10
ENDBRANCH   1   7
BRANCH   4  17
HETATM   17  O   UNK N   1      34.670  13.387   9.144  0.00  0.00    -0.272 OA
BRANCH  17  18
HETATM   18  C   UNK N   1      35.285  13.595   7.947  0.00  0.00     0.298 C 
HETATM   19  O   UNK N   1      36.504  13.673   7.869  0.00  0.00    -0.259 OA
BRANCH  18  20
HETATM   20  C   UNK N   1      34.474  13.707   6.723  0.00  0.00     0.040 A 
HETATM   21  C   UNK N   1      33.107  13.402   6.756  0.00  0.00     0.018 A 
HETATM   22  C   UNK N   1      32.331  13.517   5.602  0.00  0.00     0.007 A 
HETATM   23  C   UNK N   1      32.918  13.937   4.405  0.00  0.00    -0.062 A 
HETATM   24  C   UNK N   1      34.281  14.245   4.365  0.00  0.00     0.007 A 
HETATM   25  C   UNK N   1      32.089  14.057   3.179  0.00  0.00     0.048 C 
HETATM   26  C   UNK N   1      35.059  14.131   5.521  0.00  0.00     0.018 A 
ENDBRANCH  18  20
ENDBRANCH  17  18
ENDBRANCH   4  17
BRANCH   6  27
HETATM   27  O   UNK N   1      34.122  15.720  10.299  0.00  0.00    -0.272 OA
BRANCH  27  28
HETATM   28  C   UNK N   1      34.447  16.780   9.520  0.00  0.00     0.298 C 
HETATM   29  O   UNK N   1      35.333  17.561   9.835  0.00  0.00    -0.259 OA
BRANCH  28  30
HETATM   30  C   UNK N   1      33.673  16.958   8.275  0.00  0.00     0.040 A 
HETATM   31  C   UNK N   1      34.348  17.396   7.125  0.00  0.00     0.018 A 
HETATM   32  C   UNK N   1      33.670  17.568   5.921  0.00  0.00     0.007 A 
HETATM   33  C   UNK N   1      32.303  17.302   5.852  0.00  0.00    -0.062 A 
HETATM   34  C   UNK N   1      31.615  16.866   6.991  0.00  0.00     0.007 A 
HETATM   35  C   UNK N   1      31.585  17.483   4.563  0.00  0.00     0.048 C 
HETATM   36  C   UNK N   1      32.297  16.692   8.204  0.00  0.00     0.018 A 
ENDBRANCH  28  30
ENDBRANCH  27  28
ENDBRANCH   6  27
TORSDOF 11
ENDMDL
MODEL 9
REMARK VINA RESULT:      -6.8      1.663      3.851
REMARK  11 active torsions:
REMARK  status: ('A' for Active; 'I' for Inactive)
REMARK    1  A    between atoms: O_1  and  C_9 
REMARK    2  A    between atoms: O_2  and  C_16 
REMARK    3  A    between atoms: O_2  and  C_19 
REMARK    4  A    between atoms: O_3  and  C_18 
REMARK    5  A    between atoms: O_3  and  C_20 
REMARK    6  A    between atoms: N_6  and  C_7 
REMARK    7  A    between atoms: N_6  and  C_8 
REMARK    8  A    between atoms: C_8  and  C_9 
REMARK    9  A    between atoms: C_9  and  C_13 
REMARK   10  A    between atoms: C_19  and  C_21 
REMARK   11  A    between atoms: C_20  and  C_22 
ROOT
HETATM    1  C   UNK N   1      36.173  12.812  12.190  0.00  0.00    -0.025 A 
HETATM    2  C   UNK N   1      36.141  14.010  11.483  0.00  0.00     0.050 A 
HETATM    3  C   UNK N   1      35.830  11.619  11.526  0.00  0.00     0.013 A 
HETATM    4  C   UNK N   1      35.774  14.051  10.136  0.00  0.00     0.114 A 
HETATM    5  C   UNK N   1      35.432  11.649  10.179  0.00  0.00     0.041 A 
HETATM    6  C   UNK N   1      35.411  12.870   9.482  0.00  0.00     0.113 A 
ENDROOT
BRANCH   1   7
HETATM    7  C   UNK N   1      36.664  12.823  13.617  0.00  0.00     0.168 C 
BRANCH   7   8
HETATM    8  O   UNK N   1      35.863  13.637  14.427  0.00  0.00    -0.389 OA
HETATM    9  H   UNK N   1      36.129  13.895  15.322  0.00  0.00     0.210 HD
ENDBRANCH   7   8
BRANCH   7  10
HETATM   10  C   UNK N   1      36.774  11.447  14.230  0.00  0.00     0.151 C 
BRANCH  10  11
HETATM   11  N   UNK N   1      35.926  11.422  15.418  0.00  0.00    -0.411 N 
HETATM   12  H   UNK N   1      36.010  12.082  16.192  0.00  0.00     0.154 HD
BRANCH  11  13
HETATM   13  C   UNK N   1      34.943  10.343  15.367  0.00  0.00     0.014 C 
HETATM   14  C   UNK N   1      35.531   9.211  14.554  0.00  0.00     0.037 C 
HETATM   15  C   UNK N   1      34.630   9.818  16.760  0.00  0.00     0.037 C 
HETATM   16  C   UNK N   1      33.664  10.803  14.684  0.00  0.00     0.037 C 
ENDBRANCH  11  13
ENDBRANCH  10  11
ENDBRANCH   7  10
ENDBRANCH   1   7
BRANCH   4  17
HETATM   17  O   UNK N   1      35.797  15.211   9.426  0.00  0.00    -0.272 OA
BRANCH  17  18
HETATM   18  C   UNK N   1      35.153  16.373   9.726  0.00  0.00     0.298 C 
HETATM   19  O   UNK N   1      35.661  17.200  10.472  0.00  0.00    -0.259 OA
BRANCH  18  20
HETATM   20  C   UNK N   1      33.837  16.651   9.129  0.00  0.00     0.040 A 
HETATM   21  C   UNK N   1      32.747  15.816   9.411  0.00  0.00     0.018 A 
HETATM   22  C   UNK N   1      31.494  16.080   8.857  0.00  0.00     0.007 A 
HETATM   23  C   UNK N   1      31.321  17.182   8.016  0.00  0.00    -0.062 A 
HETATM   24  C   UNK N   1      32.403  18.021   7.731  0.00  0.00     0.007 A 
HETATM   25  C   UNK N   1      29.987  17.459   7.427  0.00  0.00     0.048 C 
HETATM   26  C   UNK N   1      33.659  17.758   8.286  0.00  0.00     0.018 A 
ENDBRANCH  18  20
ENDBRANCH  17  18
ENDBRANCH   4  17
BRANCH   6  27
HETATM   27  O   UNK N   1      35.080  12.976   8.172  0.00  0.00    -0.272 OA
BRANCH  27  28
HETATM   28  C   UNK N   1      33.886  12.919   7.534  0.00  0.00     0.298 C 
HETATM   29  O   UNK N   1      33.082  12.027   7.755  0.00  0.00    -0.259 OA
BRANCH  28  30
HETATM   30  C   UNK N   1      33.604  13.981   6.546  0.00  0.00     0.040 A 
HETATM   31  C   UNK N   1      32.299  14.096   6.043  0.00  0.00     0.018 A 
HETATM   32  C   UNK N   1      31.974  15.087   5.120  0.00  0.00     0.007 A 
HETATM   33  C   UNK N   1      32.955  15.979   4.688  0.00  0.00    -0.062 A 
HETATM   34  C   UNK N   1      34.262  15.875   5.179  0.00  0.00     0.007 A 
HETATM   35  C   UNK N   1      32.602  17.037   3.706  0.00  0.00     0.048 C 
HETATM   36  C   UNK N   1      34.590  14.878   6.109  0.00  0.00     0.018 A 
ENDBRANCH  28  30
ENDBRANCH  27  28
ENDBRANCH   6  27
TORSDOF 11
ENDMDL
