MODEL 1
REMARK VINA RESULT:      -7.3      0.000      0.000
REMARK  8 active torsions:
REMARK  status: ('A' for Active; 'I' for Inactive)
REMARK    1  A    between atoms: O_1  and  C_8 
REMARK    2  A    between atoms: O_2  and  C_24 
REMARK    3  A    between atoms: O_2  and  C_25 
REMARK    4  A    between atoms: C_5  and  C_11 
REMARK    5  A    between atoms: C_14  and  C_15 
REMARK    6  A    between atoms: C_18  and  C_19 
REMARK    7  A    between atoms: C_20  and  C_21 
REMARK    8  A    between atoms: C_23  and  C_24 
ROOT
HETATM    1  C   UNK N   1      35.318  12.818  16.564  0.00  0.00     0.013 C 
HETATM    2  C   UNK N   1      36.388  13.046  15.817  0.00  0.00     0.007 C 
ENDROOT
BRANCH   2   3
HETATM    3  C   UNK N   1      36.703  14.295  15.120  0.00  0.00    -0.062 C 
HETATM    4  C   UNK N   1      37.398  15.424  15.805  0.00  0.00     0.048 C 
HETATM    5  C   UNK N   1      36.325  14.430  13.849  0.00  0.00     0.007 C 
BRANCH   5   6
HETATM    6  C   UNK N   1      35.639  13.337  13.115  0.00  0.00     0.001 C 
HETATM    7  C   UNK N   1      35.484  13.340  11.786  0.00  0.00     0.007 C 
BRANCH   7   8
HETATM    8  C   UNK N   1      35.795  14.498  10.930  0.00  0.00    -0.056 C 
HETATM    9  C   UNK N   1      37.093  14.558  10.174  0.00  0.00     0.048 C 
HETATM   10  C   UNK N   1      34.887  15.478  10.848  0.00  0.00     0.088 C 
BRANCH  10  11
HETATM   11  C   UNK N   1      34.989  16.670   9.980  0.00  0.00     0.283 C 
HETATM   12  O   UNK N   1      35.646  17.645  10.325  0.00  0.00    -0.260 OA
BRANCH  11  13
HETATM   13  O   UNK N   1      34.387  16.647   8.772  0.00  0.00    -0.319 OA
BRANCH  13  14
HETATM   14  C   UNK N   1      34.099  17.798   8.077  0.00  0.00     0.174 C 
HETATM   15  C   UNK N   1      32.607  18.039   8.103  0.00  0.00     0.034 C 
ENDBRANCH  13  14
ENDBRANCH  11  13
ENDBRANCH  10  11
ENDBRANCH   7   8
ENDBRANCH   5   6
ENDBRANCH   2   3
BRANCH   1  16
HETATM   16  C   UNK N   1      35.113  11.506  17.243  0.00  0.00    -0.024 A 
HETATM   17  C   UNK N   1      35.180  11.465  18.654  0.00  0.00    -0.043 A 
HETATM   18  C   UNK N   1      35.026  10.241  19.334  0.00  0.00    -0.022 A 
HETATM   19  C   UNK N   1      35.428  12.724  19.433  0.00  0.00     0.049 C 
HETATM   20  C   UNK N   1      34.805   9.055  18.616  0.00  0.00     0.075 A 
HETATM   21  C   UNK N   1      35.109  10.188  20.828  0.00  0.00     0.052 C 
HETATM   22  C   UNK N   1      34.722   9.102  17.223  0.00  0.00     0.044 A 
HETATM   23  C   UNK N   1      34.868  10.294  16.530  0.00  0.00    -0.049 A 
HETATM   24  C   UNK N   1      34.758  10.212  15.042  0.00  0.00     0.049 C 
BRANCH  20  25
HETATM   25  O   UNK N   1      34.678   7.879  19.278  0.00  0.00    -0.355 OA
HETATM   26  C   UNK N   1      33.467   7.254  19.478  0.00  0.00     0.210 C 
ENDBRANCH  20  25
ENDBRANCH   1  16
TORSDOF 8
ENDMDL
MODEL 2
REMARK VINA RESULT:      -7.1      8.657     14.206
REMARK  8 active torsions:
REMARK  status: ('A' for Active; 'I' for Inactive)
REMARK    1  A    between atoms: O_1  and  C_8 
REMARK    2  A    between atoms: O_2  and  C_24 
REMARK    3  A    between atoms: O_2  and  C_25 
REMARK    4  A    between atoms: C_5  and  C_11 
REMARK    5  A    between atoms: C_14  and  C_15 
REMARK    6  A    between atoms: C_18  and  C_19 
REMARK    7  A    between atoms: C_20  and  C_21 
REMARK    8  A    between atoms: C_23  and  C_24 
ROOT
HETATM    1  C   UNK N   1      27.837  18.752   7.096  0.00  0.00     0.013 C 
HETATM    2  C   UNK N   1      27.882  20.051   6.835  0.00  0.00     0.007 C 
ENDROOT
BRANCH   2   3
HETATM    3  C   UNK N   1      26.729  20.944   6.704  0.00  0.00    -0.062 C 
HETATM    4  C   UNK N   1      26.066  21.552   7.895  0.00  0.00     0.048 C 
HETATM    5  C   UNK N   1      26.245  21.188   5.486  0.00  0.00     0.007 C 
BRANCH   5   6
HETATM    6  C   UNK N   1      26.870  20.617   4.266  0.00  0.00     0.001 C 
HETATM    7  C   UNK N   1      26.256  19.719   3.488  0.00  0.00     0.007 C 
BRANCH   7   8
HETATM    8  C   UNK N   1      24.991  19.054   3.849  0.00  0.00    -0.056 C 
HETATM    9  C   UNK N   1      24.989  17.882   4.791  0.00  0.00     0.048 C 
HETATM   10  C   UNK N   1      23.858  19.534   3.320  0.00  0.00     0.088 C 
BRANCH  10  11
HETATM   11  C   UNK N   1      22.497  19.050   3.631  0.00  0.00     0.283 C 
HETATM   12  O   UNK N   1      22.233  17.854   3.607  0.00  0.00    -0.260 OA
BRANCH  11  13
HETATM   13  O   UNK N   1      21.556  19.949   3.994  0.00  0.00    -0.319 OA
BRANCH  13  14
HETATM   14  C   UNK N   1      20.418  20.155   3.251  0.00  0.00     0.174 C 
HETATM   15  C   UNK N   1      20.794  20.740   1.909  0.00  0.00     0.034 C 
ENDBRANCH  13  14
ENDBRANCH  11  13
ENDBRANCH  10  11
ENDBRANCH   7   8
ENDBRANCH   5   6
ENDBRANCH   2   3
BRANCH   1  16
HETATM   16  C   UNK N   1      29.085  17.946   7.225  0.00  0.00    -0.024 A 
HETATM   17  C   UNK N   1      29.551  17.248   6.089  0.00  0.00    -0.043 A 
HETATM   18  C   UNK N   1      30.707  16.447   6.175  0.00  0.00    -0.022 A 
HETATM   19  C   UNK N   1      28.811  17.349   4.786  0.00  0.00     0.049 C 
HETATM   20  C   UNK N   1      31.402  16.336   7.389  0.00  0.00     0.075 A 
HETATM   21  C   UNK N   1      31.199  15.695   4.978  0.00  0.00     0.052 C 
HETATM   22  C   UNK N   1      30.948  17.040   8.507  0.00  0.00     0.044 A 
HETATM   23  C   UNK N   1      29.815  17.837   8.448  0.00  0.00    -0.049 A 
HETATM   24  C   UNK N   1      29.433  18.539   9.710  0.00  0.00     0.049 C 
BRANCH  20  25
HETATM   25  O   UNK N   1      32.501  15.546   7.468  0.00  0.00    -0.355 OA
HETATM   26  C   UNK N   1      32.642  14.543   8.401  0.00  0.00     0.210 C 
ENDBRANCH  20  25
ENDBRANCH   1  16
TORSDOF 8
ENDMDL
MODEL 3
REMARK VINA RESULT:      -6.9      4.742     12.434
REMARK  8 active torsions:
REMARK  status: ('A' for Active; 'I' for Inactive)
REMARK    1  A    between atoms: O_1  and  C_8 
REMARK    2  A    between atoms: O_2  and  C_24 
REMARK    3  A    between atoms: O_2  and  C_25 
REMARK    4  A    between atoms: C_5  and  C_11 
REMARK    5  A    between atoms: C_14  and  C_15 
REMARK    6  A    between atoms: C_18  and  C_19 
REMARK    7  A    between atoms: C_20  and  C_21 
REMARK    8  A    between atoms: C_23  and  C_24 
ROOT
HETATM    1  C   UNK N   1      30.794  16.683   6.229  0.00  0.00     0.013 C 
HETATM    2  C   UNK N   1      31.971  17.103   5.789  0.00  0.00     0.007 C 
ENDROOT
BRANCH   2   3
HETATM    3  C   UNK N   1      33.184  16.293   5.663  0.00  0.00    -0.062 C 
HETATM    4  C   UNK N   1      33.276  15.161   4.693  0.00  0.00     0.048 C 
HETATM    5  C   UNK N   1      34.216  16.558   6.463  0.00  0.00     0.007 C 
BRANCH   5   6
HETATM    6  C   UNK N   1      34.184  17.676   7.439  0.00  0.00     0.001 C 
HETATM    7  C   UNK N   1      34.115  17.485   8.761  0.00  0.00     0.007 C 
BRANCH   7   8
HETATM    8  C   UNK N   1      33.871  16.171   9.385  0.00  0.00    -0.056 C 
HETATM    9  C   UNK N   1      32.533  15.500   9.245  0.00  0.00     0.048 C 
HETATM   10  C   UNK N   1      34.876  15.605  10.064  0.00  0.00     0.088 C 
BRANCH  10  11
HETATM   11  C   UNK N   1      34.841  14.262  10.682  0.00  0.00     0.283 C 
HETATM   12  O   UNK N   1      35.095  13.260  10.024  0.00  0.00    -0.260 OA
BRANCH  11  13
HETATM   13  O   UNK N   1      34.574  14.162  12.002  0.00  0.00    -0.319 OA
BRANCH  13  14
HETATM   14  C   UNK N   1      35.330  13.378  12.841  0.00  0.00     0.174 C 
HETATM   15  C   UNK N   1      36.217  14.262  13.689  0.00  0.00     0.034 C 
ENDBRANCH  13  14
ENDBRANCH  11  13
ENDBRANCH  10  11
ENDBRANCH   7   8
ENDBRANCH   5   6
ENDBRANCH   2   3
BRANCH   1  16
HETATM   16  C   UNK N   1      29.620  17.601   6.296  0.00  0.00    -0.024 A 
HETATM   17  C   UNK N   1      28.848  17.786   5.127  0.00  0.00    -0.043 A 
HETATM   18  C   UNK N   1      27.750  18.670   5.137  0.00  0.00    -0.022 A 
HETATM   19  C   UNK N   1      29.200  17.050   3.867  0.00  0.00     0.049 C 
HETATM   20  C   UNK N   1      27.418  19.372   6.306  0.00  0.00     0.075 A 
HETATM   21  C   UNK N   1      26.936  18.880   3.899  0.00  0.00     0.052 C 
HETATM   22  C   UNK N   1      28.172  19.174   7.464  0.00  0.00     0.044 A 
HETATM   23  C   UNK N   1      29.256  18.308   7.482  0.00  0.00    -0.049 A 
HETATM   24  C   UNK N   1      29.982  18.183   8.781  0.00  0.00     0.049 C 
BRANCH  20  25
HETATM   25  O   UNK N   1      26.373  20.236   6.300  0.00  0.00    -0.355 OA
HETATM   26  C   UNK N   1      26.518  21.594   6.474  0.00  0.00     0.210 C 
ENDBRANCH  20  25
ENDBRANCH   1  16
TORSDOF 8
ENDMDL
MODEL 4
REMARK VINA RESULT:      -6.7      2.943     10.018
REMARK  8 active torsions:
REMARK  status: ('A' for Active; 'I' for Inactive)
REMARK    1  A    between atoms: O_1  and  C_8 
REMARK    2  A    between atoms: O_2  and  C_24 
REMARK    3  A    between atoms: O_2  and  C_25 
REMARK    4  A    between atoms: C_5  and  C_11 
REMARK    5  A    between atoms: C_14  and  C_15 
REMARK    6  A    between atoms: C_18  and  C_19 
REMARK    7  A    between atoms: C_20  and  C_21 
REMARK    8  A    between atoms: C_23  and  C_24 
ROOT
HETATM    1  C   UNK N   1      34.841  12.581  16.508  0.00  0.00     0.013 C 
HETATM    2  C   UNK N   1      35.517  11.872  17.399  0.00  0.00     0.007 C 
ENDROOT
BRANCH   2   3
HETATM    3  C   UNK N   1      35.208  11.758  18.826  0.00  0.00    -0.062 C 
HETATM    4  C   UNK N   1      35.243  12.942  19.734  0.00  0.00     0.048 C 
HETATM    5  C   UNK N   1      34.921  10.556  19.323  0.00  0.00     0.007 C 
BRANCH   5   6
HETATM    6  C   UNK N   1      34.863   9.345  18.466  0.00  0.00     0.001 C 
HETATM    7  C   UNK N   1      34.029   8.327  18.702  0.00  0.00     0.007 C 
BRANCH   7   8
HETATM    8  C   UNK N   1      33.222   8.199  19.929  0.00  0.00    -0.056 C 
HETATM    9  C   UNK N   1      31.789   8.655  19.948  0.00  0.00     0.048 C 
HETATM   10  C   UNK N   1      33.805   7.663  21.008  0.00  0.00     0.088 C 
BRANCH  10  11
HETATM   11  C   UNK N   1      33.132   7.381  22.293  0.00  0.00     0.283 C 
HETATM   12  O   UNK N   1      32.500   6.345  22.459  0.00  0.00    -0.260 OA
BRANCH  11  13
HETATM   13  O   UNK N   1      33.267   8.266  23.304  0.00  0.00    -0.319 OA
BRANCH  13  14
HETATM   14  C   UNK N   1      32.324   9.232  23.561  0.00  0.00     0.174 C 
HETATM   15  C   UNK N   1      32.812  10.563  23.037  0.00  0.00     0.034 C 
ENDBRANCH  13  14
ENDBRANCH  11  13
ENDBRANCH  10  11
ENDBRANCH   7   8
ENDBRANCH   5   6
ENDBRANCH   2   3
BRANCH   1  16
HETATM   16  C   UNK N   1      35.243  12.606  15.072  0.00  0.00    -0.024 A 
HETATM   17  C   UNK N   1      34.611  11.706  14.185  0.00  0.00    -0.043 A 
HETATM   18  C   UNK N   1      34.984  11.673  12.826  0.00  0.00    -0.022 A 
HETATM   19  C   UNK N   1      33.548  10.774  14.687  0.00  0.00     0.049 C 
HETATM   20  C   UNK N   1      35.985  12.533  12.346  0.00  0.00     0.075 A 
HETATM   21  C   UNK N   1      34.329  10.713  11.883  0.00  0.00     0.052 C 
HETATM   22  C   UNK N   1      36.595  13.433  13.222  0.00  0.00     0.044 A 
HETATM   23  C   UNK N   1      36.244  13.487  14.562  0.00  0.00    -0.049 A 
HETATM   24  C   UNK N   1      36.969  14.494  15.396  0.00  0.00     0.049 C 
BRANCH  20  25
HETATM   25  O   UNK N   1      36.352  12.479  11.041  0.00  0.00    -0.355 OA
HETATM   26  C   UNK N   1      37.513  13.044  10.562  0.00  0.00     0.210 C 
ENDBRANCH  20  25
ENDBRANCH   1  16
TORSDOF 8
ENDMDL
MODEL 5
REMARK VINA RESULT:      -6.6     20.577     24.419
REMARK  8 active torsions:
REMARK  status: ('A' for Active; 'I' for Inactive)
REMARK    1  A    between atoms: O_1  and  C_8 
REMARK    2  A    between atoms: O_2  and  C_24 
REMARK    3  A    between atoms: O_2  and  C_25 
REMARK    4  A    between atoms: C_5  and  C_11 
REMARK    5  A    between atoms: C_14  and  C_15 
REMARK    6  A    between atoms: C_18  and  C_19 
REMARK    7  A    between atoms: C_20  and  C_21 
REMARK    8  A    between atoms: C_23  and  C_24 
ROOT
HETATM    1  C   UNK N   1      28.495  23.263  -6.269  0.00  0.00     0.013 C 
HETATM    2  C   UNK N   1      27.195  23.074  -6.093  0.00  0.00     0.007 C 
ENDROOT
BRANCH   2   3
HETATM    3  C   UNK N   1      26.128  23.995  -6.491  0.00  0.00    -0.062 C 
HETATM    4  C   UNK N   1      25.624  24.055  -7.895  0.00  0.00     0.048 C 
HETATM    5  C   UNK N   1      25.624  24.821  -5.575  0.00  0.00     0.007 C 
BRANCH   5   6
HETATM    6  C   UNK N   1      26.081  24.800  -4.163  0.00  0.00     0.001 C 
HETATM    7  C   UNK N   1      26.490  25.896  -3.514  0.00  0.00     0.007 C 
BRANCH   7   8
HETATM    8  C   UNK N   1      26.717  27.196  -4.171  0.00  0.00    -0.056 C 
HETATM    9  C   UNK N   1      25.659  28.264  -4.131  0.00  0.00     0.048 C 
HETATM   10  C   UNK N   1      27.889  27.389  -4.789  0.00  0.00     0.088 C 
BRANCH  10  11
HETATM   11  C   UNK N   1      28.323  28.650  -5.426  0.00  0.00     0.283 C 
HETATM   12  O   UNK N   1      29.088  29.415  -4.851  0.00  0.00    -0.260 OA
BRANCH  11  13
HETATM   13  O   UNK N   1      27.902  28.922  -6.680  0.00  0.00    -0.319 OA
BRANCH  13  14
HETATM   14  C   UNK N   1      28.564  28.455  -7.790  0.00  0.00     0.174 C 
HETATM   15  C   UNK N   1      27.854  27.231  -8.321  0.00  0.00     0.034 C 
ENDBRANCH  13  14
ENDBRANCH  11  13
ENDBRANCH  10  11
ENDBRANCH   7   8
ENDBRANCH   5   6
ENDBRANCH   2   3
BRANCH   1  16
HETATM   16  C   UNK N   1      29.491  22.240  -5.837  0.00  0.00    -0.024 A 
HETATM   17  C   UNK N   1      30.159  22.436  -4.607  0.00  0.00    -0.043 A 
HETATM   18  C   UNK N   1      31.133  21.511  -4.177  0.00  0.00    -0.022 A 
HETATM   19  C   UNK N   1      29.843  23.633  -3.759  0.00  0.00     0.049 C 
HETATM   20  C   UNK N   1      31.444  20.393  -4.966  0.00  0.00     0.075 A 
HETATM   21  C   UNK N   1      31.853  21.719  -2.882  0.00  0.00     0.052 C 
HETATM   22  C   UNK N   1      30.770  20.194  -6.172  0.00  0.00     0.044 A 
HETATM   23  C   UNK N   1      29.806  21.087  -6.617  0.00  0.00    -0.049 A 
HETATM   24  C   UNK N   1      29.156  20.763  -7.923  0.00  0.00     0.049 C 
BRANCH  20  25
HETATM   25  O   UNK N   1      32.397  19.521  -4.553  0.00  0.00    -0.355 OA
HETATM   26  C   UNK N   1      33.639  19.429  -5.141  0.00  0.00     0.210 C 
ENDBRANCH  20  25
ENDBRANCH   1  16
TORSDOF 8
ENDMDL
MODEL 6
REMARK VINA RESULT:      -6.6      4.829     12.384
REMARK  8 active torsions:
REMARK  status: ('A' for Active; 'I' for Inactive)
REMARK    1  A    between atoms: O_1  and  C_8 
REMARK    2  A    between atoms: O_2  and  C_24 
REMARK    3  A    between atoms: O_2  and  C_25 
REMARK    4  A    between atoms: C_5  and  C_11 
REMARK    5  A    between atoms: C_14  and  C_15 
REMARK    6  A    between atoms: C_18  and  C_19 
REMARK    7  A    between atoms: C_20  and  C_21 
REMARK    8  A    between atoms: C_23  and  C_24 
ROOT
HETATM    1  C   UNK N   1      30.946  16.417   5.630  0.00  0.00     0.013 C 
HETATM    2  C   UNK N   1      32.117  16.915   5.261  0.00  0.00     0.007 C 
ENDROOT
BRANCH   2   3
HETATM    3  C   UNK N   1      33.410  16.232   5.345  0.00  0.00    -0.062 C 
HETATM    4  C   UNK N   1      33.756  15.093   4.444  0.00  0.00     0.048 C 
HETATM    5  C   UNK N   1      34.280  16.623   6.275  0.00  0.00     0.007 C 
BRANCH   5   6
HETATM    6  C   UNK N   1      33.992  17.754   7.192  0.00  0.00     0.001 C 
HETATM    7  C   UNK N   1      33.824  17.597   8.510  0.00  0.00     0.007 C 
BRANCH   7   8
HETATM    8  C   UNK N   1      33.712  16.283   9.167  0.00  0.00    -0.056 C 
HETATM    9  C   UNK N   1      32.448  15.477   9.047  0.00  0.00     0.048 C 
HETATM   10  C   UNK N   1      34.767  15.837   9.861  0.00  0.00     0.088 C 
BRANCH  10  11
HETATM   11  C   UNK N   1      34.866  14.515  10.513  0.00  0.00     0.283 C 
HETATM   12  O   UNK N   1      35.289  13.542   9.901  0.00  0.00    -0.260 OA
BRANCH  11  13
HETATM   13  O   UNK N   1      34.531  14.407  11.816  0.00  0.00    -0.319 OA
BRANCH  13  14
HETATM   14  C   UNK N   1      35.142  13.507  12.656  0.00  0.00     0.174 C 
HETATM   15  C   UNK N   1      36.131  14.234  13.538  0.00  0.00     0.034 C 
ENDBRANCH  13  14
ENDBRANCH  11  13
ENDBRANCH  10  11
ENDBRANCH   7   8
ENDBRANCH   5   6
ENDBRANCH   2   3
BRANCH   1  16
HETATM   16  C   UNK N   1      29.688  17.204   5.481  0.00  0.00    -0.024 A 
HETATM   17  C   UNK N   1      29.222  17.937   6.594  0.00  0.00    -0.043 A 
HETATM   18  C   UNK N   1      28.020  18.668   6.508  0.00  0.00    -0.022 A 
HETATM   19  C   UNK N   1      29.999  17.933   7.879  0.00  0.00     0.049 C 
HETATM   20  C   UNK N   1      27.279  18.671   5.315  0.00  0.00     0.075 A 
HETATM   21  C   UNK N   1      27.513  19.437   7.688  0.00  0.00     0.052 C 
HETATM   22  C   UNK N   1      27.751  17.959   4.211  0.00  0.00     0.044 A 
HETATM   23  C   UNK N   1      28.932  17.234   4.270  0.00  0.00    -0.049 A 
HETATM   24  C   UNK N   1      29.331  16.515   3.022  0.00  0.00     0.049 C 
BRANCH  20  25
HETATM   25  O   UNK N   1      26.113  19.360   5.248  0.00  0.00    -0.355 OA
HETATM   26  C   UNK N   1      25.001  18.894   4.582  0.00  0.00     0.210 C 
ENDBRANCH  20  25
ENDBRANCH   1  16
TORSDOF 8
ENDMDL
MODEL 7
REMARK VINA RESULT:      -6.6      3.540     10.148
REMARK  8 active torsions:
REMARK  status: ('A' for Active; 'I' for Inactive)
REMARK    1  A    between atoms: O_1  and  C_8 
REMARK    2  A    between atoms: O_2  and  C_24 
REMARK    3  A    between atoms: O_2  and  C_25 
REMARK    4  A    between atoms: C_5  and  C_11 
REMARK    5  A    between atoms: C_14  and  C_15 
REMARK    6  A    between atoms: C_18  and  C_19 
REMARK    7  A    between atoms: C_20  and  C_21 
REMARK    8  A    between atoms: C_23  and  C_24 
ROOT
HETATM    1  C   UNK N   1      35.444   9.023  18.441  0.00  0.00     0.013 C 
HETATM    2  C   UNK N   1      34.320   8.337  18.584  0.00  0.00     0.007 C 
ENDROOT
BRANCH   2   3
HETATM    3  C   UNK N   1      34.134   7.150  19.421  0.00  0.00    -0.062 C 
HETATM    4  C   UNK N   1      35.247   6.189  19.680  0.00  0.00     0.048 C 
HETATM    5  C   UNK N   1      32.927   6.912  19.934  0.00  0.00     0.007 C 
BRANCH   5   6
HETATM    6  C   UNK N   1      31.787   7.837  19.716  0.00  0.00     0.001 C 
HETATM    7  C   UNK N   1      31.438   8.780  20.599  0.00  0.00     0.007 C 
BRANCH   7   8
HETATM    8  C   UNK N   1      32.010   8.883  21.953  0.00  0.00    -0.056 C 
HETATM    9  C   UNK N   1      31.798   7.781  22.955  0.00  0.00     0.048 C 
HETATM   10  C   UNK N   1      32.722   9.977  22.251  0.00  0.00     0.088 C 
BRANCH  10  11
HETATM   11  C   UNK N   1      33.436  10.214  23.523  0.00  0.00     0.283 C 
HETATM   12  O   UNK N   1      32.911  10.848  24.431  0.00  0.00    -0.260 OA
BRANCH  11  13
HETATM   13  O   UNK N   1      34.662   9.674  23.689  0.00  0.00    -0.319 OA
BRANCH  13  14
HETATM   14  C   UNK N   1      35.421   9.244  22.626  0.00  0.00     0.174 C 
HETATM   15  C   UNK N   1      35.725   7.772  22.788  0.00  0.00     0.034 C 
ENDBRANCH  13  14
ENDBRANCH  11  13
ENDBRANCH  10  11
ENDBRANCH   7   8
ENDBRANCH   5   6
ENDBRANCH   2   3
BRANCH   1  16
HETATM   16  C   UNK N   1      35.508  10.232  17.570  0.00  0.00    -0.024 A 
HETATM   17  C   UNK N   1      35.372  11.501  18.176  0.00  0.00    -0.043 A 
HETATM   18  C   UNK N   1      35.393  12.668  17.386  0.00  0.00    -0.022 A 
HETATM   19  C   UNK N   1      35.194  11.611  19.662  0.00  0.00     0.049 C 
HETATM   20  C   UNK N   1      35.549  12.578  15.994  0.00  0.00     0.075 A 
HETATM   21  C   UNK N   1      35.236  14.015  18.020  0.00  0.00     0.052 C 
HETATM   22  C   UNK N   1      35.700  11.323  15.400  0.00  0.00     0.044 A 
HETATM   23  C   UNK N   1      35.685  10.160  16.155  0.00  0.00    -0.049 A 
HETATM   24  C   UNK N   1      35.858   8.880  15.402  0.00  0.00     0.049 C 
BRANCH  20  25
HETATM   25  O   UNK N   1      35.546  13.705  15.240  0.00  0.00    -0.355 OA
HETATM   26  C   UNK N   1      35.668  13.693  13.869  0.00  0.00     0.210 C 
ENDBRANCH  20  25
ENDBRANCH   1  16
TORSDOF 8
ENDMDL
MODEL 8
REMARK VINA RESULT:      -6.6      3.099      9.529
REMARK  8 active torsions:
REMARK  status: ('A' for Active; 'I' for Inactive)
REMARK    1  A    between atoms: O_1  and  C_8 
REMARK    2  A    between atoms: O_2  and  C_24 
REMARK    3  A    between atoms: O_2  and  C_25 
REMARK    4  A    between atoms: C_5  and  C_11 
REMARK    5  A    between atoms: C_14  and  C_15 
REMARK    6  A    between atoms: C_18  and  C_19 
REMARK    7  A    between atoms: C_20  and  C_21 
REMARK    8  A    between atoms: C_23  and  C_24 
ROOT
HETATM    1  C   UNK N   1      35.327  10.813  18.720  0.00  0.00     0.013 C 
HETATM    2  C   UNK N   1      36.508  10.320  19.063  0.00  0.00     0.007 C 
ENDROOT
BRANCH   2   3
HETATM    3  C   UNK N   1      36.832   9.661  20.330  0.00  0.00    -0.062 C 
HETATM    4  C   UNK N   1      37.288  10.434  21.523  0.00  0.00     0.048 C 
HETATM    5  C   UNK N   1      36.748   8.333  20.400  0.00  0.00     0.007 C 
BRANCH   5   6
HETATM    6  C   UNK N   1      36.292   7.514  19.248  0.00  0.00     0.001 C 
HETATM    7  C   UNK N   1      35.019   7.136  19.084  0.00  0.00     0.007 C 
BRANCH   7   8
HETATM    8  C   UNK N   1      33.975   7.316  20.109  0.00  0.00    -0.056 C 
HETATM    9  C   UNK N   1      33.957   6.450  21.338  0.00  0.00     0.048 C 
HETATM   10  C   UNK N   1      33.060   8.273  19.908  0.00  0.00     0.088 C 
BRANCH  10  11
HETATM   11  C   UNK N   1      31.995   8.652  20.861  0.00  0.00     0.283 C 
HETATM   12  O   UNK N   1      31.039   7.912  21.061  0.00  0.00    -0.260 OA
BRANCH  11  13
HETATM   13  O   UNK N   1      32.119   9.807  21.547  0.00  0.00    -0.319 OA
BRANCH  13  14
HETATM   14  C   UNK N   1      33.346  10.344  21.858  0.00  0.00     0.174 C 
HETATM   15  C   UNK N   1      33.853   9.727  23.142  0.00  0.00     0.034 C 
ENDBRANCH  13  14
ENDBRANCH  11  13
ENDBRANCH  10  11
ENDBRANCH   7   8
ENDBRANCH   5   6
ENDBRANCH   2   3
BRANCH   1  16
HETATM   16  C   UNK N   1      35.111  11.449  17.389  0.00  0.00    -0.024 A 
HETATM   17  C   UNK N   1      34.912  10.608  16.271  0.00  0.00    -0.043 A 
HETATM   18  C   UNK N   1      34.737  11.166  14.988  0.00  0.00    -0.022 A 
HETATM   19  C   UNK N   1      34.896   9.117  16.442  0.00  0.00     0.049 C 
HETATM   20  C   UNK N   1      34.760  12.559  14.813  0.00  0.00     0.075 A 
HETATM   21  C   UNK N   1      34.539  10.281  13.798  0.00  0.00     0.052 C 
HETATM   22  C   UNK N   1      34.940  13.387  15.923  0.00  0.00     0.044 A 
HETATM   23  C   UNK N   1      35.112  12.863  17.196  0.00  0.00    -0.049 A 
HETATM   24  C   UNK N   1      35.294  13.853  18.300  0.00  0.00     0.049 C 
BRANCH  20  25
HETATM   25  O   UNK N   1      34.613  13.085  13.573  0.00  0.00    -0.355 OA
HETATM   26  C   UNK N   1      35.596  13.814  12.942  0.00  0.00     0.210 C 
ENDBRANCH  20  25
ENDBRANCH   1  16
TORSDOF 8
ENDMDL
MODEL 9
REMARK VINA RESULT:      -6.5      3.254      9.978
REMARK  8 active torsions:
REMARK  status: ('A' for Active; 'I' for Inactive)
REMARK    1  A    between atoms: O_1  and  C_8 
REMARK    2  A    between atoms: O_2  and  C_24 
REMARK    3  A    between atoms: O_2  and  C_25 
REMARK    4  A    between atoms: C_5  and  C_11 
REMARK    5  A    between atoms: C_14  and  C_15 
REMARK    6  A    between atoms: C_18  and  C_19 
REMARK    7  A    between atoms: C_20  and  C_21 
REMARK    8  A    between atoms: C_23  and  C_24 
ROOT
HETATM    1  C   UNK N   1      35.693  10.629  19.032  0.00  0.00     0.013 C 
HETATM    2  C   UNK N   1      34.792  10.460  19.988  0.00  0.00     0.007 C 
ENDROOT
BRANCH   2   3
HETATM    3  C   UNK N   1      35.048   9.940  21.332  0.00  0.00    -0.062 C 
HETATM    4  C   UNK N   1      36.408   9.490  21.755  0.00  0.00     0.048 C 
HETATM    5  C   UNK N   1      34.028   9.836  22.183  0.00  0.00     0.007 C 
BRANCH   5   6
HETATM    6  C   UNK N   1      32.657  10.275  21.819  0.00  0.00     0.001 C 
HETATM    7  C   UNK N   1      31.710   9.428  21.401  0.00  0.00     0.007 C 
BRANCH   7   8
HETATM    8  C   UNK N   1      31.966   8.015  21.069  0.00  0.00    -0.056 C 
HETATM    9  C   UNK N   1      31.829   6.950  22.121  0.00  0.00     0.048 C 
HETATM   10  C   UNK N   1      32.314   7.721  19.810  0.00  0.00     0.088 C 
BRANCH  10  11
HETATM   11  C   UNK N   1      32.528   6.359  19.278  0.00  0.00     0.283 C 
HETATM   12  O   UNK N   1      31.579   5.621  19.038  0.00  0.00    -0.260 OA
BRANCH  11  13
HETATM   13  O   UNK N   1      33.788   5.957  19.010  0.00  0.00    -0.319 OA
BRANCH  13  14
HETATM   14  C   UNK N   1      34.764   5.921  19.977  0.00  0.00     0.174 C 
HETATM   15  C   UNK N   1      34.579   4.689  20.832  0.00  0.00     0.034 C 
ENDBRANCH  13  14
ENDBRANCH  11  13
ENDBRANCH  10  11
ENDBRANCH   7   8
ENDBRANCH   5   6
ENDBRANCH   2   3
BRANCH   1  16
HETATM   16  C   UNK N   1      35.315  11.187  17.701  0.00  0.00    -0.024 A 
HETATM   17  C   UNK N   1      35.172  10.292  16.617  0.00  0.00    -0.043 A 
HETATM   18  C   UNK N   1      34.849  10.780  15.335  0.00  0.00    -0.022 A 
HETATM   19  C   UNK N   1      35.375   8.820  16.823  0.00  0.00     0.049 C 
HETATM   20  C   UNK N   1      34.667  12.157  15.127  0.00  0.00     0.075 A 
HETATM   21  C   UNK N   1      34.709   9.839  14.179  0.00  0.00     0.052 C 
HETATM   22  C   UNK N   1      34.793  13.036  16.204  0.00  0.00     0.044 A 
HETATM   23  C   UNK N   1      35.108  12.582  17.476  0.00  0.00    -0.049 A 
HETATM   24  C   UNK N   1      35.212  13.622  18.543  0.00  0.00     0.049 C 
BRANCH  20  25
HETATM   25  O   UNK N   1      34.377  12.619  13.885  0.00  0.00    -0.355 OA
HETATM   26  C   UNK N   1      35.261  13.358  13.132  0.00  0.00     0.210 C 
ENDBRANCH  20  25
ENDBRANCH   1  16
TORSDOF 8
ENDMDL
