MODEL 1
REMARK VINA RESULT:      -7.1      0.000      0.000
REMARK  2 active torsions:
REMARK  status: ('A' for Active; 'I' for Inactive)
REMARK    1  A    between atoms: N_2  and  C_14 
REMARK    2  A    between atoms: C_14  and  C_18 
ROOT
HETATM    1  O   UNK N   1      34.192  17.908   6.100  0.00  0.00    -0.267 OA
HETATM    2  N   UNK N   1      33.349  17.629   8.181  0.00  0.00    -0.342 N 
HETATM    3  N   UNK N   1      29.717  16.963   6.264  0.00  0.00    -0.353 N 
HETATM    4  C   UNK N   1      30.797  17.286   7.008  0.00  0.00     0.029 A 
HETATM    5  C   UNK N   1      30.844  17.526   8.477  0.00  0.00     0.078 C 
HETATM    6  C   UNK N   1      31.918  17.372   6.221  0.00  0.00     0.067 A 
HETATM    7  C   UNK N   1      32.241  17.138   9.002  0.00  0.00     0.132 C 
HETATM    8  C   UNK N   1      31.510  17.090   4.931  0.00  0.00     0.008 A 
HETATM    9  C   UNK N   1      30.157  16.835   4.996  0.00  0.00     0.045 A 
HETATM   10  C   UNK N   1      33.229  17.671   6.813  0.00  0.00     0.257 C 
HETATM   11  C   UNK N   1      28.358  16.771   6.745  0.00  0.00     0.156 C 
HETATM   12  C   UNK N   1      32.216  16.999   3.735  0.00  0.00     0.015 A 
HETATM   13  C   UNK N   1      29.421  16.478   3.869  0.00  0.00     0.030 A 
HETATM   14  C   UNK N   1      31.497  16.639   2.578  0.00  0.00     0.001 A 
HETATM   15  C   UNK N   1      30.108  16.379   2.645  0.00  0.00     0.002 A 
ENDROOT
BRANCH   2  16
HETATM   16  C   UNK N   1      34.655  17.740   8.798  0.00  0.00     0.185 C 
BRANCH  16  17
HETATM   17  C   UNK N   1      35.042  16.620   9.734  0.00  0.00     0.050 A 
HETATM   18  N   UNK N   1      35.164  16.830  11.056  0.00  0.00    -0.353 N 
HETATM   19  C   UNK N   1      35.576  15.654  11.576  0.00  0.00     0.180 A 
ATOM     20  HN  UNK N   1      34.982  17.696  11.561  1.00  0.00     0.166 HD
HETATM   21  N   UNK N   1      35.723  14.707  10.624  0.00  0.00    -0.354 N 
HETATM   22  C   UNK N   1      35.393  15.308   9.471  0.00  0.00     0.030 A 
HETATM   23  H   UNK N   1      36.012  13.775  10.750  0.00  0.00     0.166 HD
HETATM   24  C   UNK N   1      35.443  14.600   8.165  0.00  0.00     0.070 C 
ENDBRANCH  16  17
ENDBRANCH   2  16
TORSDOF 2
ENDMDL
MODEL 2
REMARK VINA RESULT:      -7.0      6.573     10.978
REMARK  2 active torsions:
REMARK  status: ('A' for Active; 'I' for Inactive)
REMARK    1  A    between atoms: N_2  and  C_14 
REMARK    2  A    between atoms: C_14  and  C_18 
ROOT
HETATM    1  O   UNK N   1      35.461  13.978  14.186  0.00  0.00    -0.267 OA
HETATM    2  N   UNK N   1      35.127  12.126  12.931  0.00  0.00    -0.342 N 
HETATM    3  N   UNK N   1      35.433  10.041  16.518  0.00  0.00    -0.353 N 
HETATM    4  C   UNK N   1      35.445  10.582  15.280  0.00  0.00     0.029 A 
HETATM    5  C   UNK N   1      35.503   9.860  13.979  0.00  0.00     0.078 C 
HETATM    6  C   UNK N   1      35.388  11.951  15.351  0.00  0.00     0.067 A 
HETATM    7  C   UNK N   1      34.783  10.703  12.908  0.00  0.00     0.132 C 
HETATM    8  C   UNK N   1      35.342  12.270  16.695  0.00  0.00     0.008 A 
HETATM    9  C   UNK N   1      35.362  11.074  17.380  0.00  0.00     0.045 A 
HETATM   10  C   UNK N   1      35.346  12.764  14.128  0.00  0.00     0.257 C 
HETATM   11  C   UNK N   1      35.469   8.624  16.846  0.00  0.00     0.156 C 
HETATM   12  C   UNK N   1      35.245  13.491  17.355  0.00  0.00     0.015 A 
HETATM   13  C   UNK N   1      35.291  11.023  18.771  0.00  0.00     0.030 A 
HETATM   14  C   UNK N   1      35.171  13.470  18.762  0.00  0.00     0.001 A 
HETATM   15  C   UNK N   1      35.193  12.242  19.465  0.00  0.00     0.002 A 
ENDROOT
BRANCH   2  16
HETATM   16  C   UNK N   1      34.900  12.901  11.727  0.00  0.00     0.185 C 
BRANCH  16  17
HETATM   17  C   UNK N   1      36.133  13.448  11.051  0.00  0.00     0.050 A 
HETATM   18  N   UNK N   1      37.131  12.636  10.661  0.00  0.00    -0.353 N 
HETATM   19  C   UNK N   1      38.087  13.447  10.159  0.00  0.00     0.180 A 
ATOM     20  HN  UNK N   1      37.159  11.619  10.728  1.00  0.00     0.166 HD
HETATM   21  N   UNK N   1      37.729  14.747  10.224  0.00  0.00    -0.354 N 
HETATM   22  C   UNK N   1      36.510  14.753  10.783  0.00  0.00     0.030 A 
HETATM   23  H   UNK N   1      38.252  15.525   9.925  0.00  0.00     0.166 HD
HETATM   24  C   UNK N   1      35.764  16.011  11.049  0.00  0.00     0.070 C 
ENDBRANCH  16  17
ENDBRANCH   2  16
TORSDOF 2
ENDMDL
MODEL 3
REMARK VINA RESULT:      -6.8      2.279      7.678
REMARK  2 active torsions:
REMARK  status: ('A' for Active; 'I' for Inactive)
REMARK    1  A    between atoms: N_2  and  C_14 
REMARK    2  A    between atoms: C_14  and  C_18 
ROOT
HETATM    1  O   UNK N   1      35.297  17.164  10.935  0.00  0.00    -0.267 OA
HETATM    2  N   UNK N   1      34.979  16.425   8.821  0.00  0.00    -0.342 N 
HETATM    3  N   UNK N   1      36.651  12.861  10.165  0.00  0.00    -0.353 N 
HETATM    4  C   UNK N   1      36.217  13.996   9.574  0.00  0.00     0.029 A 
HETATM    5  C   UNK N   1      36.046  14.248   8.117  0.00  0.00     0.078 C 
HETATM    6  C   UNK N   1      35.929  14.950  10.517  0.00  0.00     0.067 A 
HETATM    7  C   UNK N   1      34.913  15.275   7.918  0.00  0.00     0.132 C 
HETATM    8  C   UNK N   1      36.198  14.379  11.746  0.00  0.00     0.008 A 
HETATM    9  C   UNK N   1      36.630  13.094  11.492  0.00  0.00     0.045 A 
HETATM   10  C   UNK N   1      35.398  16.262  10.118  0.00  0.00     0.257 C 
HETATM   11  C   UNK N   1      37.039  11.629   9.496  0.00  0.00     0.156 C 
HETATM   12  C   UNK N   1      36.063  14.863  13.043  0.00  0.00     0.015 A 
HETATM   13  C   UNK N   1      36.959  12.213  12.520  0.00  0.00     0.030 A 
HETATM   14  C   UNK N   1      36.387  13.993  14.103  0.00  0.00     0.001 A 
HETATM   15  C   UNK N   1      36.831  12.675  13.842  0.00  0.00     0.002 A 
ENDROOT
BRANCH   2  16
HETATM   16  C   UNK N   1      34.286  17.637   8.430  0.00  0.00     0.185 C 
BRANCH  16  17
HETATM   17  C   UNK N   1      32.833  17.477   8.055  0.00  0.00     0.050 A 
HETATM   18  N   UNK N   1      31.880  17.372   8.997  0.00  0.00    -0.353 N 
HETATM   19  C   UNK N   1      30.724  17.180   8.327  0.00  0.00     0.180 A 
ATOM     20  HN  UNK N   1      32.004  17.428  10.008  1.00  0.00     0.166 HD
HETATM   21  N   UNK N   1      30.915  17.155   6.990  0.00  0.00    -0.354 N 
HETATM   22  C   UNK N   1      32.233  17.337   6.817  0.00  0.00     0.030 A 
HETATM   23  H   UNK N   1      30.233  17.029   6.293  0.00  0.00     0.166 HD
HETATM   24  C   UNK N   1      32.860  17.355   5.469  0.00  0.00     0.070 C 
ENDBRANCH  16  17
ENDBRANCH   2  16
TORSDOF 2
ENDMDL
MODEL 4
REMARK VINA RESULT:      -6.6      2.669      4.051
REMARK  2 active torsions:
REMARK  status: ('A' for Active; 'I' for Inactive)
REMARK    1  A    between atoms: N_2  and  C_14 
REMARK    2  A    between atoms: C_14  and  C_18 
ROOT
HETATM    1  O   UNK N   1      29.210  18.662   8.444  0.00  0.00    -0.267 OA
HETATM    2  N   UNK N   1      30.257  16.797   7.709  0.00  0.00    -0.342 N 
HETATM    3  N   UNK N   1      27.910  17.219   4.301  0.00  0.00    -0.353 N 
HETATM    4  C   UNK N   1      28.630  16.897   5.398  0.00  0.00     0.029 A 
HETATM    5  C   UNK N   1      29.370  15.631   5.654  0.00  0.00     0.078 C 
HETATM    6  C   UNK N   1      28.609  17.924   6.307  0.00  0.00     0.067 A 
HETATM    7  C   UNK N   1      30.572  15.932   6.571  0.00  0.00     0.132 C 
HETATM    8  C   UNK N   1      27.840  18.926   5.746  0.00  0.00     0.008 A 
HETATM    9  C   UNK N   1      27.436  18.462   4.512  0.00  0.00     0.045 A 
HETATM   10  C   UNK N   1      29.358  17.825   7.567  0.00  0.00     0.257 C 
HETATM   11  C   UNK N   1      27.710  16.392   3.121  0.00  0.00     0.156 C 
HETATM   12  C   UNK N   1      27.504  20.199   6.196  0.00  0.00     0.015 A 
HETATM   13  C   UNK N   1      26.665  19.241   3.651  0.00  0.00     0.030 A 
HETATM   14  C   UNK N   1      26.725  21.009   5.346  0.00  0.00     0.001 A 
HETATM   15  C   UNK N   1      26.310  20.533   4.080  0.00  0.00     0.002 A 
ENDROOT
BRANCH   2  16
HETATM   16  C   UNK N   1      31.144  16.762   8.856  0.00  0.00     0.185 C 
BRANCH  16  17
HETATM   17  C   UNK N   1      32.604  17.016   8.570  0.00  0.00     0.050 A 
HETATM   18  N   UNK N   1      33.028  18.213   8.128  0.00  0.00    -0.353 N 
HETATM   19  C   UNK N   1      34.355  18.076   7.919  0.00  0.00     0.180 A 
ATOM     20  HN  UNK N   1      32.465  19.051   7.982  1.00  0.00     0.166 HD
HETATM   21  N   UNK N   1      34.784  16.829   8.210  0.00  0.00    -0.354 N 
HETATM   22  C   UNK N   1      33.692  16.163   8.614  0.00  0.00     0.030 A 
HETATM   23  H   UNK N   1      35.702  16.483   8.139  0.00  0.00     0.166 HD
HETATM   24  C   UNK N   1      33.738  14.732   9.013  0.00  0.00     0.070 C 
ENDBRANCH  16  17
ENDBRANCH   2  16
TORSDOF 2
ENDMDL
MODEL 5
REMARK VINA RESULT:      -6.6     13.938     16.802
REMARK  2 active torsions:
REMARK  status: ('A' for Active; 'I' for Inactive)
REMARK    1  A    between atoms: N_2  and  C_14 
REMARK    2  A    between atoms: C_14  and  C_18 
ROOT
HETATM    1  O   UNK N   1      25.406  24.591  -6.499  0.00  0.00    -0.267 OA
HETATM    2  N   UNK N   1      26.554  25.746  -4.929  0.00  0.00    -0.342 N 
HETATM    3  N   UNK N   1      29.346  22.671  -5.182  0.00  0.00    -0.353 N 
HETATM    4  C   UNK N   1      28.462  23.657  -4.911  0.00  0.00     0.029 A 
HETATM    5  C   UNK N   1      28.514  24.634  -3.790  0.00  0.00     0.078 C 
HETATM    6  C   UNK N   1      27.451  23.666  -5.839  0.00  0.00     0.067 A 
HETATM    7  C   UNK N   1      27.828  25.942  -4.234  0.00  0.00     0.132 C 
HETATM    8  C   UNK N   1      27.722  22.638  -6.722  0.00  0.00     0.008 A 
HETATM    9  C   UNK N   1      28.896  22.056  -6.293  0.00  0.00     0.045 A 
HETATM   10  C   UNK N   1      26.388  24.679  -5.779  0.00  0.00     0.257 C 
HETATM   11  C   UNK N   1      30.551  22.357  -4.431  0.00  0.00     0.156 C 
HETATM   12  C   UNK N   1      27.064  22.203  -7.868  0.00  0.00     0.015 A 
HETATM   13  C   UNK N   1      29.485  20.997  -6.982  0.00  0.00     0.030 A 
HETATM   14  C   UNK N   1      27.638  21.134  -8.585  0.00  0.00     0.001 A 
HETATM   15  C   UNK N   1      28.841  20.536  -8.145  0.00  0.00     0.002 A 
ENDROOT
BRANCH   2  16
HETATM   16  C   UNK N   1      25.622  26.855  -4.967  0.00  0.00     0.185 C 
BRANCH  16  17
HETATM   17  C   UNK N   1      26.193  28.210  -4.626  0.00  0.00     0.050 A 
HETATM   18  N   UNK N   1      25.821  28.861  -3.511  0.00  0.00    -0.353 N 
HETATM   19  C   UNK N   1      26.464  30.048  -3.549  0.00  0.00     0.180 A 
ATOM     20  HN  UNK N   1      25.186  28.528  -2.786  1.00  0.00     0.166 HD
HETATM   21  N   UNK N   1      27.228  30.171  -4.655  0.00  0.00    -0.354 N 
HETATM   22  C   UNK N   1      27.060  29.026  -5.333  0.00  0.00     0.030 A 
HETATM   23  H   UNK N   1      27.788  30.939  -4.910  0.00  0.00     0.166 HD
HETATM   24  C   UNK N   1      27.727  28.770  -6.636  0.00  0.00     0.070 C 
ENDBRANCH  16  17
ENDBRANCH   2  16
TORSDOF 2
ENDMDL
MODEL 6
REMARK VINA RESULT:      -6.6      5.230     10.553
REMARK  2 active torsions:
REMARK  status: ('A' for Active; 'I' for Inactive)
REMARK    1  A    between atoms: N_2  and  C_14 
REMARK    2  A    between atoms: C_14  and  C_18 
ROOT
HETATM    1  O   UNK N   1      36.558  14.567  13.772  0.00  0.00    -0.267 OA
HETATM    2  N   UNK N   1      36.576  12.797  12.365  0.00  0.00    -0.342 N 
HETATM    3  N   UNK N   1      36.123  10.485  15.793  0.00  0.00    -0.353 N 
HETATM    4  C   UNK N   1      36.399  11.107  14.626  0.00  0.00     0.029 A 
HETATM    5  C   UNK N   1      36.774  10.473  13.332  0.00  0.00     0.078 C 
HETATM    6  C   UNK N   1      36.285  12.467  14.765  0.00  0.00     0.067 A 
HETATM    7  C   UNK N   1      36.291  11.373  12.177  0.00  0.00     0.132 C 
HETATM    8  C   UNK N   1      35.924  12.696  16.080  0.00  0.00     0.008 A 
HETATM    9  C   UNK N   1      35.825  11.457  16.678  0.00  0.00     0.045 A 
HETATM   10  C   UNK N   1      36.497  13.358  13.616  0.00  0.00     0.257 C 
HETATM   11  C   UNK N   1      36.127   9.050  16.034  0.00  0.00     0.156 C 
HETATM   12  C   UNK N   1      35.641  13.869  16.772  0.00  0.00     0.015 A 
HETATM   13  C   UNK N   1      35.441  11.313  18.009  0.00  0.00     0.030 A 
HETATM   14  C   UNK N   1      35.249  13.753  18.121  0.00  0.00     0.001 A 
HETATM   15  C   UNK N   1      35.149  12.483  18.735  0.00  0.00     0.002 A 
ENDROOT
BRANCH   2  16
HETATM   16  C   UNK N   1      36.605  13.645  11.190  0.00  0.00     0.185 C 
BRANCH  16  17
HETATM   17  C   UNK N   1      35.269  14.162  10.715  0.00  0.00     0.050 A 
HETATM   18  N   UNK N   1      34.338  13.329  10.217  0.00  0.00    -0.353 N 
HETATM   19  C   UNK N   1      33.309  14.116   9.837  0.00  0.00     0.180 A 
ATOM     20  HN  UNK N   1      34.396  12.314  10.145  1.00  0.00     0.166 HD
HETATM   21  N   UNK N   1      33.561  15.422  10.073  0.00  0.00    -0.354 N 
HETATM   22  C   UNK N   1      34.785  15.455  10.619  0.00  0.00     0.030 A 
HETATM   23  H   UNK N   1      32.971  16.186   9.883  0.00  0.00     0.166 HD
HETATM   24  C   UNK N   1      35.444  16.728  11.012  0.00  0.00     0.070 C 
ENDBRANCH  16  17
ENDBRANCH   2  16
TORSDOF 2
ENDMDL
MODEL 7
REMARK VINA RESULT:      -6.5      1.309      2.722
REMARK  2 active torsions:
REMARK  status: ('A' for Active; 'I' for Inactive)
REMARK    1  A    between atoms: N_2  and  C_14 
REMARK    2  A    between atoms: C_14  and  C_18 
ROOT
HETATM    1  O   UNK N   1      31.707  17.625   8.735  0.00  0.00    -0.267 OA
HETATM    2  N   UNK N   1      33.457  17.490   7.308  0.00  0.00    -0.342 N 
HETATM    3  N   UNK N   1      30.600  16.650   4.403  0.00  0.00    -0.353 N 
HETATM    4  C   UNK N   1      31.629  16.782   5.269  0.00  0.00     0.029 A 
HETATM    5  C   UNK N   1      33.074  16.551   4.996  0.00  0.00     0.078 C 
HETATM    6  C   UNK N   1      31.174  17.180   6.501  0.00  0.00     0.067 A 
HETATM    7  C   UNK N   1      33.908  17.466   5.916  0.00  0.00     0.132 C 
HETATM    8  C   UNK N   1      29.802  17.297   6.392  0.00  0.00     0.008 A 
HETATM    9  C   UNK N   1      29.486  16.974   5.089  0.00  0.00     0.045 A 
HETATM   10  C   UNK N   1      32.116  17.431   7.601  0.00  0.00     0.257 C 
HETATM   11  C   UNK N   1      30.687  16.258   3.005  0.00  0.00     0.156 C 
HETATM   12  C   UNK N   1      28.830  17.694   7.305  0.00  0.00     0.015 A 
HETATM   13  C   UNK N   1      28.176  17.022   4.618  0.00  0.00     0.030 A 
HETATM   14  C   UNK N   1      27.496  17.752   6.855  0.00  0.00     0.001 A 
HETATM   15  C   UNK N   1      27.171  17.419   5.519  0.00  0.00     0.002 A 
ENDROOT
BRANCH   2  16
HETATM   16  C   UNK N   1      34.402  17.911   8.323  0.00  0.00     0.185 C 
BRANCH  16  17
HETATM   17  C   UNK N   1      34.819  16.855   9.317  0.00  0.00     0.050 A 
HETATM   18  N   UNK N   1      34.943  17.141  10.625  0.00  0.00    -0.353 N 
HETATM   19  C   UNK N   1      35.385  16.006  11.207  0.00  0.00     0.180 A 
ATOM     20  HN  UNK N   1      34.743  18.030  11.082  1.00  0.00     0.166 HD
HETATM   21  N   UNK N   1      35.550  15.011  10.309  0.00  0.00    -0.354 N 
HETATM   22  C   UNK N   1      35.200  15.538   9.126  0.00  0.00     0.030 A 
HETATM   23  H   UNK N   1      35.861  14.094  10.485  0.00  0.00     0.166 HD
HETATM   24  C   UNK N   1      35.260  14.759   7.861  0.00  0.00     0.070 C 
ENDBRANCH  16  17
ENDBRANCH   2  16
TORSDOF 2
ENDMDL
MODEL 8
REMARK VINA RESULT:      -6.4     12.983     16.527
REMARK  2 active torsions:
REMARK  status: ('A' for Active; 'I' for Inactive)
REMARK    1  A    between atoms: N_2  and  C_14 
REMARK    2  A    between atoms: C_14  and  C_18 
ROOT
HETATM    1  O   UNK N   1      27.671  26.117  -3.582  0.00  0.00    -0.267 OA
HETATM    2  N   UNK N   1      26.362  25.826  -5.404  0.00  0.00    -0.342 N 
HETATM    3  N   UNK N   1      28.779  22.537  -6.208  0.00  0.00    -0.353 N 
HETATM    4  C   UNK N   1      28.009  23.645  -6.132  0.00  0.00     0.029 A 
HETATM    5  C   UNK N   1      27.084  24.174  -7.171  0.00  0.00     0.078 C 
HETATM    6  C   UNK N   1      28.175  24.266  -4.920  0.00  0.00     0.067 A 
HETATM    7  C   UNK N   1      25.932  24.928  -6.477  0.00  0.00     0.132 C 
HETATM    8  C   UNK N   1      29.091  23.508  -4.215  0.00  0.00     0.008 A 
HETATM    9  C   UNK N   1      29.433  22.451  -5.032  0.00  0.00     0.045 A 
HETATM   10  C   UNK N   1      27.407  25.473  -4.585  0.00  0.00     0.257 C 
HETATM   11  C   UNK N   1      28.863  21.614  -7.329  0.00  0.00     0.156 C 
HETATM   12  C   UNK N   1      29.611  23.640  -2.932  0.00  0.00     0.015 A 
HETATM   13  C   UNK N   1      30.320  21.460  -4.619  0.00  0.00     0.030 A 
HETATM   14  C   UNK N   1      30.510  22.651  -2.486  0.00  0.00     0.001 A 
HETATM   15  C   UNK N   1      30.862  21.567  -3.325  0.00  0.00     0.002 A 
ENDROOT
BRANCH   2  16
HETATM   16  C   UNK N   1      25.469  26.900  -5.017  0.00  0.00     0.185 C 
BRANCH  16  17
HETATM   17  C   UNK N   1      26.127  28.209  -4.655  0.00  0.00     0.050 A 
HETATM   18  N   UNK N   1      25.805  28.861  -3.524  0.00  0.00    -0.353 N 
HETATM   19  C   UNK N   1      26.522  30.005  -3.544  0.00  0.00     0.180 A 
ATOM     20  HN  UNK N   1      25.155  28.554  -2.801  1.00  0.00     0.166 HD
HETATM   21  N   UNK N   1      27.285  30.101  -4.654  0.00  0.00    -0.354 N 
HETATM   22  C   UNK N   1      27.039  28.982  -5.352  0.00  0.00     0.030 A 
HETATM   23  H   UNK N   1      27.891  30.836  -4.899  0.00  0.00     0.166 HD
HETATM   24  C   UNK N   1      27.679  28.710  -6.666  0.00  0.00     0.070 C 
ENDBRANCH  16  17
ENDBRANCH   2  16
TORSDOF 2
ENDMDL
MODEL 9
REMARK VINA RESULT:      -6.4      3.416      7.879
REMARK  2 active torsions:
REMARK  status: ('A' for Active; 'I' for Inactive)
REMARK    1  A    between atoms: N_2  and  C_14 
REMARK    2  A    between atoms: C_14  and  C_18 
ROOT
HETATM    1  O   UNK N   1      29.192  16.734   3.193  0.00  0.00    -0.267 OA
HETATM    2  N   UNK N   1      27.437  17.031   4.588  0.00  0.00    -0.342 N 
HETATM    3  N   UNK N   1      30.286  17.152   7.617  0.00  0.00    -0.353 N 
HETATM    4  C   UNK N   1      29.260  17.002   6.750  0.00  0.00     0.029 A 
HETATM    5  C   UNK N   1      27.815  16.855   7.078  0.00  0.00     0.078 C 
HETATM    6  C   UNK N   1      29.717  17.004   5.457  0.00  0.00     0.067 A 
HETATM    7  C   UNK N   1      26.979  17.434   5.919  0.00  0.00     0.132 C 
HETATM    8  C   UNK N   1      31.088  17.161   5.527  0.00  0.00     0.008 A 
HETATM    9  C   UNK N   1      31.401  17.257   6.867  0.00  0.00     0.045 A 
HETATM   10  C   UNK N   1      28.779  16.896   4.331  0.00  0.00     0.257 C 
HETATM   11  C   UNK N   1      30.195  17.210   9.067  0.00  0.00     0.156 C 
HETATM   12  C   UNK N   1      32.061  17.264   4.539  0.00  0.00     0.015 A 
HETATM   13  C   UNK N   1      32.709  17.459   7.303  0.00  0.00     0.030 A 
HETATM   14  C   UNK N   1      33.393  17.470   4.951  0.00  0.00     0.001 A 
HETATM   15  C   UNK N   1      33.714  17.568   6.325  0.00  0.00     0.002 A 
ENDROOT
BRANCH   2  16
HETATM   16  C   UNK N   1      26.492  17.111   3.492  0.00  0.00     0.185 C 
BRANCH  16  17
HETATM   17  C   UNK N   1      25.370  18.106   3.657  0.00  0.00     0.050 A 
HETATM   18  N   UNK N   1      24.103  17.700   3.850  0.00  0.00    -0.353 N 
HETATM   19  C   UNK N   1      23.361  18.827   3.893  0.00  0.00     0.180 A 
ATOM     20  HN  UNK N   1      23.772  16.741   3.946  1.00  0.00     0.166 HD
HETATM   21  N   UNK N   1      24.116  19.934   3.728  0.00  0.00    -0.354 N 
HETATM   22  C   UNK N   1      25.372  19.488   3.578  0.00  0.00     0.030 A 
HETATM   23  H   UNK N   1      23.810  20.869   3.720  0.00  0.00     0.166 HD
HETATM   24  C   UNK N   1      26.518  20.406   3.350  0.00  0.00     0.070 C 
ENDBRANCH  16  17
ENDBRANCH   2  16
TORSDOF 2
ENDMDL
