MODEL 1
REMARK VINA RESULT:      -5.4      0.000      0.000
REMARK  8 active torsions:
REMARK  status: ('A' for Active; 'I' for Inactive)
REMARK    1  A    between atoms: N_2  and  C_9 
REMARK    2  A    between atoms: N_2  and  C_11 
REMARK    3  A    between atoms: N_2  and  C_12 
REMARK    4  A    between atoms: N_3  and  C_8 
REMARK    5  A    between atoms: N_3  and  C_13 
REMARK    6  A    between atoms: C_6  and  C_7 
REMARK    7  A    between atoms: C_6  and  C_8 
REMARK    8  A    between atoms: C_7  and  C_9 
ROOT
HETATM    1 Cl   UNK N   1      30.045  29.903  -8.728  0.00  0.00    -0.084 Cl
HETATM    2  N   UNK N   1      27.176  29.563  -4.508  0.00  0.00    -0.365 N 
ATOM      3  HN  UNK N   1      27.605  30.440  -4.211  1.00  0.00     0.165 HD
HETATM    4  C   UNK N   1      26.010  27.182  -5.308  0.00  0.00     0.042 A 
HETATM    5  C   UNK N   1      26.968  27.797  -6.123  0.00  0.00     0.017 A 
HETATM    6  C   UNK N   1      25.642  27.779  -4.100  0.00  0.00     0.047 A 
HETATM    7  C   UNK N   1      27.546  29.013  -5.694  0.00  0.00     0.046 A 
HETATM    8  C   UNK N   1      27.337  27.249  -7.359  0.00  0.00     0.018 A 
HETATM    9  C   UNK N   1      26.247  28.972  -3.708  0.00  0.00     0.090 A 
HETATM   10  C   UNK N   1      28.487  29.656  -6.502  0.00  0.00     0.054 A 
HETATM   11  C   UNK N   1      28.281  27.900  -8.158  0.00  0.00     0.025 A 
HETATM   12  C   UNK N   1      28.855  29.100  -7.729  0.00  0.00     0.036 A 
ENDROOT
BRANCH   4  13
HETATM   13  N   UNK N   1      25.336  26.025  -5.745  0.00  0.00    -0.385 N 
HETATM   14  H   UNK N   1      24.433  26.072  -6.133  0.00  0.00     0.160 HD
BRANCH  13  15
HETATM   15  C   UNK N   1      26.024  24.775  -5.600  0.00  0.00     0.077 C 
HETATM   16  C   UNK N   1      25.772  23.791  -6.730  0.00  0.00     0.032 C 
BRANCH  15  17
HETATM   17  C   UNK N   1      26.103  24.299  -4.151  0.00  0.00     0.026 C 
BRANCH  17  18
HETATM   18  C   UNK N   1      27.457  24.484  -3.494  0.00  0.00     0.032 C 
BRANCH  18  19
HETATM   19  C   UNK N   1      28.583  23.707  -4.188  0.00  0.00     0.272 C 
BRANCH  19  20
HETATM   20  N   UNK N   1      29.874  24.403  -4.087  0.00  0.00     0.087 N 
BRANCH  20  21
HETATM   21  C   UNK N   1      30.607  23.903  -2.916  0.00  0.00     0.268 C 
HETATM   22  C   UNK N   1      30.480  22.396  -2.805  0.00  0.00     0.037 C 
ENDBRANCH  20  21
BRANCH  20  23
HETATM   23  C   UNK N   1      29.576  25.842  -4.036  0.00  0.00     0.268 C 
HETATM   24  C   UNK N   1      30.701  26.730  -3.517  0.00  0.00     0.037 C 
ENDBRANCH  20  23
ENDBRANCH  19  20
ENDBRANCH  18  19
ENDBRANCH  17  18
ENDBRANCH  15  17
ENDBRANCH  13  15
ENDBRANCH   4  13
TORSDOF 8
ENDMDL
MODEL 2
REMARK VINA RESULT:      -5.3     18.498     23.087
REMARK  8 active torsions:
REMARK  status: ('A' for Active; 'I' for Inactive)
REMARK    1  A    between atoms: N_2  and  C_9 
REMARK    2  A    between atoms: N_2  and  C_11 
REMARK    3  A    between atoms: N_2  and  C_12 
REMARK    4  A    between atoms: N_3  and  C_8 
REMARK    5  A    between atoms: N_3  and  C_13 
REMARK    6  A    between atoms: C_6  and  C_7 
REMARK    7  A    between atoms: C_6  and  C_8 
REMARK    8  A    between atoms: C_7  and  C_9 
ROOT
HETATM    1 Cl   UNK N   1      34.905  13.171  17.502  0.00  0.00    -0.084 Cl
HETATM    2  N   UNK N   1      33.939  10.842  13.053  0.00  0.00    -0.365 N 
ATOM      3  HN  UNK N   1      33.216  10.318  13.545  1.00  0.00     0.165 HD
HETATM    4  C   UNK N   1      35.903  12.260  11.709  0.00  0.00     0.042 A 
HETATM    5  C   UNK N   1      35.696  12.481  13.076  0.00  0.00     0.017 A 
HETATM    6  C   UNK N   1      35.111  11.331  11.030  0.00  0.00     0.047 A 
HETATM    7  C   UNK N   1      34.685  11.748  13.738  0.00  0.00     0.046 A 
HETATM    8  C   UNK N   1      36.443  13.430  13.785  0.00  0.00     0.018 A 
HETATM    9  C   UNK N   1      34.134  10.618  11.724  0.00  0.00     0.090 A 
HETATM   10  C   UNK N   1      34.445  11.968  15.096  0.00  0.00     0.054 A 
HETATM   11  C   UNK N   1      36.197  13.642  15.144  0.00  0.00     0.025 A 
HETATM   12  C   UNK N   1      35.201  12.911  15.798  0.00  0.00     0.036 A 
ENDROOT
BRANCH   4  13
HETATM   13  N   UNK N   1      36.828  13.041  10.990  0.00  0.00    -0.385 N 
HETATM   14  H   UNK N   1      37.799  12.921  11.102  0.00  0.00     0.160 HD
BRANCH  13  15
HETATM   15  C   UNK N   1      36.294  14.021  10.089  0.00  0.00     0.077 C 
HETATM   16  C   UNK N   1      36.603  13.754   8.625  0.00  0.00     0.032 C 
BRANCH  15  17
HETATM   17  C   UNK N   1      36.337  15.439  10.652  0.00  0.00     0.026 C 
BRANCH  17  18
HETATM   18  C   UNK N   1      34.998  16.149  10.690  0.00  0.00     0.032 C 
BRANCH  18  19
HETATM   19  C   UNK N   1      34.818  17.172   9.561  0.00  0.00     0.272 C 
BRANCH  19  20
HETATM   20  N   UNK N   1      34.089  16.605   8.417  0.00  0.00     0.087 N 
BRANCH  20  21
HETATM   21  C   UNK N   1      33.636  17.693   7.539  0.00  0.00     0.268 C 
HETATM   22  C   UNK N   1      33.764  17.295   6.082  0.00  0.00     0.037 C 
ENDBRANCH  20  21
BRANCH  20  23
HETATM   23  C   UNK N   1      32.997  15.791   8.973  0.00  0.00     0.268 C 
HETATM   24  C   UNK N   1      32.786  14.432   8.314  0.00  0.00     0.037 C 
ENDBRANCH  20  23
ENDBRANCH  19  20
ENDBRANCH  18  19
ENDBRANCH  17  18
ENDBRANCH  15  17
ENDBRANCH  13  15
ENDBRANCH   4  13
TORSDOF 8
ENDMDL
MODEL 3
REMARK VINA RESULT:      -5.2      1.897      3.653
REMARK  8 active torsions:
REMARK  status: ('A' for Active; 'I' for Inactive)
REMARK    1  A    between atoms: N_2  and  C_9 
REMARK    2  A    between atoms: N_2  and  C_11 
REMARK    3  A    between atoms: N_2  and  C_12 
REMARK    4  A    between atoms: N_3  and  C_8 
REMARK    5  A    between atoms: N_3  and  C_13 
REMARK    6  A    between atoms: C_6  and  C_7 
REMARK    7  A    between atoms: C_6  and  C_8 
REMARK    8  A    between atoms: C_7  and  C_9 
ROOT
HETATM    1 Cl   UNK N   1      25.626  25.703  -9.398  0.00  0.00    -0.084 Cl
HETATM    2  N   UNK N   1      25.273  27.363  -4.574  0.00  0.00    -0.365 N 
ATOM      3  HN  UNK N   1      24.315  27.012  -4.580  1.00  0.00     0.165 HD
HETATM    4  C   UNK N   1      27.872  28.321  -4.552  0.00  0.00     0.042 A 
HETATM    5  C   UNK N   1      27.360  27.721  -5.709  0.00  0.00     0.017 A 
HETATM    6  C   UNK N   1      27.070  28.424  -3.413  0.00  0.00     0.047 A 
HETATM    7  C   UNK N   1      26.033  27.237  -5.694  0.00  0.00     0.046 A 
HETATM    8  C   UNK N   1      28.144  27.566  -6.860  0.00  0.00     0.018 A 
HETATM    9  C   UNK N   1      25.761  27.946  -3.445  0.00  0.00     0.090 A 
HETATM   10  C   UNK N   1      25.508  26.614  -6.829  0.00  0.00     0.054 A 
HETATM   11  C   UNK N   1      27.610  26.943  -7.991  0.00  0.00     0.025 A 
HETATM   12  C   UNK N   1      26.294  26.470  -7.975  0.00  0.00     0.036 A 
ENDROOT
BRANCH   4  13
HETATM   13  N   UNK N   1      29.220  28.724  -4.492  0.00  0.00    -0.385 N 
HETATM   14  H   UNK N   1      29.558  29.471  -5.036  0.00  0.00     0.160 HD
BRANCH  13  15
HETATM   15  C   UNK N   1      30.079  27.997  -3.602  0.00  0.00     0.077 C 
HETATM   16  C   UNK N   1      30.593  28.813  -2.428  0.00  0.00     0.032 C 
BRANCH  15  17
HETATM   17  C   UNK N   1      30.988  27.006  -4.325  0.00  0.00     0.026 C 
BRANCH  17  18
HETATM   18  C   UNK N   1      30.393  25.626  -4.525  0.00  0.00     0.032 C 
BRANCH  18  19
HETATM   19  C   UNK N   1      30.653  24.674  -3.351  0.00  0.00     0.272 C 
BRANCH  19  20
HETATM   20  N   UNK N   1      29.477  23.848  -3.043  0.00  0.00     0.087 N 
BRANCH  20  21
HETATM   21  C   UNK N   1      29.856  22.429  -3.068  0.00  0.00     0.268 C 
HETATM   22  C   UNK N   1      31.354  22.270  -2.891  0.00  0.00     0.037 C 
ENDBRANCH  20  21
BRANCH  20  23
HETATM   23  C   UNK N   1      28.439  24.207  -4.021  0.00  0.00     0.268 C 
HETATM   24  C   UNK N   1      27.031  24.366  -3.460  0.00  0.00     0.037 C 
ENDBRANCH  20  23
ENDBRANCH  19  20
ENDBRANCH  18  19
ENDBRANCH  17  18
ENDBRANCH  15  17
ENDBRANCH  13  15
ENDBRANCH   4  13
TORSDOF 8
ENDMDL
MODEL 4
REMARK VINA RESULT:      -5.1     12.186     13.883
REMARK  8 active torsions:
REMARK  status: ('A' for Active; 'I' for Inactive)
REMARK    1  A    between atoms: N_2  and  C_9 
REMARK    2  A    between atoms: N_2  and  C_11 
REMARK    3  A    between atoms: N_2  and  C_12 
REMARK    4  A    between atoms: N_3  and  C_8 
REMARK    5  A    between atoms: N_3  and  C_13 
REMARK    6  A    between atoms: C_6  and  C_7 
REMARK    7  A    between atoms: C_6  and  C_8 
REMARK    8  A    between atoms: C_7  and  C_9 
ROOT
HETATM    1 Cl   UNK N   1      18.805  14.450   0.118  0.00  0.00    -0.084 Cl
HETATM    2  N   UNK N   1      20.315  19.232   1.120  0.00  0.00    -0.365 N 
ATOM      3  HN  UNK N   1      19.797  19.513   0.288  1.00  0.00     0.165 HD
HETATM    4  C   UNK N   1      21.725  18.476   3.381  0.00  0.00     0.042 A 
HETATM    5  C   UNK N   1      21.057  17.509   2.621  0.00  0.00     0.017 A 
HETATM    6  C   UNK N   1      21.668  19.818   2.999  0.00  0.00     0.047 A 
HETATM    7  C   UNK N   1      20.342  17.920   1.474  0.00  0.00     0.046 A 
HETATM    8  C   UNK N   1      21.059  16.158   2.991  0.00  0.00     0.018 A 
HETATM    9  C   UNK N   1      20.963  20.180   1.852  0.00  0.00     0.090 A 
HETATM   10  C   UNK N   1      19.649  16.976   0.713  0.00  0.00     0.054 A 
HETATM   11  C   UNK N   1      20.364  15.220   2.222  0.00  0.00     0.025 A 
HETATM   12  C   UNK N   1      19.662  15.629   1.085  0.00  0.00     0.036 A 
ENDROOT
BRANCH   4  13
HETATM   13  N   UNK N   1      22.363  18.123   4.586  0.00  0.00    -0.385 N 
HETATM   14  H   UNK N   1      21.865  18.067   5.434  0.00  0.00     0.160 HD
BRANCH  13  15
HETATM   15  C   UNK N   1      23.769  17.849   4.525  0.00  0.00     0.077 C 
HETATM   16  C   UNK N   1      24.194  16.601   5.279  0.00  0.00     0.032 C 
BRANCH  15  17
HETATM   17  C   UNK N   1      24.628  19.111   4.554  0.00  0.00     0.026 C 
BRANCH  17  18
HETATM   18  C   UNK N   1      25.759  19.135   3.545  0.00  0.00     0.032 C 
BRANCH  18  19
HETATM   19  C   UNK N   1      27.090  19.620   4.134  0.00  0.00     0.272 C 
BRANCH  19  20
HETATM   20  N   UNK N   1      27.213  19.290   5.561  0.00  0.00     0.087 N 
BRANCH  20  21
HETATM   21  C   UNK N   1      27.769  20.443   6.282  0.00  0.00     0.268 C 
HETATM   22  C   UNK N   1      26.800  21.609   6.260  0.00  0.00     0.037 C 
ENDBRANCH  20  21
BRANCH  20  23
HETATM   23  C   UNK N   1      28.040  18.077   5.645  0.00  0.00     0.268 C 
HETATM   24  C   UNK N   1      27.739  17.154   6.820  0.00  0.00     0.037 C 
ENDBRANCH  20  23
ENDBRANCH  19  20
ENDBRANCH  18  19
ENDBRANCH  17  18
ENDBRANCH  15  17
ENDBRANCH  13  15
ENDBRANCH   4  13
TORSDOF 8
ENDMDL
MODEL 5
REMARK VINA RESULT:      -5.1      3.252      7.023
REMARK  8 active torsions:
REMARK  status: ('A' for Active; 'I' for Inactive)
REMARK    1  A    between atoms: N_2  and  C_9 
REMARK    2  A    between atoms: N_2  and  C_11 
REMARK    3  A    between atoms: N_2  and  C_12 
REMARK    4  A    between atoms: N_3  and  C_8 
REMARK    5  A    between atoms: N_3  and  C_13 
REMARK    6  A    between atoms: C_6  and  C_7 
REMARK    7  A    between atoms: C_6  and  C_8 
REMARK    8  A    between atoms: C_7  and  C_9 
ROOT
HETATM    1 Cl   UNK N   1      29.591  19.030  -8.344  0.00  0.00    -0.084 Cl
HETATM    2  N   UNK N   1      31.866  20.565  -4.029  0.00  0.00    -0.365 N 
ATOM      3  HN  UNK N   1      32.389  19.690  -4.057  1.00  0.00     0.165 HD
HETATM    4  C   UNK N   1      30.449  22.944  -3.948  0.00  0.00     0.042 A 
HETATM    5  C   UNK N   1      30.220  22.031  -4.985  0.00  0.00     0.017 A 
HETATM    6  C   UNK N   1      31.398  22.652  -2.965  0.00  0.00     0.047 A 
HETATM    7  C   UNK N   1      30.958  20.827  -5.006  0.00  0.00     0.046 A 
HETATM    8  C   UNK N   1      29.303  22.303  -6.009  0.00  0.00     0.018 A 
HETATM    9  C   UNK N   1      32.095  21.445  -3.016  0.00  0.00     0.090 A 
HETATM   10  C   UNK N   1      30.763  19.912  -6.044  0.00  0.00     0.054 A 
HETATM   11  C   UNK N   1      29.114  21.380  -7.042  0.00  0.00     0.025 A 
HETATM   12  C   UNK N   1      29.842  20.187  -7.057  0.00  0.00     0.036 A 
ENDROOT
BRANCH   4  13
HETATM   13  N   UNK N   1      29.810  24.198  -3.946  0.00  0.00    -0.385 N 
HETATM   14  H   UNK N   1      30.132  24.940  -4.507  0.00  0.00     0.160 HD
BRANCH  13  15
HETATM   15  C   UNK N   1      28.669  24.349  -3.090  0.00  0.00     0.077 C 
HETATM   16  C   UNK N   1      28.432  23.174  -2.156  0.00  0.00     0.032 C 
BRANCH  15  17
HETATM   17  C   UNK N   1      27.500  25.058  -3.769  0.00  0.00     0.026 C 
BRANCH  17  18
HETATM   18  C   UNK N   1      26.345  24.154  -4.155  0.00  0.00     0.032 C 
BRANCH  18  19
HETATM   19  C   UNK N   1      25.447  24.745  -5.249  0.00  0.00     0.272 C 
BRANCH  19  20
HETATM   20  N   UNK N   1      26.229  25.268  -6.378  0.00  0.00     0.087 N 
BRANCH  20  21
HETATM   21  C   UNK N   1      25.960  26.704  -6.534  0.00  0.00     0.268 C 
HETATM   22  C   UNK N   1      24.763  27.121  -5.703  0.00  0.00     0.037 C 
ENDBRANCH  20  21
BRANCH  20  23
HETATM   23  C   UNK N   1      25.867  24.461  -7.554  0.00  0.00     0.268 C 
HETATM   24  C   UNK N   1      25.703  22.967  -7.301  0.00  0.00     0.037 C 
ENDBRANCH  20  23
ENDBRANCH  19  20
ENDBRANCH  18  19
ENDBRANCH  17  18
ENDBRANCH  15  17
ENDBRANCH  13  15
ENDBRANCH   4  13
TORSDOF 8
ENDMDL
MODEL 6
REMARK VINA RESULT:      -5.1     16.106     19.041
REMARK  8 active torsions:
REMARK  status: ('A' for Active; 'I' for Inactive)
REMARK    1  A    between atoms: N_2  and  C_9 
REMARK    2  A    between atoms: N_2  and  C_11 
REMARK    3  A    between atoms: N_2  and  C_12 
REMARK    4  A    between atoms: N_3  and  C_8 
REMARK    5  A    between atoms: N_3  and  C_13 
REMARK    6  A    between atoms: C_6  and  C_7 
REMARK    7  A    between atoms: C_6  and  C_8 
REMARK    8  A    between atoms: C_7  and  C_9 
ROOT
HETATM    1 Cl   UNK N   1      23.018  11.492  12.948  0.00  0.00    -0.084 Cl
HETATM    2  N   UNK N   1      24.614  13.372   8.468  0.00  0.00    -0.365 N 
ATOM      3  HN  UNK N   1      25.559  13.126   8.763  1.00  0.00     0.165 HD
HETATM    4  C   UNK N   1      22.050  14.043   7.662  0.00  0.00     0.042 A 
HETATM    5  C   UNK N   1      22.255  13.456   8.917  0.00  0.00     0.017 A 
HETATM    6  C   UNK N   1      23.140  14.277   6.821  0.00  0.00     0.047 A 
HETATM    7  C   UNK N   1      23.572  13.120   9.303  0.00  0.00     0.046 A 
HETATM    8  C   UNK N   1      21.185  13.170   9.774  0.00  0.00     0.018 A 
HETATM    9  C   UNK N   1      24.425  13.943   7.247  0.00  0.00     0.090 A 
HETATM   10  C   UNK N   1      23.798  12.512  10.541  0.00  0.00     0.054 A 
HETATM   11  C   UNK N   1      21.421  12.564  11.011  0.00  0.00     0.025 A 
HETATM   12  C   UNK N   1      22.726  12.238  11.394  0.00  0.00     0.036 A 
ENDROOT
BRANCH   4  13
HETATM   13  N   UNK N   1      20.746  14.298   7.197  0.00  0.00    -0.385 N 
HETATM   14  H   UNK N   1      20.124  13.566   6.983  0.00  0.00     0.160 HD
BRANCH  13  15
HETATM   15  C   UNK N   1      20.363  15.672   7.050  0.00  0.00     0.077 C 
HETATM   16  C   UNK N   1      19.951  16.346   8.348  0.00  0.00     0.032 C 
BRANCH  15  17
HETATM   17  C   UNK N   1      19.609  15.948   5.752  0.00  0.00     0.026 C 
BRANCH  17  18
HETATM   18  C   UNK N   1      20.457  16.518   4.632  0.00  0.00     0.032 C 
BRANCH  18  19
HETATM   19  C   UNK N   1      21.119  17.856   4.988  0.00  0.00     0.272 C 
BRANCH  19  20
HETATM   20  N   UNK N   1      21.813  18.449   3.837  0.00  0.00     0.087 N 
BRANCH  20  21
HETATM   21  C   UNK N   1      23.189  18.792   4.221  0.00  0.00     0.268 C 
HETATM   22  C   UNK N   1      23.904  17.583   4.794  0.00  0.00     0.037 C 
ENDBRANCH  20  21
BRANCH  20  23
HETATM   23  C   UNK N   1      21.008  19.603   3.406  0.00  0.00     0.268 C 
HETATM   24  C   UNK N   1      20.692  19.665   1.916  0.00  0.00     0.037 C 
ENDBRANCH  20  23
ENDBRANCH  19  20
ENDBRANCH  18  19
ENDBRANCH  17  18
ENDBRANCH  15  17
ENDBRANCH  13  15
ENDBRANCH   4  13
TORSDOF 8
ENDMDL
MODEL 7
REMARK VINA RESULT:      -5.1      3.007      5.877
REMARK  8 active torsions:
REMARK  status: ('A' for Active; 'I' for Inactive)
REMARK    1  A    between atoms: N_2  and  C_9 
REMARK    2  A    between atoms: N_2  and  C_11 
REMARK    3  A    between atoms: N_2  and  C_12 
REMARK    4  A    between atoms: N_3  and  C_8 
REMARK    5  A    between atoms: N_3  and  C_13 
REMARK    6  A    between atoms: C_6  and  C_7 
REMARK    7  A    between atoms: C_6  and  C_8 
REMARK    8  A    between atoms: C_7  and  C_9 
ROOT
HETATM    1 Cl   UNK N   1      31.083  20.768  -5.901  0.00  0.00    -0.084 Cl
HETATM    2  N   UNK N   1      26.883  21.725  -8.656  0.00  0.00    -0.365 N 
ATOM      3  HN  UNK N   1      27.167  20.952  -9.258  1.00  0.00     0.165 HD
HETATM    4  C   UNK N   1      26.106  23.825  -7.026  0.00  0.00     0.042 A 
HETATM    5  C   UNK N   1      27.290  23.129  -6.749  0.00  0.00     0.017 A 
HETATM    6  C   UNK N   1      25.320  23.449  -8.117  0.00  0.00     0.047 A 
HETATM    7  C   UNK N   1      27.662  22.060  -7.594  0.00  0.00     0.046 A 
HETATM    8  C   UNK N   1      28.086  23.451  -5.643  0.00  0.00     0.018 A 
HETATM    9  C   UNK N   1      25.732  22.397  -8.934  0.00  0.00     0.090 A 
HETATM   10  C   UNK N   1      28.826  21.336  -7.324  0.00  0.00     0.054 A 
HETATM   11  C   UNK N   1      29.250  22.723  -5.383  0.00  0.00     0.025 A 
HETATM   12  C   UNK N   1      29.619  21.668  -6.223  0.00  0.00     0.036 A 
ENDROOT
BRANCH   4  13
HETATM   13  N   UNK N   1      25.647  24.829  -6.151  0.00  0.00    -0.385 N 
HETATM   14  H   UNK N   1      25.369  24.620  -5.230  0.00  0.00     0.160 HD
BRANCH  13  15
HETATM   15  C   UNK N   1      25.601  26.168  -6.662  0.00  0.00     0.077 C 
HETATM   16  C   UNK N   1      26.870  26.607  -7.374  0.00  0.00     0.032 C 
BRANCH  15  17
HETATM   17  C   UNK N   1      24.842  27.131  -5.751  0.00  0.00     0.026 C 
BRANCH  17  18
HETATM   18  C   UNK N   1      25.459  27.330  -4.381  0.00  0.00     0.032 C 
BRANCH  18  19
HETATM   19  C   UNK N   1      26.090  28.716  -4.192  0.00  0.00     0.272 C 
BRANCH  19  20
HETATM   20  N   UNK N   1      27.338  28.651  -3.419  0.00  0.00     0.087 N 
BRANCH  20  21
HETATM   21  C   UNK N   1      27.574  29.944  -2.763  0.00  0.00     0.268 C 
HETATM   22  C   UNK N   1      28.314  29.755  -1.453  0.00  0.00     0.037 C 
ENDBRANCH  20  21
BRANCH  20  23
HETATM   23  C   UNK N   1      28.398  28.254  -4.359  0.00  0.00     0.268 C 
HETATM   24  C   UNK N   1      28.974  26.858  -4.152  0.00  0.00     0.037 C 
ENDBRANCH  20  23
ENDBRANCH  19  20
ENDBRANCH  18  19
ENDBRANCH  17  18
ENDBRANCH  15  17
ENDBRANCH  13  15
ENDBRANCH   4  13
TORSDOF 8
ENDMDL
MODEL 8
REMARK VINA RESULT:      -5.1      3.463      6.682
REMARK  8 active torsions:
REMARK  status: ('A' for Active; 'I' for Inactive)
REMARK    1  A    between atoms: N_2  and  C_9 
REMARK    2  A    between atoms: N_2  and  C_11 
REMARK    3  A    between atoms: N_2  and  C_12 
REMARK    4  A    between atoms: N_3  and  C_8 
REMARK    5  A    between atoms: N_3  and  C_13 
REMARK    6  A    between atoms: C_6  and  C_7 
REMARK    7  A    between atoms: C_6  and  C_8 
REMARK    8  A    between atoms: C_7  and  C_9 
ROOT
HETATM    1 Cl   UNK N   1      33.659  20.657  -3.176  0.00  0.00    -0.084 Cl
HETATM    2  N   UNK N   1      30.114  20.044  -6.809  0.00  0.00    -0.365 N 
ATOM      3  HN  UNK N   1      30.531  19.130  -6.987  1.00  0.00     0.165 HD
HETATM    4  C   UNK N   1      28.977  22.525  -6.334  0.00  0.00     0.042 A 
HETATM    5  C   UNK N   1      30.088  22.112  -5.587  0.00  0.00     0.017 A 
HETATM    6  C   UNK N   1      28.444  21.678  -7.308  0.00  0.00     0.047 A 
HETATM    7  C   UNK N   1      30.647  20.841  -5.847  0.00  0.00     0.046 A 
HETATM    8  C   UNK N   1      30.629  22.917  -4.577  0.00  0.00     0.018 A 
HETATM    9  C   UNK N   1      29.035  20.437  -7.541  0.00  0.00     0.090 A 
HETATM   10  C   UNK N   1      31.741  20.399  -5.099  0.00  0.00     0.054 A 
HETATM   11  C   UNK N   1      31.725  22.467  -3.835  0.00  0.00     0.025 A 
HETATM   12  C   UNK N   1      32.280  21.211  -4.098  0.00  0.00     0.036 A 
ENDROOT
BRANCH   4  13
HETATM   13  N   UNK N   1      28.328  23.739  -6.038  0.00  0.00    -0.385 N 
HETATM   14  H   UNK N   1      28.806  24.599  -6.070  0.00  0.00     0.160 HD
BRANCH  13  15
HETATM   15  C   UNK N   1      26.939  23.668  -5.688  0.00  0.00     0.077 C 
HETATM   16  C   UNK N   1      26.006  24.289  -6.714  0.00  0.00     0.032 C 
BRANCH  15  17
HETATM   17  C   UNK N   1      26.688  23.845  -4.193  0.00  0.00     0.026 C 
BRANCH  17  18
HETATM   18  C   UNK N   1      27.331  25.074  -3.581  0.00  0.00     0.032 C 
BRANCH  18  19
HETATM   19  C   UNK N   1      26.426  26.312  -3.605  0.00  0.00     0.272 C 
BRANCH  19  20
HETATM   20  N   UNK N   1      27.153  27.517  -4.030  0.00  0.00     0.087 N 
BRANCH  20  21
HETATM   21  C   UNK N   1      26.330  28.273  -4.984  0.00  0.00     0.268 C 
HETATM   22  C   UNK N   1      25.023  27.553  -5.254  0.00  0.00     0.037 C 
ENDBRANCH  20  21
BRANCH  20  23
HETATM   23  C   UNK N   1      28.440  27.063  -4.579  0.00  0.00     0.268 C 
HETATM   24  C   UNK N   1      28.690  27.407  -6.043  0.00  0.00     0.037 C 
ENDBRANCH  20  23
ENDBRANCH  19  20
ENDBRANCH  18  19
ENDBRANCH  17  18
ENDBRANCH  15  17
ENDBRANCH  13  15
ENDBRANCH   4  13
TORSDOF 8
ENDMDL
MODEL 9
REMARK VINA RESULT:      -5.0      2.723      4.146
REMARK  8 active torsions:
REMARK  status: ('A' for Active; 'I' for Inactive)
REMARK    1  A    between atoms: N_2  and  C_9 
REMARK    2  A    between atoms: N_2  and  C_11 
REMARK    3  A    between atoms: N_2  and  C_12 
REMARK    4  A    between atoms: N_3  and  C_8 
REMARK    5  A    between atoms: N_3  and  C_13 
REMARK    6  A    between atoms: C_6  and  C_7 
REMARK    7  A    between atoms: C_6  and  C_8 
REMARK    8  A    between atoms: C_7  and  C_9 
ROOT
HETATM    1 Cl   UNK N   1      25.703  27.923  -3.342  0.00  0.00    -0.084 Cl
HETATM    2  N   UNK N   1      25.730  26.218  -8.164  0.00  0.00    -0.365 N 
ATOM      3  HN  UNK N   1      25.496  27.170  -8.445  1.00  0.00     0.165 HD
HETATM    4  C   UNK N   1      26.363  23.630  -7.406  0.00  0.00     0.042 A 
HETATM    5  C   UNK N   1      26.198  24.621  -6.430  0.00  0.00     0.017 A 
HETATM    6  C   UNK N   1      26.215  23.955  -8.756  0.00  0.00     0.047 A 
HETATM    7  C   UNK N   1      25.879  25.934  -6.843  0.00  0.00     0.046 A 
HETATM    8  C   UNK N   1      26.375  24.343  -5.069  0.00  0.00     0.018 A 
HETATM    9  C   UNK N   1      25.886  25.261  -9.119  0.00  0.00     0.090 A 
HETATM   10  C   UNK N   1      25.733  26.944  -5.889  0.00  0.00     0.054 A 
HETATM   11  C   UNK N   1      26.224  25.360  -4.122  0.00  0.00     0.025 A 
HETATM   12  C   UNK N   1      25.903  26.657  -4.532  0.00  0.00     0.036 A 
ENDROOT
BRANCH   4  13
HETATM   13  N   UNK N   1      26.781  22.334  -7.046  0.00  0.00    -0.385 N 
HETATM   14  H   UNK N   1      26.192  21.725  -6.544  0.00  0.00     0.160 HD
BRANCH  13  15
HETATM   15  C   UNK N   1      28.102  21.941  -7.441  0.00  0.00     0.077 C 
HETATM   16  C   UNK N   1      28.138  20.823  -8.469  0.00  0.00     0.032 C 
BRANCH  15  17
HETATM   17  C   UNK N   1      29.108  21.981  -6.293  0.00  0.00     0.026 C 
BRANCH  17  18
HETATM   18  C   UNK N   1      29.671  23.355  -5.988  0.00  0.00     0.032 C 
BRANCH  18  19
HETATM   19  C   UNK N   1      31.006  23.313  -5.233  0.00  0.00     0.272 C 
BRANCH  19  20
HETATM   20  N   UNK N   1      30.921  23.982  -3.927  0.00  0.00     0.087 N 
BRANCH  20  21
HETATM   21  C   UNK N   1      29.607  23.715  -3.327  0.00  0.00     0.268 C 
HETATM   22  C   UNK N   1      29.758  22.994  -2.002  0.00  0.00     0.037 C 
ENDBRANCH  20  21
BRANCH  20  23
HETATM   23  C   UNK N   1      31.191  25.409  -4.164  0.00  0.00     0.268 C 
HETATM   24  C   UNK N   1      30.020  26.352  -3.913  0.00  0.00     0.037 C 
ENDBRANCH  20  23
ENDBRANCH  19  20
ENDBRANCH  18  19
ENDBRANCH  17  18
ENDBRANCH  15  17
ENDBRANCH  13  15
ENDBRANCH   4  13
TORSDOF 8
ENDMDL
