REMARK  6 active torsions:
REMARK  status: ('A' for Active; 'I' for Inactive)
REMARK    1  A    between atoms: C_3  and  N_6 
REMARK    2  A    between atoms: C_8  and  C_4 
REMARK       I    between atoms: C_7  and  N_6 
REMARK    3  A    between atoms: C_10  and  C_7 
REMARK    4  A    between atoms: O_16  and  C_8 
REMARK    5  A    between atoms: C_10  and  N_13 
REMARK    6  A    between atoms: C_18  and  C_10 
ROOT
HETATM    1  N   UNK N   1       4.630  -4.298   0.503  0.00  0.00    -0.302 N 
HETATM    2  C   UNK N   1       3.437  -4.074   0.043  0.00  0.00     0.250 A 
HETATM    3  C   UNK N   1       3.309  -2.662   0.503  0.00  0.00     0.200 A 
HETATM    4  C   UNK N   1       5.662  -5.203   0.123  0.00  0.00     0.129 C 
HETATM    5  C   UNK N   1       4.774  -3.025   1.119  0.00  0.00     0.125 A 
HETATM    6  C   UNK N   1       6.939  -4.726   0.195  0.00  0.00     0.045 C 
HETATM    7  C   UNK N   1       5.989  -2.359   0.486  0.00  0.00     0.034 C 
HETATM    8  O   UNK N   1       2.817  -4.722  -0.788  0.00  0.00    -0.271 OA
HETATM    9  C   UNK N   1       7.198  -3.296   0.658  0.00  0.00     0.056 C 
HETATM   10 Cl   UNK N   1       8.359  -5.663  -0.265  0.00  0.00    -0.086 Cl
ENDROOT
BRANCH   3  11
HETATM   11  N   UNK N   1       3.473  -1.809  -0.653  0.00  0.00    -0.344 N 
HETATM   12  C   UNK N   1       2.964  -0.561  -0.755  0.00  0.00     0.245 C 
HETATM   13  O   UNK N   1       3.226   0.102  -1.746  0.00  0.00    -0.271 OA
HETATM   14  H   UNK N   1       3.988  -2.161  -1.415  0.00  0.00     0.163 HD
BRANCH  12  15
HETATM   15  C   UNK N   1       2.060   0.016   0.307  0.00  0.00     0.201 C 
BRANCH  15  16
HETATM   16  N   UNK N   1       2.148   1.472   0.299  0.00  0.00    -0.415 N 
HETATM   17  H   UNK N   1       3.061   1.928   0.294  0.00  0.00     0.151 HD
HETATM   18  H   UNK N   1       1.297   2.035   0.299  0.00  0.00     0.151 HD
ENDBRANCH  15  16
BRANCH  15  19
HETATM   19  C   UNK N   1       0.646  -0.455   0.071  0.00  0.00    -0.027 A 
HETATM   20  C   UNK N   1       0.326  -1.809   0.248  0.00  0.00     0.010 A 
HETATM   21  C   UNK N   1      -0.972  -2.267   0.011  0.00  0.00     0.001 A 
HETATM   22  C   UNK N   1      -1.960  -1.376  -0.413  0.00  0.00     0.000 A 
HETATM   23  C   UNK N   1      -1.653  -0.025  -0.593  0.00  0.00     0.001 A 
HETATM   24  C   UNK N   1      -0.356   0.436  -0.348  0.00  0.00     0.010 A 
ENDBRANCH  15  19
ENDBRANCH  12  15
ENDBRANCH   3  11
BRANCH   4  25
HETATM   25  C   UNK N   1       5.320  -6.575  -0.376  0.00  0.00     0.195 C 
HETATM   26  O   UNK N   1       4.167  -6.969  -0.329  0.00  0.00    -0.645 OA
BRANCH  25  27
HETATM   27  O   UNK N   1       6.265  -7.402  -0.860  0.00  0.00    -0.772 OA
HETATM   28  H   UNK N   1       6.095  -8.259  -1.197  0.00  0.00     0.167 HD
ENDBRANCH  25  27
ENDBRANCH   4  25
TORSDOF 6
