MODEL 1
REMARK VINA RESULT:      -4.2      0.000      0.000
REMARK  0 active torsions:
REMARK  status: ('A' for Active; 'I' for Inactive)
ROOT
HETATM    1  C   UNK N   1      31.371  17.344   7.152  0.00  0.00     0.122 A 
HETATM    2  C   UNK N   1      32.040  17.240   5.784  0.00  0.00     0.122 A 
HETATM    3  C   UNK N   1      31.191  17.050   4.530  0.00  0.00     0.122 A 
HETATM    4  C   UNK N   1      29.850  17.258   7.266  0.00  0.00     0.122 A 
HETATM    5  C   UNK N   1      29.669  16.965   4.645  0.00  0.00     0.122 A 
HETATM    6  C   UNK N   1      29.001  17.069   6.012  0.00  0.00     0.122 A 
HETATM    7 Cl   UNK N   1      31.984  16.929   2.935  0.00  0.00    -0.122 Cl
HETATM    8 Cl   UNK N   1      27.223  16.969   6.146  0.00  0.00    -0.122 Cl
HETATM    9 Cl   UNK N   1      32.374  17.566   8.612  0.00  0.00    -0.122 Cl
HETATM   10 Cl   UNK N   1      33.818  17.340   5.651  0.00  0.00    -0.122 Cl
HETATM   11 Cl   UNK N   1      29.057  17.379   8.861  0.00  0.00    -0.122 Cl
HETATM   12 Cl   UNK N   1      28.666  16.743   3.184  0.00  0.00    -0.122 Cl
ENDROOT
TORSDOF 0
ENDMDL
MODEL 2
REMARK VINA RESULT:      -4.2      0.046      3.641
REMARK  0 active torsions:
REMARK  status: ('A' for Active; 'I' for Inactive)
ROOT
HETATM    1  C   UNK N   1      31.204  17.064   4.548  0.00  0.00     0.122 A 
HETATM    2  C   UNK N   1      32.063  17.235   5.797  0.00  0.00     0.122 A 
HETATM    3  C   UNK N   1      31.405  17.336   7.171  0.00  0.00     0.122 A 
HETATM    4  C   UNK N   1      29.683  16.993   4.672  0.00  0.00     0.122 A 
HETATM    5  C   UNK N   1      29.884  17.264   7.295  0.00  0.00     0.122 A 
HETATM    6  C   UNK N   1      29.025  17.093   6.045  0.00  0.00     0.122 A 
HETATM    7 Cl   UNK N   1      32.421  17.536   8.626  0.00  0.00    -0.122 Cl
HETATM    8 Cl   UNK N   1      27.247  17.009   6.190  0.00  0.00    -0.122 Cl
HETATM    9 Cl   UNK N   1      31.985  16.948   2.947  0.00  0.00    -0.122 Cl
HETATM   10 Cl   UNK N   1      33.841  17.319   5.652  0.00  0.00    -0.122 Cl
HETATM   11 Cl   UNK N   1      28.667  16.792   3.217  0.00  0.00    -0.122 Cl
HETATM   12 Cl   UNK N   1      29.103  17.380   8.896  0.00  0.00    -0.122 Cl
ENDROOT
TORSDOF 0
ENDMDL
MODEL 3
REMARK VINA RESULT:      -4.1      0.031      5.158
REMARK  0 active torsions:
REMARK  status: ('A' for Active; 'I' for Inactive)
ROOT
HETATM    1  C   UNK N   1      29.688  16.984   4.658  0.00  0.00     0.122 A 
HETATM    2  C   UNK N   1      29.021  17.084   6.027  0.00  0.00     0.122 A 
HETATM    3  C   UNK N   1      29.873  17.259   7.281  0.00  0.00     0.122 A 
HETATM    4  C   UNK N   1      31.209  17.060   4.542  0.00  0.00     0.122 A 
HETATM    5  C   UNK N   1      31.394  17.335   7.165  0.00  0.00     0.122 A 
HETATM    6  C   UNK N   1      32.061  17.235   5.796  0.00  0.00     0.122 A 
HETATM    7 Cl   UNK N   1      29.082  17.375   8.878  0.00  0.00    -0.122 Cl
HETATM    8 Cl   UNK N   1      33.839  17.324   5.662  0.00  0.00    -0.122 Cl
HETATM    9 Cl   UNK N   1      28.681  16.779   3.197  0.00  0.00    -0.122 Cl
HETATM   10 Cl   UNK N   1      27.242  16.996   6.161  0.00  0.00    -0.122 Cl
HETATM   11 Cl   UNK N   1      32.000  16.944   2.945  0.00  0.00    -0.122 Cl
HETATM   12 Cl   UNK N   1      32.401  17.540   8.626  0.00  0.00    -0.122 Cl
ENDROOT
TORSDOF 0
ENDMDL
MODEL 4
REMARK VINA RESULT:      -4.1      0.109      4.495
REMARK  0 active torsions:
REMARK  status: ('A' for Active; 'I' for Inactive)
ROOT
HETATM    1  C   UNK N   1      31.219  17.076   4.569  0.00  0.00     0.122 A 
HETATM    2  C   UNK N   1      29.701  17.017   4.714  0.00  0.00     0.122 A 
HETATM    3  C   UNK N   1      29.062  17.114   6.096  0.00  0.00     0.122 A 
HETATM    4  C   UNK N   1      32.099  17.233   5.808  0.00  0.00     0.122 A 
HETATM    5  C   UNK N   1      29.942  17.270   7.336  0.00  0.00     0.122 A 
HETATM    6  C   UNK N   1      31.460  17.330   7.190  0.00  0.00     0.122 A 
HETATM    7 Cl   UNK N   1      27.285  17.044   6.255  0.00  0.00    -0.122 Cl
HETATM    8 Cl   UNK N   1      32.488  17.512   8.638  0.00  0.00    -0.122 Cl
HETATM    9 Cl   UNK N   1      31.957  16.962   2.947  0.00  0.00    -0.122 Cl
HETATM   10 Cl   UNK N   1      28.673  16.834   3.266  0.00  0.00    -0.122 Cl
HETATM   11 Cl   UNK N   1      33.877  17.303   5.649  0.00  0.00    -0.122 Cl
HETATM   12 Cl   UNK N   1      29.204  17.385   8.957  0.00  0.00    -0.122 Cl
ENDROOT
TORSDOF 0
ENDMDL
MODEL 5
REMARK VINA RESULT:      -4.1      0.057      3.653
REMARK  0 active torsions:
REMARK  status: ('A' for Active; 'I' for Inactive)
ROOT
HETATM    1  C   UNK N   1      29.812  17.249   7.224  0.00  0.00     0.122 A 
HETATM    2  C   UNK N   1      28.981  17.041   5.962  0.00  0.00     0.122 A 
HETATM    3  C   UNK N   1      29.666  16.936   4.603  0.00  0.00     0.122 A 
HETATM    4  C   UNK N   1      31.334  17.352   7.127  0.00  0.00     0.122 A 
HETATM    5  C   UNK N   1      31.188  17.038   4.506  0.00  0.00     0.122 A 
HETATM    6  C   UNK N   1      32.020  17.246   5.768  0.00  0.00     0.122 A 
HETATM    7 Cl   UNK N   1      28.683  16.692   3.132  0.00  0.00    -0.122 Cl
HETATM    8 Cl   UNK N   1      33.798  17.367   5.654  0.00  0.00    -0.122 Cl
HETATM    9 Cl   UNK N   1      28.999  17.372   8.809  0.00  0.00    -0.122 Cl
HETATM   10 Cl   UNK N   1      27.202  16.921   6.075  0.00  0.00    -0.122 Cl
HETATM   11 Cl   UNK N   1      32.317  17.596   8.597  0.00  0.00    -0.122 Cl
HETATM   12 Cl   UNK N   1      32.001  16.916   2.921  0.00  0.00    -0.122 Cl
ENDROOT
TORSDOF 0
ENDMDL
MODEL 6
REMARK VINA RESULT:      -4.1     13.140     14.672
REMARK  0 active torsions:
REMARK  status: ('A' for Active; 'I' for Inactive)
ROOT
HETATM    1  C   UNK N   1      28.538  27.508  -3.948  0.00  0.00     0.122 A 
HETATM    2  C   UNK N   1      27.129  27.824  -4.441  0.00  0.00     0.122 A 
HETATM    3  C   UNK N   1      26.271  26.725  -5.061  0.00  0.00     0.122 A 
HETATM    4  C   UNK N   1      29.091  26.090  -4.077  0.00  0.00     0.122 A 
HETATM    5  C   UNK N   1      26.825  25.306  -5.190  0.00  0.00     0.122 A 
HETATM    6  C   UNK N   1      28.234  24.991  -4.697  0.00  0.00     0.122 A 
HETATM    7 Cl   UNK N   1      24.623  27.105  -5.634  0.00  0.00    -0.122 Cl
HETATM    8 Cl   UNK N   1      28.881  23.333  -4.847  0.00  0.00    -0.122 Cl
HETATM    9 Cl   UNK N   1      29.532  28.802  -3.224  0.00  0.00    -0.122 Cl
HETATM   10 Cl   UNK N   1      26.482  29.482  -4.291  0.00  0.00    -0.122 Cl
HETATM   11 Cl   UNK N   1      30.739  25.709  -3.504  0.00  0.00    -0.122 Cl
HETATM   12 Cl   UNK N   1      25.830  24.012  -5.914  0.00  0.00    -0.122 Cl
ENDROOT
TORSDOF 0
ENDMDL
MODEL 7
REMARK VINA RESULT:      -4.1      0.036      2.594
REMARK  0 active torsions:
REMARK  status: ('A' for Active; 'I' for Inactive)
ROOT
HETATM    1  C   UNK N   1      32.059  17.232   5.792  0.00  0.00     0.122 A 
HETATM    2  C   UNK N   1      31.199  17.055   4.544  0.00  0.00     0.122 A 
HETATM    3  C   UNK N   1      29.680  16.980   4.666  0.00  0.00     0.122 A 
HETATM    4  C   UNK N   1      31.397  17.334   7.166  0.00  0.00     0.122 A 
HETATM    5  C   UNK N   1      29.019  17.081   6.040  0.00  0.00     0.122 A 
HETATM    6  C   UNK N   1      29.878  17.258   7.288  0.00  0.00     0.122 A 
HETATM    7 Cl   UNK N   1      28.684  16.772   3.198  0.00  0.00    -0.122 Cl
HETATM    8 Cl   UNK N   1      29.106  17.377   8.893  0.00  0.00    -0.122 Cl
HETATM    9 Cl   UNK N   1      33.835  17.319   5.637  0.00  0.00    -0.122 Cl
HETATM   10 Cl   UNK N   1      31.972  16.936   2.938  0.00  0.00    -0.122 Cl
HETATM   11 Cl   UNK N   1      32.394  17.541   8.633  0.00  0.00    -0.122 Cl
HETATM   12 Cl   UNK N   1      27.242  16.994   6.194  0.00  0.00    -0.122 Cl
ENDROOT
TORSDOF 0
ENDMDL
MODEL 8
REMARK VINA RESULT:      -4.1      0.062      3.645
REMARK  0 active torsions:
REMARK  status: ('A' for Active; 'I' for Inactive)
ROOT
HETATM    1  C   UNK N   1      32.075  17.230   5.794  0.00  0.00     0.122 A 
HETATM    2  C   UNK N   1      31.423  17.332   7.169  0.00  0.00     0.122 A 
HETATM    3  C   UNK N   1      29.904  17.263   7.302  0.00  0.00     0.122 A 
HETATM    4  C   UNK N   1      31.207  17.059   4.548  0.00  0.00     0.122 A 
HETATM    5  C   UNK N   1      29.036  17.092   6.057  0.00  0.00     0.122 A 
HETATM    6  C   UNK N   1      29.688  16.991   4.681  0.00  0.00     0.122 A 
HETATM    7 Cl   UNK N   1      29.151  17.383   8.917  0.00  0.00    -0.122 Cl
HETATM    8 Cl   UNK N   1      28.674  16.791   3.225  0.00  0.00    -0.122 Cl
HETATM    9 Cl   UNK N   1      33.853  17.312   5.650  0.00  0.00    -0.122 Cl
HETATM   10 Cl   UNK N   1      32.437  17.531   8.625  0.00  0.00    -0.122 Cl
HETATM   11 Cl   UNK N   1      31.960  16.939   2.933  0.00  0.00    -0.122 Cl
HETATM   12 Cl   UNK N   1      27.258  17.010   6.201  0.00  0.00    -0.122 Cl
ENDROOT
TORSDOF 0
ENDMDL
MODEL 9
REMARK VINA RESULT:      -4.1      0.057      3.644
REMARK  0 active torsions:
REMARK  status: ('A' for Active; 'I' for Inactive)
ROOT
HETATM    1  C   UNK N   1      29.669  16.937   4.601  0.00  0.00     0.122 A 
HETATM    2  C   UNK N   1      31.189  17.036   4.508  0.00  0.00     0.122 A 
HETATM    3  C   UNK N   1      32.021  17.239   5.770  0.00  0.00     0.122 A 
HETATM    4  C   UNK N   1      28.980  17.042   5.961  0.00  0.00     0.122 A 
HETATM    5  C   UNK N   1      31.332  17.344   7.130  0.00  0.00     0.122 A 
HETATM    6  C   UNK N   1      29.812  17.245   7.223  0.00  0.00     0.122 A 
HETATM    7 Cl   UNK N   1      33.799  17.353   5.649  0.00  0.00    -0.122 Cl
HETATM    8 Cl   UNK N   1      29.007  17.367   8.813  0.00  0.00    -0.122 Cl
HETATM    9 Cl   UNK N   1      28.705  16.700   3.117  0.00  0.00    -0.122 Cl
HETATM   10 Cl   UNK N   1      31.995  16.914   2.918  0.00  0.00    -0.122 Cl
HETATM   11 Cl   UNK N   1      27.202  16.928   6.082  0.00  0.00    -0.122 Cl
HETATM   12 Cl   UNK N   1      32.296  17.581   8.614  0.00  0.00    -0.122 Cl
ENDROOT
TORSDOF 0
ENDMDL
