MODEL 1
REMARK VINA RESULT:      -5.8      0.000      0.000
REMARK  9 active torsions:
REMARK  status: ('A' for Active; 'I' for Inactive)
REMARK    1  A    between atoms: C_7  and  C_4 
REMARK    2  A    between atoms: C_7  and  C_8 
REMARK    3  A    between atoms: C_7  and  C_15 
REMARK    4  A    between atoms: C_7  and  O_16 
REMARK    5  A    between atoms: C_8  and  C_9 
REMARK    6  A    between atoms: C_15  and  C_20 
REMARK    7  A    between atoms: O_16  and  C_17 
REMARK    8  A    between atoms: C_17  and  C_18 
REMARK    9  A    between atoms: C_20  and  N_21 
ROOT
HETATM    1  C   UNK N   1      28.145  23.993  -5.539  0.00  0.00     0.106 C 
ENDROOT
BRANCH   1   2
HETATM    2  C   UNK N   1      29.181  23.629  -4.467  0.00  0.00    -0.022 A 
HETATM    3  C   UNK N   1      30.560  23.607  -4.734  0.00  0.00     0.010 A 
HETATM    4  C   UNK N   1      31.470  23.210  -3.751  0.00  0.00     0.001 A 
HETATM    5  C   UNK N   1      31.013  22.848  -2.482  0.00  0.00     0.000 A 
HETATM    6  C   UNK N   1      29.648  22.882  -2.195  0.00  0.00     0.001 A 
HETATM    7  C   UNK N   1      28.737  23.259  -3.183  0.00  0.00     0.010 A 
ENDBRANCH   1   2
BRANCH   1   8
HETATM    8  C   UNK N   1      26.750  24.093  -4.862  0.00  0.00     0.082 C 
BRANCH   8   9
HETATM    9  C   UNK N   1      26.199  25.486  -4.714  0.00  0.00    -0.055 A 
HETATM   10  C   UNK N   1      26.602  26.314  -3.661  0.00  0.00     0.007 A 
HETATM   11  C   UNK N   1      26.100  27.616  -3.558  0.00  0.00     0.001 A 
HETATM   12  C   UNK N   1      25.183  28.089  -4.503  0.00  0.00     0.000 A 
HETATM   13  C   UNK N   1      24.762  27.258  -5.543  0.00  0.00     0.001 A 
HETATM   14  C   UNK N   1      25.266  25.960  -5.647  0.00  0.00     0.007 A 
ENDBRANCH   8   9
ENDBRANCH   1   8
BRANCH   1  15
HETATM   15  C   UNK N   1      28.090  23.018  -6.771  0.00  0.00     0.050 C 
HETATM   16  C   UNK N   1      28.942  21.765  -6.657  0.00  0.00     0.015 C 
BRANCH  15  17
HETATM   17  C   UNK N   1      26.664  22.569  -7.125  0.00  0.00     0.279 C 
BRANCH  17  18
HETATM   18  N   UNK N   1      26.369  22.745  -8.538  0.00  0.00     0.080 N 
HETATM   19  C   UNK N   1      25.344  23.767  -8.638  0.00  0.00     0.309 C 
HETATM   20  C   UNK N   1      25.785  21.509  -9.028  0.00  0.00     0.309 C 
ENDBRANCH  17  18
ENDBRANCH  15  17
ENDBRANCH   1  15
BRANCH   1  21
HETATM   21  O   UNK N   1      28.448  25.267  -6.009  0.00  0.00    -0.304 OA
BRANCH  21  22
HETATM   22  C   UNK N   1      28.805  25.578  -7.289  0.00  0.00     0.259 C 
HETATM   23  O   UNK N   1      29.853  25.176  -7.767  0.00  0.00    -0.265 OA
BRANCH  22  24
HETATM   24  C   UNK N   1      27.903  26.447  -8.103  0.00  0.00     0.106 C 
HETATM   25  C   UNK N   1      27.861  27.853  -7.533  0.00  0.00     0.015 C 
ENDBRANCH  22  24
ENDBRANCH  21  22
ENDBRANCH   1  21
TORSDOF 9
ENDMDL
MODEL 2
REMARK VINA RESULT:      -5.5      1.300      2.173
REMARK  9 active torsions:
REMARK  status: ('A' for Active; 'I' for Inactive)
REMARK    1  A    between atoms: C_7  and  C_4 
REMARK    2  A    between atoms: C_7  and  C_8 
REMARK    3  A    between atoms: C_7  and  C_15 
REMARK    4  A    between atoms: C_7  and  O_16 
REMARK    5  A    between atoms: C_8  and  C_9 
REMARK    6  A    between atoms: C_15  and  C_20 
REMARK    7  A    between atoms: O_16  and  C_17 
REMARK    8  A    between atoms: C_17  and  C_18 
REMARK    9  A    between atoms: C_20  and  N_21 
ROOT
HETATM    1  C   UNK N   1      27.958  23.832  -5.708  0.00  0.00     0.106 C 
ENDROOT
BRANCH   1   2
HETATM    2  C   UNK N   1      28.985  23.040  -4.889  0.00  0.00    -0.022 A 
HETATM    3  C   UNK N   1      29.799  22.049  -5.464  0.00  0.00     0.010 A 
HETATM    4  C   UNK N   1      30.679  21.305  -4.674  0.00  0.00     0.001 A 
HETATM    5  C   UNK N   1      30.771  21.555  -3.303  0.00  0.00     0.000 A 
HETATM    6  C   UNK N   1      29.983  22.548  -2.721  0.00  0.00     0.001 A 
HETATM    7  C   UNK N   1      29.088  23.278  -3.506  0.00  0.00     0.010 A 
ENDBRANCH   1   2
BRANCH   1   8
HETATM    8  C   UNK N   1      26.675  24.010  -4.851  0.00  0.00     0.082 C 
BRANCH   8   9
HETATM    9  C   UNK N   1      26.193  25.428  -4.691  0.00  0.00    -0.055 A 
HETATM   10  C   UNK N   1      25.377  26.026  -5.658  0.00  0.00     0.007 A 
HETATM   11  C   UNK N   1      24.915  27.334  -5.477  0.00  0.00     0.001 A 
HETATM   12  C   UNK N   1      25.277  28.052  -4.332  0.00  0.00     0.000 A 
HETATM   13  C   UNK N   1      26.109  27.466  -3.375  0.00  0.00     0.001 A 
HETATM   14  C   UNK N   1      26.567  26.159  -3.555  0.00  0.00     0.007 A 
ENDBRANCH   8   9
ENDBRANCH   1   8
BRANCH   1  15
HETATM   15  C   UNK N   1      27.602  23.214  -7.110  0.00  0.00     0.050 C 
HETATM   16  C   UNK N   1      26.418  22.261  -7.125  0.00  0.00     0.015 C 
BRANCH  15  17
HETATM   17  C   UNK N   1      27.349  24.273  -8.192  0.00  0.00     0.279 C 
BRANCH  17  18
HETATM   18  N   UNK N   1      26.499  23.772  -9.261  0.00  0.00     0.080 N 
HETATM   19  C   UNK N   1      27.314  23.699 -10.459  0.00  0.00     0.309 C 
HETATM   20  C   UNK N   1      25.466  24.763  -9.510  0.00  0.00     0.309 C 
ENDBRANCH  17  18
ENDBRANCH  15  17
ENDBRANCH   1  15
BRANCH   1  21
HETATM   21  O   UNK N   1      28.473  25.109  -5.918  0.00  0.00    -0.304 OA
BRANCH  21  22
HETATM   22  C   UNK N   1      29.797  25.430  -5.988  0.00  0.00     0.259 C 
HETATM   23  O   UNK N   1      30.471  25.120  -6.957  0.00  0.00    -0.265 OA
BRANCH  22  24
HETATM   24  C   UNK N   1      30.431  26.149  -4.842  0.00  0.00     0.106 C 
HETATM   25  C   UNK N   1      31.793  25.558  -4.530  0.00  0.00     0.015 C 
ENDBRANCH  22  24
ENDBRANCH  21  22
ENDBRANCH   1  21
TORSDOF 9
ENDMDL
MODEL 3
REMARK VINA RESULT:      -5.3     12.234     13.831
REMARK  9 active torsions:
REMARK  status: ('A' for Active; 'I' for Inactive)
REMARK    1  A    between atoms: C_7  and  C_4 
REMARK    2  A    between atoms: C_7  and  C_8 
REMARK    3  A    between atoms: C_7  and  C_15 
REMARK    4  A    between atoms: C_7  and  O_16 
REMARK    5  A    between atoms: C_8  and  C_9 
REMARK    6  A    between atoms: C_15  and  C_20 
REMARK    7  A    between atoms: O_16  and  C_17 
REMARK    8  A    between atoms: C_17  and  C_18 
REMARK    9  A    between atoms: C_20  and  N_21 
ROOT
HETATM    1  C   UNK N   1      29.074  16.890   5.322  0.00  0.00     0.106 C 
ENDROOT
BRANCH   1   2
HETATM    2  C   UNK N   1      29.055  17.191   6.826  0.00  0.00    -0.022 A 
HETATM    3  C   UNK N   1      27.883  17.092   7.595  0.00  0.00     0.010 A 
HETATM    4  C   UNK N   1      27.890  17.434   8.949  0.00  0.00     0.001 A 
HETATM    5  C   UNK N   1      29.073  17.861   9.557  0.00  0.00     0.000 A 
HETATM    6  C   UNK N   1      30.249  17.947   8.811  0.00  0.00     0.001 A 
HETATM    7  C   UNK N   1      30.238  17.625   7.452  0.00  0.00     0.010 A 
ENDBRANCH   1   2
BRANCH   1   8
HETATM    8  C   UNK N   1      29.027  18.236   4.548  0.00  0.00     0.082 C 
BRANCH   8   9
HETATM    9  C   UNK N   1      28.011  19.232   5.040  0.00  0.00    -0.055 A 
HETATM   10  C   UNK N   1      28.393  20.327   5.824  0.00  0.00     0.007 A 
HETATM   11  C   UNK N   1      27.437  21.258   6.246  0.00  0.00     0.001 A 
HETATM   12  C   UNK N   1      26.094  21.089   5.897  0.00  0.00     0.000 A 
HETATM   13  C   UNK N   1      25.705  19.985   5.134  0.00  0.00     0.001 A 
HETATM   14  C   UNK N   1      26.660  19.059   4.709  0.00  0.00     0.007 A 
ENDBRANCH   8   9
ENDBRANCH   1   8
BRANCH   1  15
HETATM   15  C   UNK N   1      27.937  15.927   4.819  0.00  0.00     0.050 C 
HETATM   16  C   UNK N   1      27.610  16.012   3.337  0.00  0.00     0.015 C 
BRANCH  15  17
HETATM   17  C   UNK N   1      28.207  14.450   5.143  0.00  0.00     0.279 C 
BRANCH  17  18
HETATM   18  N   UNK N   1      27.091  13.595   4.771  0.00  0.00     0.080 N 
HETATM   19  C   UNK N   1      26.160  13.597   5.883  0.00  0.00     0.309 C 
HETATM   20  C   UNK N   1      27.594  12.238   4.640  0.00  0.00     0.309 C 
ENDBRANCH  17  18
ENDBRANCH  15  17
ENDBRANCH   1  15
BRANCH   1  21
HETATM   21  O   UNK N   1      30.301  16.304   5.020  0.00  0.00    -0.304 OA
BRANCH  21  22
HETATM   22  C   UNK N   1      31.118  16.659   3.986  0.00  0.00     0.259 C 
HETATM   23  O   UNK N   1      31.047  16.099   2.905  0.00  0.00    -0.265 OA
BRANCH  22  24
HETATM   24  C   UNK N   1      32.132  17.735   4.200  0.00  0.00     0.106 C 
HETATM   25  C   UNK N   1      33.202  17.273   5.173  0.00  0.00     0.015 C 
ENDBRANCH  22  24
ENDBRANCH  21  22
ENDBRANCH   1  21
TORSDOF 9
ENDMDL
MODEL 4
REMARK VINA RESULT:      -5.3     11.991     13.808
REMARK  9 active torsions:
REMARK  status: ('A' for Active; 'I' for Inactive)
REMARK    1  A    between atoms: C_7  and  C_4 
REMARK    2  A    between atoms: C_7  and  C_8 
REMARK    3  A    between atoms: C_7  and  C_15 
REMARK    4  A    between atoms: C_7  and  O_16 
REMARK    5  A    between atoms: C_8  and  C_9 
REMARK    6  A    between atoms: C_15  and  C_20 
REMARK    7  A    between atoms: O_16  and  C_17 
REMARK    8  A    between atoms: C_17  and  C_18 
REMARK    9  A    between atoms: C_20  and  N_21 
ROOT
HETATM    1  C   UNK N   1      28.990  16.924   4.858  0.00  0.00     0.106 C 
ENDROOT
BRANCH   1   2
HETATM    2  C   UNK N   1      30.415  16.568   4.418  0.00  0.00    -0.022 A 
HETATM    3  C   UNK N   1      30.935  15.268   4.537  0.00  0.00     0.010 A 
HETATM    4  C   UNK N   1      32.259  14.996   4.184  0.00  0.00     0.001 A 
HETATM    5  C   UNK N   1      33.074  16.015   3.687  0.00  0.00     0.000 A 
HETATM    6  C   UNK N   1      32.567  17.307   3.546  0.00  0.00     0.001 A 
HETATM    7  C   UNK N   1      31.251  17.585   3.918  0.00  0.00     0.010 A 
ENDBRANCH   1   2
BRANCH   1   8
HETATM    8  C   UNK N   1      28.724  16.271   6.243  0.00  0.00     0.082 C 
BRANCH   8   9
HETATM    9  C   UNK N   1      29.152  17.083   7.436  0.00  0.00    -0.055 A 
HETATM   10  C   UNK N   1      30.498  17.409   7.642  0.00  0.00     0.007 A 
HETATM   11  C   UNK N   1      30.871  18.190   8.742  0.00  0.00     0.001 A 
HETATM   12  C   UNK N   1      29.901  18.637   9.645  0.00  0.00     0.000 A 
HETATM   13  C   UNK N   1      28.561  18.294   9.455  0.00  0.00     0.001 A 
HETATM   14  C   UNK N   1      28.188  17.518   8.356  0.00  0.00     0.007 A 
ENDBRANCH   8   9
ENDBRANCH   1   8
BRANCH   1  15
HETATM   15  C   UNK N   1      27.859  16.530   3.838  0.00  0.00     0.050 C 
HETATM   16  C   UNK N   1      28.324  15.793   2.594  0.00  0.00     0.015 C 
BRANCH  15  17
HETATM   17  C   UNK N   1      26.737  15.694   4.471  0.00  0.00     0.279 C 
BRANCH  17  18
HETATM   18  N   UNK N   1      25.477  16.418   4.523  0.00  0.00     0.080 N 
HETATM   19  C   UNK N   1      24.757  15.945   5.691  0.00  0.00     0.309 C 
HETATM   20  C   UNK N   1      24.696  16.036   3.359  0.00  0.00     0.309 C 
ENDBRANCH  17  18
ENDBRANCH  15  17
ENDBRANCH   1  15
BRANCH   1  21
HETATM   21  O   UNK N   1      28.934  18.301   5.054  0.00  0.00    -0.304 OA
BRANCH  21  22
HETATM   22  C   UNK N   1      27.889  19.110   4.716  0.00  0.00     0.259 C 
HETATM   23  O   UNK N   1      27.747  19.512   3.572  0.00  0.00    -0.265 OA
BRANCH  22  24
HETATM   24  C   UNK N   1      26.922  19.528   5.775  0.00  0.00     0.106 C 
HETATM   25  C   UNK N   1      27.420  20.772   6.489  0.00  0.00     0.015 C 
ENDBRANCH  22  24
ENDBRANCH  21  22
ENDBRANCH   1  21
TORSDOF 9
ENDMDL
MODEL 5
REMARK VINA RESULT:      -5.3     16.350     18.394
REMARK  9 active torsions:
REMARK  status: ('A' for Active; 'I' for Inactive)
REMARK    1  A    between atoms: C_7  and  C_4 
REMARK    2  A    between atoms: C_7  and  C_8 
REMARK    3  A    between atoms: C_7  and  C_15 
REMARK    4  A    between atoms: C_7  and  O_16 
REMARK    5  A    between atoms: C_8  and  C_9 
REMARK    6  A    between atoms: C_15  and  C_20 
REMARK    7  A    between atoms: O_16  and  C_17 
REMARK    8  A    between atoms: C_17  and  C_18 
REMARK    9  A    between atoms: C_20  and  N_21 
ROOT
HETATM    1  C   UNK N   1      22.693  12.708   8.118  0.00  0.00     0.106 C 
ENDROOT
BRANCH   1   2
HETATM    2  C   UNK N   1      22.963  12.442   9.604  0.00  0.00    -0.022 A 
HETATM    3  C   UNK N   1      24.264  12.397  10.134  0.00  0.00     0.010 A 
HETATM    4  C   UNK N   1      24.474  12.090  11.480  0.00  0.00     0.001 A 
HETATM    5  C   UNK N   1      23.385  11.844  12.320  0.00  0.00     0.000 A 
HETATM    6  C   UNK N   1      22.086  11.903  11.813  0.00  0.00     0.001 A 
HETATM    7  C   UNK N   1      21.876  12.189  10.463  0.00  0.00     0.010 A 
ENDBRANCH   1   2
BRANCH   1   8
HETATM    8  C   UNK N   1      21.172  12.962   7.931  0.00  0.00     0.082 C 
BRANCH   8   9
HETATM    9  C   UNK N   1      20.771  14.404   7.763  0.00  0.00    -0.055 A 
HETATM   10  C   UNK N   1      20.735  15.276   8.858  0.00  0.00     0.007 A 
HETATM   11  C   UNK N   1      20.389  16.619   8.676  0.00  0.00     0.001 A 
HETATM   12  C   UNK N   1      20.064  17.091   7.400  0.00  0.00     0.000 A 
HETATM   13  C   UNK N   1      20.076  16.219   6.309  0.00  0.00     0.001 A 
HETATM   14  C   UNK N   1      20.426  14.880   6.490  0.00  0.00     0.007 A 
ENDBRANCH   8   9
ENDBRANCH   1   8
BRANCH   1  15
HETATM   15  C   UNK N   1      23.186  11.581   7.138  0.00  0.00     0.050 C 
HETATM   16  C   UNK N   1      23.690  10.309   7.800  0.00  0.00     0.015 C 
BRANCH  15  17
HETATM   17  C   UNK N   1      22.127  11.169   6.106  0.00  0.00     0.279 C 
BRANCH  17  18
HETATM   18  N   UNK N   1      22.568  11.412   4.741  0.00  0.00     0.080 N 
HETATM   19  C   UNK N   1      21.554  12.230   4.102  0.00  0.00     0.309 C 
HETATM   20  C   UNK N   1      22.585  10.136   4.046  0.00  0.00     0.309 C 
ENDBRANCH  17  18
ENDBRANCH  15  17
ENDBRANCH   1  15
BRANCH   1  21
HETATM   21  O   UNK N   1      23.337  13.893   7.772  0.00  0.00    -0.304 OA
BRANCH  21  22
HETATM   22  C   UNK N   1      24.345  14.012   6.861  0.00  0.00     0.259 C 
HETATM   23  O   UNK N   1      25.474  13.624   7.114  0.00  0.00    -0.265 OA
BRANCH  22  24
HETATM   24  C   UNK N   1      24.060  14.656   5.543  0.00  0.00     0.106 C 
HETATM   25  C   UNK N   1      23.776  16.135   5.723  0.00  0.00     0.015 C 
ENDBRANCH  22  24
ENDBRANCH  21  22
ENDBRANCH   1  21
TORSDOF 9
ENDMDL
MODEL 6
REMARK VINA RESULT:      -5.3     11.859     13.878
REMARK  9 active torsions:
REMARK  status: ('A' for Active; 'I' for Inactive)
REMARK    1  A    between atoms: C_7  and  C_4 
REMARK    2  A    between atoms: C_7  and  C_8 
REMARK    3  A    between atoms: C_7  and  C_15 
REMARK    4  A    between atoms: C_7  and  O_16 
REMARK    5  A    between atoms: C_8  and  C_9 
REMARK    6  A    between atoms: C_15  and  C_20 
REMARK    7  A    between atoms: O_16  and  C_17 
REMARK    8  A    between atoms: C_17  and  C_18 
REMARK    9  A    between atoms: C_20  and  N_21 
ROOT
HETATM    1  C   UNK N   1      27.433  17.181   5.095  0.00  0.00     0.106 C 
ENDROOT
BRANCH   1   2
HETATM    2  C   UNK N   1      28.392  16.212   4.391  0.00  0.00    -0.022 A 
HETATM    3  C   UNK N   1      28.373  14.828   4.635  0.00  0.00     0.010 A 
HETATM    4  C   UNK N   1      29.302  13.985   4.022  0.00  0.00     0.001 A 
HETATM    5  C   UNK N   1      30.251  14.511   3.142  0.00  0.00     0.000 A 
HETATM    6  C   UNK N   1      30.271  15.880   2.876  0.00  0.00     0.001 A 
HETATM    7  C   UNK N   1      29.356  16.727   3.504  0.00  0.00     0.010 A 
ENDBRANCH   1   2
BRANCH   1   8
HETATM    8  C   UNK N   1      27.374  16.808   6.602  0.00  0.00     0.082 C 
BRANCH   8   9
HETATM    9  C   UNK N   1      28.484  17.367   7.453  0.00  0.00    -0.055 A 
HETATM   10  C   UNK N   1      28.217  18.281   8.478  0.00  0.00     0.007 A 
HETATM   11  C   UNK N   1      29.258  18.766   9.277  0.00  0.00     0.001 A 
HETATM   12  C   UNK N   1      30.572  18.347   9.044  0.00  0.00     0.000 A 
HETATM   13  C   UNK N   1      30.845  17.452   8.007  0.00  0.00     0.001 A 
HETATM   14  C   UNK N   1      29.805  16.966   7.213  0.00  0.00     0.007 A 
ENDBRANCH   8   9
ENDBRANCH   1   8
BRANCH   1  15
HETATM   15  C   UNK N   1      25.984  17.244   4.487  0.00  0.00     0.050 C 
HETATM   16  C   UNK N   1      25.839  16.699   3.076  0.00  0.00     0.015 C 
BRANCH  15  17
HETATM   17  C   UNK N   1      24.931  16.543   5.357  0.00  0.00     0.279 C 
BRANCH  17  18
HETATM   18  N   UNK N   1      23.605  16.595   4.761  0.00  0.00     0.080 N 
HETATM   19  C   UNK N   1      22.931  17.754   5.315  0.00  0.00     0.309 C 
HETATM   20  C   UNK N   1      22.871  15.423   5.207  0.00  0.00     0.309 C 
ENDBRANCH  17  18
ENDBRANCH  15  17
ENDBRANCH   1  15
BRANCH   1  21
HETATM   21  O   UNK N   1      27.987  18.456   5.025  0.00  0.00    -0.304 OA
BRANCH  21  22
HETATM   22  C   UNK N   1      27.311  19.600   4.718  0.00  0.00     0.259 C 
HETATM   23  O   UNK N   1      27.311  20.049   3.584  0.00  0.00    -0.265 OA
BRANCH  22  24
HETATM   24  C   UNK N   1      26.583  20.325   5.803  0.00  0.00     0.106 C 
HETATM   25  C   UNK N   1      27.408  21.494   6.309  0.00  0.00     0.015 C 
ENDBRANCH  22  24
ENDBRANCH  21  22
ENDBRANCH   1  21
TORSDOF 9
ENDMDL
MODEL 7
REMARK VINA RESULT:      -5.2      1.823      4.286
REMARK  9 active torsions:
REMARK  status: ('A' for Active; 'I' for Inactive)
REMARK    1  A    between atoms: C_7  and  C_4 
REMARK    2  A    between atoms: C_7  and  C_8 
REMARK    3  A    between atoms: C_7  and  C_15 
REMARK    4  A    between atoms: C_7  and  O_16 
REMARK    5  A    between atoms: C_8  and  C_9 
REMARK    6  A    between atoms: C_15  and  C_20 
REMARK    7  A    between atoms: O_16  and  C_17 
REMARK    8  A    between atoms: C_17  and  C_18 
REMARK    9  A    between atoms: C_20  and  N_21 
ROOT
HETATM    1  C   UNK N   1      28.565  24.954  -5.174  0.00  0.00     0.106 C 
ENDROOT
BRANCH   1   2
HETATM    2  C   UNK N   1      29.503  24.118  -4.294  0.00  0.00    -0.022 A 
HETATM    3  C   UNK N   1      30.801  23.769  -4.702  0.00  0.00     0.010 A 
HETATM    4  C   UNK N   1      31.604  22.954  -3.901  0.00  0.00     0.001 A 
HETATM    5  C   UNK N   1      31.126  22.493  -2.672  0.00  0.00     0.000 A 
HETATM    6  C   UNK N   1      29.846  22.846  -2.244  0.00  0.00     0.001 A 
HETATM    7  C   UNK N   1      29.035  23.644  -3.054  0.00  0.00     0.010 A 
ENDBRANCH   1   2
BRANCH   1   8
HETATM    8  C   UNK N   1      28.718  24.482  -6.646  0.00  0.00     0.082 C 
BRANCH   8   9
HETATM    9  C   UNK N   1      27.502  23.828  -7.248  0.00  0.00    -0.055 A 
HETATM   10  C   UNK N   1      27.210  22.481  -7.001  0.00  0.00     0.007 A 
HETATM   11  C   UNK N   1      26.060  21.900  -7.546  0.00  0.00     0.001 A 
HETATM   12  C   UNK N   1      25.204  22.662  -8.348  0.00  0.00     0.000 A 
HETATM   13  C   UNK N   1      25.503  24.000  -8.614  0.00  0.00     0.001 A 
HETATM   14  C   UNK N   1      26.650  24.580  -8.068  0.00  0.00     0.007 A 
ENDBRANCH   8   9
ENDBRANCH   1   8
BRANCH   1  15
HETATM   15  C   UNK N   1      28.766  26.511  -5.073  0.00  0.00     0.050 C 
HETATM   16  C   UNK N   1      29.718  26.981  -3.985  0.00  0.00     0.015 C 
BRANCH  15  17
HETATM   17  C   UNK N   1      29.229  27.149  -6.391  0.00  0.00     0.279 C 
BRANCH  17  18
HETATM   18  N   UNK N   1      28.156  27.869  -7.057  0.00  0.00     0.080 N 
HETATM   19  C   UNK N   1      28.462  27.881  -8.475  0.00  0.00     0.309 C 
HETATM   20  C   UNK N   1      28.196  29.249  -6.602  0.00  0.00     0.309 C 
ENDBRANCH  17  18
ENDBRANCH  15  17
ENDBRANCH   1  15
BRANCH   1  21
HETATM   21  O   UNK N   1      27.256  24.663  -4.800  0.00  0.00    -0.304 OA
BRANCH  21  22
HETATM   22  C   UNK N   1      26.351  25.560  -4.311  0.00  0.00     0.259 C 
HETATM   23  O   UNK N   1      26.328  25.850  -3.126  0.00  0.00    -0.265 OA
BRANCH  22  24
HETATM   24  C   UNK N   1      25.358  26.171  -5.244  0.00  0.00     0.106 C 
HETATM   25  C   UNK N   1      25.196  27.652  -4.954  0.00  0.00     0.015 C 
ENDBRANCH  22  24
ENDBRANCH  21  22
ENDBRANCH   1  21
TORSDOF 9
ENDMDL
MODEL 8
REMARK VINA RESULT:      -5.2     11.115     13.964
REMARK  9 active torsions:
REMARK  status: ('A' for Active; 'I' for Inactive)
REMARK    1  A    between atoms: C_7  and  C_4 
REMARK    2  A    between atoms: C_7  and  C_8 
REMARK    3  A    between atoms: C_7  and  C_15 
REMARK    4  A    between atoms: C_7  and  O_16 
REMARK    5  A    between atoms: C_8  and  C_9 
REMARK    6  A    between atoms: C_15  and  C_20 
REMARK    7  A    between atoms: O_16  and  C_17 
REMARK    8  A    between atoms: C_17  and  C_18 
REMARK    9  A    between atoms: C_20  and  N_21 
ROOT
HETATM    1  C   UNK N   1      28.355  17.462   5.267  0.00  0.00     0.106 C 
ENDROOT
BRANCH   1   2
HETATM    2  C   UNK N   1      27.244  18.324   4.653  0.00  0.00    -0.022 A 
HETATM    3  C   UNK N   1      25.897  17.924   4.656  0.00  0.00     0.010 A 
HETATM    4  C   UNK N   1      24.922  18.706   4.032  0.00  0.00     0.001 A 
HETATM    5  C   UNK N   1      25.277  19.908   3.415  0.00  0.00     0.000 A 
HETATM    6  C   UNK N   1      26.608  20.327   3.420  0.00  0.00     0.001 A 
HETATM    7  C   UNK N   1      27.587  19.537   4.025  0.00  0.00     0.010 A 
ENDBRANCH   1   2
BRANCH   1   8
HETATM    8  C   UNK N   1      29.672  18.286   5.273  0.00  0.00     0.082 C 
BRANCH   8   9
HETATM    9  C   UNK N   1      30.937  17.490   5.089  0.00  0.00    -0.055 A 
HETATM   10  C   UNK N   1      31.424  16.663   6.108  0.00  0.00     0.007 A 
HETATM   11  C   UNK N   1      32.585  15.909   5.907  0.00  0.00     0.001 A 
HETATM   12  C   UNK N   1      33.269  15.988   4.690  0.00  0.00     0.000 A 
HETATM   13  C   UNK N   1      32.799  16.830   3.679  0.00  0.00     0.001 A 
HETATM   14  C   UNK N   1      31.639  17.580   3.879  0.00  0.00     0.007 A 
ENDBRANCH   8   9
ENDBRANCH   1   8
BRANCH   1  15
HETATM   15  C   UNK N   1      28.581  16.070   4.571  0.00  0.00     0.050 C 
HETATM   16  C   UNK N   1      27.815  14.903   5.172  0.00  0.00     0.015 C 
BRANCH  15  17
HETATM   17  C   UNK N   1      28.275  16.089   3.066  0.00  0.00     0.279 C 
BRANCH  17  18
HETATM   18  N   UNK N   1      27.561  14.897   2.637  0.00  0.00     0.080 N 
HETATM   19  C   UNK N   1      28.435  14.176   1.730  0.00  0.00     0.309 C 
HETATM   20  C   UNK N   1      26.406  15.323   1.866  0.00  0.00     0.309 C 
ENDBRANCH  17  18
ENDBRANCH  15  17
ENDBRANCH   1  15
BRANCH   1  21
HETATM   21  O   UNK N   1      28.029  17.231   6.600  0.00  0.00    -0.304 OA
BRANCH  21  22
HETATM   22  C   UNK N   1      28.271  18.083   7.637  0.00  0.00     0.259 C 
HETATM   23  O   UNK N   1      27.829  19.220   7.635  0.00  0.00    -0.265 OA
BRANCH  22  24
HETATM   24  C   UNK N   1      29.116  17.617   8.778  0.00  0.00     0.106 C 
HETATM   25  C   UNK N   1      30.164  18.659   9.124  0.00  0.00     0.015 C 
ENDBRANCH  22  24
ENDBRANCH  21  22
ENDBRANCH   1  21
TORSDOF 9
ENDMDL
MODEL 9
REMARK VINA RESULT:      -5.2     12.172     14.712
REMARK  9 active torsions:
REMARK  status: ('A' for Active; 'I' for Inactive)
REMARK    1  A    between atoms: C_7  and  C_4 
REMARK    2  A    between atoms: C_7  and  C_8 
REMARK    3  A    between atoms: C_7  and  C_15 
REMARK    4  A    between atoms: C_7  and  O_16 
REMARK    5  A    between atoms: C_8  and  C_9 
REMARK    6  A    between atoms: C_15  and  C_20 
REMARK    7  A    between atoms: O_16  and  C_17 
REMARK    8  A    between atoms: C_17  and  C_18 
REMARK    9  A    between atoms: C_20  and  N_21 
ROOT
HETATM    1  C   UNK N   1      29.188  17.214   6.465  0.00  0.00     0.106 C 
ENDROOT
BRANCH   1   2
HETATM    2  C   UNK N   1      30.489  16.978   7.244  0.00  0.00    -0.022 A 
HETATM    3  C   UNK N   1      31.225  18.032   7.811  0.00  0.00     0.010 A 
HETATM    4  C   UNK N   1      32.437  17.785   8.460  0.00  0.00     0.001 A 
HETATM    5  C   UNK N   1      32.920  16.479   8.567  0.00  0.00     0.000 A 
HETATM    6  C   UNK N   1      32.191  15.419   8.025  0.00  0.00     0.001 A 
HETATM    7  C   UNK N   1      30.990  15.667   7.359  0.00  0.00     0.010 A 
ENDBRANCH   1   2
BRANCH   1   8
HETATM    8  C   UNK N   1      29.547  17.810   5.076  0.00  0.00     0.082 C 
BRANCH   8   9
HETATM    9  C   UNK N   1      30.683  17.136   4.354  0.00  0.00    -0.055 A 
HETATM   10  C   UNK N   1      31.945  17.736   4.274  0.00  0.00     0.007 A 
HETATM   11  C   UNK N   1      32.996  17.080   3.624  0.00  0.00     0.001 A 
HETATM   12  C   UNK N   1      32.785  15.826   3.042  0.00  0.00     0.000 A 
HETATM   13  C   UNK N   1      31.521  15.234   3.100  0.00  0.00     0.001 A 
HETATM   14  C   UNK N   1      30.474  15.887   3.752  0.00  0.00     0.007 A 
ENDBRANCH   8   9
ENDBRANCH   1   8
BRANCH   1  15
HETATM   15  C   UNK N   1      28.129  18.118   7.195  0.00  0.00     0.050 C 
HETATM   16  C   UNK N   1      28.201  18.122   8.713  0.00  0.00     0.015 C 
BRANCH  15  17
HETATM   17  C   UNK N   1      28.162  19.583   6.733  0.00  0.00     0.279 C 
BRANCH  17  18
HETATM   18  N   UNK N   1      26.873  20.028   6.229  0.00  0.00     0.080 N 
HETATM   19  C   UNK N   1      27.088  20.536   4.888  0.00  0.00     0.309 C 
HETATM   20  C   UNK N   1      26.440  21.150   7.044  0.00  0.00     0.309 C 
ENDBRANCH  17  18
ENDBRANCH  15  17
ENDBRANCH   1  15
BRANCH   1  21
HETATM   21  O   UNK N   1      28.604  15.973   6.224  0.00  0.00    -0.304 OA
BRANCH  21  22
HETATM   22  C   UNK N   1      27.280  15.753   5.980  0.00  0.00     0.259 C 
HETATM   23  O   UNK N   1      26.500  15.526   6.891  0.00  0.00    -0.265 OA
BRANCH  22  24
HETATM   24  C   UNK N   1      26.790  15.764   4.569  0.00  0.00     0.106 C 
HETATM   25  C   UNK N   1      25.953  17.001   4.306  0.00  0.00     0.015 C 
ENDBRANCH  22  24
ENDBRANCH  21  22
ENDBRANCH   1  21
TORSDOF 9
ENDMDL
