MODEL 1
REMARK VINA RESULT:      -7.8      0.000      0.000
REMARK  9 active torsions:
REMARK  status: ('A' for Active; 'I' for Inactive)
REMARK    1  A    between atoms: C_1  and  O_7 
REMARK    2  A    between atoms: C_4  and  C_8 
REMARK    3  A    between atoms: C_8  and  C_9 
REMARK    4  A    between atoms: C_9  and  C_10 
REMARK    5  A    between atoms: C_9  and  N_22 
REMARK       I    between atoms: C_10  and  N_11 
REMARK    6  A    between atoms: N_11  and  C_13 
REMARK    7  A    between atoms: C_16  and  C_19 
REMARK    8  A    between atoms: C_19  and  O_21 
REMARK       I    between atoms: N_22  and  C_23 
REMARK    9  A    between atoms: C_23  and  C_24 
ROOT
HETATM    1  C   UNK N   1      21.993  16.634   4.718  0.00  0.00     0.181 C 
ENDROOT
BRANCH   1   2
HETATM    2  C   UNK N   1      20.797  17.592   4.763  0.00  0.00     0.073 C 
BRANCH   2   3
HETATM    3  C   UNK N   1      20.725  18.402   3.499  0.00  0.00    -0.056 A 
HETATM    4  C   UNK N   1      20.439  17.774   2.281  0.00  0.00     0.010 A 
HETATM    5  C   UNK N   1      20.416  18.519   1.094  0.00  0.00     0.037 A 
HETATM    6  C   UNK N   1      20.682  19.892   1.123  0.00  0.00     0.065 A 
HETATM    7  C   UNK N   1      20.955  20.525   2.338  0.00  0.00     0.037 A 
HETATM    8  C   UNK N   1      20.974  19.783   3.520  0.00  0.00     0.010 A 
BRANCH   6   9
HETATM    9  O   UNK N   1      20.675  20.603  -0.016  0.00  0.00    -0.361 OA
HETATM   10  H   UNK N   1      19.963  20.601  -0.626  0.00  0.00     0.217 HD
ENDBRANCH   6   9
ENDBRANCH   2   3
ENDBRANCH   1   2
BRANCH   1  11
HETATM   11  C   UNK N   1      21.889  15.437   5.636  0.00  0.00     0.245 C 
HETATM   12  N   UNK N   1      21.852  15.628   6.982  0.00  0.00    -0.325 N 
HETATM   13  H   UNK N   1      21.712  16.554   7.287  0.00  0.00     0.169 HD
HETATM   14  O   UNK N   1      21.882  14.310   5.162  0.00  0.00    -0.271 OA
BRANCH  12  15
HETATM   15  C   UNK N   1      21.991  14.647   7.996  0.00  0.00     0.034 A 
HETATM   16  C   UNK N   1      23.196  13.954   8.194  0.00  0.00     0.030 A 
HETATM   17  C   UNK N   1      23.343  13.107   9.298  0.00  0.00     0.020 A 
HETATM   18  C   UNK N   1      22.289  12.945  10.211  0.00  0.00     0.037 A 
HETATM   19  C   UNK N   1      21.084  13.625   9.999  0.00  0.00     0.020 A 
HETATM   20  C   UNK N   1      20.944  14.480   8.906  0.00  0.00     0.030 A 
BRANCH  18  21
HETATM   21  C   UNK N   1      22.450  12.094  11.405  0.00  0.00     0.176 C 
HETATM   22  O   UNK N   1      23.564  11.812  11.818  0.00  0.00    -0.646 OA
BRANCH  21  23
HETATM   23  O   UNK N   1      21.365  11.638  12.063  0.00  0.00    -0.773 OA
HETATM   24  H   UNK N   1      21.194  11.783  12.973  0.00  0.00     0.167 HD
ENDBRANCH  21  23
ENDBRANCH  18  21
ENDBRANCH  12  15
ENDBRANCH   1  11
BRANCH   1  25
HETATM   25  N   UNK N   1      23.259  17.339   4.849  0.00  0.00    -0.343 N 
HETATM   26  C   UNK N   1      24.350  17.152   4.061  0.00  0.00     0.252 C 
HETATM   27  O   UNK N   1      24.318  16.353   3.131  0.00  0.00    -0.268 OA
HETATM   28  H   UNK N   1      23.331  18.008   5.568  0.00  0.00     0.163 HD
BRANCH  26  29
HETATM   29  C   UNK N   1      25.574  17.932   4.319  0.00  0.00     0.032 A 
HETATM   30  C   UNK N   1      25.864  19.077   3.565  0.00  0.00     0.017 A 
HETATM   31  C   UNK N   1      27.023  19.815   3.823  0.00  0.00     0.001 A 
HETATM   32  C   UNK N   1      27.906  19.403   4.826  0.00  0.00     0.000 A 
HETATM   33  C   UNK N   1      27.626  18.259   5.577  0.00  0.00     0.001 A 
HETATM   34  C   UNK N   1      26.461  17.530   5.331  0.00  0.00     0.017 A 
ENDBRANCH  26  29
ENDBRANCH   1  25
TORSDOF 9
ENDMDL
MODEL 2
REMARK VINA RESULT:      -7.7     12.282     16.336
REMARK  9 active torsions:
REMARK  status: ('A' for Active; 'I' for Inactive)
REMARK    1  A    between atoms: C_1  and  O_7 
REMARK    2  A    between atoms: C_4  and  C_8 
REMARK    3  A    between atoms: C_8  and  C_9 
REMARK    4  A    between atoms: C_9  and  C_10 
REMARK    5  A    between atoms: C_9  and  N_22 
REMARK       I    between atoms: C_10  and  N_11 
REMARK    6  A    between atoms: N_11  and  C_13 
REMARK    7  A    between atoms: C_16  and  C_19 
REMARK    8  A    between atoms: C_19  and  O_21 
REMARK       I    between atoms: N_22  and  C_23 
REMARK    9  A    between atoms: C_23  and  C_24 
ROOT
HETATM    1  C   UNK N   1      35.055  11.436  12.594  0.00  0.00     0.181 C 
ENDROOT
BRANCH   1   2
HETATM    2  C   UNK N   1      35.692  10.151  12.053  0.00  0.00     0.073 C 
BRANCH   2   3
HETATM    3  C   UNK N   1      34.639   9.244  11.479  0.00  0.00    -0.056 A 
HETATM    4  C   UNK N   1      34.774   7.856  11.594  0.00  0.00     0.010 A 
HETATM    5  C   UNK N   1      33.818   7.008  11.020  0.00  0.00     0.037 A 
HETATM    6  C   UNK N   1      32.727   7.545  10.329  0.00  0.00     0.065 A 
HETATM    7  C   UNK N   1      32.581   8.931  10.224  0.00  0.00     0.037 A 
HETATM    8  C   UNK N   1      33.532   9.776  10.798  0.00  0.00     0.010 A 
BRANCH   6   9
HETATM    9  O   UNK N   1      31.818   6.732   9.767  0.00  0.00    -0.361 OA
HETATM   10  H   UNK N   1      31.644   5.862  10.066  0.00  0.00     0.217 HD
ENDBRANCH   6   9
ENDBRANCH   2   3
ENDBRANCH   1   2
BRANCH   1  11
HETATM   11  C   UNK N   1      35.366  12.687  11.804  0.00  0.00     0.245 C 
HETATM   12  N   UNK N   1      34.526  13.753  11.883  0.00  0.00    -0.325 N 
HETATM   13  H   UNK N   1      33.848  13.722  12.596  0.00  0.00     0.169 HD
HETATM   14  O   UNK N   1      36.344  12.712  11.070  0.00  0.00    -0.271 OA
BRANCH  12  15
HETATM   15  C   UNK N   1      34.514  14.905  11.055  0.00  0.00     0.034 A 
HETATM   16  C   UNK N   1      35.340  16.010  11.314  0.00  0.00     0.030 A 
HETATM   17  C   UNK N   1      35.413  17.060  10.393  0.00  0.00     0.020 A 
HETATM   18  C   UNK N   1      34.662  17.015   9.207  0.00  0.00     0.037 A 
HETATM   19  C   UNK N   1      33.827  15.919   8.963  0.00  0.00     0.020 A 
HETATM   20  C   UNK N   1      33.767  14.866   9.876  0.00  0.00     0.030 A 
BRANCH  18  21
HETATM   21  C   UNK N   1      34.769  18.094   8.207  0.00  0.00     0.176 C 
HETATM   22  O   UNK N   1      34.403  17.909   7.057  0.00  0.00    -0.646 OA
BRANCH  21  23
HETATM   23  O   UNK N   1      35.251  19.302   8.562  0.00  0.00    -0.773 OA
HETATM   24  H   UNK N   1      35.344  20.030   7.980  0.00  0.00     0.167 HD
ENDBRANCH  21  23
ENDBRANCH  18  21
ENDBRANCH  12  15
ENDBRANCH   1  11
BRANCH   1  25
HETATM   25  N   UNK N   1      35.285  11.597  14.022  0.00  0.00    -0.343 N 
HETATM   26  C   UNK N   1      34.398  11.286  15.002  0.00  0.00     0.252 C 
HETATM   27  O   UNK N   1      33.305  10.804  14.725  0.00  0.00    -0.268 OA
HETATM   28  H   UNK N   1      36.156  11.961  14.301  0.00  0.00     0.163 HD
BRANCH  26  29
HETATM   29  C   UNK N   1      34.764  11.514  16.412  0.00  0.00     0.032 A 
HETATM   30  C   UNK N   1      34.999  10.434  17.274  0.00  0.00     0.017 A 
HETATM   31  C   UNK N   1      35.354  10.662  18.607  0.00  0.00     0.001 A 
HETATM   32  C   UNK N   1      35.462  11.970  19.088  0.00  0.00     0.000 A 
HETATM   33  C   UNK N   1      35.223  13.051  18.237  0.00  0.00     0.001 A 
HETATM   34  C   UNK N   1      34.883  12.825  16.901  0.00  0.00     0.017 A 
ENDBRANCH  26  29
ENDBRANCH   1  25
TORSDOF 9
ENDMDL
MODEL 3
REMARK VINA RESULT:      -7.6     12.799     17.533
REMARK  9 active torsions:
REMARK  status: ('A' for Active; 'I' for Inactive)
REMARK    1  A    between atoms: C_1  and  O_7 
REMARK    2  A    between atoms: C_4  and  C_8 
REMARK    3  A    between atoms: C_8  and  C_9 
REMARK    4  A    between atoms: C_9  and  C_10 
REMARK    5  A    between atoms: C_9  and  N_22 
REMARK       I    between atoms: C_10  and  N_11 
REMARK    6  A    between atoms: N_11  and  C_13 
REMARK    7  A    between atoms: C_16  and  C_19 
REMARK    8  A    between atoms: C_19  and  O_21 
REMARK       I    between atoms: N_22  and  C_23 
REMARK    9  A    between atoms: C_23  and  C_24 
ROOT
HETATM    1  C   UNK N   1      35.249  11.561  12.547  0.00  0.00     0.181 C 
ENDROOT
BRANCH   1   2
HETATM    2  C   UNK N   1      35.984  10.314  12.042  0.00  0.00     0.073 C 
BRANCH   2   3
HETATM    3  C   UNK N   1      36.465   9.484  13.199  0.00  0.00    -0.056 A 
HETATM    4  C   UNK N   1      35.669   8.444  13.693  0.00  0.00     0.010 A 
HETATM    5  C   UNK N   1      36.093   7.698  14.800  0.00  0.00     0.037 A 
HETATM    6  C   UNK N   1      37.314   7.991  15.417  0.00  0.00     0.065 A 
HETATM    7  C   UNK N   1      38.119   9.019  14.920  0.00  0.00     0.037 A 
HETATM    8  C   UNK N   1      37.696   9.761  13.814  0.00  0.00     0.010 A 
BRANCH   6   9
HETATM    9  O   UNK N   1      37.715   7.286  16.487  0.00  0.00    -0.361 OA
HETATM   10  H   UNK N   1      37.147   6.735  16.988  0.00  0.00     0.217 HD
ENDBRANCH   6   9
ENDBRANCH   2   3
ENDBRANCH   1   2
BRANCH   1  11
HETATM   11  C   UNK N   1      35.497  12.819  11.745  0.00  0.00     0.245 C 
HETATM   12  N   UNK N   1      34.605  13.843  11.815  0.00  0.00    -0.325 N 
HETATM   13  H   UNK N   1      33.930  13.784  12.530  0.00  0.00     0.169 HD
HETATM   14  O   UNK N   1      36.472  12.885  11.010  0.00  0.00    -0.271 OA
BRANCH  12  15
HETATM   15  C   UNK N   1      34.537  14.985  10.978  0.00  0.00     0.034 A 
HETATM   16  C   UNK N   1      35.313  16.128  11.221  0.00  0.00     0.030 A 
HETATM   17  C   UNK N   1      35.333  17.172  10.290  0.00  0.00     0.020 A 
HETATM   18  C   UNK N   1      34.577  17.083   9.110  0.00  0.00     0.037 A 
HETATM   19  C   UNK N   1      33.791  15.948   8.881  0.00  0.00     0.020 A 
HETATM   20  C   UNK N   1      33.783  14.902   9.804  0.00  0.00     0.030 A 
BRANCH  18  21
HETATM   21  C   UNK N   1      34.629  18.156   8.099  0.00  0.00     0.176 C 
HETATM   22  O   UNK N   1      34.977  19.283   8.411  0.00  0.00    -0.646 OA
BRANCH  21  23
HETATM   23  O   UNK N   1      34.312  17.892   6.815  0.00  0.00    -0.773 OA
HETATM   24  H   UNK N   1      33.766  18.433   6.279  0.00  0.00     0.167 HD
ENDBRANCH  21  23
ENDBRANCH  18  21
ENDBRANCH  12  15
ENDBRANCH   1  11
BRANCH   1  25
HETATM   25  N   UNK N   1      35.428  11.757  13.977  0.00  0.00    -0.343 N 
HETATM   26  C   UNK N   1      34.475  11.559  14.925  0.00  0.00     0.252 C 
HETATM   27  O   UNK N   1      33.358  11.159  14.613  0.00  0.00    -0.268 OA
HETATM   28  H   UNK N   1      36.314  12.058  14.284  0.00  0.00     0.163 HD
BRANCH  26  29
HETATM   29  C   UNK N   1      34.797  11.810  16.342  0.00  0.00     0.032 A 
HETATM   30  C   UNK N   1      34.808  13.115  16.852  0.00  0.00     0.017 A 
HETATM   31  C   UNK N   1      35.106  13.342  18.199  0.00  0.00     0.001 A 
HETATM   32  C   UNK N   1      35.411  12.266  19.038  0.00  0.00     0.000 A 
HETATM   33  C   UNK N   1      35.409  10.963  18.535  0.00  0.00     0.001 A 
HETATM   34  C   UNK N   1      35.096  10.735  17.193  0.00  0.00     0.017 A 
ENDBRANCH  26  29
ENDBRANCH   1  25
TORSDOF 9
ENDMDL
MODEL 4
REMARK VINA RESULT:      -7.5      8.904     11.893
REMARK  9 active torsions:
REMARK  status: ('A' for Active; 'I' for Inactive)
REMARK    1  A    between atoms: C_1  and  O_7 
REMARK    2  A    between atoms: C_4  and  C_8 
REMARK    3  A    between atoms: C_8  and  C_9 
REMARK    4  A    between atoms: C_9  and  C_10 
REMARK    5  A    between atoms: C_9  and  N_22 
REMARK       I    between atoms: C_10  and  N_11 
REMARK    6  A    between atoms: N_11  and  C_13 
REMARK    7  A    between atoms: C_16  and  C_19 
REMARK    8  A    between atoms: C_19  and  O_21 
REMARK       I    between atoms: N_22  and  C_23 
REMARK    9  A    between atoms: C_23  and  C_24 
ROOT
HETATM    1  C   UNK N   1      34.390  16.144   7.583  0.00  0.00     0.181 C 
ENDROOT
BRANCH   1   2
HETATM    2  C   UNK N   1      34.772  15.720   6.160  0.00  0.00     0.073 C 
BRANCH   2   3
HETATM    3  C   UNK N   1      33.645  16.000   5.207  0.00  0.00    -0.056 A 
HETATM    4  C   UNK N   1      33.457  17.294   4.708  0.00  0.00     0.010 A 
HETATM    5  C   UNK N   1      32.379  17.569   3.855  0.00  0.00     0.037 A 
HETATM    6  C   UNK N   1      31.487  16.551   3.502  0.00  0.00     0.065 A 
HETATM    7  C   UNK N   1      31.678  15.255   3.987  0.00  0.00     0.037 A 
HETATM    8  C   UNK N   1      32.754  14.981   4.835  0.00  0.00     0.010 A 
BRANCH   6   9
HETATM    9  O   UNK N   1      30.446  16.817   2.697  0.00  0.00    -0.361 OA
HETATM   10  H   UNK N   1      29.580  16.994   3.008  0.00  0.00     0.217 HD
ENDBRANCH   6   9
ENDBRANCH   2   3
ENDBRANCH   1   2
BRANCH   1  11
HETATM   11  C   UNK N   1      34.929  15.257   8.683  0.00  0.00     0.245 C 
HETATM   12  N   UNK N   1      34.331  15.267   9.903  0.00  0.00    -0.325 N 
HETATM   13  H   UNK N   1      33.459  15.722   9.957  0.00  0.00     0.169 HD
HETATM   14  O   UNK N   1      35.921  14.573   8.476  0.00  0.00    -0.271 OA
BRANCH  12  15
HETATM   15  C   UNK N   1      34.818  14.699  11.107  0.00  0.00     0.034 A 
HETATM   16  C   UNK N   1      34.634  13.342  11.412  0.00  0.00     0.030 A 
HETATM   17  C   UNK N   1      35.260  12.784  12.533  0.00  0.00     0.020 A 
HETATM   18  C   UNK N   1      36.074  13.578  13.356  0.00  0.00     0.037 A 
HETATM   19  C   UNK N   1      36.240  14.935  13.057  0.00  0.00     0.020 A 
HETATM   20  C   UNK N   1      35.627  15.485  11.932  0.00  0.00     0.030 A 
BRANCH  18  21
HETATM   21  C   UNK N   1      36.777  12.990  14.512  0.00  0.00     0.176 C 
HETATM   22  O   UNK N   1      36.320  13.104  15.638  0.00  0.00    -0.646 OA
BRANCH  21  23
HETATM   23  O   UNK N   1      37.922  12.300  14.328  0.00  0.00    -0.773 OA
HETATM   24  H   UNK N   1      38.651  12.604  13.824  0.00  0.00     0.167 HD
ENDBRANCH  21  23
ENDBRANCH  18  21
ENDBRANCH  12  15
ENDBRANCH   1  11
BRANCH   1  25
HETATM   25  N   UNK N   1      32.963  16.398   7.710  0.00  0.00    -0.343 N 
HETATM   26  C   UNK N   1      32.403  17.583   8.069  0.00  0.00     0.252 C 
HETATM   27  O   UNK N   1      33.105  18.563   8.294  0.00  0.00    -0.268 OA
HETATM   28  H   UNK N   1      32.353  15.650   7.519  0.00  0.00     0.163 HD
BRANCH  26  29
HETATM   29  C   UNK N   1      30.936  17.691   8.168  0.00  0.00     0.032 A 
HETATM   30  C   UNK N   1      30.108  17.081   7.216  0.00  0.00     0.017 A 
HETATM   31  C   UNK N   1      28.718  17.183   7.324  0.00  0.00     0.001 A 
HETATM   32  C   UNK N   1      28.149  17.908   8.375  0.00  0.00     0.000 A 
HETATM   33  C   UNK N   1      28.969  18.525   9.324  0.00  0.00     0.001 A 
HETATM   34  C   UNK N   1      30.357  18.411   9.225  0.00  0.00     0.017 A 
ENDBRANCH  26  29
ENDBRANCH   1  25
TORSDOF 9
ENDMDL
MODEL 5
REMARK VINA RESULT:      -7.3     11.806     14.877
REMARK  9 active torsions:
REMARK  status: ('A' for Active; 'I' for Inactive)
REMARK    1  A    between atoms: C_1  and  O_7 
REMARK    2  A    between atoms: C_4  and  C_8 
REMARK    3  A    between atoms: C_8  and  C_9 
REMARK    4  A    between atoms: C_9  and  C_10 
REMARK    5  A    between atoms: C_9  and  N_22 
REMARK       I    between atoms: C_10  and  N_11 
REMARK    6  A    between atoms: N_11  and  C_13 
REMARK    7  A    between atoms: C_16  and  C_19 
REMARK    8  A    between atoms: C_19  and  O_21 
REMARK       I    between atoms: N_22  and  C_23 
REMARK    9  A    between atoms: C_23  and  C_24 
ROOT
HETATM    1  C   UNK N   1      36.229  13.590  11.371  0.00  0.00     0.181 C 
ENDROOT
BRANCH   1   2
HETATM    2  C   UNK N   1      36.527  12.225  10.740  0.00  0.00     0.073 C 
BRANCH   2   3
HETATM    3  C   UNK N   1      35.251  11.546  10.330  0.00  0.00    -0.056 A 
HETATM    4  C   UNK N   1      34.684  11.819   9.080  0.00  0.00     0.010 A 
HETATM    5  C   UNK N   1      33.470  11.223   8.713  0.00  0.00     0.037 A 
HETATM    6  C   UNK N   1      32.820  10.354   9.596  0.00  0.00     0.065 A 
HETATM    7  C   UNK N   1      33.389  10.068  10.840  0.00  0.00     0.037 A 
HETATM    8  C   UNK N   1      34.600  10.660  11.203  0.00  0.00     0.010 A 
BRANCH   6   9
HETATM    9  O   UNK N   1      31.650   9.794   9.251  0.00  0.00    -0.361 OA
HETATM   10  H   UNK N   1      31.334   8.987   9.608  0.00  0.00     0.217 HD
ENDBRANCH   6   9
ENDBRANCH   2   3
ENDBRANCH   1   2
BRANCH   1  11
HETATM   11  C   UNK N   1      35.789  13.545  12.817  0.00  0.00     0.245 C 
HETATM   12  N   UNK N   1      36.708  13.289  13.786  0.00  0.00    -0.325 N 
HETATM   13  H   UNK N   1      37.653  13.324  13.512  0.00  0.00     0.169 HD
HETATM   14  O   UNK N   1      34.609  13.697  13.095  0.00  0.00    -0.271 OA
BRANCH  12  15
HETATM   15  C   UNK N   1      36.460  12.978  15.147  0.00  0.00     0.034 A 
HETATM   16  C   UNK N   1      36.115  13.967  16.081  0.00  0.00     0.030 A 
HETATM   17  C   UNK N   1      35.729  13.603  17.376  0.00  0.00     0.020 A 
HETATM   18  C   UNK N   1      35.685  12.249  17.748  0.00  0.00     0.037 A 
HETATM   19  C   UNK N   1      36.047  11.269  16.817  0.00  0.00     0.020 A 
HETATM   20  C   UNK N   1      36.418  11.632  15.523  0.00  0.00     0.030 A 
BRANCH  18  21
HETATM   21  C   UNK N   1      35.233  11.852  19.094  0.00  0.00     0.176 C 
HETATM   22  O   UNK N   1      34.816  10.723  19.298  0.00  0.00    -0.646 OA
BRANCH  21  23
HETATM   23  O   UNK N   1      35.299  12.729  20.117  0.00  0.00    -0.773 OA
HETATM   24  H   UNK N   1      34.554  13.089  20.558  0.00  0.00     0.167 HD
ENDBRANCH  21  23
ENDBRANCH  18  21
ENDBRANCH  12  15
ENDBRANCH   1  11
BRANCH   1  25
HETATM   25  N   UNK N   1      35.350  14.394  10.537  0.00  0.00    -0.343 N 
HETATM   26  C   UNK N   1      35.522  15.711  10.250  0.00  0.00     0.252 C 
HETATM   27  O   UNK N   1      36.493  16.322  10.683  0.00  0.00    -0.268 OA
HETATM   28  H   UNK N   1      34.565  13.947  10.146  0.00  0.00     0.163 HD
BRANCH  26  29
HETATM   29  C   UNK N   1      34.539  16.403   9.396  0.00  0.00     0.032 A 
HETATM   30  C   UNK N   1      34.809  17.680   8.886  0.00  0.00     0.017 A 
HETATM   31  C   UNK N   1      33.874  18.324   8.071  0.00  0.00     0.001 A 
HETATM   32  C   UNK N   1      32.658  17.701   7.773  0.00  0.00     0.000 A 
HETATM   33  C   UNK N   1      32.380  16.430   8.283  0.00  0.00     0.001 A 
HETATM   34  C   UNK N   1      33.320  15.780   9.085  0.00  0.00     0.017 A 
ENDBRANCH  26  29
ENDBRANCH   1  25
TORSDOF 9
ENDMDL
MODEL 6
REMARK VINA RESULT:      -7.3     12.367     15.504
REMARK  9 active torsions:
REMARK  status: ('A' for Active; 'I' for Inactive)
REMARK    1  A    between atoms: C_1  and  O_7 
REMARK    2  A    between atoms: C_4  and  C_8 
REMARK    3  A    between atoms: C_8  and  C_9 
REMARK    4  A    between atoms: C_9  and  C_10 
REMARK    5  A    between atoms: C_9  and  N_22 
REMARK       I    between atoms: C_10  and  N_11 
REMARK    6  A    between atoms: N_11  and  C_13 
REMARK    7  A    between atoms: C_16  and  C_19 
REMARK    8  A    between atoms: C_19  and  O_21 
REMARK       I    between atoms: N_22  and  C_23 
REMARK    9  A    between atoms: C_23  and  C_24 
ROOT
HETATM    1  C   UNK N   1      36.296  13.812  11.953  0.00  0.00     0.181 C 
ENDROOT
BRANCH   1   2
HETATM    2  C   UNK N   1      36.907  12.539  11.356  0.00  0.00     0.073 C 
BRANCH   2   3
HETATM    3  C   UNK N   1      37.407  12.800   9.963  0.00  0.00    -0.056 A 
HETATM    4  C   UNK N   1      36.760  12.216   8.868  0.00  0.00     0.010 A 
HETATM    5  C   UNK N   1      37.252  12.420   7.571  0.00  0.00     0.037 A 
HETATM    6  C   UNK N   1      38.390  13.206   7.368  0.00  0.00     0.065 A 
HETATM    7  C   UNK N   1      39.031  13.803   8.457  0.00  0.00     0.037 A 
HETATM    8  C   UNK N   1      38.539  13.601   9.749  0.00  0.00     0.010 A 
BRANCH   6   9
HETATM    9  O   UNK N   1      38.869  13.390   6.127  0.00  0.00    -0.361 OA
HETATM   10  H   UNK N   1      39.598  12.917   5.776  0.00  0.00     0.217 HD
ENDBRANCH   6   9
ENDBRANCH   2   3
ENDBRANCH   1   2
BRANCH   1  11
HETATM   11  C   UNK N   1      35.728  13.656  13.347  0.00  0.00     0.245 C 
HETATM   12  N   UNK N   1      36.530  13.876  14.423  0.00  0.00    -0.325 N 
HETATM   13  H   UNK N   1      37.398  14.303  14.240  0.00  0.00     0.169 HD
HETATM   14  O   UNK N   1      34.569  13.295  13.491  0.00  0.00    -0.271 OA
BRANCH  12  15
HETATM   15  C   UNK N   1      36.259  13.560  15.778  0.00  0.00     0.034 A 
HETATM   16  C   UNK N   1      36.072  14.558  16.747  0.00  0.00     0.030 A 
HETATM   17  C   UNK N   1      35.656  14.211  18.037  0.00  0.00     0.020 A 
HETATM   18  C   UNK N   1      35.424  12.867  18.369  0.00  0.00     0.037 A 
HETATM   19  C   UNK N   1      35.630  11.875  17.404  0.00  0.00     0.020 A 
HETATM   20  C   UNK N   1      36.031  12.223  16.115  0.00  0.00     0.030 A 
BRANCH  18  21
HETATM   21  C   UNK N   1      34.939  12.495  19.712  0.00  0.00     0.176 C 
HETATM   22  O   UNK N   1      34.896  11.324  20.051  0.00  0.00    -0.646 OA
BRANCH  21  23
HETATM   23  O   UNK N   1      34.560  13.452  20.584  0.00  0.00    -0.773 OA
HETATM   24  H   UNK N   1      33.726  13.482  21.011  0.00  0.00     0.167 HD
ENDBRANCH  21  23
ENDBRANCH  18  21
ENDBRANCH  12  15
ENDBRANCH   1  11
BRANCH   1  25
HETATM   25  N   UNK N   1      35.370  14.454  11.034  0.00  0.00    -0.343 N 
HETATM   26  C   UNK N   1      35.501  15.710  10.533  0.00  0.00     0.252 C 
HETATM   27  O   UNK N   1      36.471  16.400  10.825  0.00  0.00    -0.268 OA
HETATM   28  H   UNK N   1      34.583  13.935  10.750  0.00  0.00     0.163 HD
BRANCH  26  29
HETATM   29  C   UNK N   1      34.474  16.236   9.615  0.00  0.00     0.032 A 
HETATM   30  C   UNK N   1      34.658  17.464   8.964  0.00  0.00     0.017 A 
HETATM   31  C   UNK N   1      33.681  17.950   8.090  0.00  0.00     0.001 A 
HETATM   32  C   UNK N   1      32.510  17.218   7.873  0.00  0.00     0.000 A 
HETATM   33  C   UNK N   1      32.317  15.997   8.523  0.00  0.00     0.001 A 
HETATM   34  C   UNK N   1      33.298  15.503   9.385  0.00  0.00     0.017 A 
ENDBRANCH  26  29
ENDBRANCH   1  25
TORSDOF 9
ENDMDL
MODEL 7
REMARK VINA RESULT:      -7.3      2.810      8.017
REMARK  9 active torsions:
REMARK  status: ('A' for Active; 'I' for Inactive)
REMARK    1  A    between atoms: C_1  and  O_7 
REMARK    2  A    between atoms: C_4  and  C_8 
REMARK    3  A    between atoms: C_8  and  C_9 
REMARK    4  A    between atoms: C_9  and  C_10 
REMARK    5  A    between atoms: C_9  and  N_22 
REMARK       I    between atoms: C_10  and  N_11 
REMARK    6  A    between atoms: N_11  and  C_13 
REMARK    7  A    between atoms: C_16  and  C_19 
REMARK    8  A    between atoms: C_19  and  O_21 
REMARK       I    between atoms: N_22  and  C_23 
REMARK    9  A    between atoms: C_23  and  C_24 
ROOT
HETATM    1  C   UNK N   1      26.386  15.680   6.411  0.00  0.00     0.181 C 
ENDROOT
BRANCH   1   2
HETATM    2  C   UNK N   1      26.055  14.184   6.468  0.00  0.00     0.073 C 
BRANCH   2   3
HETATM    3  C   UNK N   1      24.914  13.934   7.413  0.00  0.00    -0.056 A 
HETATM    4  C   UNK N   1      23.607  14.261   7.033  0.00  0.00     0.010 A 
HETATM    5  C   UNK N   1      22.546  14.071   7.929  0.00  0.00     0.037 A 
HETATM    6  C   UNK N   1      22.790  13.557   9.206  0.00  0.00     0.065 A 
HETATM    7  C   UNK N   1      24.091  13.217   9.585  0.00  0.00     0.037 A 
HETATM    8  C   UNK N   1      25.147  13.403   8.691  0.00  0.00     0.010 A 
BRANCH   6   9
HETATM    9  O   UNK N   1      21.776  13.389  10.070  0.00  0.00    -0.361 OA
HETATM   10  H   UNK N   1      21.394  12.557  10.267  0.00  0.00     0.217 HD
ENDBRANCH   6   9
ENDBRANCH   2   3
ENDBRANCH   1   2
BRANCH   1  11
HETATM   11  C   UNK N   1      25.762  16.430   5.256  0.00  0.00     0.245 C 
HETATM   12  N   UNK N   1      25.015  17.538   5.506  0.00  0.00    -0.325 N 
HETATM   13  H   UNK N   1      25.067  17.902   6.420  0.00  0.00     0.169 HD
HETATM   14  O   UNK N   1      25.899  16.010   4.117  0.00  0.00    -0.271 OA
BRANCH  12  15
HETATM   15  C   UNK N   1      24.169  18.229   4.602  0.00  0.00     0.034 A 
HETATM   16  C   UNK N   1      22.827  17.860   4.415  0.00  0.00     0.030 A 
HETATM   17  C   UNK N   1      21.984  18.657   3.633  0.00  0.00     0.020 A 
HETATM   18  C   UNK N   1      22.474  19.827   3.032  0.00  0.00     0.037 A 
HETATM   19  C   UNK N   1      23.817  20.180   3.207  0.00  0.00     0.020 A 
HETATM   20  C   UNK N   1      24.652  19.393   3.998  0.00  0.00     0.030 A 
BRANCH  18  21
HETATM   21  C   UNK N   1      21.582  20.700   2.246  0.00  0.00     0.176 C 
HETATM   22  O   UNK N   1      21.586  20.651   1.026  0.00  0.00    -0.646 OA
BRANCH  21  23
HETATM   23  O   UNK N   1      20.737  21.545   2.872  0.00  0.00    -0.773 OA
HETATM   24  H   UNK N   1      21.005  22.282   3.385  0.00  0.00     0.167 HD
ENDBRANCH  21  23
ENDBRANCH  18  21
ENDBRANCH  12  15
ENDBRANCH   1  11
BRANCH   1  25
HETATM   25  N   UNK N   1      27.814  15.926   6.540  0.00  0.00    -0.343 N 
HETATM   26  C   UNK N   1      28.382  17.118   6.859  0.00  0.00     0.252 C 
HETATM   27  O   UNK N   1      27.685  18.100   7.091  0.00  0.00    -0.268 OA
HETATM   28  H   UNK N   1      28.420  15.165   6.385  0.00  0.00     0.163 HD
BRANCH  26  29
HETATM   29  C   UNK N   1      29.851  17.224   6.943  0.00  0.00     0.032 A 
HETATM   30  C   UNK N   1      30.647  17.042   5.804  0.00  0.00     0.017 A 
HETATM   31  C   UNK N   1      32.038  17.152   5.893  0.00  0.00     0.001 A 
HETATM   32  C   UNK N   1      32.640  17.429   7.124  0.00  0.00     0.000 A 
HETATM   33  C   UNK N   1      31.853  17.604   8.264  0.00  0.00     0.001 A 
HETATM   34  C   UNK N   1      30.463  17.510   8.173  0.00  0.00     0.017 A 
ENDBRANCH  26  29
ENDBRANCH   1  25
TORSDOF 9
ENDMDL
MODEL 8
REMARK VINA RESULT:      -7.2     12.368     15.709
REMARK  9 active torsions:
REMARK  status: ('A' for Active; 'I' for Inactive)
REMARK    1  A    between atoms: C_1  and  O_7 
REMARK    2  A    between atoms: C_4  and  C_8 
REMARK    3  A    between atoms: C_8  and  C_9 
REMARK    4  A    between atoms: C_9  and  C_10 
REMARK    5  A    between atoms: C_9  and  N_22 
REMARK       I    between atoms: C_10  and  N_11 
REMARK    6  A    between atoms: N_11  and  C_13 
REMARK    7  A    between atoms: C_16  and  C_19 
REMARK    8  A    between atoms: C_19  and  O_21 
REMARK       I    between atoms: N_22  and  C_23 
REMARK    9  A    between atoms: C_23  and  C_24 
ROOT
HETATM    1  C   UNK N   1      36.450  14.201  11.886  0.00  0.00     0.181 C 
ENDROOT
BRANCH   1   2
HETATM    2  C   UNK N   1      37.421  13.237  11.196  0.00  0.00     0.073 C 
BRANCH   2   3
HETATM    3  C   UNK N   1      36.858  11.844  11.183  0.00  0.00    -0.056 A 
HETATM    4  C   UNK N   1      37.411  10.858  12.008  0.00  0.00     0.010 A 
HETATM    5  C   UNK N   1      36.918   9.547  11.963  0.00  0.00     0.037 A 
HETATM    6  C   UNK N   1      35.873   9.219  11.094  0.00  0.00     0.065 A 
HETATM    7  C   UNK N   1      35.309  10.203  10.278  0.00  0.00     0.037 A 
HETATM    8  C   UNK N   1      35.798  11.510  10.324  0.00  0.00     0.010 A 
BRANCH   6   9
HETATM    9  O   UNK N   1      35.411   7.960  11.041  0.00  0.00    -0.361 OA
HETATM   10  H   UNK N   1      35.037   7.512  11.774  0.00  0.00     0.217 HD
ENDBRANCH   6   9
ENDBRANCH   2   3
ENDBRANCH   1   2
BRANCH   1  11
HETATM   11  C   UNK N   1      35.846  13.689  13.175  0.00  0.00     0.245 C 
HETATM   12  N   UNK N   1      36.633  13.563  14.277  0.00  0.00    -0.325 N 
HETATM   13  H   UNK N   1      37.521  13.985  14.229  0.00  0.00     0.169 HD
HETATM   14  O   UNK N   1      34.671  13.353  13.201  0.00  0.00    -0.271 OA
BRANCH  12  15
HETATM   15  C   UNK N   1      36.320  12.893  15.487  0.00  0.00     0.034 A 
HETATM   16  C   UNK N   1      35.626  13.531  16.527  0.00  0.00     0.030 A 
HETATM   17  C   UNK N   1      35.202  12.795  17.639  0.00  0.00     0.020 A 
HETATM   18  C   UNK N   1      35.468  11.419  17.721  0.00  0.00     0.037 A 
HETATM   19  C   UNK N   1      36.175  10.793  16.689  0.00  0.00     0.020 A 
HETATM   20  C   UNK N   1      36.585  11.524  15.575  0.00  0.00     0.030 A 
BRANCH  18  21
HETATM   21  C   UNK N   1      34.983  10.625  18.866  0.00  0.00     0.176 C 
HETATM   22  O   UNK N   1      35.067  11.063  20.002  0.00  0.00    -0.646 OA
BRANCH  21  23
HETATM   23  O   UNK N   1      34.420   9.416  18.661  0.00  0.00    -0.773 OA
HETATM   24  H   UNK N   1      34.899   8.620  18.540  0.00  0.00     0.167 HD
ENDBRANCH  21  23
ENDBRANCH  18  21
ENDBRANCH  12  15
ENDBRANCH   1  11
BRANCH   1  25
HETATM   25  N   UNK N   1      35.454  14.723  10.964  0.00  0.00    -0.343 N 
HETATM   26  C   UNK N   1      35.474  15.958  10.398  0.00  0.00     0.252 C 
HETATM   27  O   UNK N   1      36.395  16.735  10.627  0.00  0.00    -0.268 OA
HETATM   28  H   UNK N   1      34.702  14.132  10.728  0.00  0.00     0.163 HD
BRANCH  26  29
HETATM   29  C   UNK N   1      34.386  16.357   9.486  0.00  0.00     0.032 A 
HETATM   30  C   UNK N   1      33.273  15.528   9.295  0.00  0.00     0.017 A 
HETATM   31  C   UNK N   1      32.244  15.919   8.434  0.00  0.00     0.001 A 
HETATM   32  C   UNK N   1      32.329  17.135   7.748  0.00  0.00     0.000 A 
HETATM   33  C   UNK N   1      33.439  17.964   7.929  0.00  0.00     0.001 A 
HETATM   34  C   UNK N   1      34.460  17.581   8.800  0.00  0.00     0.017 A 
ENDBRANCH  26  29
ENDBRANCH   1  25
TORSDOF 9
ENDMDL
MODEL 9
REMARK VINA RESULT:      -7.2      6.211     10.900
REMARK  9 active torsions:
REMARK  status: ('A' for Active; 'I' for Inactive)
REMARK    1  A    between atoms: C_1  and  O_7 
REMARK    2  A    between atoms: C_4  and  C_8 
REMARK    3  A    between atoms: C_8  and  C_9 
REMARK    4  A    between atoms: C_9  and  C_10 
REMARK    5  A    between atoms: C_9  and  N_22 
REMARK       I    between atoms: C_10  and  N_11 
REMARK    6  A    between atoms: N_11  and  C_13 
REMARK    7  A    between atoms: C_16  and  C_19 
REMARK    8  A    between atoms: C_19  and  O_21 
REMARK       I    between atoms: N_22  and  C_23 
REMARK    9  A    between atoms: C_23  and  C_24 
ROOT
HETATM    1  C   UNK N   1      30.873  17.328   5.684  0.00  0.00     0.181 C 
ENDROOT
BRANCH   1   2
HETATM    2  C   UNK N   1      30.593  17.077   7.170  0.00  0.00     0.073 C 
BRANCH   2   3
HETATM    3  C   UNK N   1      31.882  16.958   7.934  0.00  0.00    -0.056 A 
HETATM    4  C   UNK N   1      32.796  18.018   7.935  0.00  0.00     0.010 A 
HETATM    5  C   UNK N   1      34.018  17.892   8.608  0.00  0.00     0.037 A 
HETATM    6  C   UNK N   1      34.329  16.706   9.281  0.00  0.00     0.065 A 
HETATM    7  C   UNK N   1      33.415  15.650   9.295  0.00  0.00     0.037 A 
HETATM    8  C   UNK N   1      32.196  15.777   8.626  0.00  0.00     0.010 A 
BRANCH   6   9
HETATM    9  O   UNK N   1      35.507  16.580   9.914  0.00  0.00    -0.361 OA
HETATM   10  H   UNK N   1      35.624  16.738  10.830  0.00  0.00     0.217 HD
ENDBRANCH   6   9
ENDBRANCH   2   3
ENDBRANCH   1   2
BRANCH   1  11
HETATM   11  C   UNK N   1      29.645  17.567   4.833  0.00  0.00     0.245 C 
HETATM   12  N   UNK N   1      28.797  18.580   5.154  0.00  0.00    -0.325 N 
HETATM   13  H   UNK N   1      29.122  19.225   5.823  0.00  0.00     0.169 HD
HETATM   14  O   UNK N   1      29.407  16.822   3.894  0.00  0.00    -0.271 OA
BRANCH  12  15
HETATM   15  C   UNK N   1      27.498  18.813   4.635  0.00  0.00     0.034 A 
HETATM   16  C   UNK N   1      26.389  18.065   5.057  0.00  0.00     0.030 A 
HETATM   17  C   UNK N   1      25.102  18.424   4.639  0.00  0.00     0.020 A 
HETATM   18  C   UNK N   1      24.915  19.532   3.797  0.00  0.00     0.037 A 
HETATM   19  C   UNK N   1      26.027  20.264   3.366  0.00  0.00     0.020 A 
HETATM   20  C   UNK N   1      27.307  19.913   3.795  0.00  0.00     0.030 A 
BRANCH  18  21
HETATM   21  C   UNK N   1      23.560  19.949   3.390  0.00  0.00     0.176 C 
HETATM   22  O   UNK N   1      22.608  19.205   3.557  0.00  0.00    -0.646 OA
BRANCH  21  23
HETATM   23  O   UNK N   1      23.361  21.169   2.850  0.00  0.00    -0.773 OA
HETATM   24  H   UNK N   1      22.756  21.805   3.179  0.00  0.00     0.167 HD
ENDBRANCH  21  23
ENDBRANCH  18  21
ENDBRANCH  12  15
ENDBRANCH   1  11
BRANCH   1  25
HETATM   25  N   UNK N   1      31.765  16.327   5.122  0.00  0.00    -0.343 N 
HETATM   26  C   UNK N   1      32.954  16.582   4.516  0.00  0.00     0.252 C 
HETATM   27  O   UNK N   1      33.375  17.730   4.426  0.00  0.00    -0.268 OA
HETATM   28  H   UNK N   1      31.485  15.385   5.186  0.00  0.00     0.163 HD
BRANCH  26  29
HETATM   29  C   UNK N   1      33.751  15.462   3.980  0.00  0.00     0.032 A 
HETATM   30  C   UNK N   1      34.581  14.709   4.820  0.00  0.00     0.017 A 
HETATM   31  C   UNK N   1      35.326  13.645   4.304  0.00  0.00     0.001 A 
HETATM   32  C   UNK N   1      35.256  13.338   2.941  0.00  0.00     0.000 A 
HETATM   33  C   UNK N   1      34.435  14.089   2.096  0.00  0.00     0.001 A 
HETATM   34  C   UNK N   1      33.679  15.143   2.614  0.00  0.00     0.017 A 
ENDBRANCH  26  29
ENDBRANCH   1  25
TORSDOF 9
ENDMDL
