MODEL 1
REMARK VINA RESULT:      -6.7      0.000      0.000
REMARK  10 active torsions:
REMARK  status: ('A' for Active; 'I' for Inactive)
REMARK    1  A    between atoms: C_2  and  C_1 
REMARK       I    between atoms: N_4  and  C_2 
REMARK    2  A    between atoms: O_18  and  C_3 
REMARK    3  A    between atoms: C_7  and  N_4 
REMARK    4  A    between atoms: C_9  and  O_20 
REMARK    5  A    between atoms: N_16  and  C_10 
REMARK    6  A    between atoms: C_27  and  N_11 
REMARK    7  A    between atoms: O_29  and  C_21 
REMARK    8  A    between atoms: C_28  and  C_27 
REMARK    9  A    between atoms: C_30  and  C_28 
REMARK   10  A    between atoms: C_30  and  O_29 
ROOT
HETATM    1  C   UNK N   1      35.003  15.894   9.740  0.00  0.00     0.117 C 
HETATM    2  C   UNK N   1      34.723  15.406  11.154  0.00  0.00     0.171 C 
HETATM    3  N   UNK N   1      34.235  13.433   9.675  0.00  0.00     0.091 N 
HETATM    4  C   UNK N   1      34.237  13.932  11.069  0.00  0.00     0.306 C 
HETATM    5  C   UNK N   1      36.003  15.019   8.991  0.00  0.00     0.058 C 
HETATM    6  C   UNK N   1      35.565  13.553   9.069  0.00  0.00     0.274 C 
ENDROOT
BRANCH   1   7
HETATM    7  N   UNK N   1      35.243  17.300   9.561  0.00  0.00    -0.350 N 
HETATM    8  C   UNK N   1      34.564  18.026   8.624  0.00  0.00     0.254 C 
HETATM    9  O   UNK N   1      34.949  19.154   8.383  0.00  0.00    -0.268 OA
HETATM   10  H   UNK N   1      35.912  17.750  10.127  0.00  0.00     0.163 HD
BRANCH   8  11
HETATM   11  C   UNK N   1      33.396  17.443   7.853  0.00  0.00     0.067 A 
HETATM   12  C   UNK N   1      33.555  16.679   6.661  0.00  0.00     0.086 A 
HETATM   13  C   UNK N   1      32.429  16.107   6.051  0.00  0.00     0.068 A 
HETATM   14  C   UNK N   1      31.148  16.300   6.574  0.00  0.00     0.050 A 
HETATM   15  C   UNK N   1      30.978  17.079   7.718  0.00  0.00     0.061 A 
HETATM   16  C   UNK N   1      32.090  17.631   8.341  0.00  0.00     0.046 A 
HETATM   17 Cl   UNK N   1      29.387  17.364   8.405  0.00  0.00    -0.082 Cl
BRANCH  12  18
HETATM   18  O   UNK N   1      34.763  16.430   6.116  0.00  0.00    -0.355 OA
HETATM   19  C   UNK N   1      35.035  15.246   5.475  0.00  0.00     0.210 C 
ENDBRANCH  12  18
BRANCH  14  20
HETATM   20  N   UNK N   1      30.036  15.708   5.939  0.00  0.00    -0.398 N 
HETATM   21  H   UNK N   1      29.159  15.702   6.386  0.00  0.00     0.156 HD
HETATM   22  H   UNK N   1      30.137  15.302   5.048  0.00  0.00     0.156 HD
ENDBRANCH  14  20
ENDBRANCH   8  11
ENDBRANCH   1   7
BRANCH   2  23
HETATM   23  O   UNK N   1      35.889  15.478  11.922  0.00  0.00    -0.387 OA
HETATM   24  C   UNK N   1      35.838  14.388  12.791  0.00  0.00     0.202 C 
ENDBRANCH   2  23
BRANCH   3  25
HETATM   25  C   UNK N   1      33.716  12.074   9.496  0.00  0.00     0.274 C 
BRANCH  25  26
HETATM   26  C   UNK N   1      34.504  10.980  10.211  0.00  0.00     0.057 C 
BRANCH  26  27
HETATM   27  C   UNK N   1      33.648  10.118  11.119  0.00  0.00     0.177 C 
BRANCH  27  28
HETATM   28  O   UNK N   1      34.488   9.578  12.062  0.00  0.00    -0.351 OA
BRANCH  28  29
HETATM   29  C   UNK N   1      34.844  10.218  13.197  0.00  0.00     0.068 A 
HETATM   30  C   UNK N   1      36.190  10.449  13.530  0.00  0.00     0.040 A 
HETATM   31  C   UNK N   1      36.512  11.138  14.706  0.00  0.00     0.045 A 
HETATM   32  C   UNK N   1      35.495  11.610  15.541  0.00  0.00     0.116 A 
HETATM   33  C   UNK N   1      34.158  11.377  15.213  0.00  0.00     0.045 A 
HETATM   34  F   UNK N   1      35.804  12.293  16.668  0.00  0.00    -0.206 F 
HETATM   35  C   UNK N   1      33.835  10.678  14.048  0.00  0.00     0.040 A 
ENDBRANCH  28  29
ENDBRANCH  27  28
ENDBRANCH  26  27
ENDBRANCH  25  26
ENDBRANCH   3  25
TORSDOF 10
ENDMDL
MODEL 2
REMARK VINA RESULT:      -6.7      9.918     12.463
REMARK  10 active torsions:
REMARK  status: ('A' for Active; 'I' for Inactive)
REMARK    1  A    between atoms: C_2  and  C_1 
REMARK       I    between atoms: N_4  and  C_2 
REMARK    2  A    between atoms: O_18  and  C_3 
REMARK    3  A    between atoms: C_7  and  N_4 
REMARK    4  A    between atoms: C_9  and  O_20 
REMARK    5  A    between atoms: N_16  and  C_10 
REMARK    6  A    between atoms: C_27  and  N_11 
REMARK    7  A    between atoms: O_29  and  C_21 
REMARK    8  A    between atoms: C_28  and  C_27 
REMARK    9  A    between atoms: C_30  and  C_28 
REMARK   10  A    between atoms: C_30  and  O_29 
ROOT
HETATM    1  C   UNK N   1      22.369  18.365   3.978  0.00  0.00     0.117 C 
HETATM    2  C   UNK N   1      21.930  17.025   3.407  0.00  0.00     0.171 C 
HETATM    3  N   UNK N   1      22.169  16.632   5.877  0.00  0.00     0.091 N 
HETATM    4  C   UNK N   1      21.849  16.004   4.575  0.00  0.00     0.306 C 
HETATM    5  C   UNK N   1      21.460  18.867   5.096  0.00  0.00     0.058 C 
HETATM    6  C   UNK N   1      21.282  17.768   6.149  0.00  0.00     0.274 C 
ENDROOT
BRANCH   1   7
HETATM    7  N   UNK N   1      22.732  19.397   3.045  0.00  0.00    -0.350 N 
HETATM    8  C   UNK N   1      23.959  19.995   3.085  0.00  0.00     0.254 C 
HETATM    9  O   UNK N   1      24.134  20.989   2.407  0.00  0.00    -0.268 OA
HETATM   10  H   UNK N   1      22.081  19.677   2.361  0.00  0.00     0.163 HD
BRANCH   8  11
HETATM   11  C   UNK N   1      25.068  19.486   3.984  0.00  0.00     0.067 A 
HETATM   12  C   UNK N   1      25.675  18.208   3.820  0.00  0.00     0.086 A 
HETATM   13  C   UNK N   1      26.751  17.843   4.645  0.00  0.00     0.068 A 
HETATM   14  C   UNK N   1      27.215  18.697   5.647  0.00  0.00     0.050 A 
HETATM   15  C   UNK N   1      26.601  19.935   5.841  0.00  0.00     0.061 A 
HETATM   16  C   UNK N   1      25.550  20.313   5.015  0.00  0.00     0.046 A 
HETATM   17 Cl   UNK N   1      27.138  21.038   7.097  0.00  0.00    -0.082 Cl
BRANCH  12  18
HETATM   18  O   UNK N   1      25.297  17.343   2.857  0.00  0.00    -0.355 OA
HETATM   19  C   UNK N   1      26.004  16.194   2.600  0.00  0.00     0.210 C 
ENDBRANCH  12  18
BRANCH  14  20
HETATM   20  N   UNK N   1      28.300  18.302   6.457  0.00  0.00    -0.398 N 
HETATM   21  H   UNK N   1      29.153  18.792   6.411  0.00  0.00     0.156 HD
HETATM   22  H   UNK N   1      28.205  17.536   7.068  0.00  0.00     0.156 HD
ENDBRANCH  14  20
ENDBRANCH   8  11
ENDBRANCH   1   7
BRANCH   2  23
HETATM   23  O   UNK N   1      20.677  17.155   2.801  0.00  0.00    -0.387 OA
HETATM   24  C   UNK N   1      19.978  15.991   3.124  0.00  0.00     0.202 C 
ENDBRANCH   2  23
BRANCH   3  25
HETATM   25  C   UNK N   1      22.192  15.721   7.025  0.00  0.00     0.274 C 
BRANCH  25  26
HETATM   26  C   UNK N   1      20.939  14.867   7.199  0.00  0.00     0.057 C 
BRANCH  26  27
HETATM   27  C   UNK N   1      21.239  13.399   7.436  0.00  0.00     0.177 C 
BRANCH  27  28
HETATM   28  O   UNK N   1      20.741  13.087   8.678  0.00  0.00    -0.351 OA
BRANCH  28  29
HETATM   29  C   UNK N   1      21.517  12.728   9.723  0.00  0.00     0.068 A 
HETATM   30  C   UNK N   1      22.921  12.743   9.648  0.00  0.00     0.040 A 
HETATM   31  C   UNK N   1      23.686  12.385  10.765  0.00  0.00     0.045 A 
HETATM   32  C   UNK N   1      23.054  12.028  11.960  0.00  0.00     0.116 A 
HETATM   33  C   UNK N   1      21.660  12.009  12.034  0.00  0.00     0.045 A 
HETATM   34  F   UNK N   1      23.792  11.700  13.047  0.00  0.00    -0.206 F 
HETATM   35  C   UNK N   1      20.896  12.352  10.917  0.00  0.00     0.040 A 
ENDBRANCH  28  29
ENDBRANCH  27  28
ENDBRANCH  26  27
ENDBRANCH  25  26
ENDBRANCH   3  25
TORSDOF 10
ENDMDL
MODEL 3
REMARK VINA RESULT:      -6.6      9.629     12.130
REMARK  10 active torsions:
REMARK  status: ('A' for Active; 'I' for Inactive)
REMARK    1  A    between atoms: C_2  and  C_1 
REMARK       I    between atoms: N_4  and  C_2 
REMARK    2  A    between atoms: O_18  and  C_3 
REMARK    3  A    between atoms: C_7  and  N_4 
REMARK    4  A    between atoms: C_9  and  O_20 
REMARK    5  A    between atoms: N_16  and  C_10 
REMARK    6  A    between atoms: C_27  and  N_11 
REMARK    7  A    between atoms: O_29  and  C_21 
REMARK    8  A    between atoms: C_28  and  C_27 
REMARK    9  A    between atoms: C_30  and  C_28 
REMARK   10  A    between atoms: C_30  and  O_29 
ROOT
HETATM    1  C   UNK N   1      22.797  18.123   4.286  0.00  0.00     0.117 C 
HETATM    2  C   UNK N   1      22.569  16.811   3.550  0.00  0.00     0.171 C 
HETATM    3  N   UNK N   1      22.886  16.161   5.956  0.00  0.00     0.091 N 
HETATM    4  C   UNK N   1      22.658  15.655   4.584  0.00  0.00     0.306 C 
HETATM    5  C   UNK N   1      21.830  18.336   5.446  0.00  0.00     0.058 C 
HETATM    6  C   UNK N   1      21.835  17.102   6.355  0.00  0.00     0.274 C 
ENDROOT
BRANCH   1   7
HETATM    7  N   UNK N   1      22.987  19.305   3.489  0.00  0.00    -0.350 N 
HETATM    8  C   UNK N   1      24.216  19.887   3.359  0.00  0.00     0.254 C 
HETATM    9  O   UNK N   1      24.276  20.987   2.843  0.00  0.00    -0.268 OA
HETATM   10  H   UNK N   1      22.214  19.702   3.027  0.00  0.00     0.163 HD
BRANCH   8  11
HETATM   11  C   UNK N   1      25.474  19.226   3.886  0.00  0.00     0.067 A 
HETATM   12  C   UNK N   1      26.193  19.713   5.015  0.00  0.00     0.086 A 
HETATM   13  C   UNK N   1      27.304  18.998   5.488  0.00  0.00     0.068 A 
HETATM   14  C   UNK N   1      27.738  17.834   4.850  0.00  0.00     0.050 A 
HETATM   15  C   UNK N   1      27.065  17.371   3.720  0.00  0.00     0.061 A 
HETATM   16  C   UNK N   1      25.951  18.061   3.258  0.00  0.00     0.046 A 
HETATM   17 Cl   UNK N   1      27.581  15.921   2.874  0.00  0.00    -0.082 Cl
BRANCH  12  18
HETATM   18  O   UNK N   1      25.815  20.814   5.695  0.00  0.00    -0.355 OA
HETATM   19  C   UNK N   1      26.522  21.270   6.781  0.00  0.00     0.210 C 
ENDBRANCH  12  18
BRANCH  14  20
HETATM   20  N   UNK N   1      28.856  17.136   5.353  0.00  0.00    -0.398 N 
HETATM   21  H   UNK N   1      28.733  16.428   6.026  0.00  0.00     0.156 HD
HETATM   22  H   UNK N   1      29.760  17.357   5.030  0.00  0.00     0.156 HD
ENDBRANCH  14  20
ENDBRANCH   8  11
ENDBRANCH   1   7
BRANCH   2  23
HETATM   23  O   UNK N   1      21.306  16.816   2.950  0.00  0.00    -0.387 OA
HETATM   24  C   UNK N   1      20.887  15.485   2.939  0.00  0.00     0.202 C 
ENDBRANCH   2  23
BRANCH   3  25
HETATM   25  C   UNK N   1      23.061  15.130   6.984  0.00  0.00     0.274 C 
BRANCH  25  26
HETATM   26  C   UNK N   1      21.766  14.576   7.572  0.00  0.00     0.057 C 
BRANCH  26  27
HETATM   27  C   UNK N   1      21.553  13.103   7.278  0.00  0.00     0.177 C 
BRANCH  27  28
HETATM   28  O   UNK N   1      21.003  12.548   8.407  0.00  0.00    -0.351 OA
BRANCH  28  29
HETATM   29  C   UNK N   1      21.694  12.338   9.548  0.00  0.00     0.068 A 
HETATM   30  C   UNK N   1      23.080  12.102   9.546  0.00  0.00     0.040 A 
HETATM   31  C   UNK N   1      23.760  11.912  10.754  0.00  0.00     0.045 A 
HETATM   32  C   UNK N   1      23.064  11.972  11.965  0.00  0.00     0.116 A 
HETATM   33  C   UNK N   1      21.687  12.202  11.969  0.00  0.00     0.045 A 
HETATM   34  F   UNK N   1      23.723  11.808  13.137  0.00  0.00    -0.206 F 
HETATM   35  C   UNK N   1      21.005  12.377  10.763  0.00  0.00     0.040 A 
ENDBRANCH  28  29
ENDBRANCH  27  28
ENDBRANCH  26  27
ENDBRANCH  25  26
ENDBRANCH   3  25
TORSDOF 10
ENDMDL
MODEL 4
REMARK VINA RESULT:      -6.6      1.653      2.225
REMARK  10 active torsions:
REMARK  status: ('A' for Active; 'I' for Inactive)
REMARK    1  A    between atoms: C_2  and  C_1 
REMARK       I    between atoms: N_4  and  C_2 
REMARK    2  A    between atoms: O_18  and  C_3 
REMARK    3  A    between atoms: C_7  and  N_4 
REMARK    4  A    between atoms: C_9  and  O_20 
REMARK    5  A    between atoms: N_16  and  C_10 
REMARK    6  A    between atoms: C_27  and  N_11 
REMARK    7  A    between atoms: O_29  and  C_21 
REMARK    8  A    between atoms: C_28  and  C_27 
REMARK    9  A    between atoms: C_30  and  C_28 
REMARK   10  A    between atoms: C_30  and  O_29 
ROOT
HETATM    1  C   UNK N   1      34.747  15.998   9.500  0.00  0.00     0.117 C 
HETATM    2  C   UNK N   1      34.572  15.420  10.897  0.00  0.00     0.171 C 
HETATM    3  N   UNK N   1      34.005  13.534   9.336  0.00  0.00     0.091 N 
HETATM    4  C   UNK N   1      34.098  13.948  10.755  0.00  0.00     0.306 C 
HETATM    5  C   UNK N   1      35.702  15.186   8.631  0.00  0.00     0.058 C 
HETATM    6  C   UNK N   1      35.288  13.711   8.648  0.00  0.00     0.274 C 
ENDROOT
BRANCH   1   7
HETATM    7  N   UNK N   1      34.958  17.416   9.392  0.00  0.00    -0.350 N 
HETATM    8  C   UNK N   1      34.393  18.147   8.385  0.00  0.00     0.254 C 
HETATM    9  O   UNK N   1      34.766  19.293   8.230  0.00  0.00    -0.268 OA
HETATM   10  H   UNK N   1      35.522  17.871  10.059  0.00  0.00     0.163 HD
BRANCH   8  11
HETATM   11  C   UNK N   1      33.369  17.548   7.441  0.00  0.00     0.067 A 
HETATM   12  C   UNK N   1      31.995  17.391   7.783  0.00  0.00     0.086 A 
HETATM   13  C   UNK N   1      31.095  16.901   6.824  0.00  0.00     0.068 A 
HETATM   14  C   UNK N   1      31.529  16.532   5.549  0.00  0.00     0.050 A 
HETATM   15  C   UNK N   1      32.880  16.645   5.217  0.00  0.00     0.061 A 
HETATM   16  C   UNK N   1      33.773  17.149   6.154  0.00  0.00     0.046 A 
HETATM   17 Cl   UNK N   1      33.477  16.180   3.633  0.00  0.00    -0.082 Cl
BRANCH  12  18
HETATM   18  O   UNK N   1      31.501  17.752   8.985  0.00  0.00    -0.355 OA
HETATM   19  C   UNK N   1      30.430  18.604   9.100  0.00  0.00     0.210 C 
ENDBRANCH  12  18
BRANCH  14  20
HETATM   20  N   UNK N   1      30.599  16.047   4.606  0.00  0.00    -0.398 N 
HETATM   21  H   UNK N   1      30.877  15.377   3.940  0.00  0.00     0.156 HD
HETATM   22  H   UNK N   1      29.672  16.378   4.614  0.00  0.00     0.156 HD
ENDBRANCH  14  20
ENDBRANCH   8  11
ENDBRANCH   1   7
BRANCH   2  23
HETATM   23  O   UNK N   1      35.788  15.465  11.586  0.00  0.00    -0.387 OA
HETATM   24  C   UNK N   1      35.796  14.340  12.411  0.00  0.00     0.202 C 
ENDBRANCH   2  23
BRANCH   3  25
HETATM   25  C   UNK N   1      33.491  12.181   9.110  0.00  0.00     0.274 C 
BRANCH  25  26
HETATM   26  C   UNK N   1      34.509  11.060   9.298  0.00  0.00     0.057 C 
BRANCH  26  27
HETATM   27  C   UNK N   1      34.227  10.186  10.506  0.00  0.00     0.177 C 
BRANCH  27  28
HETATM   28  O   UNK N   1      35.184  10.485  11.445  0.00  0.00    -0.351 OA
BRANCH  28  29
HETATM   29  C   UNK N   1      35.013  10.291  12.770  0.00  0.00     0.068 A 
HETATM   30  C   UNK N   1      35.917   9.534  13.535  0.00  0.00     0.040 A 
HETATM   31  C   UNK N   1      35.713   9.379  14.912  0.00  0.00     0.045 A 
HETATM   32  C   UNK N   1      34.618   9.991  15.529  0.00  0.00     0.116 A 
HETATM   33  C   UNK N   1      33.717  10.740  14.770  0.00  0.00     0.045 A 
HETATM   34  F   UNK N   1      34.428   9.859  16.863  0.00  0.00    -0.206 F 
HETATM   35  C   UNK N   1      33.911  10.884  13.394  0.00  0.00     0.040 A 
ENDBRANCH  28  29
ENDBRANCH  27  28
ENDBRANCH  26  27
ENDBRANCH  25  26
ENDBRANCH   3  25
TORSDOF 10
ENDMDL
MODEL 5
REMARK VINA RESULT:      -6.6     17.539     20.984
REMARK  10 active torsions:
REMARK  status: ('A' for Active; 'I' for Inactive)
REMARK    1  A    between atoms: C_2  and  C_1 
REMARK       I    between atoms: N_4  and  C_2 
REMARK    2  A    between atoms: O_18  and  C_3 
REMARK    3  A    between atoms: C_7  and  N_4 
REMARK    4  A    between atoms: C_9  and  O_20 
REMARK    5  A    between atoms: N_16  and  C_10 
REMARK    6  A    between atoms: C_27  and  N_11 
REMARK    7  A    between atoms: O_29  and  C_21 
REMARK    8  A    between atoms: C_28  and  C_27 
REMARK    9  A    between atoms: C_30  and  C_28 
REMARK   10  A    between atoms: C_30  and  O_29 
ROOT
HETATM    1  C   UNK N   1      27.181  24.956  -4.089  0.00  0.00     0.117 C 
HETATM    2  C   UNK N   1      27.156  26.477  -4.054  0.00  0.00     0.171 C 
HETATM    3  N   UNK N   1      26.994  25.880  -6.490  0.00  0.00     0.091 N 
HETATM    4  C   UNK N   1      27.071  26.994  -5.517  0.00  0.00     0.306 C 
HETATM    5  C   UNK N   1      25.989  24.353  -4.826  0.00  0.00     0.058 C 
HETATM    6  C   UNK N   1      25.851  25.007  -6.205  0.00  0.00     0.274 C 
ENDROOT
BRANCH   1   7
HETATM    7  N   UNK N   1      27.488  24.270  -2.864  0.00  0.00    -0.350 N 
HETATM    8  C   UNK N   1      28.622  23.520  -2.731  0.00  0.00     0.254 C 
HETATM    9  O   UNK N   1      28.727  22.808  -1.751  0.00  0.00    -0.268 OA
HETATM   10  H   UNK N   1      26.867  24.342  -2.104  0.00  0.00     0.163 HD
BRANCH   8  11
HETATM   11  C   UNK N   1      29.708  23.518  -3.790  0.00  0.00     0.067 A 
HETATM   12  C   UNK N   1      30.721  24.515  -3.865  0.00  0.00     0.086 A 
HETATM   13  C   UNK N   1      31.737  24.398  -4.827  0.00  0.00     0.068 A 
HETATM   14  C   UNK N   1      31.752  23.337  -5.734  0.00  0.00     0.050 A 
HETATM   15  C   UNK N   1      30.742  22.376  -5.694  0.00  0.00     0.061 A 
HETATM   16  C   UNK N   1      29.745  22.473  -4.731  0.00  0.00     0.046 A 
HETATM   17 Cl   UNK N   1      30.709  21.031  -6.823  0.00  0.00    -0.082 Cl
BRANCH  12  18
HETATM   18  O   UNK N   1      30.784  25.552  -3.005  0.00  0.00    -0.355 OA
HETATM   19  C   UNK N   1      30.790  26.854  -3.442  0.00  0.00     0.210 C 
ENDBRANCH  12  18
BRANCH  14  20
HETATM   20  N   UNK N   1      32.789  23.245  -6.686  0.00  0.00    -0.398 N 
HETATM   21  H   UNK N   1      33.649  23.696  -6.523  0.00  0.00     0.156 HD
HETATM   22  H   UNK N   1      32.653  22.730  -7.514  0.00  0.00     0.156 HD
ENDBRANCH  14  20
ENDBRANCH   8  11
ENDBRANCH   1   7
BRANCH   2  23
HETATM   23  O   UNK N   1      26.043  26.917  -3.330  0.00  0.00    -0.387 OA
HETATM   24  C   UNK N   1      25.621  28.088  -3.960  0.00  0.00     0.202 C 
ENDBRANCH   2  23
BRANCH   3  25
HETATM   25  C   UNK N   1      26.990  26.278  -7.900  0.00  0.00     0.274 C 
BRANCH  25  26
HETATM   26  C   UNK N   1      25.655  26.103  -8.619  0.00  0.00     0.057 C 
BRANCH  26  27
HETATM   27  C   UNK N   1      25.765  25.311  -9.908  0.00  0.00     0.177 C 
BRANCH  27  28
HETATM   28  O   UNK N   1      25.174  24.093  -9.678  0.00  0.00    -0.351 OA
BRANCH  28  29
HETATM   29  C   UNK N   1      25.841  23.019  -9.205  0.00  0.00     0.068 A 
HETATM   30  C   UNK N   1      25.211  22.037  -8.420  0.00  0.00     0.040 A 
HETATM   31  C   UNK N   1      25.937  20.927  -7.970  0.00  0.00     0.045 A 
HETATM   32  C   UNK N   1      27.285  20.788  -8.313  0.00  0.00     0.116 A 
HETATM   33  C   UNK N   1      27.913  21.764  -9.088  0.00  0.00     0.045 A 
HETATM   34  F   UNK N   1      27.984  19.706  -7.895  0.00  0.00    -0.206 F 
HETATM   35  C   UNK N   1      27.195  22.879  -9.527  0.00  0.00     0.040 A 
ENDBRANCH  28  29
ENDBRANCH  27  28
ENDBRANCH  26  27
ENDBRANCH  25  26
ENDBRANCH   3  25
TORSDOF 10
ENDMDL
MODEL 6
REMARK VINA RESULT:      -6.6     10.398     14.099
REMARK  10 active torsions:
REMARK  status: ('A' for Active; 'I' for Inactive)
REMARK    1  A    between atoms: C_2  and  C_1 
REMARK       I    between atoms: N_4  and  C_2 
REMARK    2  A    between atoms: O_18  and  C_3 
REMARK    3  A    between atoms: C_7  and  N_4 
REMARK    4  A    between atoms: C_9  and  O_20 
REMARK    5  A    between atoms: N_16  and  C_10 
REMARK    6  A    between atoms: C_27  and  N_11 
REMARK    7  A    between atoms: O_29  and  C_21 
REMARK    8  A    between atoms: C_28  and  C_27 
REMARK    9  A    between atoms: C_30  and  C_28 
REMARK   10  A    between atoms: C_30  and  O_29 
ROOT
HETATM    1  C   UNK N   1      21.082  16.371   4.294  0.00  0.00     0.117 C 
HETATM    2  C   UNK N   1      21.906  17.631   4.518  0.00  0.00     0.171 C 
HETATM    3  N   UNK N   1      23.595  15.796   4.203  0.00  0.00     0.091 N 
HETATM    4  C   UNK N   1      23.409  17.238   4.485  0.00  0.00     0.306 C 
HETATM    5  C   UNK N   1      21.440  15.643   3.002  0.00  0.00     0.058 C 
HETATM    6  C   UNK N   1      22.954  15.417   2.940  0.00  0.00     0.274 C 
ENDROOT
BRANCH   1   7
HETATM    7  N   UNK N   1      19.665  16.459   4.514  0.00  0.00    -0.350 N 
HETATM    8  C   UNK N   1      19.080  15.915   5.623  0.00  0.00     0.254 C 
HETATM    9  O   UNK N   1      17.866  15.846   5.654  0.00  0.00    -0.268 OA
HETATM   10  H   UNK N   1      19.103  16.922   3.851  0.00  0.00     0.163 HD
BRANCH   8  11
HETATM   11  C   UNK N   1      19.902  15.356   6.767  0.00  0.00     0.067 A 
HETATM   12  C   UNK N   1      20.106  16.056   7.991  0.00  0.00     0.086 A 
HETATM   13  C   UNK N   1      20.813  15.436   9.032  0.00  0.00     0.068 A 
HETATM   14  C   UNK N   1      21.351  14.156   8.878  0.00  0.00     0.050 A 
HETATM   15  C   UNK N   1      21.190  13.479   7.669  0.00  0.00     0.061 A 
HETATM   16  C   UNK N   1      20.473  14.077   6.641  0.00  0.00     0.046 A 
HETATM   17 Cl   UNK N   1      21.860  11.875   7.421  0.00  0.00    -0.082 Cl
BRANCH  12  18
HETATM   18  O   UNK N   1      19.592  17.282   8.220  0.00  0.00    -0.355 OA
HETATM   19  C   UNK N   1      18.513  17.470   9.048  0.00  0.00     0.210 C 
ENDBRANCH  12  18
BRANCH  14  20
HETATM   20  N   UNK N   1      22.054  13.559   9.945  0.00  0.00    -0.398 N 
HETATM   21  H   UNK N   1      22.430  14.120  10.662  0.00  0.00     0.156 HD
HETATM   22  H   UNK N   1      22.168  12.582   9.974  0.00  0.00     0.156 HD
ENDBRANCH  14  20
ENDBRANCH   8  11
ENDBRANCH   1   7
BRANCH   2  23
HETATM   23  O   UNK N   1      21.635  18.561   3.511  0.00  0.00    -0.387 OA
HETATM   24  C   UNK N   1      22.710  19.451   3.519  0.00  0.00     0.202 C 
ENDBRANCH   2  23
BRANCH   3  25
HETATM   25  C   UNK N   1      24.982  15.325   4.230  0.00  0.00     0.274 C 
BRANCH  25  26
HETATM   26  C   UNK N   1      25.771  15.560   2.945  0.00  0.00     0.057 C 
BRANCH  26  27
HETATM   27  C   UNK N   1      26.864  16.602   3.091  0.00  0.00     0.177 C 
BRANCH  27  28
HETATM   28  O   UNK N   1      26.914  16.943   4.420  0.00  0.00    -0.351 OA
BRANCH  28  29
HETATM   29  C   UNK N   1      27.092  18.207   4.860  0.00  0.00     0.068 A 
HETATM   30  C   UNK N   1      26.792  19.323   4.059  0.00  0.00     0.040 A 
HETATM   31  C   UNK N   1      26.971  20.617   4.564  0.00  0.00     0.045 A 
HETATM   32  C   UNK N   1      27.433  20.799   5.871  0.00  0.00     0.116 A 
HETATM   33  C   UNK N   1      27.736  19.692   6.666  0.00  0.00     0.045 A 
HETATM   34  F   UNK N   1      27.589  22.048   6.369  0.00  0.00    -0.206 F 
HETATM   35  C   UNK N   1      27.572  18.401   6.158  0.00  0.00     0.040 A 
ENDBRANCH  28  29
ENDBRANCH  27  28
ENDBRANCH  26  27
ENDBRANCH  25  26
ENDBRANCH   3  25
TORSDOF 10
ENDMDL
MODEL 7
REMARK VINA RESULT:      -6.5      7.224      9.817
REMARK  10 active torsions:
REMARK  status: ('A' for Active; 'I' for Inactive)
REMARK    1  A    between atoms: C_2  and  C_1 
REMARK       I    between atoms: N_4  and  C_2 
REMARK    2  A    between atoms: O_18  and  C_3 
REMARK    3  A    between atoms: C_7  and  N_4 
REMARK    4  A    between atoms: C_9  and  O_20 
REMARK    5  A    between atoms: N_16  and  C_10 
REMARK    6  A    between atoms: C_27  and  N_11 
REMARK    7  A    between atoms: O_29  and  C_21 
REMARK    8  A    between atoms: C_28  and  C_27 
REMARK    9  A    between atoms: C_30  and  C_28 
REMARK   10  A    between atoms: C_30  and  O_29 
ROOT
HETATM    1  C   UNK N   1      26.561  17.014   4.162  0.00  0.00     0.117 C 
HETATM    2  C   UNK N   1      26.794  15.988   3.062  0.00  0.00     0.171 C 
HETATM    3  N   UNK N   1      26.145  14.642   5.083  0.00  0.00     0.091 N 
HETATM    4  C   UNK N   1      26.562  14.574   3.663  0.00  0.00     0.306 C 
HETATM    5  C   UNK N   1      25.182  16.901   4.805  0.00  0.00     0.058 C 
HETATM    6  C   UNK N   1      24.934  15.453   5.240  0.00  0.00     0.274 C 
ENDROOT
BRANCH   1   7
HETATM    7  N   UNK N   1      26.943  18.373   3.891  0.00  0.00    -0.350 N 
HETATM    8  C   UNK N   1      27.906  19.003   4.627  0.00  0.00     0.254 C 
HETATM    9  O   UNK N   1      28.043  20.203   4.484  0.00  0.00    -0.268 OA
HETATM   10  H   UNK N   1      26.501  18.861   3.159  0.00  0.00     0.163 HD
BRANCH   8  11
HETATM   11  C   UNK N   1      28.754  18.258   5.639  0.00  0.00     0.067 A 
HETATM   12  C   UNK N   1      29.807  17.373   5.269  0.00  0.00     0.086 A 
HETATM   13  C   UNK N   1      30.597  16.784   6.268  0.00  0.00     0.068 A 
HETATM   14  C   UNK N   1      30.347  17.022   7.621  0.00  0.00     0.050 A 
HETATM   15  C   UNK N   1      29.293  17.856   7.994  0.00  0.00     0.061 A 
HETATM   16  C   UNK N   1      28.520  18.461   7.012  0.00  0.00     0.046 A 
HETATM   17 Cl   UNK N   1      28.929  18.175   9.682  0.00  0.00    -0.082 Cl
BRANCH  12  18
HETATM   18  O   UNK N   1      30.122  17.118   3.983  0.00  0.00    -0.355 OA
HETATM   19  C   UNK N   1      30.493  15.863   3.566  0.00  0.00     0.210 C 
ENDBRANCH  12  18
BRANCH  14  20
HETATM   20  N   UNK N   1      31.161  16.417   8.601  0.00  0.00    -0.398 N 
HETATM   21  H   UNK N   1      31.703  15.626   8.372  0.00  0.00     0.156 HD
HETATM   22  H   UNK N   1      31.189  16.784   9.514  0.00  0.00     0.156 HD
ENDBRANCH  14  20
ENDBRANCH   8  11
ENDBRANCH   1   7
BRANCH   2  23
HETATM   23  O   UNK N   1      25.902  16.209   2.009  0.00  0.00    -0.387 OA
HETATM   24  C   UNK N   1      25.495  14.943   1.586  0.00  0.00     0.202 C 
ENDBRANCH   2  23
BRANCH   3  25
HETATM   25  C   UNK N   1      25.980  13.347   5.750  0.00  0.00     0.274 C 
BRANCH  25  26
HETATM   26  C   UNK N   1      25.389  13.414   7.156  0.00  0.00     0.057 C 
BRANCH  26  27
HETATM   27  C   UNK N   1      24.290  12.397   7.396  0.00  0.00     0.177 C 
BRANCH  27  28
HETATM   28  O   UNK N   1      23.375  12.990   8.230  0.00  0.00    -0.351 OA
BRANCH  28  29
HETATM   29  C   UNK N   1      23.229  12.660   9.532  0.00  0.00     0.068 A 
HETATM   30  C   UNK N   1      21.963  12.530  10.130  0.00  0.00     0.040 A 
HETATM   31  C   UNK N   1      21.859  12.164  11.477  0.00  0.00     0.045 A 
HETATM   32  C   UNK N   1      23.013  11.912  12.224  0.00  0.00     0.116 A 
HETATM   33  C   UNK N   1      24.271  12.046  11.633  0.00  0.00     0.045 A 
HETATM   34  F   UNK N   1      22.914  11.540  13.522  0.00  0.00    -0.206 F 
HETATM   35  C   UNK N   1      24.377  12.425  10.293  0.00  0.00     0.040 A 
ENDBRANCH  28  29
ENDBRANCH  27  28
ENDBRANCH  26  27
ENDBRANCH  25  26
ENDBRANCH   3  25
TORSDOF 10
ENDMDL
MODEL 8
REMARK VINA RESULT:      -6.5      2.021      3.612
REMARK  10 active torsions:
REMARK  status: ('A' for Active; 'I' for Inactive)
REMARK    1  A    between atoms: C_2  and  C_1 
REMARK       I    between atoms: N_4  and  C_2 
REMARK    2  A    between atoms: O_18  and  C_3 
REMARK    3  A    between atoms: C_7  and  N_4 
REMARK    4  A    between atoms: C_9  and  O_20 
REMARK    5  A    between atoms: N_16  and  C_10 
REMARK    6  A    between atoms: C_27  and  N_11 
REMARK    7  A    between atoms: O_29  and  C_21 
REMARK    8  A    between atoms: C_28  and  C_27 
REMARK    9  A    between atoms: C_30  and  C_28 
REMARK   10  A    between atoms: C_30  and  O_29 
ROOT
HETATM    1  C   UNK N   1      34.153  15.096   5.817  0.00  0.00     0.117 C 
HETATM    2  C   UNK N   1      35.607  14.982   6.251  0.00  0.00     0.171 C 
HETATM    3  N   UNK N   1      34.304  13.746   8.009  0.00  0.00     0.091 N 
HETATM    4  C   UNK N   1      35.652  14.189   7.586  0.00  0.00     0.306 C 
HETATM    5  C   UNK N   1      33.459  13.743   5.687  0.00  0.00     0.058 C 
HETATM    6  C   UNK N   1      33.665  12.932   6.970  0.00  0.00     0.274 C 
ENDROOT
BRANCH   1   7
HETATM    7  N   UNK N   1      33.854  15.986   4.728  0.00  0.00    -0.350 N 
HETATM    8  C   UNK N   1      32.891  16.948   4.838  0.00  0.00     0.254 C 
HETATM    9  O   UNK N   1      32.547  17.532   3.829  0.00  0.00    -0.268 OA
HETATM   10  H   UNK N   1      34.356  15.900   3.885  0.00  0.00     0.163 HD
BRANCH   8  11
HETATM   11  C   UNK N   1      32.215  17.256   6.160  0.00  0.00     0.067 A 
HETATM   12  C   UNK N   1      32.903  17.826   7.270  0.00  0.00     0.086 A 
HETATM   13  C   UNK N   1      32.188  18.154   8.431  0.00  0.00     0.068 A 
HETATM   14  C   UNK N   1      30.818  17.902   8.532  0.00  0.00     0.050 A 
HETATM   15  C   UNK N   1      30.144  17.308   7.465  0.00  0.00     0.061 A 
HETATM   16  C   UNK N   1      30.840  16.999   6.304  0.00  0.00     0.046 A 
HETATM   17 Cl   UNK N   1      28.425  16.956   7.549  0.00  0.00    -0.082 Cl
BRANCH  12  18
HETATM   18  O   UNK N   1      34.218  18.121   7.233  0.00  0.00    -0.355 OA
HETATM   19  C   UNK N   1      34.921  18.428   8.373  0.00  0.00     0.210 C 
ENDBRANCH  12  18
BRANCH  14  20
HETATM   20  N   UNK N   1      30.128  18.247   9.712  0.00  0.00    -0.398 N 
HETATM   21  H   UNK N   1      30.124  19.181  10.025  0.00  0.00     0.156 HD
HETATM   22  H   UNK N   1      29.650  17.554  10.223  0.00  0.00     0.156 HD
ENDBRANCH  14  20
ENDBRANCH   8  11
ENDBRANCH   1   7
BRANCH   2  23
HETATM   23  O   UNK N   1      36.344  14.308   5.273  0.00  0.00    -0.387 OA
HETATM   24  C   UNK N   1      37.647  14.232   5.766  0.00  0.00     0.202 C 
ENDBRANCH   2  23
BRANCH   3  25
HETATM   25  C   UNK N   1      34.247  13.057   9.301  0.00  0.00     0.274 C 
BRANCH  25  26
HETATM   26  C   UNK N   1      34.848  13.826  10.474  0.00  0.00     0.057 C 
BRANCH  26  27
HETATM   27  C   UNK N   1      36.010  13.108  11.134  0.00  0.00     0.177 C 
BRANCH  27  28
HETATM   28  O   UNK N   1      35.477  12.302  12.110  0.00  0.00    -0.351 OA
BRANCH  28  29
HETATM   29  C   UNK N   1      35.476  12.622  13.422  0.00  0.00     0.068 A 
HETATM   30  C   UNK N   1      34.529  12.093  14.316  0.00  0.00     0.040 A 
HETATM   31  C   UNK N   1      34.580  12.434  15.673  0.00  0.00     0.045 A 
HETATM   32  C   UNK N   1      35.582  13.288  16.142  0.00  0.00     0.116 A 
HETATM   33  C   UNK N   1      36.521  13.818  15.254  0.00  0.00     0.045 A 
HETATM   34  F   UNK N   1      35.646  13.605  17.457  0.00  0.00    -0.206 F 
HETATM   35  C   UNK N   1      36.463  13.490  13.898  0.00  0.00     0.040 A 
ENDBRANCH  28  29
ENDBRANCH  27  28
ENDBRANCH  26  27
ENDBRANCH  25  26
ENDBRANCH   3  25
TORSDOF 10
ENDMDL
MODEL 9
REMARK VINA RESULT:      -6.4     16.720     20.163
REMARK  10 active torsions:
REMARK  status: ('A' for Active; 'I' for Inactive)
REMARK    1  A    between atoms: C_2  and  C_1 
REMARK       I    between atoms: N_4  and  C_2 
REMARK    2  A    between atoms: O_18  and  C_3 
REMARK    3  A    between atoms: C_7  and  N_4 
REMARK    4  A    between atoms: C_9  and  O_20 
REMARK    5  A    between atoms: N_16  and  C_10 
REMARK    6  A    between atoms: C_27  and  N_11 
REMARK    7  A    between atoms: O_29  and  C_21 
REMARK    8  A    between atoms: C_28  and  C_27 
REMARK    9  A    between atoms: C_30  and  C_28 
REMARK   10  A    between atoms: C_30  and  O_29 
ROOT
HETATM    1  C   UNK N   1      26.503  25.013  -5.094  0.00  0.00     0.117 C 
HETATM    2  C   UNK N   1      27.294  24.190  -6.100  0.00  0.00     0.171 C 
HETATM    3  N   UNK N   1      28.849  24.505  -4.151  0.00  0.00     0.091 N 
HETATM    4  C   UNK N   1      28.707  23.930  -5.508  0.00  0.00     0.306 C 
HETATM    5  C   UNK N   1      26.420  24.360  -3.718  0.00  0.00     0.058 C 
HETATM    6  C   UNK N   1      27.826  23.977  -3.243  0.00  0.00     0.274 C 
ENDROOT
BRANCH   1   7
HETATM    7  N   UNK N   1      25.249  25.565  -5.530  0.00  0.00    -0.350 N 
HETATM    8  C   UNK N   1      25.064  26.914  -5.641  0.00  0.00     0.254 C 
HETATM    9  O   UNK N   1      23.933  27.324  -5.818  0.00  0.00    -0.268 OA
HETATM   10  H   UNK N   1      24.508  24.957  -5.752  0.00  0.00     0.163 HD
BRANCH   8  11
HETATM   11  C   UNK N   1      26.212  27.893  -5.495  0.00  0.00     0.067 A 
HETATM   12  C   UNK N   1      27.207  28.078  -6.497  0.00  0.00     0.086 A 
HETATM   13  C   UNK N   1      28.192  29.062  -6.320  0.00  0.00     0.068 A 
HETATM   14  C   UNK N   1      28.235  29.841  -5.162  0.00  0.00     0.050 A 
HETATM   15  C   UNK N   1      27.288  29.640  -4.157  0.00  0.00     0.061 A 
HETATM   16  C   UNK N   1      26.297  28.683  -4.334  0.00  0.00     0.046 A 
HETATM   17 Cl   UNK N   1      27.308  30.583  -2.676  0.00  0.00    -0.082 Cl
BRANCH  12  18
HETATM   18  O   UNK N   1      27.212  27.381  -7.652  0.00  0.00    -0.355 OA
HETATM   19  C   UNK N   1      28.383  27.022  -8.273  0.00  0.00     0.210 C 
ENDBRANCH  12  18
BRANCH  14  20
HETATM   20  N   UNK N   1      29.235  30.824  -5.015  0.00  0.00    -0.398 N 
HETATM   21  H   UNK N   1      30.055  30.778  -5.560  0.00  0.00     0.156 HD
HETATM   22  H   UNK N   1      29.115  31.556  -4.369  0.00  0.00     0.156 HD
ENDBRANCH  14  20
ENDBRANCH   8  11
ENDBRANCH   1   7
BRANCH   2  23
HETATM   23  O   UNK N   1      26.645  22.974  -6.334  0.00  0.00    -0.387 OA
HETATM   24  C   UNK N   1      27.131  22.516  -7.560  0.00  0.00     0.202 C 
ENDBRANCH   2  23
BRANCH   3  25
HETATM   25  C   UNK N   1      30.179  24.372  -3.549  0.00  0.00     0.274 C 
BRANCH  25  26
HETATM   26  C   UNK N   1      30.293  23.308  -2.460  0.00  0.00     0.057 C 
BRANCH  26  27
HETATM   27  C   UNK N   1      31.217  22.163  -2.832  0.00  0.00     0.177 C 
BRANCH  27  28
HETATM   28  O   UNK N   1      30.495  21.314  -3.633  0.00  0.00    -0.351 OA
BRANCH  28  29
HETATM   29  C   UNK N   1      30.962  20.809  -4.795  0.00  0.00     0.068 A 
HETATM   30  C   UNK N   1      30.155  20.713  -5.943  0.00  0.00     0.040 A 
HETATM   31  C   UNK N   1      30.688  20.204  -7.134  0.00  0.00     0.045 A 
HETATM   32  C   UNK N   1      32.027  19.806  -7.186  0.00  0.00     0.116 A 
HETATM   33  C   UNK N   1      32.828  19.896  -6.046  0.00  0.00     0.045 A 
HETATM   34  F   UNK N   1      32.550  19.331  -8.341  0.00  0.00    -0.206 F 
HETATM   35  C   UNK N   1      32.294  20.390  -4.854  0.00  0.00     0.040 A 
ENDBRANCH  28  29
ENDBRANCH  27  28
ENDBRANCH  26  27
ENDBRANCH  25  26
ENDBRANCH   3  25
TORSDOF 10
ENDMDL
