MODEL 1
REMARK VINA RESULT:      -6.6      0.000      0.000
REMARK  6 active torsions:
REMARK  status: ('A' for Active; 'I' for Inactive)
REMARK    1  A    between atoms: C_3  and  N_6 
REMARK    2  A    between atoms: C_8  and  C_4 
REMARK       I    between atoms: C_7  and  N_6 
REMARK    3  A    between atoms: C_10  and  C_7 
REMARK    4  A    between atoms: O_16  and  C_8 
REMARK    5  A    between atoms: C_10  and  N_13 
REMARK    6  A    between atoms: C_18  and  C_10 
ROOT
HETATM    1  N   UNK N   1      35.411  13.199  11.374  0.00  0.00    -0.302 N 
HETATM    2  C   UNK N   1      35.359  13.478  12.641  0.00  0.00     0.250 A 
HETATM    3  C   UNK N   1      35.152  12.090  13.142  0.00  0.00     0.200 A 
HETATM    4  C   UNK N   1      36.019  13.848  10.262  0.00  0.00     0.129 C 
HETATM    5  C   UNK N   1      35.155  11.810  11.536  0.00  0.00     0.125 A 
HETATM    6  C   UNK N   1      36.579  13.033   9.320  0.00  0.00     0.045 C 
HETATM    7  C   UNK N   1      36.349  11.066  10.953  0.00  0.00     0.034 C 
HETATM    8  O   UNK N   1      35.719  14.504  13.200  0.00  0.00    -0.271 OA
HETATM    9  C   UNK N   1      36.535  11.518   9.494  0.00  0.00     0.056 C 
HETATM   10 Cl   UNK N   1      37.415  13.627   7.887  0.00  0.00    -0.086 Cl
ENDROOT
BRANCH   3  11
HETATM   11  N   UNK N   1      36.403  11.639  13.710  0.00  0.00    -0.344 N 
HETATM   12  C   UNK N   1      36.503  10.892  14.832  0.00  0.00     0.245 C 
HETATM   13  O   UNK N   1      37.605  10.502  15.182  0.00  0.00    -0.271 OA
HETATM   14  H   UNK N   1      37.235  11.894  13.249  0.00  0.00     0.163 HD
BRANCH  12  15
HETATM   15  C   UNK N   1      35.295  10.558  15.672  0.00  0.00     0.201 C 
BRANCH  15  16
HETATM   16  N   UNK N   1      35.298   9.138  16.007  0.00  0.00    -0.415 N 
HETATM   17  H   UNK N   1      34.466   8.707  16.411  0.00  0.00     0.151 HD
HETATM   18  H   UNK N   1      36.132   8.576  15.838  0.00  0.00     0.151 HD
ENDBRANCH  15  16
BRANCH  15  19
HETATM   19  C   UNK N   1      35.293  11.419  16.911  0.00  0.00    -0.027 A 
HETATM   20  C   UNK N   1      35.412  10.821  18.174  0.00  0.00     0.010 A 
HETATM   21  C   UNK N   1      35.388  11.600  19.333  0.00  0.00     0.001 A 
HETATM   22  C   UNK N   1      35.236  12.985  19.239  0.00  0.00     0.000 A 
HETATM   23  C   UNK N   1      35.116  13.593  17.987  0.00  0.00     0.001 A 
HETATM   24  C   UNK N   1      35.148  12.814  16.826  0.00  0.00     0.010 A 
ENDBRANCH  15  19
ENDBRANCH  12  15
ENDBRANCH   3  11
BRANCH   4  25
HETATM   25  C   UNK N   1      36.070  15.345  10.194  0.00  0.00     0.195 C 
HETATM   26  O   UNK N   1      35.280  15.949   9.489  0.00  0.00    -0.645 OA
BRANCH  25  27
HETATM   27  O   UNK N   1      36.989  16.048  10.881  0.00  0.00    -0.772 OA
HETATM   28  H   UNK N   1      37.633  16.603  10.488  0.00  0.00     0.167 HD
ENDBRANCH  25  27
ENDBRANCH   4  25
TORSDOF 6
ENDMDL
MODEL 2
REMARK VINA RESULT:      -6.5     14.180     16.823
REMARK  6 active torsions:
REMARK  status: ('A' for Active; 'I' for Inactive)
REMARK    1  A    between atoms: C_3  and  N_6 
REMARK    2  A    between atoms: C_8  and  C_4 
REMARK       I    between atoms: C_7  and  N_6 
REMARK    3  A    between atoms: C_10  and  C_7 
REMARK    4  A    between atoms: O_16  and  C_8 
REMARK    5  A    between atoms: C_10  and  N_13 
REMARK    6  A    between atoms: C_18  and  C_10 
ROOT
HETATM    1  N   UNK N   1      22.232  13.716   7.838  0.00  0.00    -0.302 N 
HETATM    2  C   UNK N   1      22.750  14.490   6.934  0.00  0.00     0.250 A 
HETATM    3  C   UNK N   1      21.485  15.126   6.468  0.00  0.00     0.200 A 
HETATM    4  C   UNK N   1      22.751  13.130   9.027  0.00  0.00     0.129 C 
HETATM    5  C   UNK N   1      20.885  14.081   7.566  0.00  0.00     0.125 A 
HETATM    6  C   UNK N   1      21.900  13.071  10.092  0.00  0.00     0.045 C 
HETATM    7  C   UNK N   1      20.312  14.662   8.852  0.00  0.00     0.034 C 
HETATM    8  O   UNK N   1      23.923  14.809   6.800  0.00  0.00    -0.271 OA
HETATM    9  C   UNK N   1      20.481  13.618   9.971  0.00  0.00     0.056 C 
HETATM   10 Cl   UNK N   1      22.350  12.422  11.668  0.00  0.00    -0.086 Cl
ENDROOT
BRANCH   3  11
HETATM   11  N   UNK N   1      21.444  16.466   7.009  0.00  0.00    -0.344 N 
HETATM   12  C   UNK N   1      21.441  17.589   6.258  0.00  0.00     0.245 C 
HETATM   13  O   UNK N   1      21.328  18.670   6.815  0.00  0.00    -0.271 OA
HETATM   14  H   UNK N   1      21.416  16.566   7.988  0.00  0.00     0.163 HD
BRANCH  12  15
HETATM   15  C   UNK N   1      21.604  17.541   4.758  0.00  0.00     0.201 C 
BRANCH  15  16
HETATM   16  N   UNK N   1      20.355  17.922   4.108  0.00  0.00    -0.415 N 
HETATM   17  H   UNK N   1      19.675  18.496   4.607  0.00  0.00     0.151 HD
HETATM   18  H   UNK N   1      20.161  17.614   3.155  0.00  0.00     0.151 HD
ENDBRANCH  15  16
BRANCH  15  19
HETATM   19  C   UNK N   1      22.741  18.445   4.349  0.00  0.00    -0.027 A 
HETATM   20  C   UNK N   1      22.499  19.508   3.466  0.00  0.00     0.010 A 
HETATM   21  C   UNK N   1      23.543  20.341   3.058  0.00  0.00     0.001 A 
HETATM   22  C   UNK N   1      24.840  20.113   3.522  0.00  0.00     0.000 A 
HETATM   23  C   UNK N   1      25.093  19.057   4.401  0.00  0.00     0.001 A 
HETATM   24  C   UNK N   1      24.047  18.228   4.817  0.00  0.00     0.010 A 
ENDBRANCH  15  19
ENDBRANCH  12  15
ENDBRANCH   3  11
BRANCH   4  25
HETATM   25  C   UNK N   1      24.176  12.667   9.083  0.00  0.00     0.195 C 
HETATM   26  O   UNK N   1      24.437  11.483   8.949  0.00  0.00    -0.645 OA
BRANCH  25  27
HETATM   27  O   UNK N   1      25.187  13.529   9.301  0.00  0.00    -0.772 OA
HETATM   28  H   UNK N   1      25.617  13.641  10.125  0.00  0.00     0.167 HD
ENDBRANCH  25  27
ENDBRANCH   4  25
TORSDOF 6
ENDMDL
MODEL 3
REMARK VINA RESULT:      -6.4      6.906      9.645
REMARK  6 active torsions:
REMARK  status: ('A' for Active; 'I' for Inactive)
REMARK    1  A    between atoms: C_3  and  N_6 
REMARK    2  A    between atoms: C_8  and  C_4 
REMARK       I    between atoms: C_7  and  N_6 
REMARK    3  A    between atoms: C_10  and  C_7 
REMARK    4  A    between atoms: O_16  and  C_8 
REMARK    5  A    between atoms: C_10  and  N_13 
REMARK    6  A    between atoms: C_18  and  C_10 
ROOT
HETATM    1  N   UNK N   1      29.539  17.585   7.119  0.00  0.00    -0.302 N 
HETATM    2  C   UNK N   1      30.369  17.724   8.107  0.00  0.00     0.250 A 
HETATM    3  C   UNK N   1      31.388  16.737   7.651  0.00  0.00     0.200 A 
HETATM    4  C   UNK N   1      28.562  18.447   6.544  0.00  0.00     0.129 C 
HETATM    5  C   UNK N   1      30.275  16.554   6.474  0.00  0.00     0.125 A 
HETATM    6  C   UNK N   1      28.441  18.401   5.185  0.00  0.00     0.045 C 
HETATM    7  C   UNK N   1      30.630  17.064   5.083  0.00  0.00     0.034 C 
HETATM    8  O   UNK N   1      30.419  18.631   8.926  0.00  0.00    -0.271 OA
HETATM    9  C   UNK N   1      29.328  17.466   4.369  0.00  0.00     0.056 C 
HETATM   10 Cl   UNK N   1      27.324  19.410   4.269  0.00  0.00    -0.086 Cl
ENDROOT
BRANCH   3  11
HETATM   11  N   UNK N   1      32.515  17.480   7.133  0.00  0.00    -0.344 N 
HETATM   12  C   UNK N   1      33.749  16.960   6.950  0.00  0.00     0.245 C 
HETATM   13  O   UNK N   1      34.611  17.655   6.435  0.00  0.00    -0.271 OA
HETATM   14  H   UNK N   1      32.375  18.427   6.901  0.00  0.00     0.163 HD
BRANCH  12  15
HETATM   15  C   UNK N   1      34.092  15.558   7.391  0.00  0.00     0.201 C 
BRANCH  15  16
HETATM   16  N   UNK N   1      34.826  14.868   6.336  0.00  0.00    -0.415 N 
HETATM   17  H   UNK N   1      34.423  14.791   5.401  0.00  0.00     0.151 HD
HETATM   18  H   UNK N   1      35.742  14.463   6.531  0.00  0.00     0.151 HD
ENDBRANCH  15  16
BRANCH  15  19
HETATM   19  C   UNK N   1      34.888  15.617   8.672  0.00  0.00    -0.027 A 
HETATM   20  C   UNK N   1      35.899  14.673   8.906  0.00  0.00     0.010 A 
HETATM   21  C   UNK N   1      36.629  14.697  10.096  0.00  0.00     0.001 A 
HETATM   22  C   UNK N   1      36.351  15.662  11.066  0.00  0.00     0.000 A 
HETATM   23  C   UNK N   1      35.346  16.608  10.844  0.00  0.00     0.001 A 
HETATM   24  C   UNK N   1      34.620  16.589   9.650  0.00  0.00     0.010 A 
ENDBRANCH  15  19
ENDBRANCH  12  15
ENDBRANCH   3  11
BRANCH   4  25
HETATM   25  C   UNK N   1      27.770  19.379   7.412  0.00  0.00     0.195 C 
HETATM   26  O   UNK N   1      27.485  20.493   7.007  0.00  0.00    -0.645 OA
BRANCH  25  27
HETATM   27  O   UNK N   1      27.378  19.023   8.650  0.00  0.00    -0.772 OA
HETATM   28  H   UNK N   1      27.943  18.646   9.295  0.00  0.00     0.167 HD
ENDBRANCH  25  27
ENDBRANCH   4  25
TORSDOF 6
ENDMDL
MODEL 4
REMARK VINA RESULT:      -6.4      2.574      3.803
REMARK  6 active torsions:
REMARK  status: ('A' for Active; 'I' for Inactive)
REMARK    1  A    between atoms: C_3  and  N_6 
REMARK    2  A    between atoms: C_8  and  C_4 
REMARK       I    between atoms: C_7  and  N_6 
REMARK    3  A    between atoms: C_10  and  C_7 
REMARK    4  A    between atoms: O_16  and  C_8 
REMARK    5  A    between atoms: C_10  and  N_13 
REMARK    6  A    between atoms: C_18  and  C_10 
ROOT
HETATM    1  N   UNK N   1      34.203  15.897   9.537  0.00  0.00    -0.302 N 
HETATM    2  C   UNK N   1      34.747  16.159  10.686  0.00  0.00     0.250 A 
HETATM    3  C   UNK N   1      34.869  14.755  11.172  0.00  0.00     0.200 A 
HETATM    4  C   UNK N   1      34.177  16.593   8.295  0.00  0.00     0.129 C 
HETATM    5  C   UNK N   1      34.120  14.493   9.748  0.00  0.00     0.125 A 
HETATM    6  C   UNK N   1      34.258  15.824   7.171  0.00  0.00     0.045 C 
HETATM    7  C   UNK N   1      34.926  13.828   8.640  0.00  0.00     0.034 C 
HETATM    8  O   UNK N   1      35.282  17.198  11.046  0.00  0.00    -0.271 OA
HETATM    9  C   UNK N   1      34.373  14.307   7.286  0.00  0.00     0.056 C 
HETATM   10 Cl   UNK N   1      34.282  16.482   5.536  0.00  0.00    -0.086 Cl
ENDROOT
BRANCH   3  11
HETATM   11  N   UNK N   1      36.260  14.373  11.060  0.00  0.00    -0.344 N 
HETATM   12  C   UNK N   1      36.764  13.202  11.507  0.00  0.00     0.245 C 
HETATM   13  O   UNK N   1      37.939  12.948  11.294  0.00  0.00    -0.271 OA
HETATM   14  H   UNK N   1      36.878  15.008  10.631  0.00  0.00     0.163 HD
BRANCH  12  15
HETATM   15  C   UNK N   1      35.922  12.221  12.286  0.00  0.00     0.201 C 
BRANCH  15  16
HETATM   16  N   UNK N   1      36.481  10.879  12.166  0.00  0.00    -0.415 N 
HETATM   17  H   UNK N   1      36.614  10.305  13.000  0.00  0.00     0.151 HD
HETATM   18  H   UNK N   1      36.740  10.513  11.249  0.00  0.00     0.151 HD
ENDBRANCH  15  16
BRANCH  15  19
HETATM   19  C   UNK N   1      35.843  12.662  13.727  0.00  0.00    -0.027 A 
HETATM   20  C   UNK N   1      34.750  12.270  14.514  0.00  0.00     0.010 A 
HETATM   21  C   UNK N   1      34.648  12.688  15.843  0.00  0.00     0.001 A 
HETATM   22  C   UNK N   1      35.634  13.509  16.393  0.00  0.00     0.000 A 
HETATM   23  C   UNK N   1      36.727  13.906  15.618  0.00  0.00     0.001 A 
HETATM   24  C   UNK N   1      36.834  13.481  14.291  0.00  0.00     0.010 A 
ENDBRANCH  15  19
ENDBRANCH  12  15
ENDBRANCH   3  11
BRANCH   4  25
HETATM   25  C   UNK N   1      34.119  18.091   8.268  0.00  0.00     0.195 C 
HETATM   26  O   UNK N   1      33.055  18.655   8.078  0.00  0.00    -0.645 OA
BRANCH  25  27
HETATM   27  O   UNK N   1      35.226  18.840   8.429  0.00  0.00    -0.772 OA
HETATM   28  H   UNK N   1      35.226  19.773   8.506  0.00  0.00     0.167 HD
ENDBRANCH  25  27
ENDBRANCH   4  25
TORSDOF 6
ENDMDL
MODEL 5
REMARK VINA RESULT:      -6.3      3.953      8.174
REMARK  6 active torsions:
REMARK  status: ('A' for Active; 'I' for Inactive)
REMARK    1  A    between atoms: C_3  and  N_6 
REMARK    2  A    between atoms: C_8  and  C_4 
REMARK       I    between atoms: C_7  and  N_6 
REMARK    3  A    between atoms: C_10  and  C_7 
REMARK    4  A    between atoms: O_16  and  C_8 
REMARK    5  A    between atoms: C_10  and  N_13 
REMARK    6  A    between atoms: C_18  and  C_10 
ROOT
HETATM    1  N   UNK N   1      35.993  14.573  11.160  0.00  0.00    -0.302 N 
HETATM    2  C   UNK N   1      34.871  15.119  10.804  0.00  0.00     0.250 A 
HETATM    3  C   UNK N   1      35.260  15.484   9.412  0.00  0.00     0.200 A 
HETATM    4  C   UNK N   1      36.328  13.590  12.134  0.00  0.00     0.129 C 
HETATM    5  C   UNK N   1      36.667  14.851   9.939  0.00  0.00     0.125 A 
HETATM    6  C   UNK N   1      37.296  12.695  11.780  0.00  0.00     0.045 C 
HETATM    7  C   UNK N   1      37.100  13.513   9.355  0.00  0.00     0.034 C 
HETATM    8  O   UNK N   1      33.780  15.021  11.348  0.00  0.00    -0.271 OA
HETATM    9  C   UNK N   1      37.953  12.780  10.406  0.00  0.00     0.056 C 
HETATM   10 Cl   UNK N   1      37.833  11.375  12.818  0.00  0.00    -0.086 Cl
ENDROOT
BRANCH   3  11
HETATM   11  N   UNK N   1      34.618  14.547   8.518  0.00  0.00    -0.344 N 
HETATM   12  C   UNK N   1      34.045  14.888   7.343  0.00  0.00     0.245 C 
HETATM   13  O   UNK N   1      33.596  14.005   6.629  0.00  0.00    -0.271 OA
HETATM   14  H   UNK N   1      34.596  13.599   8.784  0.00  0.00     0.163 HD
BRANCH  12  15
HETATM   15  C   UNK N   1      33.920  16.328   6.910  0.00  0.00     0.201 C 
BRANCH  15  16
HETATM   16  N   UNK N   1      34.219  16.449   5.487  0.00  0.00    -0.415 N 
HETATM   17  H   UNK N   1      35.117  16.127   5.126  0.00  0.00     0.151 HD
HETATM   18  H   UNK N   1      33.530  16.856   4.854  0.00  0.00     0.151 HD
ENDBRANCH  15  16
BRANCH  15  19
HETATM   19  C   UNK N   1      32.532  16.829   7.229  0.00  0.00    -0.027 A 
HETATM   20  C   UNK N   1      32.302  17.524   8.425  0.00  0.00     0.010 A 
HETATM   21  C   UNK N   1      31.020  17.973   8.748  0.00  0.00     0.001 A 
HETATM   22  C   UNK N   1      29.954  17.724   7.881  0.00  0.00     0.000 A 
HETATM   23  C   UNK N   1      30.171  17.033   6.687  0.00  0.00     0.001 A 
HETATM   24  C   UNK N   1      31.456  16.590   6.358  0.00  0.00     0.010 A 
ENDBRANCH  15  19
ENDBRANCH  12  15
ENDBRANCH   3  11
BRANCH   4  25
HETATM   25  C   UNK N   1      35.594  13.539  13.441  0.00  0.00     0.195 C 
HETATM   26  O   UNK N   1      36.103  14.014  14.442  0.00  0.00    -0.645 OA
BRANCH  25  27
HETATM   27  O   UNK N   1      34.385  12.958  13.546  0.00  0.00    -0.772 OA
HETATM   28  H   UNK N   1      34.128  12.185  13.083  0.00  0.00     0.167 HD
ENDBRANCH  25  27
ENDBRANCH   4  25
TORSDOF 6
ENDMDL
MODEL 6
REMARK VINA RESULT:      -6.3     20.140     24.098
REMARK  6 active torsions:
REMARK  status: ('A' for Active; 'I' for Inactive)
REMARK    1  A    between atoms: C_3  and  N_6 
REMARK    2  A    between atoms: C_8  and  C_4 
REMARK       I    between atoms: C_7  and  N_6 
REMARK    3  A    between atoms: C_10  and  C_7 
REMARK    4  A    between atoms: O_16  and  C_8 
REMARK    5  A    between atoms: C_10  and  N_13 
REMARK    6  A    between atoms: C_18  and  C_10 
ROOT
HETATM    1  N   UNK N   1      30.222  23.458  -4.806  0.00  0.00    -0.302 N 
HETATM    2  C   UNK N   1      29.470  24.434  -4.397  0.00  0.00     0.250 A 
HETATM    3  C   UNK N   1      28.874  24.792  -5.715  0.00  0.00     0.200 A 
HETATM    4  C   UNK N   1      30.757  22.309  -4.159  0.00  0.00     0.129 C 
HETATM    5  C   UNK N   1      29.890  23.606  -6.181  0.00  0.00     0.125 A 
HETATM    6  C   UNK N   1      30.794  21.162  -4.898  0.00  0.00     0.045 C 
HETATM    7  C   UNK N   1      29.275  22.288  -6.634  0.00  0.00     0.034 C 
HETATM    8  O   UNK N   1      29.136  24.696  -3.250  0.00  0.00    -0.271 OA
HETATM    9  C   UNK N   1      30.276  21.158  -6.333  0.00  0.00     0.056 C 
HETATM   10 Cl   UNK N   1      31.380  19.619  -4.280  0.00  0.00    -0.086 Cl
ENDROOT
BRANCH   3  11
HETATM   11  N   UNK N   1      27.516  24.293  -5.730  0.00  0.00    -0.344 N 
HETATM   12  C   UNK N   1      26.500  24.877  -6.403  0.00  0.00     0.245 C 
HETATM   13  O   UNK N   1      25.408  24.331  -6.409  0.00  0.00    -0.271 OA
HETATM   14  H   UNK N   1      27.321  23.476  -5.216  0.00  0.00     0.163 HD
BRANCH  12  15
HETATM   15  C   UNK N   1      26.674  26.196  -7.115  0.00  0.00     0.201 C 
BRANCH  15  16
HETATM   16  N   UNK N   1      25.672  26.331  -8.167  0.00  0.00    -0.415 N 
HETATM   17  H   UNK N   1      25.744  27.090  -8.845  0.00  0.00     0.151 HD
HETATM   18  H   UNK N   1      24.900  25.667  -8.224  0.00  0.00     0.151 HD
ENDBRANCH  15  16
BRANCH  15  19
HETATM   19  C   UNK N   1      26.582  27.322  -6.114  0.00  0.00    -0.027 A 
HETATM   20  C   UNK N   1      27.448  28.420  -6.221  0.00  0.00     0.010 A 
HETATM   21  C   UNK N   1      27.392  29.459  -5.290  0.00  0.00     0.001 A 
HETATM   22  C   UNK N   1      26.475  29.406  -4.238  0.00  0.00     0.000 A 
HETATM   23  C   UNK N   1      25.608  28.317  -4.121  0.00  0.00     0.001 A 
HETATM   24  C   UNK N   1      25.657  27.280  -5.058  0.00  0.00     0.010 A 
ENDBRANCH  15  19
ENDBRANCH  12  15
ENDBRANCH   3  11
BRANCH   4  25
HETATM   25  C   UNK N   1      31.193  22.381  -2.726  0.00  0.00     0.195 C 
HETATM   26  O   UNK N   1      32.307  21.998  -2.409  0.00  0.00    -0.645 OA
BRANCH  25  27
HETATM   27  O   UNK N   1      30.372  22.843  -1.764  0.00  0.00    -0.772 OA
HETATM   28  H   UNK N   1      29.441  22.748  -1.775  0.00  0.00     0.167 HD
ENDBRANCH  25  27
ENDBRANCH   4  25
TORSDOF 6
ENDMDL
MODEL 7
REMARK VINA RESULT:      -6.1      3.271      7.581
REMARK  6 active torsions:
REMARK  status: ('A' for Active; 'I' for Inactive)
REMARK    1  A    between atoms: C_3  and  N_6 
REMARK    2  A    between atoms: C_8  and  C_4 
REMARK       I    between atoms: C_7  and  N_6 
REMARK    3  A    between atoms: C_10  and  C_7 
REMARK    4  A    between atoms: O_16  and  C_8 
REMARK    5  A    between atoms: C_10  and  N_13 
REMARK    6  A    between atoms: C_18  and  C_10 
ROOT
HETATM    1  N   UNK N   1      35.468  12.376  12.673  0.00  0.00    -0.302 N 
HETATM    2  C   UNK N   1      35.328  13.474  11.995  0.00  0.00     0.250 A 
HETATM    3  C   UNK N   1      35.289  12.864  10.635  0.00  0.00     0.200 A 
HETATM    4  C   UNK N   1      35.140  12.014  14.011  0.00  0.00     0.129 C 
HETATM    5  C   UNK N   1      35.536  11.527  11.535  0.00  0.00     0.125 A 
HETATM    6  C   UNK N   1      34.667  10.747  14.194  0.00  0.00     0.045 C 
HETATM    7  C   UNK N   1      34.387  10.534  11.651  0.00  0.00     0.034 C 
HETATM    8  O   UNK N   1      34.991  14.575  12.406  0.00  0.00    -0.271 OA
HETATM    9  C   UNK N   1      34.511   9.808  13.003  0.00  0.00     0.056 C 
HETATM   10 Cl   UNK N   1      34.166  10.108  15.758  0.00  0.00    -0.086 Cl
ENDROOT
BRANCH   3  11
HETATM   11  N   UNK N   1      33.915  12.891  10.184  0.00  0.00    -0.344 N 
HETATM   12  C   UNK N   1      33.528  13.284   8.950  0.00  0.00     0.245 C 
HETATM   13  O   UNK N   1      32.349  13.196   8.648  0.00  0.00    -0.271 OA
HETATM   14  H   UNK N   1      33.217  12.604  10.817  0.00  0.00     0.163 HD
BRANCH  12  15
HETATM   15  C   UNK N   1      34.510  13.855   7.956  0.00  0.00     0.201 C 
BRANCH  15  16
HETATM   16  N   UNK N   1      34.287  13.263   6.641  0.00  0.00    -0.415 N 
HETATM   17  H   UNK N   1      33.437  12.729   6.459  0.00  0.00     0.151 HD
HETATM   18  H   UNK N   1      34.982  13.383   5.903  0.00  0.00     0.151 HD
ENDBRANCH  15  16
BRANCH  15  19
HETATM   19  C   UNK N   1      34.369  15.357   7.918  0.00  0.00    -0.027 A 
HETATM   20  C   UNK N   1      33.944  15.986   6.739  0.00  0.00     0.010 A 
HETATM   21  C   UNK N   1      33.831  17.377   6.680  0.00  0.00     0.001 A 
HETATM   22  C   UNK N   1      34.150  18.152   7.797  0.00  0.00     0.000 A 
HETATM   23  C   UNK N   1      34.575  17.536   8.977  0.00  0.00     0.001 A 
HETATM   24  C   UNK N   1      34.680  16.143   9.040  0.00  0.00     0.010 A 
ENDBRANCH  15  19
ENDBRANCH  12  15
ENDBRANCH   3  11
BRANCH   4  25
HETATM   25  C   UNK N   1      35.268  13.016  15.119  0.00  0.00     0.195 C 
HETATM   26  O   UNK N   1      34.276  13.377  15.730  0.00  0.00    -0.645 OA
BRANCH  25  27
HETATM   27  O   UNK N   1      36.459  13.551  15.448  0.00  0.00    -0.772 OA
HETATM   28  H   UNK N   1      37.018  14.004  14.849  0.00  0.00     0.167 HD
ENDBRANCH  25  27
ENDBRANCH   4  25
TORSDOF 6
ENDMDL
MODEL 8
REMARK VINA RESULT:      -6.1      4.719      8.477
REMARK  6 active torsions:
REMARK  status: ('A' for Active; 'I' for Inactive)
REMARK    1  A    between atoms: C_3  and  N_6 
REMARK    2  A    between atoms: C_8  and  C_4 
REMARK       I    between atoms: C_7  and  N_6 
REMARK    3  A    between atoms: C_10  and  C_7 
REMARK    4  A    between atoms: O_16  and  C_8 
REMARK    5  A    between atoms: C_10  and  N_13 
REMARK    6  A    between atoms: C_18  and  C_10 
ROOT
HETATM    1  N   UNK N   1      35.178  14.674   9.983  0.00  0.00    -0.302 N 
HETATM    2  C   UNK N   1      34.018  15.245  10.098  0.00  0.00     0.250 A 
HETATM    3  C   UNK N   1      33.877  15.693   8.684  0.00  0.00     0.200 A 
HETATM    4  C   UNK N   1      35.822  13.631  10.709  0.00  0.00     0.129 C 
HETATM    5  C   UNK N   1      35.362  15.024   8.618  0.00  0.00     0.125 A 
HETATM    6  C   UNK N   1      36.568  12.756   9.973  0.00  0.00     0.045 C 
HETATM    7  C   UNK N   1      35.515  13.723   7.841  0.00  0.00     0.034 C 
HETATM    8  O   UNK N   1      33.203  15.117  11.000  0.00  0.00    -0.271 OA
HETATM    9  C   UNK N   1      36.675  12.923   8.461  0.00  0.00     0.056 C 
HETATM   10 Cl   UNK N   1      37.415  11.373  10.664  0.00  0.00    -0.086 Cl
ENDROOT
BRANCH   3  11
HETATM   11  N   UNK N   1      32.927  14.815   8.039  0.00  0.00    -0.344 N 
HETATM   12  C   UNK N   1      32.025  15.217   7.116  0.00  0.00     0.245 C 
HETATM   13  O   UNK N   1      31.319  14.378   6.579  0.00  0.00    -0.271 OA
HETATM   14  H   UNK N   1      32.937  13.863   8.290  0.00  0.00     0.163 HD
BRANCH  12  15
HETATM   15  C   UNK N   1      31.851  16.673   6.759  0.00  0.00     0.201 C 
BRANCH  15  16
HETATM   16  N   UNK N   1      31.611  16.810   5.327  0.00  0.00    -0.415 N 
HETATM   17  H   UNK N   1      32.399  16.841   4.678  0.00  0.00     0.151 HD
HETATM   18  H   UNK N   1      30.657  16.875   4.973  0.00  0.00     0.151 HD
ENDBRANCH  15  16
BRANCH  15  19
HETATM   19  C   UNK N   1      30.719  17.256   7.568  0.00  0.00    -0.027 A 
HETATM   20  C   UNK N   1      29.396  17.082   7.137  0.00  0.00     0.010 A 
HETATM   21  C   UNK N   1      28.337  17.635   7.861  0.00  0.00     0.001 A 
HETATM   22  C   UNK N   1      28.592  18.373   9.019  0.00  0.00     0.000 A 
HETATM   23  C   UNK N   1      29.906  18.552   9.458  0.00  0.00     0.001 A 
HETATM   24  C   UNK N   1      30.967  17.993   8.739  0.00  0.00     0.010 A 
ENDBRANCH  15  19
ENDBRANCH  12  15
ENDBRANCH   3  11
BRANCH   4  25
HETATM   25  C   UNK N   1      35.620  13.502  12.189  0.00  0.00     0.195 C 
HETATM   26  O   UNK N   1      36.510  13.832  12.955  0.00  0.00    -0.645 OA
BRANCH  25  27
HETATM   27  O   UNK N   1      34.479  13.006  12.702  0.00  0.00    -0.772 OA
HETATM   28  H   UNK N   1      33.709  13.513  12.866  0.00  0.00     0.167 HD
ENDBRANCH  25  27
ENDBRANCH   4  25
TORSDOF 6
ENDMDL
MODEL 9
REMARK VINA RESULT:      -5.8      6.983     10.951
REMARK  6 active torsions:
REMARK  status: ('A' for Active; 'I' for Inactive)
REMARK    1  A    between atoms: C_3  and  N_6 
REMARK    2  A    between atoms: C_8  and  C_4 
REMARK       I    between atoms: C_7  and  N_6 
REMARK    3  A    between atoms: C_10  and  C_7 
REMARK    4  A    between atoms: O_16  and  C_8 
REMARK    5  A    between atoms: C_10  and  N_13 
REMARK    6  A    between atoms: C_18  and  C_10 
ROOT
HETATM    1  N   UNK N   1      34.106  16.689   7.363  0.00  0.00    -0.302 N 
HETATM    2  C   UNK N   1      32.909  17.191   7.366  0.00  0.00     0.250 A 
HETATM    3  C   UNK N   1      32.628  17.041   5.910  0.00  0.00     0.200 A 
HETATM    4  C   UNK N   1      34.894  16.053   8.365  0.00  0.00     0.129 C 
HETATM    5  C   UNK N   1      34.160  16.487   5.957  0.00  0.00     0.125 A 
HETATM    6  C   UNK N   1      35.664  15.005   7.950  0.00  0.00     0.045 C 
HETATM    7  C   UNK N   1      34.377  14.997   5.729  0.00  0.00     0.034 C 
HETATM    8  O   UNK N   1      32.175  17.380   8.325  0.00  0.00    -0.271 OA
HETATM    9  C   UNK N   1      35.647  14.572   6.488  0.00  0.00     0.056 C 
HETATM   10 Cl   UNK N   1      36.682  14.054   9.030  0.00  0.00    -0.086 Cl
ENDROOT
BRANCH   3  11
HETATM   11  N   UNK N   1      31.719  15.927   5.753  0.00  0.00    -0.344 N 
HETATM   12  C   UNK N   1      30.690  15.903   4.877  0.00  0.00     0.245 C 
HETATM   13  O   UNK N   1      30.030  14.882   4.772  0.00  0.00    -0.271 OA
HETATM   14  H   UNK N   1      31.859  15.136   6.322  0.00  0.00     0.163 HD
BRANCH  12  15
HETATM   15  C   UNK N   1      30.322  17.113   4.052  0.00  0.00     0.201 C 
BRANCH  15  16
HETATM   16  N   UNK N   1      30.358  16.778   2.633  0.00  0.00    -0.415 N 
HETATM   17  H   UNK N   1      29.881  17.374   1.956  0.00  0.00     0.151 HD
HETATM   18  H   UNK N   1      30.859  15.947   2.317  0.00  0.00     0.151 HD
ENDBRANCH  15  16
BRANCH  15  19
HETATM   19  C   UNK N   1      28.960  17.608   4.471  0.00  0.00    -0.027 A 
HETATM   20  C   UNK N   1      28.800  18.233   5.716  0.00  0.00     0.010 A 
HETATM   21  C   UNK N   1      27.542  18.677   6.130  0.00  0.00     0.001 A 
HETATM   22  C   UNK N   1      26.431  18.492   5.305  0.00  0.00     0.000 A 
HETATM   23  C   UNK N   1      26.578  17.871   4.062  0.00  0.00     0.001 A 
HETATM   24  C   UNK N   1      27.838  17.434   3.643  0.00  0.00     0.010 A 
ENDBRANCH  15  19
ENDBRANCH  12  15
ENDBRANCH   3  11
BRANCH   4  25
HETATM   25  C   UNK N   1      34.810  16.503   9.792  0.00  0.00     0.195 C 
HETATM   26  O   UNK N   1      35.567  17.366  10.203  0.00  0.00    -0.645 OA
BRANCH  25  27
HETATM   27  O   UNK N   1      33.928  15.958  10.650  0.00  0.00    -0.772 OA
HETATM   28  H   UNK N   1      33.028  15.794  10.449  0.00  0.00     0.167 HD
ENDBRANCH  25  27
ENDBRANCH   4  25
TORSDOF 6
ENDMDL
