MODEL 1
REMARK VINA RESULT:      -6.3      0.000      0.000
REMARK  3 active torsions:
REMARK  status: ('A' for Active; 'I' for Inactive)
REMARK    1  A    between atoms: C_1  and  C_2 
REMARK    2  A    between atoms: C_2  and  C_5 
REMARK    3  A    between atoms: C_5  and  N_8 
REMARK       I    between atoms: N_8  and  C_10 
REMARK       I    between atoms: C_10  and  N_11 
REMARK       I    between atoms: N_11  and  C_14 
REMARK       I    between atoms: C_14  and  N_15 
ROOT
HETATM    1  N   UNK N   1      36.202  15.463  12.082  0.00  0.00    -0.226 N 
HETATM    2  C   UNK N   1      35.185  15.819  11.155  0.00  0.00     0.686 C 
HETATM    3  N   UNK N   1      35.385  16.928  10.282  0.00  0.00    -0.024 N 
HETATM    4  N   UNK N   1      34.096  15.141  11.113  0.00  0.00    -0.234 N 
ATOM      5  HN  UNK N   1      33.963  14.349  11.743  1.00  0.00     0.174 HD
HETATM    6  C   UNK N   1      34.438  17.380   9.312  0.00  0.00     0.683 C 
HETATM    7  N   UNK N   1      34.752  18.492   8.503  0.00  0.00    -0.234 N 
HETATM    8  N   UNK N   1      33.307  16.794   9.161  0.00  0.00    -0.234 N 
ATOM      9  HN  UNK N   1      33.069  15.989   9.740  1.00  0.00     0.174 HD
HETATM   10  H   UNK N   1      37.042  15.975  12.125  0.00  0.00     0.177 HD
HETATM   11  H   UNK N   1      36.237  17.419  10.351  0.00  0.00     0.203 HD
HETATM   12  H   UNK N   1      33.389  15.385  10.473  0.00  0.00     0.174 HD
HETATM   13  H   UNK N   1      35.617  18.950   8.610  0.00  0.00     0.174 HD
HETATM   14  H   UNK N   1      34.107  18.812   7.832  0.00  0.00     0.174 HD
HETATM   15  H   UNK N   1      32.669  17.122   8.487  0.00  0.00     0.174 HD
ENDROOT
BRANCH   1  16
HETATM   16  C   UNK N   1      35.985  14.341  12.957  0.00  0.00     0.142 C 
BRANCH  16  17
HETATM   17  C   UNK N   1      36.561  14.545  14.349  0.00  0.00     0.058 C 
BRANCH  17  18
HETATM   18  C   UNK N   1      36.336  13.321  15.201  0.00  0.00    -0.057 A 
HETATM   19  C   UNK N   1      35.538  13.371  16.361  0.00  0.00     0.007 A 
HETATM   20  C   UNK N   1      35.341  12.230  17.139  0.00  0.00     0.001 A 
HETATM   21  C   UNK N   1      35.938  11.025  16.767  0.00  0.00     0.000 A 
HETATM   22  C   UNK N   1      36.732  10.963  15.617  0.00  0.00     0.001 A 
HETATM   23  C   UNK N   1      36.931  12.109  14.836  0.00  0.00     0.007 A 
ENDBRANCH  17  18
ENDBRANCH  16  17
ENDBRANCH   1  16
TORSDOF 3
ENDMDL
MODEL 2
REMARK VINA RESULT:      -6.3      1.494      2.729
REMARK  3 active torsions:
REMARK  status: ('A' for Active; 'I' for Inactive)
REMARK    1  A    between atoms: C_1  and  C_2 
REMARK    2  A    between atoms: C_2  and  C_5 
REMARK    3  A    between atoms: C_5  and  N_8 
REMARK       I    between atoms: N_8  and  C_10 
REMARK       I    between atoms: C_10  and  N_11 
REMARK       I    between atoms: N_11  and  C_14 
REMARK       I    between atoms: C_14  and  N_15 
ROOT
HETATM    1  N   UNK N   1      35.305  13.271  12.513  0.00  0.00    -0.226 N 
HETATM    2  C   UNK N   1      35.425  14.557  11.918  0.00  0.00     0.686 C 
HETATM    3  N   UNK N   1      34.443  14.996  10.982  0.00  0.00    -0.024 N 
HETATM    4  N   UNK N   1      36.416  15.312  12.230  0.00  0.00    -0.234 N 
ATOM      5  HN  UNK N   1      37.113  14.988  12.901  1.00  0.00     0.174 HD
HETATM    6  C   UNK N   1      34.458  16.263  10.322  0.00  0.00     0.683 C 
HETATM    7  N   UNK N   1      33.427  16.583   9.414  0.00  0.00    -0.234 N 
HETATM    8  N   UNK N   1      35.390  17.117  10.540  0.00  0.00    -0.234 N 
ATOM      9  HN  UNK N   1      36.140  16.897  11.194  1.00  0.00     0.174 HD
HETATM   10  H   UNK N   1      34.550  12.683  12.282  0.00  0.00     0.177 HD
HETATM   11  H   UNK N   1      33.701  14.382  10.775  0.00  0.00     0.203 HD
HETATM   12  H   UNK N   1      36.503  16.203  11.821  0.00  0.00     0.174 HD
HETATM   13  H   UNK N   1      32.706  15.935   9.240  0.00  0.00     0.174 HD
HETATM   14  H   UNK N   1      33.428  17.453   8.954  0.00  0.00     0.174 HD
HETATM   15  H   UNK N   1      35.380  17.984  10.074  0.00  0.00     0.174 HD
ENDROOT
BRANCH   1  16
HETATM   16  C   UNK N   1      36.304  12.843  13.455  0.00  0.00     0.142 C 
BRANCH  16  17
HETATM   17  C   UNK N   1      35.727  12.448  14.804  0.00  0.00     0.058 C 
BRANCH  17  18
HETATM   18  C   UNK N   1      36.010  13.512  15.836  0.00  0.00    -0.057 A 
HETATM   19  C   UNK N   1      36.973  14.516  15.610  0.00  0.00     0.007 A 
HETATM   20  C   UNK N   1      37.223  15.492  16.574  0.00  0.00     0.001 A 
HETATM   21  C   UNK N   1      36.513  15.478  17.775  0.00  0.00     0.000 A 
HETATM   22  C   UNK N   1      35.555  14.487  18.011  0.00  0.00     0.001 A 
HETATM   23  C   UNK N   1      35.304  13.506  17.043  0.00  0.00     0.007 A 
ENDBRANCH  17  18
ENDBRANCH  16  17
ENDBRANCH   1  16
TORSDOF 3
ENDMDL
MODEL 3
REMARK VINA RESULT:      -6.2      1.643      3.192
REMARK  3 active torsions:
REMARK  status: ('A' for Active; 'I' for Inactive)
REMARK    1  A    between atoms: C_1  and  C_2 
REMARK    2  A    between atoms: C_2  and  C_5 
REMARK    3  A    between atoms: C_5  and  N_8 
REMARK       I    between atoms: N_8  and  C_10 
REMARK       I    between atoms: C_10  and  N_11 
REMARK       I    between atoms: N_11  and  C_14 
REMARK       I    between atoms: C_14  and  N_15 
ROOT
HETATM    1  N   UNK N   1      35.339  13.367  14.065  0.00  0.00    -0.226 N 
HETATM    2  C   UNK N   1      35.960  14.022  12.966  0.00  0.00     0.686 C 
HETATM    3  N   UNK N   1      35.305  15.124  12.341  0.00  0.00    -0.024 N 
HETATM    4  N   UNK N   1      37.103  13.616  12.547  0.00  0.00    -0.234 N 
ATOM      5  HN  UNK N   1      37.563  12.827  13.001  1.00  0.00     0.174 HD
HETATM    6  C   UNK N   1      35.829  15.858  11.233  0.00  0.00     0.683 C 
HETATM    7  N   UNK N   1      35.086  16.932  10.700  0.00  0.00    -0.234 N 
HETATM    8  N   UNK N   1      36.963  15.560  10.713  0.00  0.00    -0.234 N 
ATOM      9  HN  UNK N   1      37.510  14.786  11.090  1.00  0.00     0.174 HD
HETATM   10  H   UNK N   1      34.462  13.668  14.396  0.00  0.00     0.177 HD
HETATM   11  H   UNK N   1      34.429  15.399  12.698  0.00  0.00     0.203 HD
HETATM   12  H   UNK N   1      37.537  14.067  11.786  0.00  0.00     0.174 HD
HETATM   13  H   UNK N   1      34.214  17.169  11.092  0.00  0.00     0.174 HD
HETATM   14  H   UNK N   1      35.437  17.444   9.937  0.00  0.00     0.174 HD
HETATM   15  H   UNK N   1      37.305  16.080   9.949  0.00  0.00     0.174 HD
ENDROOT
BRANCH   1  16
HETATM   16  C   UNK N   1      36.012  12.256  14.685  0.00  0.00     0.142 C 
BRANCH  16  17
HETATM   17  C   UNK N   1      35.087  11.379  15.511  0.00  0.00     0.058 C 
BRANCH  17  18
HETATM   18  C   UNK N   1      35.191  11.727  16.975  0.00  0.00    -0.057 A 
HETATM   19  C   UNK N   1      35.409  10.734  17.952  0.00  0.00     0.007 A 
HETATM   20  C   UNK N   1      35.502  11.073  19.301  0.00  0.00     0.001 A 
HETATM   21  C   UNK N   1      35.380  12.407  19.692  0.00  0.00     0.000 A 
HETATM   22  C   UNK N   1      35.164  13.401  18.732  0.00  0.00     0.001 A 
HETATM   23  C   UNK N   1      35.070  13.061  17.376  0.00  0.00     0.007 A 
ENDBRANCH  17  18
ENDBRANCH  16  17
ENDBRANCH   1  16
TORSDOF 3
ENDMDL
MODEL 4
REMARK VINA RESULT:      -6.2      1.307      2.654
REMARK  3 active torsions:
REMARK  status: ('A' for Active; 'I' for Inactive)
REMARK    1  A    between atoms: C_1  and  C_2 
REMARK    2  A    between atoms: C_2  and  C_5 
REMARK    3  A    between atoms: C_5  and  N_8 
REMARK       I    between atoms: N_8  and  C_10 
REMARK       I    between atoms: C_10  and  N_11 
REMARK       I    between atoms: N_11  and  C_14 
REMARK       I    between atoms: C_14  and  N_15 
ROOT
HETATM    1  N   UNK N   1      35.352  13.105  13.113  0.00  0.00    -0.226 N 
HETATM    2  C   UNK N   1      35.417  14.373  12.472  0.00  0.00     0.686 C 
HETATM    3  N   UNK N   1      34.496  14.684  11.429  0.00  0.00    -0.024 N 
HETATM    4  N   UNK N   1      36.305  15.225  12.837  0.00  0.00    -0.234 N 
ATOM      5  HN  UNK N   1      36.959  14.992  13.584  1.00  0.00     0.174 HD
HETATM    6  C   UNK N   1      34.465  15.921  10.714  0.00  0.00     0.683 C 
HETATM    7  N   UNK N   1      33.502  16.111   9.700  0.00  0.00    -0.234 N 
HETATM    8  N   UNK N   1      35.295  16.863  10.976  0.00  0.00    -0.234 N 
ATOM      9  HN  UNK N   1      35.995  16.737  11.706  1.00  0.00     0.174 HD
HETATM   10  H   UNK N   1      34.676  12.443  12.842  0.00  0.00     0.177 HD
HETATM   11  H   UNK N   1      33.833  13.998  11.184  0.00  0.00     0.203 HD
HETATM   12  H   UNK N   1      36.354  16.104  12.396  0.00  0.00     0.174 HD
HETATM   13  H   UNK N   1      32.860  15.394   9.492  0.00  0.00     0.174 HD
HETATM   14  H   UNK N   1      33.472  16.959   9.202  0.00  0.00     0.174 HD
HETATM   15  H   UNK N   1      35.256  17.707  10.470  0.00  0.00     0.174 HD
ENDROOT
BRANCH   1  16
HETATM   16  C   UNK N   1      36.288  12.806  14.163  0.00  0.00     0.142 C 
BRANCH  16  17
HETATM   17  C   UNK N   1      35.902  11.587  14.983  0.00  0.00     0.058 C 
BRANCH  17  18
HETATM   18  C   UNK N   1      35.667  11.967  16.423  0.00  0.00    -0.057 A 
HETATM   19  C   UNK N   1      35.686  11.003  17.450  0.00  0.00     0.007 A 
HETATM   20  C   UNK N   1      35.467  11.371  18.777  0.00  0.00     0.001 A 
HETATM   21  C   UNK N   1      35.225  12.708  19.094  0.00  0.00     0.000 A 
HETATM   22  C   UNK N   1      35.203  13.675  18.084  0.00  0.00     0.001 A 
HETATM   23  C   UNK N   1      35.423  13.305  16.751  0.00  0.00     0.007 A 
ENDBRANCH  17  18
ENDBRANCH  16  17
ENDBRANCH   1  16
TORSDOF 3
ENDMDL
MODEL 5
REMARK VINA RESULT:      -6.1      3.066      8.687
REMARK  3 active torsions:
REMARK  status: ('A' for Active; 'I' for Inactive)
REMARK    1  A    between atoms: C_1  and  C_2 
REMARK    2  A    between atoms: C_2  and  C_5 
REMARK    3  A    between atoms: C_5  and  N_8 
REMARK       I    between atoms: N_8  and  C_10 
REMARK       I    between atoms: C_10  and  N_11 
REMARK       I    between atoms: N_11  and  C_14 
REMARK       I    between atoms: C_14  and  N_15 
ROOT
HETATM    1  N   UNK N   1      34.713  17.020   9.974  0.00  0.00    -0.226 N 
HETATM    2  C   UNK N   1      34.641  15.823  10.739  0.00  0.00     0.686 C 
HETATM    3  N   UNK N   1      35.645  15.548  11.713  0.00  0.00    -0.024 N 
HETATM    4  N   UNK N   1      33.674  15.002  10.546  0.00  0.00    -0.234 N 
ATOM      5  HN  UNK N   1      32.960  15.209   9.847  1.00  0.00     0.174 HD
HETATM    6  C   UNK N   1      35.679  14.382  12.539  0.00  0.00     0.683 C 
HETATM    7  N   UNK N   1      36.728  14.223  13.468  0.00  0.00    -0.234 N 
HETATM    8  N   UNK N   1      34.774  13.478  12.452  0.00  0.00    -0.234 N 
ATOM      9  HN  UNK N   1      34.011  13.583  11.783  1.00  0.00     0.174 HD
HETATM   10  H   UNK N   1      35.449  17.658  10.112  0.00  0.00     0.177 HD
HETATM   11  H   UNK N   1      36.368  16.208  11.825  0.00  0.00     0.203 HD
HETATM   12  H   UNK N   1      33.620  14.172  11.073  0.00  0.00     0.174 HD
HETATM   13  H   UNK N   1      37.428  14.911  13.543  0.00  0.00     0.174 HD
HETATM   14  H   UNK N   1      36.761  13.424  14.042  0.00  0.00     0.174 HD
HETATM   15  H   UNK N   1      34.817  12.683  13.031  0.00  0.00     0.174 HD
ENDROOT
BRANCH   1  16
HETATM   16  C   UNK N   1      33.692  17.283   8.995  0.00  0.00     0.142 C 
BRANCH  16  17
HETATM   17  C   UNK N   1      34.238  17.448   7.587  0.00  0.00     0.058 C 
BRANCH  17  18
HETATM   18  C   UNK N   1      33.121  17.395   6.574  0.00  0.00    -0.057 A 
HETATM   19  C   UNK N   1      33.366  17.597   5.201  0.00  0.00     0.007 A 
HETATM   20  C   UNK N   1      32.322  17.544   4.277  0.00  0.00     0.001 A 
HETATM   21  C   UNK N   1      31.022  17.290   4.714  0.00  0.00     0.000 A 
HETATM   22  C   UNK N   1      30.767  17.088   6.074  0.00  0.00     0.001 A 
HETATM   23  C   UNK N   1      31.814  17.140   7.002  0.00  0.00     0.007 A 
ENDBRANCH  17  18
ENDBRANCH  16  17
ENDBRANCH   1  16
TORSDOF 3
ENDMDL
MODEL 6
REMARK VINA RESULT:      -5.9      3.511      8.376
REMARK  3 active torsions:
REMARK  status: ('A' for Active; 'I' for Inactive)
REMARK    1  A    between atoms: C_1  and  C_2 
REMARK    2  A    between atoms: C_2  and  C_5 
REMARK    3  A    between atoms: C_5  and  N_8 
REMARK       I    between atoms: N_8  and  C_10 
REMARK       I    between atoms: C_10  and  N_11 
REMARK       I    between atoms: N_11  and  C_14 
REMARK       I    between atoms: C_14  and  N_15 
ROOT
HETATM    1  N   UNK N   1      33.251  15.969   9.426  0.00  0.00    -0.226 N 
HETATM    2  C   UNK N   1      34.239  15.803  10.435  0.00  0.00     0.686 C 
HETATM    3  N   UNK N   1      34.322  14.569  11.145  0.00  0.00    -0.024 N 
HETATM    4  N   UNK N   1      35.047  16.765  10.699  0.00  0.00    -0.234 N 
ATOM      5  HN  UNK N   1      34.979  17.644  10.185  1.00  0.00     0.174 HD
HETATM    6  C   UNK N   1      35.269  14.287  12.177  0.00  0.00     0.683 C 
HETATM    7  N   UNK N   1      35.251  13.024  12.806  0.00  0.00    -0.234 N 
HETATM    8  N   UNK N   1      36.137  15.158  12.542  0.00  0.00    -0.234 N 
ATOM      9  HN  UNK N   1      36.159  16.074  12.093  1.00  0.00     0.174 HD
HETATM   10  H   UNK N   1      32.626  15.239   9.215  0.00  0.00     0.177 HD
HETATM   11  H   UNK N   1      33.680  13.860  10.908  0.00  0.00     0.203 HD
HETATM   12  H   UNK N   1      35.733  16.655  11.397  0.00  0.00     0.174 HD
HETATM   13  H   UNK N   1      34.590  12.348  12.534  0.00  0.00     0.174 HD
HETATM   14  H   UNK N   1      35.900  12.820  13.518  0.00  0.00     0.174 HD
HETATM   15  H   UNK N   1      36.780  14.942  13.255  0.00  0.00     0.174 HD
ENDROOT
BRANCH   1  16
HETATM   16  C   UNK N   1      33.180  17.220   8.719  0.00  0.00     0.142 C 
BRANCH  16  17
HETATM   17  C   UNK N   1      32.223  17.190   7.540  0.00  0.00     0.058 C 
BRANCH  17  18
HETATM   18  C   UNK N   1      30.820  17.520   7.985  0.00  0.00    -0.057 A 
HETATM   19  C   UNK N   1      29.696  17.001   7.314  0.00  0.00     0.007 A 
HETATM   20  C   UNK N   1      28.405  17.315   7.738  0.00  0.00     0.001 A 
HETATM   21  C   UNK N   1      28.222  18.153   8.839  0.00  0.00     0.000 A 
HETATM   22  C   UNK N   1      29.330  18.674   9.514  0.00  0.00     0.001 A 
HETATM   23  C   UNK N   1      30.627  18.359   9.088  0.00  0.00     0.007 A 
ENDBRANCH  17  18
ENDBRANCH  16  17
ENDBRANCH   1  16
TORSDOF 3
ENDMDL
MODEL 7
REMARK VINA RESULT:      -5.8      2.304      3.538
REMARK  3 active torsions:
REMARK  status: ('A' for Active; 'I' for Inactive)
REMARK    1  A    between atoms: C_1  and  C_2 
REMARK    2  A    between atoms: C_2  and  C_5 
REMARK    3  A    between atoms: C_5  and  N_8 
REMARK       I    between atoms: N_8  and  C_10 
REMARK       I    between atoms: C_10  and  N_11 
REMARK       I    between atoms: N_11  and  C_14 
REMARK       I    between atoms: C_14  and  N_15 
ROOT
HETATM    1  N   UNK N   1      36.838  12.114  13.445  0.00  0.00    -0.226 N 
HETATM    2  C   UNK N   1      36.791  13.325  12.701  0.00  0.00     0.686 C 
HETATM    3  N   UNK N   1      36.837  13.280  11.277  0.00  0.00    -0.024 N 
HETATM    4  N   UNK N   1      36.708  14.448  13.318  0.00  0.00    -0.234 N 
ATOM      5  HN  UNK N   1      36.676  14.469  14.338  1.00  0.00     0.174 HD
HETATM    6  C   UNK N   1      36.797  14.427  10.425  0.00  0.00     0.683 C 
HETATM    7  N   UNK N   1      36.849  14.253   9.026  0.00  0.00    -0.234 N 
HETATM    8  N   UNK N   1      36.714  15.613  10.908  0.00  0.00    -0.234 N 
ATOM      9  HN  UNK N   1      36.676  15.750  11.918  1.00  0.00     0.174 HD
HETATM   10  H   UNK N   1      36.902  11.247  12.984  0.00  0.00     0.177 HD
HETATM   11  H   UNK N   1      36.901  12.396  10.848  0.00  0.00     0.203 HD
HETATM   12  H   UNK N   1      36.675  15.289  12.807  0.00  0.00     0.174 HD
HETATM   13  H   UNK N   1      36.913  13.347   8.645  0.00  0.00     0.174 HD
HETATM   14  H   UNK N   1      36.822  15.036   8.431  0.00  0.00     0.174 HD
HETATM   15  H   UNK N   1      36.688  16.389  10.302  0.00  0.00     0.174 HD
ENDROOT
BRANCH   1  16
HETATM   16  C   UNK N   1      36.791  12.177  14.881  0.00  0.00     0.142 C 
BRANCH  16  17
HETATM   17  C   UNK N   1      35.434  11.805  15.455  0.00  0.00     0.058 C 
BRANCH  17  18
HETATM   18  C   UNK N   1      35.415  12.005  16.950  0.00  0.00    -0.057 A 
HETATM   19  C   UNK N   1      35.670  10.939  17.836  0.00  0.00     0.007 A 
HETATM   20  C   UNK N   1      35.648  11.141  19.216  0.00  0.00     0.001 A 
HETATM   21  C   UNK N   1      35.373  12.410  19.727  0.00  0.00     0.000 A 
HETATM   22  C   UNK N   1      35.119  13.475  18.857  0.00  0.00     0.001 A 
HETATM   23  C   UNK N   1      35.140  13.273  17.471  0.00  0.00     0.007 A 
ENDBRANCH  17  18
ENDBRANCH  16  17
ENDBRANCH   1  16
TORSDOF 3
ENDMDL
MODEL 8
REMARK VINA RESULT:      -5.7      6.396     10.996
REMARK  3 active torsions:
REMARK  status: ('A' for Active; 'I' for Inactive)
REMARK    1  A    between atoms: C_1  and  C_2 
REMARK    2  A    between atoms: C_2  and  C_5 
REMARK    3  A    between atoms: C_5  and  N_8 
REMARK       I    between atoms: N_8  and  C_10 
REMARK       I    between atoms: C_10  and  N_11 
REMARK       I    between atoms: N_11  and  C_14 
REMARK       I    between atoms: C_14  and  N_15 
ROOT
HETATM    1  N   UNK N   1      30.257  17.409   8.875  0.00  0.00    -0.226 N 
HETATM    2  C   UNK N   1      31.572  17.388   8.335  0.00  0.00     0.686 C 
HETATM    3  N   UNK N   1      32.695  17.348   9.213  0.00  0.00    -0.024 N 
HETATM    4  N   UNK N   1      31.737  17.405   7.062  0.00  0.00    -0.234 N 
ATOM      5  HN  UNK N   1      30.927  17.433   6.442  1.00  0.00     0.174 HD
HETATM    6  C   UNK N   1      34.059  17.325   8.787  0.00  0.00     0.683 C 
HETATM    7  N   UNK N   1      35.085  17.286   9.755  0.00  0.00    -0.234 N 
HETATM    8  N   UNK N   1      34.369  17.338   7.543  0.00  0.00    -0.234 N 
ATOM      9  HN  UNK N   1      33.636  17.366   6.835  1.00  0.00     0.174 HD
HETATM   10  H   UNK N   1      30.117  17.396   9.849  0.00  0.00     0.177 HD
HETATM   11  H   UNK N   1      32.518  17.336  10.182  0.00  0.00     0.203 HD
HETATM   12  H   UNK N   1      32.646  17.391   6.683  0.00  0.00     0.174 HD
HETATM   13  H   UNK N   1      34.858  17.275  10.713  0.00  0.00     0.174 HD
HETATM   14  H   UNK N   1      36.027  17.269   9.473  0.00  0.00     0.174 HD
HETATM   15  H   UNK N   1      35.316  17.321   7.273  0.00  0.00     0.174 HD
ENDROOT
BRANCH   1  16
HETATM   16  C   UNK N   1      29.135  17.448   7.976  0.00  0.00     0.142 C 
BRANCH  16  17
HETATM   17  C   UNK N   1      28.312  18.720   8.098  0.00  0.00     0.058 C 
BRANCH  17  18
HETATM   18  C   UNK N   1      27.924  19.235   6.734  0.00  0.00    -0.057 A 
HETATM   19  C   UNK N   1      28.178  18.486   5.567  0.00  0.00     0.007 A 
HETATM   20  C   UNK N   1      27.812  18.976   4.314  0.00  0.00     0.001 A 
HETATM   21  C   UNK N   1      27.188  20.220   4.211  0.00  0.00     0.000 A 
HETATM   22  C   UNK N   1      26.930  20.972   5.361  0.00  0.00     0.001 A 
HETATM   23  C   UNK N   1      27.297  20.480   6.621  0.00  0.00     0.007 A 
ENDBRANCH  17  18
ENDBRANCH  16  17
ENDBRANCH   1  16
TORSDOF 3
ENDMDL
MODEL 9
REMARK VINA RESULT:      -5.7     18.287     21.717
REMARK  3 active torsions:
REMARK  status: ('A' for Active; 'I' for Inactive)
REMARK    1  A    between atoms: C_1  and  C_2 
REMARK    2  A    between atoms: C_2  and  C_5 
REMARK    3  A    between atoms: C_5  and  N_8 
REMARK       I    between atoms: N_8  and  C_10 
REMARK       I    between atoms: C_10  and  N_11 
REMARK       I    between atoms: N_11  and  C_14 
REMARK       I    between atoms: C_14  and  N_15 
ROOT
HETATM    1  N   UNK N   1      29.186  23.233  -4.248  0.00  0.00    -0.226 N 
HETATM    2  C   UNK N   1      30.321  22.624  -3.645  0.00  0.00     0.686 C 
HETATM    3  N   UNK N   1      30.867  21.434  -4.210  0.00  0.00    -0.024 N 
HETATM    4  N   UNK N   1      30.845  23.151  -2.599  0.00  0.00    -0.234 N 
ATOM      5  HN  UNK N   1      30.447  24.003  -2.202  1.00  0.00     0.174 HD
HETATM    6  C   UNK N   1      32.001  20.735  -3.694  0.00  0.00     0.683 C 
HETATM    7  N   UNK N   1      32.447  19.565  -4.344  0.00  0.00    -0.234 N 
HETATM    8  N   UNK N   1      32.622  21.151  -2.652  0.00  0.00    -0.234 N 
ATOM      9  HN  UNK N   1      32.309  21.995  -2.175  1.00  0.00     0.174 HD
HETATM   10  H   UNK N   1      28.775  22.838  -5.051  0.00  0.00     0.177 HD
HETATM   11  H   UNK N   1      30.430  21.067  -5.014  0.00  0.00     0.203 HD
HETATM   12  H   UNK N   1      31.631  22.734  -2.178  0.00  0.00     0.174 HD
HETATM   13  H   UNK N   1      31.977  19.237  -5.144  0.00  0.00     0.174 HD
HETATM   14  H   UNK N   1      33.227  19.076  -3.997  0.00  0.00     0.174 HD
HETATM   15  H   UNK N   1      33.402  20.653  -2.314  0.00  0.00     0.174 HD
ENDROOT
BRANCH   1  16
HETATM   16  C   UNK N   1      28.648  24.433  -3.666  0.00  0.00     0.142 C 
BRANCH  16  17
HETATM   17  C   UNK N   1      27.166  24.333  -3.344  0.00  0.00     0.058 C 
BRANCH  17  18
HETATM   18  C   UNK N   1      26.409  25.483  -3.962  0.00  0.00    -0.057 A 
HETATM   19  C   UNK N   1      26.337  26.739  -3.328  0.00  0.00     0.007 A 
HETATM   20  C   UNK N   1      25.633  27.791  -3.912  0.00  0.00     0.001 A 
HETATM   21  C   UNK N   1      24.992  27.601  -5.137  0.00  0.00     0.000 A 
HETATM   22  C   UNK N   1      25.057  26.359  -5.776  0.00  0.00     0.001 A 
HETATM   23  C   UNK N   1      25.764  25.301  -5.190  0.00  0.00     0.007 A 
ENDBRANCH  17  18
ENDBRANCH  16  17
ENDBRANCH   1  16
TORSDOF 3
ENDMDL
