MODEL 1
REMARK VINA RESULT:      -4.5      0.000      0.000
REMARK  3 active torsions:
REMARK  status: ('A' for Active; 'I' for Inactive)
REMARK    1  A    between atoms: C_2  and  C_1 
REMARK    2  A    between atoms: C_3  and  C_2 
REMARK    3  A    between atoms: C_2  and  O_7 
ROOT
HETATM    1  C   UNK N   1      23.794  11.932  10.942  0.00  0.00     0.139 C 
HETATM    2  C   UNK N   1      23.524  11.986  12.401  0.00  0.00    -0.075 C 
HETATM    3  C   UNK N   1      23.352  12.055  13.602  0.00  0.00     0.015 C 
ENDROOT
BRANCH   1   4
HETATM    4  C   UNK N   1      22.288  11.905  10.615  0.00  0.00     0.051 C 
HETATM    5  C   UNK N   1      21.725  13.259  10.156  0.00  0.00     0.009 C 
ENDBRANCH   1   4
BRANCH   1   6
HETATM    6  C   UNK N   1      24.256  12.517   9.573  0.00  0.00     0.036 C 
HETATM    7  C   UNK N   1      25.190  13.460   9.256  0.00  0.00     0.084 C 
HETATM    8 Cl   UNK N   1      25.367  14.044   7.615  0.00  0.00    -0.097 Cl
ENDBRANCH   1   6
BRANCH   1   9
HETATM    9  O   UNK N   1      24.925  12.499  11.525  0.00  0.00    -0.374 OA
HETATM   10  H   UNK N   1      25.303  12.112  12.329  0.00  0.00     0.212 HD
ENDBRANCH   1   9
TORSDOF 3
ENDMDL
MODEL 2
REMARK VINA RESULT:      -4.1     10.318     11.731
REMARK  3 active torsions:
REMARK  status: ('A' for Active; 'I' for Inactive)
REMARK    1  A    between atoms: C_2  and  C_1 
REMARK    2  A    between atoms: C_3  and  C_2 
REMARK    3  A    between atoms: C_2  and  O_7 
ROOT
HETATM    1  C   UNK N   1      33.419  17.836   7.330  0.00  0.00     0.139 C 
HETATM    2  C   UNK N   1      33.088  17.575   5.906  0.00  0.00    -0.075 C 
HETATM    3  C   UNK N   1      32.871  17.365   4.729  0.00  0.00     0.015 C 
ENDROOT
BRANCH   1   4
HETATM    4  C   UNK N   1      32.169  17.073   7.811  0.00  0.00     0.051 C 
HETATM    5  C   UNK N   1      31.161  17.945   8.575  0.00  0.00     0.009 C 
ENDBRANCH   1   4
BRANCH   1   6
HETATM    6  C   UNK N   1      34.245  17.657   8.639  0.00  0.00     0.036 C 
HETATM    7  C   UNK N   1      34.559  16.550   9.372  0.00  0.00     0.084 C 
HETATM    8 Cl   UNK N   1      35.370  16.687  10.917  0.00  0.00    -0.097 Cl
ENDBRANCH   1   6
BRANCH   1   9
HETATM    9  O   UNK N   1      34.619  17.931   6.629  0.00  0.00    -0.374 OA
HETATM   10  H   UNK N   1      35.082  18.781   6.571  0.00  0.00     0.212 HD
ENDBRANCH   1   9
TORSDOF 3
ENDMDL
MODEL 3
REMARK VINA RESULT:      -4.0     12.428     13.278
REMARK  3 active torsions:
REMARK  status: ('A' for Active; 'I' for Inactive)
REMARK    1  A    between atoms: C_2  and  C_1 
REMARK    2  A    between atoms: C_3  and  C_2 
REMARK    3  A    between atoms: C_2  and  O_7 
ROOT
HETATM    1  C   UNK N   1      36.284  13.179  15.644  0.00  0.00     0.139 C 
HETATM    2  C   UNK N   1      36.899  14.504  15.910  0.00  0.00    -0.075 C 
HETATM    3  C   UNK N   1      37.429  15.584  16.081  0.00  0.00     0.015 C 
ENDROOT
BRANCH   1   4
HETATM    4  C   UNK N   1      35.050  13.525  16.501  0.00  0.00     0.051 C 
HETATM    5  C   UNK N   1      35.194  13.144  17.983  0.00  0.00     0.009 C 
ENDBRANCH   1   4
BRANCH   1   6
HETATM    6  C   UNK N   1      35.583  12.104  14.759  0.00  0.00     0.036 C 
HETATM    7  C   UNK N   1      34.268  11.778  14.594  0.00  0.00     0.084 C 
HETATM    8 Cl   UNK N   1      33.793  10.385  13.647  0.00  0.00    -0.097 Cl
ENDBRANCH   1   6
BRANCH   1   9
HETATM    9  O   UNK N   1      37.168  13.414  14.594  0.00  0.00    -0.374 OA
HETATM   10  H   UNK N   1      37.440  14.320  14.380  0.00  0.00     0.212 HD
ENDBRANCH   1   9
TORSDOF 3
ENDMDL
MODEL 4
REMARK VINA RESULT:      -4.0      2.158      2.782
REMARK  3 active torsions:
REMARK  status: ('A' for Active; 'I' for Inactive)
REMARK    1  A    between atoms: C_2  and  C_1 
REMARK    2  A    between atoms: C_3  and  C_2 
REMARK    3  A    between atoms: C_2  and  O_7 
ROOT
HETATM    1  C   UNK N   1      22.978  12.324  10.576  0.00  0.00     0.139 C 
HETATM    2  C   UNK N   1      23.139  12.046  12.025  0.00  0.00    -0.075 C 
HETATM    3  C   UNK N   1      23.221  11.796  13.211  0.00  0.00     0.015 C 
ENDROOT
BRANCH   1   4
HETATM    4  C   UNK N   1      24.500  12.262  10.343  0.00  0.00     0.051 C 
HETATM    5  C   UNK N   1      25.039  13.379   9.436  0.00  0.00     0.009 C 
ENDBRANCH   1   4
BRANCH   1   6
HETATM    6  C   UNK N   1      22.566  11.978   9.113  0.00  0.00     0.036 C 
HETATM    7  C   UNK N   1      21.612  12.500   8.288  0.00  0.00     0.084 C 
HETATM    8 Cl   UNK N   1      21.263  11.775   6.734  0.00  0.00    -0.097 Cl
ENDBRANCH   1   6
BRANCH   1   9
HETATM    9  O   UNK N   1      21.767  11.786  11.005  0.00  0.00    -0.374 OA
HETATM   10  H   UNK N   1      21.305  11.131  10.459  0.00  0.00     0.212 HD
ENDBRANCH   1   9
TORSDOF 3
ENDMDL
MODEL 5
REMARK VINA RESULT:      -3.9     17.859     18.706
REMARK  3 active torsions:
REMARK  status: ('A' for Active; 'I' for Inactive)
REMARK    1  A    between atoms: C_2  and  C_1 
REMARK    2  A    between atoms: C_3  and  C_2 
REMARK    3  A    between atoms: C_2  and  O_7 
ROOT
HETATM    1  C   UNK N   1      32.266  21.828  -3.352  0.00  0.00     0.139 C 
HETATM    2  C   UNK N   1      33.513  21.052  -3.573  0.00  0.00    -0.075 C 
HETATM    3  C   UNK N   1      34.529  20.399  -3.703  0.00  0.00     0.015 C 
ENDROOT
BRANCH   1   4
HETATM    4  C   UNK N   1      31.917  21.789  -4.852  0.00  0.00     0.051 C 
HETATM    5  C   UNK N   1      30.824  20.769  -5.211  0.00  0.00     0.009 C 
ENDBRANCH   1   4
BRANCH   1   6
HETATM    6  C   UNK N   1      30.809  22.034  -2.840  0.00  0.00     0.036 C 
HETATM    7  C   UNK N   1      30.159  23.136  -2.365  0.00  0.00     0.084 C 
HETATM    8 Cl   UNK N   1      28.548  23.017  -1.691  0.00  0.00    -0.097 Cl
ENDBRANCH   1   6
BRANCH   1   9
HETATM    9  O   UNK N   1      32.569  21.223  -2.134  0.00  0.00    -0.374 OA
HETATM   10  H   UNK N   1      32.086  20.431  -1.850  0.00  0.00     0.212 HD
ENDBRANCH   1   9
TORSDOF 3
ENDMDL
MODEL 6
REMARK VINA RESULT:      -3.9     12.176     12.929
REMARK  3 active torsions:
REMARK  status: ('A' for Active; 'I' for Inactive)
REMARK    1  A    between atoms: C_2  and  C_1 
REMARK    2  A    between atoms: C_3  and  C_2 
REMARK    3  A    between atoms: C_2  and  O_7 
ROOT
HETATM    1  C   UNK N   1      35.453  13.571  15.108  0.00  0.00     0.139 C 
HETATM    2  C   UNK N   1      35.274  13.205  16.536  0.00  0.00    -0.075 C 
HETATM    3  C   UNK N   1      35.085  12.875  17.690  0.00  0.00     0.015 C 
ENDROOT
BRANCH   1   4
HETATM    4  C   UNK N   1      36.960  13.824  15.310  0.00  0.00     0.051 C 
HETATM    5  C   UNK N   1      37.293  15.241  15.801  0.00  0.00     0.009 C 
ENDBRANCH   1   4
BRANCH   1   6
HETATM    6  C   UNK N   1      35.531  13.278  13.579  0.00  0.00     0.036 C 
HETATM    7  C   UNK N   1      36.558  13.376  12.685  0.00  0.00     0.084 C 
HETATM    8 Cl   UNK N   1      36.293  13.141  10.971  0.00  0.00    -0.097 Cl
ENDBRANCH   1   6
BRANCH   1   9
HETATM    9  O   UNK N   1      34.312  12.773  15.164  0.00  0.00    -0.374 OA
HETATM   10  H   UNK N   1      34.193  12.048  14.531  0.00  0.00     0.212 HD
ENDBRANCH   1   9
TORSDOF 3
ENDMDL
MODEL 7
REMARK VINA RESULT:      -3.9     12.460     13.537
REMARK  3 active torsions:
REMARK  status: ('A' for Active; 'I' for Inactive)
REMARK    1  A    between atoms: C_2  and  C_1 
REMARK    2  A    between atoms: C_3  and  C_2 
REMARK    3  A    between atoms: C_2  and  O_7 
ROOT
HETATM    1  C   UNK N   1      35.646  12.973  15.272  0.00  0.00     0.139 C 
HETATM    2  C   UNK N   1      35.383  13.199  13.828  0.00  0.00    -0.075 C 
HETATM    3  C   UNK N   1      35.114  13.386  12.658  0.00  0.00     0.015 C 
ENDROOT
BRANCH   1   4
HETATM    4  C   UNK N   1      37.061  13.576  15.159  0.00  0.00     0.051 C 
HETATM    5  C   UNK N   1      37.182  14.995  15.736  0.00  0.00     0.009 C 
ENDBRANCH   1   4
BRANCH   1   6
HETATM    6  C   UNK N   1      35.464  13.246  16.796  0.00  0.00     0.036 C 
HETATM    7  C   UNK N   1      35.299  12.405  17.857  0.00  0.00     0.084 C 
HETATM    8 Cl   UNK N   1      34.940  13.022  19.455  0.00  0.00    -0.097 Cl
ENDBRANCH   1   6
BRANCH   1   9
HETATM    9  O   UNK N   1      34.261  13.029  15.134  0.00  0.00    -0.374 OA
HETATM   10  H   UNK N   1      33.730  13.544  15.762  0.00  0.00     0.212 HD
ENDBRANCH   1   9
TORSDOF 3
ENDMDL
MODEL 8
REMARK VINA RESULT:      -3.8     19.586     20.650
REMARK  3 active torsions:
REMARK  status: ('A' for Active; 'I' for Inactive)
REMARK    1  A    between atoms: C_2  and  C_1 
REMARK    2  A    between atoms: C_3  and  C_2 
REMARK    3  A    between atoms: C_2  and  O_7 
ROOT
HETATM    1  C   UNK N   1      25.949  24.460  -6.034  0.00  0.00     0.139 C 
HETATM    2  C   UNK N   1      25.413  25.833  -5.850  0.00  0.00    -0.075 C 
HETATM    3  C   UNK N   1      24.951  26.952  -5.749  0.00  0.00     0.015 C 
ENDROOT
BRANCH   1   4
HETATM    4  C   UNK N   1      25.961  24.208  -4.514  0.00  0.00     0.051 C 
HETATM    5  C   UNK N   1      27.325  24.454  -3.852  0.00  0.00     0.009 C 
ENDBRANCH   1   4
BRANCH   1   6
HETATM    6  C   UNK N   1      25.868  22.963  -6.457  0.00  0.00     0.036 C 
HETATM    7  C   UNK N   1      25.446  22.364  -7.609  0.00  0.00     0.084 C 
HETATM    8 Cl   UNK N   1      25.308  20.623  -7.727  0.00  0.00    -0.097 Cl
ENDBRANCH   1   6
BRANCH   1   9
HETATM    9  O   UNK N   1      25.316  24.794  -7.230  0.00  0.00    -0.374 OA
HETATM   10  H   UNK N   1      24.396  24.530  -7.384  0.00  0.00     0.212 HD
ENDBRANCH   1   9
TORSDOF 3
ENDMDL
MODEL 9
REMARK VINA RESULT:      -3.7      8.660     10.237
REMARK  3 active torsions:
REMARK  status: ('A' for Active; 'I' for Inactive)
REMARK    1  A    between atoms: C_2  and  C_1 
REMARK    2  A    between atoms: C_3  and  C_2 
REMARK    3  A    between atoms: C_2  and  O_7 
ROOT
HETATM    1  C   UNK N   1      27.441  19.976   4.692  0.00  0.00     0.139 C 
HETATM    2  C   UNK N   1      26.448  20.312   3.640  0.00  0.00    -0.075 C 
HETATM    3  C   UNK N   1      25.661  20.551   2.745  0.00  0.00     0.015 C 
ENDROOT
BRANCH   1   4
HETATM    4  C   UNK N   1      26.449  20.341   5.814  0.00  0.00     0.051 C 
HETATM    5  C   UNK N   1      26.749  21.684   6.498  0.00  0.00     0.009 C 
ENDBRANCH   1   4
BRANCH   1   6
HETATM    6  C   UNK N   1      28.316  19.008   5.545  0.00  0.00     0.036 C 
HETATM    7  C   UNK N   1      27.996  18.130   6.539  0.00  0.00     0.084 C 
HETATM    8 Cl   UNK N   1      29.239  17.293   7.443  0.00  0.00    -0.097 Cl
ENDBRANCH   1   6
BRANCH   1   9
HETATM    9  O   UNK N   1      27.820  19.261   3.558  0.00  0.00    -0.374 OA
HETATM   10  H   UNK N   1      27.179  18.693   3.103  0.00  0.00     0.212 HD
ENDBRANCH   1   9
TORSDOF 3
ENDMDL
