MODEL 1
REMARK VINA RESULT:      -7.4      0.000      0.000
REMARK  7 active torsions:
REMARK  status: ('A' for Active; 'I' for Inactive)
REMARK    1  A    between atoms: C_5  and  C_3 
REMARK    2  A    between atoms: C_9  and  C_3 
REMARK    3  A    between atoms: N_27  and  C_9 
REMARK    4  A    between atoms: C_15  and  C_14 
REMARK    5  A    between atoms: N_28  and  C_14 
REMARK    6  A    between atoms: O_29  and  C_15 
REMARK    7  A    between atoms: C_23  and  C_17 
ROOT
HETATM    1  C   UNK N   1      35.126  13.422  18.725  0.00  0.00     0.001 A 
HETATM    2  C   UNK N   1      35.313  12.260  19.463  0.00  0.00     0.001 A 
HETATM    3  C   UNK N   1      35.328  13.405  17.346  0.00  0.00     0.013 A 
HETATM    4  C   UNK N   1      35.501  13.407  14.507  0.00  0.00    -0.012 C 
HETATM    5  C   UNK N   1      35.696  11.089  18.818  0.00  0.00     0.020 A 
HETATM    6  C   UNK N   1      37.730   8.945  13.038  0.00  0.00     0.017 A 
HETATM    7  C   UNK N   1      37.356   8.798  14.366  0.00  0.00     0.020 A 
HETATM    8  C   UNK N   1      36.931  11.215  13.091  0.00  0.00     0.029 A 
HETATM    9  C   UNK N   1      37.524  10.158  12.390  0.00  0.00     0.048 A 
HETATM   10  C   UNK N   1      35.912  12.274  15.169  0.00  0.00    -0.017 C 
HETATM   11  C   UNK N   1      35.724  12.232  16.665  0.00  0.00    -0.008 A 
HETATM   12  C   UNK N   1      36.531  11.094  14.441  0.00  0.00    -0.007 A 
HETATM   13  C   UNK N   1      35.907  11.059  17.434  0.00  0.00     0.016 A 
HETATM   14  C   UNK N   1      36.769   9.850  15.078  0.00  0.00     0.016 A 
HETATM   15  S   UNK N   1      36.315   9.462  16.757  0.00  0.00    -0.089 SA
ENDROOT
BRANCH   4  16
HETATM   16  C   UNK N   1      35.503  13.575  13.021  0.00  0.00     0.058 C 
BRANCH  16  17
HETATM   17  C   UNK N   1      36.113  14.884  12.545  0.00  0.00     0.276 C 
BRANCH  17  18
HETATM   18  N   UNK N   1      35.612  15.128  11.201  0.00  0.00     0.092 N 
HETATM   19  C   UNK N   1      35.347  16.553  11.071  0.00  0.00     0.302 C 
HETATM   20  C   UNK N   1      34.961  16.837   9.631  0.00  0.00     0.302 C 
HETATM   21  N   UNK N   1      33.727  16.124   9.299  0.00  0.00     0.093 N 
HETATM   22  C   UNK N   1      33.907  14.683   9.524  0.00  0.00     0.302 C 
HETATM   23  C   UNK N   1      34.362  14.411  10.967  0.00  0.00     0.302 C 
BRANCH  21  24
HETATM   24  C   UNK N   1      33.489  16.320   7.874  0.00  0.00     0.298 C 
BRANCH  24  25
HETATM   25  C   UNK N   1      33.475  17.804   7.534  0.00  0.00     0.194 C 
BRANCH  25  26
HETATM   26  O   UNK N   1      34.277  18.035   6.417  0.00  0.00    -0.399 OA
HETATM   27  H   UNK N   1      35.242  17.985   6.341  0.00  0.00     0.209 HD
ENDBRANCH  25  26
ENDBRANCH  24  25
ENDBRANCH  21  24
ENDBRANCH  17  18
ENDBRANCH  16  17
ENDBRANCH   4  16
BRANCH   9  28
HETATM   28  C   UNK N   1      37.937  10.328  10.955  0.00  0.00     0.417 C 
HETATM   29  F   UNK N   1      38.352  11.631  10.743  0.00  0.00    -0.166 F 
HETATM   30  F   UNK N   1      38.971   9.458  10.665  0.00  0.00    -0.166 F 
HETATM   31  F   UNK N   1      36.887  10.054  10.095  0.00  0.00    -0.166 F 
ENDBRANCH   9  28
TORSDOF 7
ENDMDL
MODEL 2
REMARK VINA RESULT:      -7.4     13.334     15.772
REMARK  7 active torsions:
REMARK  status: ('A' for Active; 'I' for Inactive)
REMARK    1  A    between atoms: C_5  and  C_3 
REMARK    2  A    between atoms: C_9  and  C_3 
REMARK    3  A    between atoms: N_27  and  C_9 
REMARK    4  A    between atoms: C_15  and  C_14 
REMARK    5  A    between atoms: N_28  and  C_14 
REMARK    6  A    between atoms: O_29  and  C_15 
REMARK    7  A    between atoms: C_23  and  C_17 
ROOT
HETATM    1  C   UNK N   1      20.680  12.723  10.740  0.00  0.00     0.001 A 
HETATM    2  C   UNK N   1      21.811  12.235  11.382  0.00  0.00     0.001 A 
HETATM    3  C   UNK N   1      20.810  13.397   9.527  0.00  0.00     0.013 A 
HETATM    4  C   UNK N   1      20.960  14.587   6.948  0.00  0.00    -0.012 C 
HETATM    5  C   UNK N   1      23.063  12.421  10.806  0.00  0.00     0.020 A 
HETATM    6  C   UNK N   1      25.960  15.603   5.947  0.00  0.00     0.017 A 
HETATM    7  C   UNK N   1      25.928  14.744   7.035  0.00  0.00     0.020 A 
HETATM    8  C   UNK N   1      23.553  15.631   5.929  0.00  0.00     0.029 A 
HETATM    9  C   UNK N   1      24.772  16.058   5.386  0.00  0.00     0.048 A 
HETATM   10  C   UNK N   1      22.143  14.331   7.602  0.00  0.00    -0.017 C 
HETATM   11  C   UNK N   1      22.070  13.607   8.922  0.00  0.00    -0.008 A 
HETATM   12  C   UNK N   1      23.487  14.750   7.031  0.00  0.00    -0.007 A 
HETATM   13  C   UNK N   1      23.208  13.100   9.590  0.00  0.00     0.016 A 
HETATM   14  C   UNK N   1      24.716  14.317   7.589  0.00  0.00     0.016 A 
HETATM   15  S   UNK N   1      24.871  13.180   8.954  0.00  0.00    -0.089 SA
ENDROOT
BRANCH   4  16
HETATM   16  C   UNK N   1      20.853  15.187   5.583  0.00  0.00     0.058 C 
BRANCH  16  17
HETATM   17  C   UNK N   1      19.493  15.797   5.279  0.00  0.00     0.276 C 
BRANCH  17  18
HETATM   18  N   UNK N   1      19.732  17.108   4.693  0.00  0.00     0.092 N 
HETATM   19  C   UNK N   1      19.727  16.961   3.244  0.00  0.00     0.302 C 
HETATM   20  C   UNK N   1      19.832  18.342   2.625  0.00  0.00     0.302 C 
HETATM   21  N   UNK N   1      21.104  18.960   3.004  0.00  0.00     0.093 N 
HETATM   22  C   UNK N   1      21.209  19.027   4.468  0.00  0.00     0.302 C 
HETATM   23  C   UNK N   1      21.035  17.633   5.090  0.00  0.00     0.302 C 
BRANCH  21  24
HETATM   24  C   UNK N   1      21.082  20.328   2.501  0.00  0.00     0.298 C 
BRANCH  24  25
HETATM   25  C   UNK N   1      21.012  20.337   0.980  0.00  0.00     0.194 C 
BRANCH  25  26
HETATM   26  O   UNK N   1      20.339  21.479   0.549  0.00  0.00    -0.399 OA
HETATM   27  H   UNK N   1      19.898  22.161   1.080  0.00  0.00     0.209 HD
ENDBRANCH  25  26
ENDBRANCH  24  25
ENDBRANCH  21  24
ENDBRANCH  17  18
ENDBRANCH  16  17
ENDBRANCH   4  16
BRANCH   9  28
HETATM   28  C   UNK N   1      24.800  16.998   4.214  0.00  0.00     0.417 C 
HETATM   29  F   UNK N   1      24.685  18.302   4.663  0.00  0.00    -0.166 F 
HETATM   30  F   UNK N   1      25.990  16.847   3.528  0.00  0.00    -0.166 F 
HETATM   31  F   UNK N   1      23.758  16.740   3.339  0.00  0.00    -0.166 F 
ENDBRANCH   9  28
TORSDOF 7
ENDMDL
MODEL 3
REMARK VINA RESULT:      -7.4     12.538     14.589
REMARK  7 active torsions:
REMARK  status: ('A' for Active; 'I' for Inactive)
REMARK    1  A    between atoms: C_5  and  C_3 
REMARK    2  A    between atoms: C_9  and  C_3 
REMARK    3  A    between atoms: N_27  and  C_9 
REMARK    4  A    between atoms: C_15  and  C_14 
REMARK    5  A    between atoms: N_28  and  C_14 
REMARK    6  A    between atoms: O_29  and  C_15 
REMARK    7  A    between atoms: C_23  and  C_17 
ROOT
HETATM    1  C   UNK N   1      24.212  11.868  10.950  0.00  0.00     0.001 A 
HETATM    2  C   UNK N   1      22.949  11.975  11.517  0.00  0.00     0.001 A 
HETATM    3  C   UNK N   1      24.497  12.540   9.762  0.00  0.00     0.013 A 
HETATM    4  C   UNK N   1      25.230  14.050   7.466  0.00  0.00    -0.012 C 
HETATM    5  C   UNK N   1      21.980  12.757  10.896  0.00  0.00     0.020 A 
HETATM    6  C   UNK N   1      20.883  15.997   5.379  0.00  0.00     0.017 A 
HETATM    7  C   UNK N   1      20.561  15.549   6.652  0.00  0.00     0.020 A 
HETATM    8  C   UNK N   1      23.133  15.199   5.696  0.00  0.00     0.029 A 
HETATM    9  C   UNK N   1      22.172  15.822   4.888  0.00  0.00     0.048 A 
HETATM   10  C   UNK N   1      23.904  14.050   7.831  0.00  0.00    -0.017 C 
HETATM   11  C   UNK N   1      23.530  13.335   9.106  0.00  0.00    -0.008 A 
HETATM   12  C   UNK N   1      22.837  14.740   6.999  0.00  0.00    -0.007 A 
HETATM   13  C   UNK N   1      22.251  13.434   9.701  0.00  0.00     0.016 A 
HETATM   14  C   UNK N   1      21.511  14.920   7.464  0.00  0.00     0.016 A 
HETATM   15  S   UNK N   1      20.927  14.453   9.083  0.00  0.00    -0.089 SA
ENDROOT
BRANCH   4  16
HETATM   16  C   UNK N   1      25.794  14.803   6.304  0.00  0.00     0.058 C 
BRANCH  16  17
HETATM   17  C   UNK N   1      26.882  15.798   6.679  0.00  0.00     0.276 C 
BRANCH  17  18
HETATM   18  N   UNK N   1      26.593  17.037   5.973  0.00  0.00     0.092 N 
HETATM   19  C   UNK N   1      26.519  16.739   4.550  0.00  0.00     0.302 C 
HETATM   20  C   UNK N   1      26.077  17.995   3.822  0.00  0.00     0.302 C 
HETATM   21  N   UNK N   1      27.077  19.050   4.004  0.00  0.00     0.093 N 
HETATM   22  C   UNK N   1      27.273  19.310   5.436  0.00  0.00     0.302 C 
HETATM   23  C   UNK N   1      27.655  18.018   6.176  0.00  0.00     0.302 C 
BRANCH  21  24
HETATM   24  C   UNK N   1      26.532  20.263   3.407  0.00  0.00     0.298 C 
BRANCH  24  25
HETATM   25  C   UNK N   1      25.039  20.108   3.152  0.00  0.00     0.194 C 
BRANCH  25  26
HETATM   26  O   UNK N   1      24.656  20.937   2.098  0.00  0.00    -0.399 OA
HETATM   27  H   UNK N   1      23.785  21.322   1.914  0.00  0.00     0.209 HD
ENDBRANCH  25  26
ENDBRANCH  24  25
ENDBRANCH  21  24
ENDBRANCH  17  18
ENDBRANCH  16  17
ENDBRANCH   4  16
BRANCH   9  28
HETATM   28  C   UNK N   1      22.526  16.294   3.506  0.00  0.00     0.417 C 
HETATM   29  F   UNK N   1      23.689  15.673   3.087  0.00  0.00    -0.166 F 
HETATM   30  F   UNK N   1      21.496  15.988   2.636  0.00  0.00    -0.166 F 
HETATM   31  F   UNK N   1      22.724  17.665   3.479  0.00  0.00    -0.166 F 
ENDBRANCH   9  28
TORSDOF 7
ENDMDL
MODEL 4
REMARK VINA RESULT:      -7.2     20.048     23.016
REMARK  7 active torsions:
REMARK  status: ('A' for Active; 'I' for Inactive)
REMARK    1  A    between atoms: C_5  and  C_3 
REMARK    2  A    between atoms: C_9  and  C_3 
REMARK    3  A    between atoms: N_27  and  C_9 
REMARK    4  A    between atoms: C_15  and  C_14 
REMARK    5  A    between atoms: N_28  and  C_14 
REMARK    6  A    between atoms: O_29  and  C_15 
REMARK    7  A    between atoms: C_23  and  C_17 
ROOT
HETATM    1  C   UNK N   1      29.778  18.920 -10.174  0.00  0.00     0.001 A 
HETATM    2  C   UNK N   1      31.014  18.302 -10.033  0.00  0.00     0.001 A 
HETATM    3  C   UNK N   1      29.341  19.821  -9.205  0.00  0.00     0.013 A 
HETATM    4  C   UNK N   1      28.469  21.834  -7.394  0.00  0.00    -0.012 C 
HETATM    5  C   UNK N   1      31.807  18.593  -8.928  0.00  0.00     0.020 A 
HETATM    6  C   UNK N   1      31.577  21.691  -3.228  0.00  0.00     0.017 A 
HETATM    7  C   UNK N   1      32.195  20.950  -4.225  0.00  0.00     0.020 A 
HETATM    8  C   UNK N   1      29.708  22.063  -4.699  0.00  0.00     0.029 A 
HETATM    9  C   UNK N   1      30.325  22.251  -3.455  0.00  0.00     0.048 A 
HETATM   10  C   UNK N   1      29.600  21.124  -7.061  0.00  0.00    -0.017 C 
HETATM   11  C   UNK N   1      30.122  20.130  -8.068  0.00  0.00    -0.008 A 
HETATM   12  C   UNK N   1      30.315  21.322  -5.737  0.00  0.00    -0.007 A 
HETATM   13  C   UNK N   1      31.378  19.493  -7.944  0.00  0.00     0.016 A 
HETATM   14  C   UNK N   1      31.584  20.751  -5.468  0.00  0.00     0.016 A 
HETATM   15  S   UNK N   1      32.547  19.811  -6.638  0.00  0.00    -0.089 SA
ENDROOT
BRANCH   4  16
HETATM   16  C   UNK N   1      27.883  22.938  -6.573  0.00  0.00     0.058 C 
BRANCH  16  17
HETATM   17  C   UNK N   1      26.363  22.954  -6.550  0.00  0.00     0.276 C 
BRANCH  17  18
HETATM   18  N   UNK N   1      25.956  24.099  -5.750  0.00  0.00     0.092 N 
HETATM   19  C   UNK N   1      25.944  25.271  -6.615  0.00  0.00     0.302 C 
HETATM   20  C   UNK N   1      25.385  26.440  -5.825  0.00  0.00     0.302 C 
HETATM   21  N   UNK N   1      26.262  26.735  -4.690  0.00  0.00     0.093 N 
HETATM   22  C   UNK N   1      26.400  25.543  -3.843  0.00  0.00     0.302 C 
HETATM   23  C   UNK N   1      26.903  24.346  -4.667  0.00  0.00     0.302 C 
BRANCH  21  24
HETATM   24  C   UNK N   1      25.602  27.764  -3.896  0.00  0.00     0.298 C 
BRANCH  24  25
HETATM   25  C   UNK N   1      26.565  28.904  -3.594  0.00  0.00     0.194 C 
BRANCH  25  26
HETATM   26  O   UNK N   1      25.884  30.120  -3.649  0.00  0.00    -0.399 OA
HETATM   27  H   UNK N   1      26.246  31.016  -3.723  0.00  0.00     0.209 HD
ENDBRANCH  25  26
ENDBRANCH  24  25
ENDBRANCH  21  24
ENDBRANCH  17  18
ENDBRANCH  16  17
ENDBRANCH   4  16
BRANCH   9  28
HETATM   28  C   UNK N   1      29.645  23.045  -2.376  0.00  0.00     0.417 C 
HETATM   29  F   UNK N   1      30.323  22.880  -1.181  0.00  0.00    -0.166 F 
HETATM   30  F   UNK N   1      29.634  24.383  -2.722  0.00  0.00    -0.166 F 
HETATM   31  F   UNK N   1      28.335  22.632  -2.199  0.00  0.00    -0.166 F 
ENDBRANCH   9  28
TORSDOF 7
ENDMDL
MODEL 5
REMARK VINA RESULT:      -7.2      3.113      5.079
REMARK  7 active torsions:
REMARK  status: ('A' for Active; 'I' for Inactive)
REMARK    1  A    between atoms: C_5  and  C_3 
REMARK    2  A    between atoms: C_9  and  C_3 
REMARK    3  A    between atoms: N_27  and  C_9 
REMARK    4  A    between atoms: C_15  and  C_14 
REMARK    5  A    between atoms: N_28  and  C_14 
REMARK    6  A    between atoms: O_29  and  C_15 
REMARK    7  A    between atoms: C_23  and  C_17 
ROOT
HETATM    1  C   UNK N   1      34.941   6.863  11.572  0.00  0.00     0.001 A 
HETATM    2  C   UNK N   1      35.404   5.861  12.416  0.00  0.00     0.001 A 
HETATM    3  C   UNK N   1      34.890   8.180  12.025  0.00  0.00     0.013 A 
HETATM    4  C   UNK N   1      34.957  10.918  12.790  0.00  0.00    -0.012 C 
HETATM    5  C   UNK N   1      35.815   6.183  13.705  0.00  0.00     0.020 A 
HETATM    6  C   UNK N   1      35.825  11.126  17.912  0.00  0.00     0.017 A 
HETATM    7  C   UNK N   1      36.115   9.834  17.500  0.00  0.00     0.020 A 
HETATM    8  C   UNK N   1      35.163  11.668  15.662  0.00  0.00     0.029 A 
HETATM    9  C   UNK N   1      35.342  12.055  16.996  0.00  0.00     0.048 A 
HETATM   10  C   UNK N   1      35.228   9.980  13.758  0.00  0.00    -0.017 C 
HETATM   11  C   UNK N   1      35.294   8.535  13.332  0.00  0.00    -0.008 A 
HETATM   12  C   UNK N   1      35.458  10.362  15.210  0.00  0.00    -0.007 A 
HETATM   13  C   UNK N   1      35.764   7.502  14.175  0.00  0.00     0.016 A 
HETATM   14  C   UNK N   1      35.934   9.436  16.172  0.00  0.00     0.016 A 
HETATM   15  S   UNK N   1      36.402   7.752  15.819  0.00  0.00    -0.089 SA
ENDROOT
BRANCH   4  16
HETATM   16  C   UNK N   1      34.970  12.398  13.008  0.00  0.00     0.058 C 
BRANCH  16  17
HETATM   17  C   UNK N   1      36.034  13.134  12.209  0.00  0.00     0.276 C 
BRANCH  17  18
HETATM   18  N   UNK N   1      35.399  14.305  11.625  0.00  0.00     0.092 N 
HETATM   19  C   UNK N   1      34.532  13.856  10.544  0.00  0.00     0.302 C 
HETATM   20  C   UNK N   1      33.759  15.054  10.024  0.00  0.00     0.302 C 
HETATM   21  N   UNK N   1      34.688  16.039   9.468  0.00  0.00     0.093 N 
HETATM   22  C   UNK N   1      35.661  16.442  10.492  0.00  0.00     0.302 C 
HETATM   23  C   UNK N   1      36.392  15.215  11.060  0.00  0.00     0.302 C 
BRANCH  21  24
HETATM   24  C   UNK N   1      33.904  17.217   9.119  0.00  0.00     0.298 C 
BRANCH  24  25
HETATM   25  C   UNK N   1      34.566  17.982   7.980  0.00  0.00     0.194 C 
BRANCH  25  26
HETATM   26  O   UNK N   1      34.951  19.245   8.426  0.00  0.00    -0.399 OA
HETATM   27  H   UNK N   1      35.431  19.938   7.947  0.00  0.00     0.209 HD
ENDBRANCH  25  26
ENDBRANCH  24  25
ENDBRANCH  21  24
ENDBRANCH  17  18
ENDBRANCH  16  17
ENDBRANCH   4  16
BRANCH   9  28
HETATM   28  C   UNK N   1      35.014  13.453  17.438  0.00  0.00     0.417 C 
HETATM   29  F   UNK N   1      34.856  13.481  18.812  0.00  0.00    -0.166 F 
HETATM   30  F   UNK N   1      36.038  14.306  17.072  0.00  0.00    -0.166 F 
HETATM   31  F   UNK N   1      33.844  13.903  16.850  0.00  0.00    -0.166 F 
ENDBRANCH   9  28
TORSDOF 7
ENDMDL
MODEL 6
REMARK VINA RESULT:      -7.2      3.646      5.684
REMARK  7 active torsions:
REMARK  status: ('A' for Active; 'I' for Inactive)
REMARK    1  A    between atoms: C_5  and  C_3 
REMARK    2  A    between atoms: C_9  and  C_3 
REMARK    3  A    between atoms: N_27  and  C_9 
REMARK    4  A    between atoms: C_15  and  C_14 
REMARK    5  A    between atoms: N_28  and  C_14 
REMARK    6  A    between atoms: O_29  and  C_15 
REMARK    7  A    between atoms: C_23  and  C_17 
ROOT
HETATM    1  C   UNK N   1      35.353   4.853  16.530  0.00  0.00     0.001 A 
HETATM    2  C   UNK N   1      35.304   4.539  17.883  0.00  0.00     0.001 A 
HETATM    3  C   UNK N   1      35.466   6.185  16.134  0.00  0.00     0.013 A 
HETATM    4  C   UNK N   1      35.918   8.847  15.242  0.00  0.00    -0.012 C 
HETATM    5  C   UNK N   1      35.373   5.556  18.829  0.00  0.00     0.020 A 
HETATM    6  C   UNK N   1      35.240  12.029  19.298  0.00  0.00     0.017 A 
HETATM    7  C   UNK N   1      35.341  10.740  19.801  0.00  0.00     0.020 A 
HETATM    8  C   UNK N   1      35.420  11.144  17.066  0.00  0.00     0.029 A 
HETATM    9  C   UNK N   1      35.275  12.242  17.924  0.00  0.00     0.048 A 
HETATM   10  C   UNK N   1      35.668   8.658  16.581  0.00  0.00    -0.017 C 
HETATM   11  C   UNK N   1      35.531   7.239  17.072  0.00  0.00    -0.008 A 
HETATM   12  C   UNK N   1      35.535   9.821  17.549  0.00  0.00    -0.007 A 
HETATM   13  C   UNK N   1      35.483   6.898  18.444  0.00  0.00     0.016 A 
HETATM   14  C   UNK N   1      35.480   9.637  18.953  0.00  0.00     0.016 A 
HETATM   15  S   UNK N   1      35.640   8.066  19.781  0.00  0.00    -0.089 SA
ENDROOT
BRANCH   4  16
HETATM   16  C   UNK N   1      36.198  10.171  14.605  0.00  0.00     0.058 C 
BRANCH  16  17
HETATM   17  C   UNK N   1      36.056  10.173  13.091  0.00  0.00     0.276 C 
BRANCH  17  18
HETATM   18  N   UNK N   1      35.485  11.457  12.714  0.00  0.00     0.092 N 
HETATM   19  C   UNK N   1      35.731  11.661  11.294  0.00  0.00     0.302 C 
HETATM   20  C   UNK N   1      35.016  12.928  10.863  0.00  0.00     0.302 C 
HETATM   21  N   UNK N   1      35.572  14.078  11.579  0.00  0.00     0.093 N 
HETATM   22  C   UNK N   1      35.450  13.870  13.028  0.00  0.00     0.302 C 
HETATM   23  C   UNK N   1      36.120  12.550  13.445  0.00  0.00     0.302 C 
BRANCH  21  24
HETATM   24  C   UNK N   1      34.754  15.234  11.232  0.00  0.00     0.298 C 
BRANCH  24  25
HETATM   25  C   UNK N   1      35.636  16.426  10.884  0.00  0.00     0.194 C 
BRANCH  25  26
HETATM   26  O   UNK N   1      36.969  16.023  10.832  0.00  0.00    -0.399 OA
HETATM   27  H   UNK N   1      37.572  16.015  10.072  0.00  0.00     0.209 HD
ENDBRANCH  25  26
ENDBRANCH  24  25
ENDBRANCH  21  24
ENDBRANCH  17  18
ENDBRANCH  16  17
ENDBRANCH   4  16
BRANCH   9  28
HETATM   28  C   UNK N   1      35.155  13.634  17.371  0.00  0.00     0.417 C 
HETATM   29  F   UNK N   1      34.015  13.727  16.592  0.00  0.00    -0.166 F 
HETATM   30  F   UNK N   1      35.080  14.540  18.412  0.00  0.00    -0.166 F 
HETATM   31  F   UNK N   1      36.250  13.960  16.589  0.00  0.00    -0.166 F 
ENDBRANCH   9  28
TORSDOF 7
ENDMDL
MODEL 7
REMARK VINA RESULT:      -7.0     19.764     23.116
REMARK  7 active torsions:
REMARK  status: ('A' for Active; 'I' for Inactive)
REMARK    1  A    between atoms: C_5  and  C_3 
REMARK    2  A    between atoms: C_9  and  C_3 
REMARK    3  A    between atoms: N_27  and  C_9 
REMARK    4  A    between atoms: C_15  and  C_14 
REMARK    5  A    between atoms: N_28  and  C_14 
REMARK    6  A    between atoms: O_29  and  C_15 
REMARK    7  A    between atoms: C_23  and  C_17 
ROOT
HETATM    1  C   UNK N   1      26.034  27.305  -3.497  0.00  0.00     0.001 A 
HETATM    2  C   UNK N   1      25.177  27.687  -4.522  0.00  0.00     0.001 A 
HETATM    3  C   UNK N   1      26.912  26.240  -3.692  0.00  0.00     0.013 A 
HETATM    4  C   UNK N   1      28.884  24.226  -4.077  0.00  0.00    -0.012 C 
HETATM    5  C   UNK N   1      25.206  27.006  -5.734  0.00  0.00     0.020 A 
HETATM    6  C   UNK N   1      27.761  21.712  -8.488  0.00  0.00     0.017 A 
HETATM    7  C   UNK N   1      27.007  22.877  -8.477  0.00  0.00     0.020 A 
HETATM    8  C   UNK N   1      28.623  22.281  -6.312  0.00  0.00     0.029 A 
HETATM    9  C   UNK N   1      28.574  21.402  -7.402  0.00  0.00     0.048 A 
HETATM   10  C   UNK N   1      27.940  24.391  -5.064  0.00  0.00    -0.017 C 
HETATM   11  C   UNK N   1      26.958  25.525  -4.910  0.00  0.00    -0.008 A 
HETATM   12  C   UNK N   1      27.874  23.479  -6.276  0.00  0.00    -0.007 A 
HETATM   13  C   UNK N   1      26.080  25.931  -5.941  0.00  0.00     0.016 A 
HETATM   14  C   UNK N   1      27.044  23.757  -7.391  0.00  0.00     0.016 A 
HETATM   15  S   UNK N   1      26.045  25.222  -7.575  0.00  0.00    -0.089 SA
ENDROOT
BRANCH   4  16
HETATM   16  C   UNK N   1      30.002  23.235  -4.123  0.00  0.00     0.058 C 
BRANCH  16  17
HETATM   17  C   UNK N   1      31.381  23.862  -4.255  0.00  0.00     0.276 C 
BRANCH  17  18
HETATM   18  N   UNK N   1      32.320  22.783  -4.527  0.00  0.00     0.092 N 
HETATM   19  C   UNK N   1      32.230  22.454  -5.942  0.00  0.00     0.302 C 
HETATM   20  C   UNK N   1      33.304  21.431  -6.263  0.00  0.00     0.302 C 
HETATM   21  N   UNK N   1      33.059  20.203  -5.505  0.00  0.00     0.093 N 
HETATM   22  C   UNK N   1      33.026  20.501  -4.067  0.00  0.00     0.302 C 
HETATM   23  C   UNK N   1      31.982  21.587  -3.762  0.00  0.00     0.302 C 
BRANCH  21  24
HETATM   24  C   UNK N   1      34.194  19.319  -5.745  0.00  0.00     0.298 C 
BRANCH  24  25
HETATM   25  C   UNK N   1      34.446  18.433  -4.533  0.00  0.00     0.194 C 
BRANCH  25  26
HETATM   26  O   UNK N   1      35.807  18.145  -4.437  0.00  0.00    -0.399 OA
HETATM   27  H   UNK N   1      36.542  18.747  -4.243  0.00  0.00     0.209 HD
ENDBRANCH  25  26
ENDBRANCH  24  25
ENDBRANCH  21  24
ENDBRANCH  17  18
ENDBRANCH  16  17
ENDBRANCH   4  16
BRANCH   9  28
HETATM   28  C   UNK N   1      29.384  20.137  -7.402  0.00  0.00     0.417 C 
HETATM   29  F   UNK N   1      30.006  19.985  -6.175  0.00  0.00    -0.166 F 
HETATM   30  F   UNK N   1      28.555  19.056  -7.638  0.00  0.00    -0.166 F 
HETATM   31  F   UNK N   1      30.355  20.162  -8.389  0.00  0.00    -0.166 F 
ENDBRANCH   9  28
TORSDOF 7
ENDMDL
MODEL 8
REMARK VINA RESULT:      -6.9     10.431     15.188
REMARK  7 active torsions:
REMARK  status: ('A' for Active; 'I' for Inactive)
REMARK    1  A    between atoms: C_5  and  C_3 
REMARK    2  A    between atoms: C_9  and  C_3 
REMARK    3  A    between atoms: N_27  and  C_9 
REMARK    4  A    between atoms: C_15  and  C_14 
REMARK    5  A    between atoms: N_28  and  C_14 
REMARK    6  A    between atoms: O_29  and  C_15 
REMARK    7  A    between atoms: C_23  and  C_17 
ROOT
HETATM    1  C   UNK N   1      23.426  13.042   0.322  0.00  0.00     0.001 A 
HETATM    2  C   UNK N   1      22.128  13.263   0.766  0.00  0.00     0.001 A 
HETATM    3  C   UNK N   1      24.477  13.780   0.864  0.00  0.00     0.013 A 
HETATM    4  C   UNK N   1      26.702  15.080   2.068  0.00  0.00    -0.012 C 
HETATM    5  C   UNK N   1      21.890  14.216   1.751  0.00  0.00     0.020 A 
HETATM    6  C   UNK N   1      24.885  18.972   4.998  0.00  0.00     0.017 A 
HETATM    7  C   UNK N   1      23.806  18.157   4.686  0.00  0.00     0.020 A 
HETATM    8  C   UNK N   1      26.305  17.561   3.661  0.00  0.00     0.029 A 
HETATM    9  C   UNK N   1      26.145  18.683   4.485  0.00  0.00     0.048 A 
HETATM   10  C   UNK N   1      25.445  15.515   2.417  0.00  0.00    -0.017 C 
HETATM   11  C   UNK N   1      24.264  14.759   1.860  0.00  0.00    -0.008 A 
HETATM   12  C   UNK N   1      25.229  16.707   3.332  0.00  0.00    -0.007 A 
HETATM   13  C   UNK N   1      22.937  14.967   2.300  0.00  0.00     0.016 A 
HETATM   14  C   UNK N   1      23.955  17.039   3.859  0.00  0.00     0.016 A 
HETATM   15  S   UNK N   1      22.469  16.087   3.605  0.00  0.00    -0.089 SA
ENDROOT
BRANCH   4  16
HETATM   16  C   UNK N   1      27.979  15.632   2.617  0.00  0.00     0.058 C 
BRANCH  16  17
HETATM   17  C   UNK N   1      28.578  14.806   3.744  0.00  0.00     0.276 C 
BRANCH  17  18
HETATM   18  N   UNK N   1      29.502  15.668   4.465  0.00  0.00     0.092 N 
HETATM   19  C   UNK N   1      30.734  14.924   4.684  0.00  0.00     0.302 C 
HETATM   20  C   UNK N   1      31.753  15.861   5.306  0.00  0.00     0.302 C 
HETATM   21  N   UNK N   1      31.272  16.317   6.612  0.00  0.00     0.093 N 
HETATM   22  C   UNK N   1      29.969  16.979   6.461  0.00  0.00     0.302 C 
HETATM   23  C   UNK N   1      28.963  16.045   5.768  0.00  0.00     0.302 C 
BRANCH  21  24
HETATM   24  C   UNK N   1      32.219  17.317   7.091  0.00  0.00     0.298 C 
BRANCH  24  25
HETATM   25  C   UNK N   1      33.471  17.325   6.224  0.00  0.00     0.194 C 
BRANCH  25  26
HETATM   26  O   UNK N   1      34.469  18.071   6.850  0.00  0.00    -0.399 OA
HETATM   27  H   UNK N   1      35.196  18.570   6.447  0.00  0.00     0.209 HD
ENDBRANCH  25  26
ENDBRANCH  24  25
ENDBRANCH  21  24
ENDBRANCH  17  18
ENDBRANCH  16  17
ENDBRANCH   4  16
BRANCH   9  28
HETATM   28  C   UNK N   1      27.315  19.568   4.810  0.00  0.00     0.417 C 
HETATM   29  F   UNK N   1      27.507  19.599   6.180  0.00  0.00    -0.166 F 
HETATM   30  F   UNK N   1      28.450  19.078   4.193  0.00  0.00    -0.166 F 
HETATM   31  F   UNK N   1      27.104  20.862   4.365  0.00  0.00    -0.166 F 
ENDBRANCH   9  28
TORSDOF 7
ENDMDL
MODEL 9
REMARK VINA RESULT:      -6.9     20.837     26.538
REMARK  7 active torsions:
REMARK  status: ('A' for Active; 'I' for Inactive)
REMARK    1  A    between atoms: C_5  and  C_3 
REMARK    2  A    between atoms: C_9  and  C_3 
REMARK    3  A    between atoms: N_27  and  C_9 
REMARK    4  A    between atoms: C_15  and  C_14 
REMARK    5  A    between atoms: N_28  and  C_14 
REMARK    6  A    between atoms: O_29  and  C_15 
REMARK    7  A    between atoms: C_23  and  C_17 
ROOT
HETATM    1  C   UNK N   1      30.337  26.894 -11.280  0.00  0.00     0.001 A 
HETATM    2  C   UNK N   1      31.180  27.994 -11.377  0.00  0.00     0.001 A 
HETATM    3  C   UNK N   1      29.381  26.844 -10.266  0.00  0.00     0.013 A 
HETATM    4  C   UNK N   1      27.263  26.758  -8.370  0.00  0.00    -0.012 C 
HETATM    5  C   UNK N   1      31.061  29.036 -10.464  0.00  0.00     0.020 A 
HETATM    6  C   UNK N   1      28.052  30.568  -4.920  0.00  0.00     0.017 A 
HETATM    7  C   UNK N   1      28.883  30.817  -6.002  0.00  0.00     0.020 A 
HETATM    8  C   UNK N   1      27.310  28.542  -5.990  0.00  0.00     0.029 A 
HETATM    9  C   UNK N   1      27.259  29.425  -4.903  0.00  0.00     0.048 A 
HETATM   10  C   UNK N   1      28.180  27.777  -8.256  0.00  0.00    -0.017 C 
HETATM   11  C   UNK N   1      29.242  27.884  -9.320  0.00  0.00    -0.008 A 
HETATM   12  C   UNK N   1      28.140  28.773  -7.110  0.00  0.00    -0.007 A 
HETATM   13  C   UNK N   1      30.109  28.995  -9.438  0.00  0.00     0.016 A 
HETATM   14  C   UNK N   1      28.946  29.939  -7.089  0.00  0.00     0.016 A 
HETATM   15  S   UNK N   1      30.036  30.446  -8.406  0.00  0.00    -0.089 SA
ENDROOT
BRANCH   4  16
HETATM   16  C   UNK N   1      26.079  26.572  -7.476  0.00  0.00     0.058 C 
BRANCH  16  17
HETATM   17  C   UNK N   1      25.926  25.159  -6.935  0.00  0.00     0.276 C 
BRANCH  17  18
HETATM   18  N   UNK N   1      27.149  24.840  -6.214  0.00  0.00     0.092 N 
HETATM   19  C   UNK N   1      27.459  23.438  -6.451  0.00  0.00     0.302 C 
HETATM   20  C   UNK N   1      28.806  23.134  -5.821  0.00  0.00     0.302 C 
HETATM   21  N   UNK N   1      28.731  23.333  -4.373  0.00  0.00     0.093 N 
HETATM   22  C   UNK N   1      28.308  24.710  -4.079  0.00  0.00     0.302 C 
HETATM   23  C   UNK N   1      26.976  25.029  -4.777  0.00  0.00     0.302 C 
BRANCH  21  24
HETATM   24  C   UNK N   1      30.081  23.167  -3.848  0.00  0.00     0.298 C 
BRANCH  24  25
HETATM   25  C   UNK N   1      30.052  22.390  -2.538  0.00  0.00     0.194 C 
BRANCH  25  26
HETATM   26  O   UNK N   1      30.515  23.200  -1.503  0.00  0.00    -0.399 OA
HETATM   27  H   UNK N   1      30.158  23.305  -0.607  0.00  0.00     0.209 HD
ENDBRANCH  25  26
ENDBRANCH  24  25
ENDBRANCH  21  24
ENDBRANCH  17  18
ENDBRANCH  16  17
ENDBRANCH   4  16
BRANCH   9  28
HETATM   28  C   UNK N   1      26.365  29.143  -3.729  0.00  0.00     0.417 C 
HETATM   29  F   UNK N   1      25.229  28.481  -4.160  0.00  0.00    -0.166 F 
HETATM   30  F   UNK N   1      27.039  28.360  -2.812  0.00  0.00    -0.166 F 
HETATM   31  F   UNK N   1      25.979  30.315  -3.099  0.00  0.00    -0.166 F 
ENDBRANCH   9  28
TORSDOF 7
ENDMDL
