MODEL 1
REMARK VINA RESULT:      -8.6      0.000      0.000
REMARK  5 active torsions:
REMARK  status: ('A' for Active; 'I' for Inactive)
REMARK    1  A    between atoms: N_2  and  C_6 
REMARK    2  A    between atoms: C_10  and  N_16 
REMARK    3  A    between atoms: C_13  and  C_20 
REMARK    4  A    between atoms: C_20  and  O_23 
REMARK    5  A    between atoms: C_30  and  N_31 
ROOT
HETATM    1  C   UNK N   1      24.547  18.690   4.771  0.00  0.00     0.128 A 
HETATM    2  N   UNK N   1      23.261  18.179   4.777  0.00  0.00    -0.303 N 
HETATM    3  C   UNK N   1      24.890  19.785   3.950  0.00  0.00     0.063 A 
HETATM    4  N   UNK N   1      25.506  18.144   5.556  0.00  0.00    -0.325 N 
ATOM      5  HN  UNK N   1      25.256  17.337   6.125  1.00  0.00     0.169 HD
HETATM    6  C   UNK N   1      22.332  18.733   3.942  0.00  0.00     0.121 A 
HETATM    7  C   UNK N   1      23.924  20.347   3.107  0.00  0.00     0.204 A 
HETATM    8  C   UNK N   1      26.201  20.291   4.002  0.00  0.00     0.065 A 
HETATM    9  C   UNK N   1      26.779  18.602   5.633  0.00  0.00     0.144 A 
HETATM   10  C   UNK N   1      22.625  19.806   3.093  0.00  0.00     0.104 A 
HETATM   11  O   UNK N   1      24.213  21.292   2.389  0.00  0.00    -0.286 OA
HETATM   12  C   UNK N   1      27.151  19.711   4.851  0.00  0.00     0.161 A 
HETATM   13  F   UNK N   1      28.411  20.210   4.881  0.00  0.00    -0.202 F 
ENDROOT
BRANCH   9  14
HETATM   14  N   UNK N   1      27.679  17.937   6.516  0.00  0.00    -0.364 N 
HETATM   15  C   UNK N   1      28.714  17.072   6.024  0.00  0.00     0.131 C 
HETATM   16  C   UNK N   1      29.934  17.443   6.856  0.00  0.00     0.034 A 
HETATM   17  C   UNK N   1      29.458  18.301   8.021  0.00  0.00     0.034 A 
HETATM   18  C   UNK N   1      29.808  16.859   8.269  0.00  0.00     0.086 A 
HETATM   19  C   UNK N   1      27.987  18.553   7.780  0.00  0.00     0.131 C 
BRANCH  18  20
HETATM   20  N   UNK N   1      31.101  16.824   8.939  0.00  0.00    -0.425 N 
HETATM   21  H   UNK N   1      31.901  17.408   8.695  0.00  0.00     0.150 HD
HETATM   22  H   UNK N   1      31.214  16.168   9.711  0.00  0.00     0.150 HD
ENDBRANCH  18  20
ENDBRANCH   9  14
BRANCH   2  23
HETATM   23  C   UNK N   1      22.849  17.084   5.673  0.00  0.00     0.079 A 
HETATM   24  C   UNK N   1      21.761  17.217   6.583  0.00  0.00     0.146 A 
HETATM   25  C   UNK N   1      21.419  16.159   7.436  0.00  0.00     0.086 A 
HETATM   26  F   UNK N   1      21.022  18.351   6.654  0.00  0.00    -0.204 F 
HETATM   27  C   UNK N   1      22.137  14.963   7.412  0.00  0.00     0.119 A 
HETATM   28  F   UNK N   1      21.800  13.947   8.243  0.00  0.00    -0.206 F 
HETATM   29  C   UNK N   1      23.203  14.814   6.534  0.00  0.00     0.045 A 
HETATM   30  C   UNK N   1      23.548  15.859   5.683  0.00  0.00     0.036 A 
ENDBRANCH   2  23
BRANCH  10  31
HETATM   31  C   UNK N   1      21.545  20.330   2.216  0.00  0.00     0.181 C 
HETATM   32  O   UNK N   1      20.911  19.583   1.489  0.00  0.00    -0.646 OA
BRANCH  31  33
HETATM   33  O   UNK N   1      21.253  21.646   2.224  0.00  0.00    -0.772 OA
HETATM   34  H   UNK N   1      21.788  22.252   1.751  0.00  0.00     0.167 HD
ENDBRANCH  31  33
ENDBRANCH  10  31
TORSDOF 5
ENDMDL
MODEL 2
REMARK VINA RESULT:      -8.4      1.135      1.431
REMARK  5 active torsions:
REMARK  status: ('A' for Active; 'I' for Inactive)
REMARK    1  A    between atoms: N_2  and  C_6 
REMARK    2  A    between atoms: C_10  and  N_16 
REMARK    3  A    between atoms: C_13  and  C_20 
REMARK    4  A    between atoms: C_20  and  O_23 
REMARK    5  A    between atoms: C_30  and  N_31 
ROOT
HETATM    1  C   UNK N   1      24.652  18.505   4.522  0.00  0.00     0.128 A 
HETATM    2  N   UNK N   1      23.384  17.951   4.528  0.00  0.00    -0.303 N 
HETATM    3  C   UNK N   1      24.914  19.713   3.842  0.00  0.00     0.063 A 
HETATM    4  N   UNK N   1      25.672  17.894   5.171  0.00  0.00    -0.325 N 
ATOM      5  HN  UNK N   1      25.478  17.007   5.636  1.00  0.00     0.169 HD
HETATM    6  C   UNK N   1      22.392  18.579   3.829  0.00  0.00     0.121 A 
HETATM    7  C   UNK N   1      23.885  20.349   3.138  0.00  0.00     0.204 A 
HETATM    8  C   UNK N   1      26.211  20.256   3.892  0.00  0.00     0.065 A 
HETATM    9  C   UNK N   1      26.933  18.383   5.240  0.00  0.00     0.144 A 
HETATM   10  C   UNK N   1      22.603  19.768   3.122  0.00  0.00     0.104 A 
HETATM   11  O   UNK N   1      24.104  21.393   2.543  0.00  0.00    -0.286 OA
HETATM   12  C   UNK N   1      27.226  19.600   4.600  0.00  0.00     0.161 A 
HETATM   13  F   UNK N   1      28.471  20.136   4.629  0.00  0.00    -0.202 F 
ENDROOT
BRANCH   9  14
HETATM   14  N   UNK N   1      27.903  17.637   5.973  0.00  0.00    -0.364 N 
HETATM   15  C   UNK N   1      28.976  16.948   5.315  0.00  0.00     0.131 C 
HETATM   16  C   UNK N   1      30.194  17.252   6.176  0.00  0.00     0.034 A 
HETATM   17  C   UNK N   1      29.700  17.855   7.485  0.00  0.00     0.034 A 
HETATM   18  C   UNK N   1      30.153  16.419   7.465  0.00  0.00     0.086 A 
HETATM   19  C   UNK N   1      28.209  18.040   7.321  0.00  0.00     0.131 C 
BRANCH  18  20
HETATM   20  N   UNK N   1      31.465  16.358   8.092  0.00  0.00    -0.425 N 
HETATM   21  H   UNK N   1      31.960  17.157   8.490  0.00  0.00     0.150 HD
HETATM   22  H   UNK N   1      31.923  15.449   8.139  0.00  0.00     0.150 HD
ENDBRANCH  18  20
ENDBRANCH   9  14
BRANCH   2  23
HETATM   23  C   UNK N   1      23.057  16.730   5.286  0.00  0.00     0.079 A 
HETATM   24  C   UNK N   1      23.532  15.445   4.897  0.00  0.00     0.146 A 
HETATM   25  C   UNK N   1      23.176  14.307   5.632  0.00  0.00     0.086 A 
HETATM   26  F   UNK N   1      24.339  15.277   3.821  0.00  0.00    -0.204 F 
HETATM   27  C   UNK N   1      22.350  14.411   6.752  0.00  0.00     0.119 A 
HETATM   28  F   UNK N   1      22.009  13.303   7.454  0.00  0.00    -0.206 F 
HETATM   29  C   UNK N   1      21.874  15.654   7.147  0.00  0.00     0.045 A 
HETATM   30  C   UNK N   1      22.224  16.790   6.423  0.00  0.00     0.036 A 
ENDBRANCH   2  23
BRANCH  10  31
HETATM   31  C   UNK N   1      21.459  20.365   2.385  0.00  0.00     0.181 C 
HETATM   32  O   UNK N   1      20.754  19.682   1.660  0.00  0.00    -0.646 OA
BRANCH  31  33
HETATM   33  O   UNK N   1      21.185  21.678   2.521  0.00  0.00    -0.772 OA
HETATM   34  H   UNK N   1      20.319  22.000   2.365  0.00  0.00     0.167 HD
ENDBRANCH  31  33
ENDBRANCH  10  31
TORSDOF 5
ENDMDL
MODEL 3
REMARK VINA RESULT:      -7.8     12.005     15.420
REMARK  5 active torsions:
REMARK  status: ('A' for Active; 'I' for Inactive)
REMARK    1  A    between atoms: N_2  and  C_6 
REMARK    2  A    between atoms: C_10  and  N_16 
REMARK    3  A    between atoms: C_13  and  C_20 
REMARK    4  A    between atoms: C_20  and  O_23 
REMARK    5  A    between atoms: C_30  and  N_31 
ROOT
HETATM    1  C   UNK N   1      28.536  23.807  -5.799  0.00  0.00     0.128 A 
HETATM    2  N   UNK N   1      28.642  24.643  -4.702  0.00  0.00    -0.303 N 
HETATM    3  C   UNK N   1      29.146  22.534  -5.805  0.00  0.00     0.063 A 
HETATM    4  N   UNK N   1      27.842  24.196  -6.895  0.00  0.00    -0.325 N 
ATOM      5  HN  UNK N   1      27.427  25.127  -6.892  1.00  0.00     0.169 HD
HETATM    6  C   UNK N   1      29.384  24.228  -3.632  0.00  0.00     0.121 A 
HETATM    7  C   UNK N   1      29.895  22.121  -4.698  0.00  0.00     0.204 A 
HETATM    8  C   UNK N   1      28.982  21.706  -6.930  0.00  0.00     0.065 A 
HETATM    9  C   UNK N   1      27.663  23.428  -7.997  0.00  0.00     0.144 A 
HETATM   10  C   UNK N   1      30.026  22.986  -3.595  0.00  0.00     0.104 A 
HETATM   11  O   UNK N   1      30.431  21.023  -4.696  0.00  0.00    -0.286 OA
HETATM   12  C   UNK N   1      28.231  22.142  -8.028  0.00  0.00     0.161 A 
HETATM   13  F   UNK N   1      28.092  21.330  -9.105  0.00  0.00    -0.202 F 
ENDROOT
BRANCH   9  14
HETATM   14  N   UNK N   1      26.894  23.964  -9.071  0.00  0.00    -0.364 N 
HETATM   15  C   UNK N   1      25.522  24.349  -8.895  0.00  0.00     0.131 C 
HETATM   16  C   UNK N   1      25.413  25.678  -9.630  0.00  0.00     0.034 A 
HETATM   17  C   UNK N   1      26.670  25.846 -10.474  0.00  0.00     0.034 A 
HETATM   18  C   UNK N   1      25.385  25.443 -11.146  0.00  0.00     0.086 A 
HETATM   19  C   UNK N   1      27.574  24.691 -10.111  0.00  0.00     0.131 C 
BRANCH  18  20
HETATM   20  N   UNK N   1      24.865  26.608 -11.848  0.00  0.00    -0.425 N 
HETATM   21  H   UNK N   1      23.972  26.644 -12.339  0.00  0.00     0.150 HD
HETATM   22  H   UNK N   1      25.438  27.452 -11.847  0.00  0.00     0.150 HD
ENDBRANCH  18  20
ENDBRANCH   9  14
BRANCH   2  23
HETATM   23  C   UNK N   1      27.959  25.947  -4.632  0.00  0.00     0.079 A 
HETATM   24  C   UNK N   1      26.612  26.075  -4.187  0.00  0.00     0.146 A 
HETATM   25  C   UNK N   1      25.993  27.332  -4.160  0.00  0.00     0.086 A 
HETATM   26  F   UNK N   1      25.891  25.005  -3.773  0.00  0.00    -0.204 F 
HETATM   27  C   UNK N   1      26.680  28.474  -4.570  0.00  0.00     0.119 A 
HETATM   28  F   UNK N   1      26.070  29.684  -4.544  0.00  0.00    -0.206 F 
HETATM   29  C   UNK N   1      27.993  28.371  -5.010  0.00  0.00     0.045 A 
HETATM   30  C   UNK N   1      28.616  27.127  -5.039  0.00  0.00     0.036 A 
ENDBRANCH   2  23
BRANCH  10  31
HETATM   31  C   UNK N   1      30.817  22.634  -2.387  0.00  0.00     0.181 C 
HETATM   32  O   UNK N   1      30.462  22.998  -1.277  0.00  0.00    -0.646 OA
BRANCH  31  33
HETATM   33  O   UNK N   1      31.940  21.898  -2.510  0.00  0.00    -0.772 OA
HETATM   34  H   UNK N   1      32.738  22.297  -2.796  0.00  0.00     0.167 HD
ENDBRANCH  31  33
ENDBRANCH  10  31
TORSDOF 5
ENDMDL
MODEL 4
REMARK VINA RESULT:      -7.7      6.412      9.300
REMARK  5 active torsions:
REMARK  status: ('A' for Active; 'I' for Inactive)
REMARK    1  A    between atoms: N_2  and  C_6 
REMARK    2  A    between atoms: C_10  and  N_16 
REMARK    3  A    between atoms: C_13  and  C_20 
REMARK    4  A    between atoms: C_20  and  O_23 
REMARK    5  A    between atoms: C_30  and  N_31 
ROOT
HETATM    1  C   UNK N   1      31.096  16.292   6.270  0.00  0.00     0.128 A 
HETATM    2  N   UNK N   1      31.506  16.196   7.588  0.00  0.00    -0.303 N 
HETATM    3  C   UNK N   1      29.979  17.077   5.911  0.00  0.00     0.063 A 
HETATM    4  N   UNK N   1      31.761  15.629   5.294  0.00  0.00    -0.325 N 
ATOM      5  HN  UNK N   1      32.550  15.044   5.567  1.00  0.00     0.169 HD
HETATM    6  C   UNK N   1      30.784  16.850   8.547  0.00  0.00     0.121 A 
HETATM    7  C   UNK N   1      29.256  17.746   6.904  0.00  0.00     0.204 A 
HETATM    8  C   UNK N   1      29.621  17.171   4.554  0.00  0.00     0.065 A 
HETATM    9  C   UNK N   1      31.446  15.693   3.978  0.00  0.00     0.144 A 
HETATM   10  C   UNK N   1      29.658  17.624   8.248  0.00  0.00     0.104 A 
HETATM   11  O   UNK N   1      28.286  18.424   6.603  0.00  0.00    -0.286 OA
HETATM   12  C   UNK N   1      30.357  16.489   3.578  0.00  0.00     0.161 A 
HETATM   13  F   UNK N   1      29.990  16.587   2.277  0.00  0.00    -0.202 F 
ENDROOT
BRANCH   9  14
HETATM   14  N   UNK N   1      32.246  14.953   3.059  0.00  0.00    -0.364 N 
HETATM   15  C   UNK N   1      33.648  15.217   2.900  0.00  0.00     0.131 C 
HETATM   16  C   UNK N   1      34.281  13.834   2.841  0.00  0.00     0.034 A 
HETATM   17  C   UNK N   1      33.162  12.818   2.652  0.00  0.00     0.034 A 
HETATM   18  C   UNK N   1      34.020  13.191   1.472  0.00  0.00     0.086 A 
HETATM   19  C   UNK N   1      31.871  13.597   2.754  0.00  0.00     0.131 C 
BRANCH  18  20
HETATM   20  N   UNK N   1      34.940  12.089   1.226  0.00  0.00    -0.425 N 
HETATM   21  H   UNK N   1      34.756  11.303   0.603  0.00  0.00     0.150 HD
HETATM   22  H   UNK N   1      35.836  12.106   1.713  0.00  0.00     0.150 HD
ENDBRANCH  18  20
ENDBRANCH   9  14
BRANCH   2  23
HETATM   23  C   UNK N   1      32.708  15.446   7.990  0.00  0.00     0.079 A 
HETATM   24  C   UNK N   1      34.020  15.980   7.845  0.00  0.00     0.146 A 
HETATM   25  C   UNK N   1      35.139  15.222   8.217  0.00  0.00     0.086 A 
HETATM   26  F   UNK N   1      34.236  17.225   7.355  0.00  0.00    -0.204 F 
HETATM   27  C   UNK N   1      34.987  13.933   8.730  0.00  0.00     0.119 A 
HETATM   28  F   UNK N   1      36.075  13.207   9.084  0.00  0.00    -0.206 F 
HETATM   29  C   UNK N   1      33.716  13.392   8.878  0.00  0.00     0.045 A 
HETATM   30  C   UNK N   1      32.601  14.139   8.513  0.00  0.00     0.036 A 
ENDBRANCH   2  23
BRANCH  10  31
HETATM   31  C   UNK N   1      28.937  18.286   9.366  0.00  0.00     0.181 C 
HETATM   32  O   UNK N   1      29.547  18.868  10.248  0.00  0.00    -0.646 OA
BRANCH  31  33
HETATM   33  O   UNK N   1      27.590  18.251   9.411  0.00  0.00    -0.772 OA
HETATM   34  H   UNK N   1      27.110  18.976   9.759  0.00  0.00     0.167 HD
ENDBRANCH  31  33
ENDBRANCH  10  31
TORSDOF 5
ENDMDL
MODEL 5
REMARK VINA RESULT:      -7.7      5.042      8.588
REMARK  5 active torsions:
REMARK  status: ('A' for Active; 'I' for Inactive)
REMARK    1  A    between atoms: N_2  and  C_6 
REMARK    2  A    between atoms: C_10  and  N_16 
REMARK    3  A    between atoms: C_13  and  C_20 
REMARK    4  A    between atoms: C_20  and  O_23 
REMARK    5  A    between atoms: C_30  and  N_31 
ROOT
HETATM    1  C   UNK N   1      22.363  14.750   7.497  0.00  0.00     0.128 A 
HETATM    2  N   UNK N   1      23.616  14.164   7.456  0.00  0.00    -0.303 N 
HETATM    3  C   UNK N   1      21.479  14.500   8.568  0.00  0.00     0.063 A 
HETATM    4  N   UNK N   1      21.960  15.578   6.505  0.00  0.00    -0.325 N 
ATOM      5  HN  UNK N   1      22.595  15.731   5.722  1.00  0.00     0.169 HD
HETATM    6  C   UNK N   1      23.970  13.305   8.458  0.00  0.00     0.121 A 
HETATM    7  C   UNK N   1      21.860  13.624   9.590  0.00  0.00     0.204 A 
HETATM    8  C   UNK N   1      20.229  15.145   8.583  0.00  0.00     0.065 A 
HETATM    9  C   UNK N   1      20.765  16.216   6.483  0.00  0.00     0.144 A 
HETATM   10  C   UNK N   1      23.123  13.006   9.531  0.00  0.00     0.104 A 
HETATM   11  O   UNK N   1      21.099  13.398  10.519  0.00  0.00    -0.286 OA
HETATM   12  C   UNK N   1      19.868  16.015   7.548  0.00  0.00     0.161 A 
HETATM   13  F   UNK N   1      18.655  16.620   7.578  0.00  0.00    -0.202 F 
ENDROOT
BRANCH   9  14
HETATM   14  N   UNK N   1      20.480  17.072   5.378  0.00  0.00    -0.364 N 
HETATM   15  C   UNK N   1      21.390  18.106   4.975  0.00  0.00     0.131 C 
HETATM   16  C   UNK N   1      21.414  18.007   3.456  0.00  0.00     0.034 A 
HETATM   17  C   UNK N   1      20.259  17.110   3.031  0.00  0.00     0.034 A 
HETATM   18  C   UNK N   1      20.128  18.600   2.867  0.00  0.00     0.086 A 
HETATM   19  C   UNK N   1      19.660  16.568   4.308  0.00  0.00     0.131 C 
BRANCH  18  20
HETATM   20  N   UNK N   1      20.292  18.908   1.453  0.00  0.00    -0.425 N 
HETATM   21  H   UNK N   1      21.157  18.790   0.926  0.00  0.00     0.150 HD
HETATM   22  H   UNK N   1      19.480  19.268   0.952  0.00  0.00     0.150 HD
ENDBRANCH  18  20
ENDBRANCH   9  14
BRANCH   2  23
HETATM   23  C   UNK N   1      24.593  14.458   6.393  0.00  0.00     0.079 A 
HETATM   24  C   UNK N   1      24.559  13.802   5.129  0.00  0.00     0.146 A 
HETATM   25  C   UNK N   1      25.523  14.093   4.154  0.00  0.00     0.086 A 
HETATM   26  F   UNK N   1      23.605  12.890   4.822  0.00  0.00    -0.204 F 
HETATM   27  C   UNK N   1      26.531  15.024   4.405  0.00  0.00     0.119 A 
HETATM   28  F   UNK N   1      27.461  15.296   3.458  0.00  0.00    -0.206 F 
HETATM   29  C   UNK N   1      26.584  15.674   5.632  0.00  0.00     0.045 A 
HETATM   30  C   UNK N   1      25.630  15.391   6.604  0.00  0.00     0.036 A 
ENDBRANCH   2  23
BRANCH  10  31
HETATM   31  C   UNK N   1      23.600  12.050  10.564  0.00  0.00     0.181 C 
HETATM   32  O   UNK N   1      24.748  12.093  10.975  0.00  0.00    -0.646 OA
BRANCH  31  33
HETATM   33  O   UNK N   1      22.757  11.124  11.062  0.00  0.00    -0.772 OA
HETATM   34  H   UNK N   1      22.149  11.352  11.737  0.00  0.00     0.167 HD
ENDBRANCH  31  33
ENDBRANCH  10  31
TORSDOF 5
ENDMDL
MODEL 6
REMARK VINA RESULT:      -7.5      5.274      7.728
REMARK  5 active torsions:
REMARK  status: ('A' for Active; 'I' for Inactive)
REMARK    1  A    between atoms: N_2  and  C_6 
REMARK    2  A    between atoms: C_10  and  N_16 
REMARK    3  A    between atoms: C_13  and  C_20 
REMARK    4  A    between atoms: C_20  and  O_23 
REMARK    5  A    between atoms: C_30  and  N_31 
ROOT
HETATM    1  C   UNK N   1      20.164  15.599   2.746  0.00  0.00     0.128 A 
HETATM    2  N   UNK N   1      20.423  16.596   3.670  0.00  0.00    -0.303 N 
HETATM    3  C   UNK N   1      20.098  15.887   1.366  0.00  0.00     0.063 A 
HETATM    4  N   UNK N   1      19.966  14.322   3.150  0.00  0.00    -0.325 N 
ATOM      5  HN  UNK N   1      19.989  14.128   4.151  1.00  0.00     0.169 HD
HETATM    6  C   UNK N   1      20.578  17.878   3.225  0.00  0.00     0.121 A 
HETATM    7  C   UNK N   1      20.268  17.204   0.925  0.00  0.00     0.204 A 
HETATM    8  C   UNK N   1      19.866  14.835   0.461  0.00  0.00     0.065 A 
HETATM    9  C   UNK N   1      19.739  13.283   2.311  0.00  0.00     0.144 A 
HETATM   10  C   UNK N   1      20.502  18.220   1.870  0.00  0.00     0.104 A 
HETATM   11  O   UNK N   1      20.209  17.463  -0.267  0.00  0.00    -0.286 OA
HETATM   12  C   UNK N   1      19.696  13.526   0.926  0.00  0.00     0.161 A 
HETATM   13  F   UNK N   1      19.466  12.528   0.037  0.00  0.00    -0.202 F 
ENDROOT
BRANCH   9  14
HETATM   14  N   UNK N   1      19.564  11.987   2.878  0.00  0.00    -0.364 N 
HETATM   15  C   UNK N   1      20.583  10.981   2.784  0.00  0.00     0.131 C 
HETATM   16  C   UNK N   1      20.621  10.361   4.174  0.00  0.00     0.034 A 
HETATM   17  C   UNK N   1      19.385  10.835   4.928  0.00  0.00     0.034 A 
HETATM   18  C   UNK N   1      19.413   9.435   4.374  0.00  0.00     0.086 A 
HETATM   19  C   UNK N   1      18.712  11.847   4.030  0.00  0.00     0.131 C 
BRANCH  18  20
HETATM   20  N   UNK N   1      19.631   8.521   5.486  0.00  0.00    -0.425 N 
HETATM   21  H   UNK N   1      18.896   8.136   6.079  0.00  0.00     0.150 HD
HETATM   22  H   UNK N   1      20.592   8.245   5.687  0.00  0.00     0.150 HD
ENDBRANCH  18  20
ENDBRANCH   9  14
BRANCH   2  23
HETATM   23  C   UNK N   1      20.570  16.320   5.110  0.00  0.00     0.079 A 
HETATM   24  C   UNK N   1      19.448  16.110   5.962  0.00  0.00     0.146 A 
HETATM   25  C   UNK N   1      19.632  15.876   7.331  0.00  0.00     0.086 A 
HETATM   26  F   UNK N   1      18.178  16.122   5.488  0.00  0.00    -0.204 F 
HETATM   27  C   UNK N   1      20.913  15.849   7.883  0.00  0.00     0.119 A 
HETATM   28  F   UNK N   1      21.081  15.626   9.209  0.00  0.00    -0.206 F 
HETATM   29  C   UNK N   1      22.021  16.054   7.071  0.00  0.00     0.045 A 
HETATM   30  C   UNK N   1      21.847  16.285   5.711  0.00  0.00     0.036 A 
ENDBRANCH   2  23
BRANCH  10  31
HETATM   31  C   UNK N   1      20.676  19.647   1.491  0.00  0.00     0.181 C 
HETATM   32  O   UNK N   1      20.817  20.510   2.343  0.00  0.00    -0.646 OA
BRANCH  31  33
HETATM   33  O   UNK N   1      20.685  20.000   0.190  0.00  0.00    -0.772 OA
HETATM   34  H   UNK N   1      19.908  19.918  -0.328  0.00  0.00     0.167 HD
ENDBRANCH  31  33
ENDBRANCH  10  31
TORSDOF 5
ENDMDL
MODEL 7
REMARK VINA RESULT:      -7.3     11.858     13.938
REMARK  5 active torsions:
REMARK  status: ('A' for Active; 'I' for Inactive)
REMARK    1  A    between atoms: N_2  and  C_6 
REMARK    2  A    between atoms: C_10  and  N_16 
REMARK    3  A    between atoms: C_13  and  C_20 
REMARK    4  A    between atoms: C_20  and  O_23 
REMARK    5  A    between atoms: C_30  and  N_31 
ROOT
HETATM    1  C   UNK N   1      27.992  25.074  -5.885  0.00  0.00     0.128 A 
HETATM    2  N   UNK N   1      28.213  23.719  -5.707  0.00  0.00    -0.303 N 
HETATM    3  C   UNK N   1      26.927  25.537  -6.687  0.00  0.00     0.063 A 
HETATM    4  N   UNK N   1      28.798  25.986  -5.292  0.00  0.00    -0.325 N 
ATOM      5  HN  UNK N   1      29.581  25.641  -4.737  1.00  0.00     0.169 HD
HETATM    6  C   UNK N   1      27.400  22.832  -6.354  0.00  0.00     0.121 A 
HETATM    7  C   UNK N   1      26.098  24.614  -7.336  0.00  0.00     0.204 A 
HETATM    8  C   UNK N   1      26.720  26.922  -6.812  0.00  0.00     0.065 A 
HETATM    9  C   UNK N   1      28.633  27.327  -5.389  0.00  0.00     0.144 A 
HETATM   10  C   UNK N   1      26.343  23.238  -7.176  0.00  0.00     0.104 A 
HETATM   11  O   UNK N   1      25.176  25.006  -8.035  0.00  0.00    -0.286 OA
HETATM   12  C   UNK N   1      27.564  27.826  -6.156  0.00  0.00     0.161 A 
HETATM   13  F   UNK N   1      27.352  29.157  -6.295  0.00  0.00    -0.202 F 
ENDROOT
BRANCH   9  14
HETATM   14  N   UNK N   1      29.552  28.168  -4.697  0.00  0.00    -0.364 N 
HETATM   15  C   UNK N   1      29.143  28.968  -3.578  0.00  0.00     0.131 C 
HETATM   16  C   UNK N   1      30.266  28.792  -2.565  0.00  0.00     0.034 A 
HETATM   17  C   UNK N   1      31.440  28.137  -3.283  0.00  0.00     0.034 A 
HETATM   18  C   UNK N   1      31.493  29.613  -2.988  0.00  0.00     0.086 A 
HETATM   19  C   UNK N   1      30.942  27.796  -4.669  0.00  0.00     0.131 C 
BRANCH  18  20
HETATM   20  N   UNK N   1      32.403  29.810  -1.869  0.00  0.00    -0.425 N 
HETATM   21  H   UNK N   1      33.244  30.386  -1.894  0.00  0.00     0.150 HD
HETATM   22  H   UNK N   1      32.182  29.336  -0.993  0.00  0.00     0.150 HD
ENDBRANCH  18  20
ENDBRANCH   9  14
BRANCH   2  23
HETATM   23  C   UNK N   1      29.270  23.201  -4.820  0.00  0.00     0.079 A 
HETATM   24  C   UNK N   1      29.156  23.239  -3.401  0.00  0.00     0.146 A 
HETATM   25  C   UNK N   1      30.197  22.758  -2.595  0.00  0.00     0.086 A 
HETATM   26  F   UNK N   1      28.054  23.730  -2.785  0.00  0.00    -0.204 F 
HETATM   27  C   UNK N   1      31.358  22.238  -3.165  0.00  0.00     0.119 A 
HETATM   28  F   UNK N   1      32.360  21.779  -2.377  0.00  0.00    -0.206 F 
HETATM   29  C   UNK N   1      31.491  22.193  -4.547  0.00  0.00     0.045 A 
HETATM   30  C   UNK N   1      30.462  22.668  -5.355  0.00  0.00     0.036 A 
ENDBRANCH   2  23
BRANCH  10  31
HETATM   31  C   UNK N   1      25.524  22.192  -7.843  0.00  0.00     0.181 C 
HETATM   32  O   UNK N   1      25.999  21.100  -8.111  0.00  0.00    -0.646 OA
BRANCH  31  33
HETATM   33  O   UNK N   1      24.237  22.444  -8.153  0.00  0.00    -0.772 OA
HETATM   34  H   UNK N   1      23.896  22.199  -8.991  0.00  0.00     0.167 HD
ENDBRANCH  31  33
ENDBRANCH  10  31
TORSDOF 5
ENDMDL
MODEL 8
REMARK VINA RESULT:      -7.2      6.129      9.926
REMARK  5 active torsions:
REMARK  status: ('A' for Active; 'I' for Inactive)
REMARK    1  A    between atoms: N_2  and  C_6 
REMARK    2  A    between atoms: C_10  and  N_16 
REMARK    3  A    between atoms: C_13  and  C_20 
REMARK    4  A    between atoms: C_20  and  O_23 
REMARK    5  A    between atoms: C_30  and  N_31 
ROOT
HETATM    1  C   UNK N   1      31.285  16.160   6.043  0.00  0.00     0.128 A 
HETATM    2  N   UNK N   1      32.625  15.933   5.783  0.00  0.00    -0.303 N 
HETATM    3  C   UNK N   1      30.882  17.026   7.082  0.00  0.00     0.063 A 
HETATM    4  N   UNK N   1      30.328  15.552   5.301  0.00  0.00    -0.325 N 
ATOM      5  HN  UNK N   1      30.629  14.908   4.570  1.00  0.00     0.169 HD
HETATM    6  C   UNK N   1      33.557  16.536   6.579  0.00  0.00     0.121 A 
HETATM    7  C   UNK N   1      31.850  17.642   7.883  0.00  0.00     0.204 A 
HETATM    8  C   UNK N   1      29.509  17.252   7.287  0.00  0.00     0.065 A 
HETATM    9  C   UNK N   1      28.998  15.743   5.469  0.00  0.00     0.144 A 
HETATM   10  C   UNK N   1      33.212  17.386   7.635  0.00  0.00     0.104 A 
HETATM   11  O   UNK N   1      31.512  18.390   8.788  0.00  0.00    -0.286 OA
HETATM   12  C   UNK N   1      28.559  16.622   6.475  0.00  0.00     0.161 A 
HETATM   13  F   UNK N   1      27.240  16.848   6.695  0.00  0.00    -0.202 F 
ENDROOT
BRANCH   9  14
HETATM   14  N   UNK N   1      28.105  15.046   4.603  0.00  0.00    -0.364 N 
HETATM   15  C   UNK N   1      27.908  15.453   3.241  0.00  0.00     0.131 C 
HETATM   16  C   UNK N   1      27.910  14.147   2.459  0.00  0.00     0.034 A 
HETATM   17  C   UNK N   1      27.795  13.006   3.461  0.00  0.00     0.034 A 
HETATM   18  C   UNK N   1      26.582  13.405   2.664  0.00  0.00     0.086 A 
HETATM   19  C   UNK N   1      27.879  13.642   4.829  0.00  0.00     0.131 C 
BRANCH  18  20
HETATM   20  N   UNK N   1      26.378  12.400   1.631  0.00  0.00    -0.425 N 
HETATM   21  H   UNK N   1      27.112  12.021   1.031  0.00  0.00     0.150 HD
HETATM   22  H   UNK N   1      25.431  12.047   1.497  0.00  0.00     0.150 HD
ENDBRANCH  18  20
ENDBRANCH   9  14
BRANCH   2  23
HETATM   23  C   UNK N   1      33.082  15.093   4.662  0.00  0.00     0.079 A 
HETATM   24  C   UNK N   1      33.396  15.639   3.384  0.00  0.00     0.146 A 
HETATM   25  C   UNK N   1      33.803  14.800   2.337  0.00  0.00     0.086 A 
HETATM   26  F   UNK N   1      33.321  16.969   3.136  0.00  0.00    -0.204 F 
HETATM   27  C   UNK N   1      33.903  13.422   2.526  0.00  0.00     0.119 A 
HETATM   28  F   UNK N   1      34.294  12.619   1.507  0.00  0.00    -0.206 F 
HETATM   29  C   UNK N   1      33.599  12.869   3.764  0.00  0.00     0.045 A 
HETATM   30  C   UNK N   1      33.196  13.695   4.808  0.00  0.00     0.036 A 
ENDBRANCH   2  23
BRANCH  10  31
HETATM   31  C   UNK N   1      34.304  17.984   8.447  0.00  0.00     0.181 C 
HETATM   32  O   UNK N   1      35.024  18.855   7.985  0.00  0.00    -0.646 OA
BRANCH  31  33
HETATM   33  O   UNK N   1      34.503  17.569   9.714  0.00  0.00    -0.772 OA
HETATM   34  H   UNK N   1      34.105  18.025  10.429  0.00  0.00     0.167 HD
ENDBRANCH  31  33
ENDBRANCH  10  31
TORSDOF 5
ENDMDL
MODEL 9
REMARK VINA RESULT:      -7.1     13.222     16.200
REMARK  5 active torsions:
REMARK  status: ('A' for Active; 'I' for Inactive)
REMARK    1  A    between atoms: N_2  and  C_6 
REMARK    2  A    between atoms: C_10  and  N_16 
REMARK    3  A    between atoms: C_13  and  C_20 
REMARK    4  A    between atoms: C_20  and  O_23 
REMARK    5  A    between atoms: C_30  and  N_31 
ROOT
HETATM    1  C   UNK N   1      36.662  12.737  12.867  0.00  0.00     0.128 A 
HETATM    2  N   UNK N   1      36.041  13.787  13.519  0.00  0.00    -0.303 N 
HETATM    3  C   UNK N   1      36.924  12.794  11.482  0.00  0.00     0.063 A 
HETATM    4  N   UNK N   1      37.033  11.627  13.550  0.00  0.00    -0.325 N 
ATOM      5  HN  UNK N   1      36.816  11.584  14.545  1.00  0.00     0.169 HD
HETATM    6  C   UNK N   1      35.648  14.872  12.787  0.00  0.00     0.121 A 
HETATM    7  C   UNK N   1      36.523  13.916  10.748  0.00  0.00     0.204 A 
HETATM    8  C   UNK N   1      37.588  11.716  10.868  0.00  0.00     0.065 A 
HETATM    9  C   UNK N   1      37.672  10.569  12.995  0.00  0.00     0.144 A 
HETATM   10  C   UNK N   1      35.865  14.970  11.408  0.00  0.00     0.104 A 
HETATM   11  O   UNK N   1      36.741  13.972   9.547  0.00  0.00    -0.286 OA
HETATM   12  C   UNK N   1      37.977  10.602  11.623  0.00  0.00     0.161 A 
HETATM   13  F   UNK N   1      38.609   9.571  11.011  0.00  0.00    -0.202 F 
ENDROOT
BRANCH   9  14
HETATM   14  N   UNK N   1      38.015   9.474  13.841  0.00  0.00    -0.364 N 
HETATM   15  C   UNK N   1      37.509   8.152  13.602  0.00  0.00     0.131 C 
HETATM   16  C   UNK N   1      38.716   7.249  13.818  0.00  0.00     0.034 A 
HETATM   17  C   UNK N   1      39.804   8.079  14.487  0.00  0.00     0.034 A 
HETATM   18  C   UNK N   1      39.009   7.106  15.318  0.00  0.00     0.086 A 
HETATM   19  C   UNK N   1      39.284   9.497  14.521  0.00  0.00     0.131 C 
BRANCH  18  20
HETATM   20  N   UNK N   1      39.855   5.951  15.579  0.00  0.00    -0.425 N 
HETATM   21  H   UNK N   1      40.672   5.951  16.190  0.00  0.00     0.150 HD
HETATM   22  H   UNK N   1      39.611   5.075  15.118  0.00  0.00     0.150 HD
ENDBRANCH  18  20
ENDBRANCH   9  14
BRANCH   2  23
HETATM   23  C   UNK N   1      35.817  13.792  14.976  0.00  0.00     0.079 A 
HETATM   24  C   UNK N   1      36.615  14.570  15.863  0.00  0.00     0.146 A 
HETATM   25  C   UNK N   1      36.384  14.526  17.245  0.00  0.00     0.086 A 
HETATM   26  F   UNK N   1      37.609  15.374  15.413  0.00  0.00    -0.204 F 
HETATM   27  C   UNK N   1      35.376  13.721  17.774  0.00  0.00     0.119 A 
HETATM   28  F   UNK N   1      35.163  13.683  19.111  0.00  0.00    -0.206 F 
HETATM   29  C   UNK N   1      34.588  12.953  16.926  0.00  0.00     0.045 A 
HETATM   30  C   UNK N   1      34.809  12.992  15.553  0.00  0.00     0.036 A 
ENDBRANCH   2  23
BRANCH  10  31
HETATM   31  C   UNK N   1      35.390  16.189  10.703  0.00  0.00     0.181 C 
HETATM   32  O   UNK N   1      36.117  17.161  10.573  0.00  0.00    -0.646 OA
BRANCH  31  33
HETATM   33  O   UNK N   1      34.143  16.227  10.193  0.00  0.00    -0.772 OA
HETATM   34  H   UNK N   1      33.823  17.006   9.782  0.00  0.00     0.167 HD
ENDBRANCH  31  33
ENDBRANCH  10  31
TORSDOF 5
ENDMDL
