MODEL 1
REMARK VINA RESULT:      -7.0      0.000      0.000
REMARK  9 active torsions:
REMARK  status: ('A' for Active; 'I' for Inactive)
REMARK    1  A    between atoms: C_15  and  N_1 
REMARK    2  A    between atoms: C_11  and  C_8 
REMARK    3  A    between atoms: N_9  and  C_21 
REMARK    4  A    between atoms: C_23  and  N_10 
REMARK    5  A    between atoms: C_26  and  C_11 
REMARK    6  A    between atoms: C_20  and  C_15 
REMARK    7  A    between atoms: C_21  and  C_20 
REMARK    8  A    between atoms: C_27  and  C_23 
REMARK    9  A    between atoms: O_25  and  C_27 
ROOT
HETATM    1  N   UNK N   1      22.516  14.122   4.915  0.00  0.00    -0.345 N 
HETATM    2  C   UNK N   1      23.280  13.852   6.099  0.00  0.00     0.053 A 
HETATM    3  S   UNK N   1      25.690  14.378   4.724  0.00  0.00    -0.086 SA
HETATM    4  C   UNK N   1      24.690  13.923   6.125  0.00  0.00     0.032 A 
HETATM    5  C   UNK N   1      23.102  14.187   3.606  0.00  0.00     0.052 A 
HETATM    6  C   UNK N   1      24.501  14.237   3.402  0.00  0.00     0.032 A 
HETATM    7  C   UNK N   1      22.610  13.492   7.289  0.00  0.00     0.046 A 
HETATM    8  C   UNK N   1      23.307  13.241   8.482  0.00  0.00     0.012 A 
HETATM    9  C   UNK N   1      25.376  13.691   7.322  0.00  0.00     0.022 A 
HETATM   10  C   UNK N   1      24.694  13.366   8.490  0.00  0.00     0.016 A 
HETATM   11  C   UNK N   1      22.268  14.180   2.469  0.00  0.00     0.031 A 
HETATM   12  C   UNK N   1      25.018  14.259   2.101  0.00  0.00     0.021 A 
HETATM   13  C   UNK N   1      22.795  14.195   1.178  0.00  0.00     0.002 A 
HETATM   14  C   UNK N   1      24.173  14.225   0.993  0.00  0.00     0.002 A 
ENDROOT
BRANCH   1  15
HETATM   15  C   UNK N   1      21.082  14.353   5.075  0.00  0.00     0.131 C 
BRANCH  15  16
HETATM   16  C   UNK N   1      20.743  15.777   5.476  0.00  0.00     0.050 C 
BRANCH  16  17
HETATM   17  C   UNK N   1      19.906  16.406   4.370  0.00  0.00     0.274 C 
BRANCH  17  18
HETATM   18  N   UNK N   1      20.776  16.962   3.335  0.00  0.00     0.091 N 
HETATM   19  C   UNK N   1      21.752  17.894   3.916  0.00  0.00     0.302 C 
HETATM   20  C   UNK N   1      21.137  19.257   4.290  0.00  0.00     0.302 C 
HETATM   21  N   UNK N   1      20.398  19.859   3.177  0.00  0.00     0.093 N 
HETATM   22  C   UNK N   1      19.369  18.916   2.735  0.00  0.00     0.302 C 
HETATM   23  C   UNK N   1      19.995  17.597   2.268  0.00  0.00     0.302 C 
BRANCH  21  24
HETATM   24  C   UNK N   1      21.316  20.193   2.083  0.00  0.00     0.298 C 
BRANCH  24  25
HETATM   25  C   UNK N   1      20.659  21.127   1.079  0.00  0.00     0.194 C 
BRANCH  25  26
HETATM   26  O   UNK N   1      20.592  20.500  -0.164  0.00  0.00    -0.399 OA
HETATM   27  H   UNK N   1      21.023  20.413  -1.029  0.00  0.00     0.209 HD
ENDBRANCH  25  26
ENDBRANCH  24  25
ENDBRANCH  21  24
ENDBRANCH  17  18
ENDBRANCH  16  17
ENDBRANCH  15  16
ENDBRANCH   1  15
BRANCH   8  28
HETATM   28  C   UNK N   1      22.578  12.857   9.718  0.00  0.00     0.159 C 
HETATM   29  O   UNK N   1      21.702  13.584  10.155  0.00  0.00    -0.292 OA
BRANCH  28  30
HETATM   30  C   UNK N   1      22.922  11.616  10.490  0.00  0.00     0.079 C 
HETATM   31  C   UNK N   1      23.717  11.915  11.744  0.00  0.00     0.013 C 
ENDBRANCH  28  30
ENDBRANCH   8  28
TORSDOF 9
ENDMDL
MODEL 2
REMARK VINA RESULT:      -6.7      2.555      5.130
REMARK  9 active torsions:
REMARK  status: ('A' for Active; 'I' for Inactive)
REMARK    1  A    between atoms: C_15  and  N_1 
REMARK    2  A    between atoms: C_11  and  C_8 
REMARK    3  A    between atoms: N_9  and  C_21 
REMARK    4  A    between atoms: C_23  and  N_10 
REMARK    5  A    between atoms: C_26  and  C_11 
REMARK    6  A    between atoms: C_20  and  C_15 
REMARK    7  A    between atoms: C_21  and  C_20 
REMARK    8  A    between atoms: C_27  and  C_23 
REMARK    9  A    between atoms: O_25  and  C_27 
ROOT
HETATM    1  N   UNK N   1      22.449  14.944   7.278  0.00  0.00    -0.345 N 
HETATM    2  C   UNK N   1      23.778  14.960   6.736  0.00  0.00     0.053 A 
HETATM    3  S   UNK N   1      24.409  12.558   8.081  0.00  0.00    -0.086 SA
HETATM    4  C   UNK N   1      24.731  13.962   7.034  0.00  0.00     0.032 A 
HETATM    5  C   UNK N   1      22.067  14.110   8.383  0.00  0.00     0.052 A 
HETATM    6  C   UNK N   1      22.889  13.064   8.865  0.00  0.00     0.032 A 
HETATM    7  C   UNK N   1      24.163  16.012   5.877  0.00  0.00     0.046 A 
HETATM    8  C   UNK N   1      25.442  16.064   5.299  0.00  0.00     0.012 A 
HETATM    9  C   UNK N   1      25.996  14.009   6.439  0.00  0.00     0.022 A 
HETATM   10  C   UNK N   1      26.345  15.039   5.573  0.00  0.00     0.016 A 
HETATM   11  C   UNK N   1      20.840  14.341   9.038  0.00  0.00     0.031 A 
HETATM   12  C   UNK N   1      22.483  12.309   9.972  0.00  0.00     0.021 A 
HETATM   13  C   UNK N   1      20.450  13.587  10.143  0.00  0.00     0.002 A 
HETATM   14  C   UNK N   1      21.277  12.574  10.617  0.00  0.00     0.002 A 
ENDROOT
BRANCH   1  15
HETATM   15  C   UNK N   1      21.454  15.812   6.653  0.00  0.00     0.131 C 
BRANCH  15  16
HETATM   16  C   UNK N   1      20.917  15.264   5.343  0.00  0.00     0.050 C 
BRANCH  16  17
HETATM   17  C   UNK N   1      20.145  16.370   4.636  0.00  0.00     0.274 C 
BRANCH  17  18
HETATM   18  N   UNK N   1      20.922  16.886   3.510  0.00  0.00     0.091 N 
HETATM   19  C   UNK N   1      21.822  17.963   3.945  0.00  0.00     0.302 C 
HETATM   20  C   UNK N   1      21.090  19.296   4.197  0.00  0.00     0.302 C 
HETATM   21  N   UNK N   1      20.261  19.701   3.058  0.00  0.00     0.093 N 
HETATM   22  C   UNK N   1      19.314  18.623   2.765  0.00  0.00     0.302 C 
HETATM   23  C   UNK N   1      20.049  17.324   2.415  0.00  0.00     0.302 C 
BRANCH  21  24
HETATM   24  C   UNK N   1      21.105  19.995   1.896  0.00  0.00     0.298 C 
BRANCH  24  25
HETATM   25  C   UNK N   1      20.539  21.147   1.081  0.00  0.00     0.194 C 
BRANCH  25  26
HETATM   26  O   UNK N   1      21.074  21.112  -0.206  0.00  0.00    -0.399 OA
HETATM   27  H   UNK N   1      21.053  20.645  -1.057  0.00  0.00     0.209 HD
ENDBRANCH  25  26
ENDBRANCH  24  25
ENDBRANCH  21  24
ENDBRANCH  17  18
ENDBRANCH  16  17
ENDBRANCH  15  16
ENDBRANCH   1  15
BRANCH   8  28
HETATM   28  C   UNK N   1      25.824  17.186   4.405  0.00  0.00     0.159 C 
HETATM   29  O   UNK N   1      25.255  17.330   3.336  0.00  0.00    -0.292 OA
BRANCH  28  30
HETATM   30  C   UNK N   1      26.937  18.133   4.749  0.00  0.00     0.079 C 
HETATM   31  C   UNK N   1      26.638  19.557   4.329  0.00  0.00     0.013 C 
ENDBRANCH  28  30
ENDBRANCH   8  28
TORSDOF 9
ENDMDL
MODEL 3
REMARK VINA RESULT:      -6.7      2.768      4.247
REMARK  9 active torsions:
REMARK  status: ('A' for Active; 'I' for Inactive)
REMARK    1  A    between atoms: C_15  and  N_1 
REMARK    2  A    between atoms: C_11  and  C_8 
REMARK    3  A    between atoms: N_9  and  C_21 
REMARK    4  A    between atoms: C_23  and  N_10 
REMARK    5  A    between atoms: C_26  and  C_11 
REMARK    6  A    between atoms: C_20  and  C_15 
REMARK    7  A    between atoms: C_21  and  C_20 
REMARK    8  A    between atoms: C_27  and  C_23 
REMARK    9  A    between atoms: O_25  and  C_27 
ROOT
HETATM    1  N   UNK N   1      23.507  15.705   5.878  0.00  0.00    -0.345 N 
HETATM    2  C   UNK N   1      22.362  15.909   6.718  0.00  0.00     0.053 A 
HETATM    3  S   UNK N   1      21.761  18.330   5.396  0.00  0.00    -0.086 SA
HETATM    4  C   UNK N   1      21.526  17.041   6.601  0.00  0.00     0.032 A 
HETATM    5  C   UNK N   1      24.077  16.747   5.070  0.00  0.00     0.052 A 
HETATM    6  C   UNK N   1      23.419  17.978   4.843  0.00  0.00     0.032 A 
HETATM    7  C   UNK N   1      22.051  14.952   7.709  0.00  0.00     0.046 A 
HETATM    8  C   UNK N   1      20.928  15.089   8.541  0.00  0.00     0.012 A 
HETATM    9  C   UNK N   1      20.399  17.161   7.419  0.00  0.00     0.022 A 
HETATM   10  C   UNK N   1      20.095  16.192   8.370  0.00  0.00     0.016 A 
HETATM   11  C   UNK N   1      25.349  16.560   4.490  0.00  0.00     0.031 A 
HETATM   12  C   UNK N   1      24.041  18.973   4.079  0.00  0.00     0.021 A 
HETATM   13  C   UNK N   1      25.961  17.561   3.737  0.00  0.00     0.002 A 
HETATM   14  C   UNK N   1      25.310  18.774   3.539  0.00  0.00     0.002 A 
ENDROOT
BRANCH   1  15
HETATM   15  C   UNK N   1      24.094  14.368   5.848  0.00  0.00     0.131 C 
BRANCH  15  16
HETATM   16  C   UNK N   1      23.165  13.317   5.268  0.00  0.00     0.050 C 
BRANCH  16  17
HETATM   17  C   UNK N   1      23.096  13.510   3.759  0.00  0.00     0.274 C 
BRANCH  17  18
HETATM   18  N   UNK N   1      21.706  13.470   3.310  0.00  0.00     0.091 N 
HETATM   19  C   UNK N   1      21.617  13.012   1.917  0.00  0.00     0.302 C 
HETATM   20  C   UNK N   1      22.034  14.092   0.899  0.00  0.00     0.302 C 
HETATM   21  N   UNK N   1      21.324  15.357   1.105  0.00  0.00     0.093 N 
HETATM   22  C   UNK N   1      21.559  15.804   2.479  0.00  0.00     0.302 C 
HETATM   23  C   UNK N   1      21.050  14.771   3.490  0.00  0.00     0.302 C 
BRANCH  21  24
HETATM   24  C   UNK N   1      19.891  15.181   0.843  0.00  0.00     0.298 C 
BRANCH  24  25
HETATM   25  C   UNK N   1      19.313  16.385   0.116  0.00  0.00     0.194 C 
BRANCH  25  26
HETATM   26  O   UNK N   1      18.020  16.091  -0.312  0.00  0.00    -0.399 OA
HETATM   27  H   UNK N   1      17.143  15.790  -0.026  0.00  0.00     0.209 HD
ENDBRANCH  25  26
ENDBRANCH  24  25
ENDBRANCH  21  24
ENDBRANCH  17  18
ENDBRANCH  16  17
ENDBRANCH  15  16
ENDBRANCH   1  15
BRANCH   8  28
HETATM   28  C   UNK N   1      20.629  14.073   9.582  0.00  0.00     0.159 C 
HETATM   29  O   UNK N   1      19.484  13.930   9.977  0.00  0.00    -0.292 OA
BRANCH  28  30
HETATM   30  C   UNK N   1      21.706  13.240  10.213  0.00  0.00     0.079 C 
HETATM   31  C   UNK N   1      21.154  12.217  11.185  0.00  0.00     0.013 C 
ENDBRANCH  28  30
ENDBRANCH   8  28
TORSDOF 9
ENDMDL
MODEL 4
REMARK VINA RESULT:      -6.6     13.716     16.909
REMARK  9 active torsions:
REMARK  status: ('A' for Active; 'I' for Inactive)
REMARK    1  A    between atoms: C_15  and  N_1 
REMARK    2  A    between atoms: C_11  and  C_8 
REMARK    3  A    between atoms: N_9  and  C_21 
REMARK    4  A    between atoms: C_23  and  N_10 
REMARK    5  A    between atoms: C_26  and  C_11 
REMARK    6  A    between atoms: C_20  and  C_15 
REMARK    7  A    between atoms: C_21  and  C_20 
REMARK    8  A    between atoms: C_27  and  C_23 
REMARK    9  A    between atoms: O_25  and  C_27 
ROOT
HETATM    1  N   UNK N   1      26.438  26.334  -5.495  0.00  0.00    -0.345 N 
HETATM    2  C   UNK N   1      26.559  25.743  -6.797  0.00  0.00     0.053 A 
HETATM    3  S   UNK N   1      28.185  27.880  -7.671  0.00  0.00    -0.086 SA
HETATM    4  C   UNK N   1      27.297  26.346  -7.839  0.00  0.00     0.032 A 
HETATM    5  C   UNK N   1      26.785  27.702  -5.224  0.00  0.00     0.052 A 
HETATM    6  C   UNK N   1      27.501  28.501  -6.146  0.00  0.00     0.032 A 
HETATM    7  C   UNK N   1      25.914  24.515  -7.063  0.00  0.00     0.046 A 
HETATM    8  C   UNK N   1      26.020  23.880  -8.311  0.00  0.00     0.012 A 
HETATM    9  C   UNK N   1      27.414  25.698  -9.073  0.00  0.00     0.022 A 
HETATM   10  C   UNK N   1      26.795  24.475  -9.305  0.00  0.00     0.016 A 
HETATM   11  C   UNK N   1      26.386  28.292  -4.007  0.00  0.00     0.031 A 
HETATM   12  C   UNK N   1      27.776  29.840  -5.844  0.00  0.00     0.021 A 
HETATM   13  C   UNK N   1      26.661  29.628  -3.721  0.00  0.00     0.002 A 
HETATM   14  C   UNK N   1      27.349  30.407  -4.645  0.00  0.00     0.002 A 
ENDROOT
BRANCH   1  15
HETATM   15  C   UNK N   1      25.952  25.486  -4.410  0.00  0.00     0.131 C 
BRANCH  15  16
HETATM   16  C   UNK N   1      27.040  25.074  -3.436  0.00  0.00     0.050 C 
BRANCH  16  17
HETATM   17  C   UNK N   1      27.718  23.818  -3.968  0.00  0.00     0.274 C 
BRANCH  17  18
HETATM   18  N   UNK N   1      29.136  24.078  -4.214  0.00  0.00     0.091 N 
HETATM   19  C   UNK N   1      29.657  23.192  -5.264  0.00  0.00     0.302 C 
HETATM   20  C   UNK N   1      29.889  21.749  -4.776  0.00  0.00     0.302 C 
HETATM   21  N   UNK N   1      30.705  21.696  -3.560  0.00  0.00     0.093 N 
HETATM   22  C   UNK N   1      30.057  22.507  -2.528  0.00  0.00     0.302 C 
HETATM   23  C   UNK N   1      29.920  23.965  -2.979  0.00  0.00     0.302 C 
BRANCH  21  24
HETATM   24  C   UNK N   1      32.062  22.180  -3.840  0.00  0.00     0.298 C 
BRANCH  24  25
HETATM   25  C   UNK N   1      33.110  21.199  -3.339  0.00  0.00     0.194 C 
BRANCH  25  26
HETATM   26  O   UNK N   1      32.984  21.050  -1.958  0.00  0.00    -0.399 OA
HETATM   27  H   UNK N   1      32.604  20.498  -1.255  0.00  0.00     0.209 HD
ENDBRANCH  25  26
ENDBRANCH  24  25
ENDBRANCH  21  24
ENDBRANCH  17  18
ENDBRANCH  16  17
ENDBRANCH  15  16
ENDBRANCH   1  15
BRANCH   8  28
HETATM   28  C   UNK N   1      25.325  22.593  -8.566  0.00  0.00     0.159 C 
HETATM   29  O   UNK N   1      24.146  22.473  -8.278  0.00  0.00    -0.292 OA
BRANCH  28  30
HETATM   30  C   UNK N   1      26.043  21.399  -9.126  0.00  0.00     0.079 C 
HETATM   31  C   UNK N   1      27.217  20.973  -8.267  0.00  0.00     0.013 C 
ENDBRANCH  28  30
ENDBRANCH   8  28
TORSDOF 9
ENDMDL
MODEL 5
REMARK VINA RESULT:      -6.3      5.739      8.237
REMARK  9 active torsions:
REMARK  status: ('A' for Active; 'I' for Inactive)
REMARK    1  A    between atoms: C_15  and  N_1 
REMARK    2  A    between atoms: C_11  and  C_8 
REMARK    3  A    between atoms: N_9  and  C_21 
REMARK    4  A    between atoms: C_23  and  N_10 
REMARK    5  A    between atoms: C_26  and  C_11 
REMARK    6  A    between atoms: C_20  and  C_15 
REMARK    7  A    between atoms: C_21  and  C_20 
REMARK    8  A    between atoms: C_27  and  C_23 
REMARK    9  A    between atoms: O_25  and  C_27 
ROOT
HETATM    1  N   UNK N   1      25.641  16.671   5.162  0.00  0.00    -0.345 N 
HETATM    2  C   UNK N   1      24.503  16.085   5.811  0.00  0.00     0.053 A 
HETATM    3  S   UNK N   1      22.765  17.881   4.496  0.00  0.00    -0.086 SA
HETATM    4  C   UNK N   1      23.186  16.549   5.599  0.00  0.00     0.032 A 
HETATM    5  C   UNK N   1      25.590  17.943   4.496  0.00  0.00     0.052 A 
HETATM    6  C   UNK N   1      24.371  18.602   4.210  0.00  0.00     0.032 A 
HETATM    7  C   UNK N   1      24.693  15.007   6.703  0.00  0.00     0.046 A 
HETATM    8  C   UNK N   1      23.613  14.380   7.345  0.00  0.00     0.012 A 
HETATM    9  C   UNK N   1      22.114  15.907   6.227  0.00  0.00     0.022 A 
HETATM   10  C   UNK N   1      22.321  14.828   7.080  0.00  0.00     0.016 A 
HETATM   11  C   UNK N   1      26.790  18.583   4.126  0.00  0.00     0.031 A 
HETATM   12  C   UNK N   1      24.384  19.859   3.594  0.00  0.00     0.021 A 
HETATM   13  C   UNK N   1      26.790  19.838   3.519  0.00  0.00     0.002 A 
HETATM   14  C   UNK N   1      25.585  20.482   3.261  0.00  0.00     0.002 A 
ENDROOT
BRANCH   1  15
HETATM   15  C   UNK N   1      26.892  15.917   5.181  0.00  0.00     0.131 C 
BRANCH  15  16
HETATM   16  C   UNK N   1      27.774  16.248   6.371  0.00  0.00     0.050 C 
BRANCH  16  17
HETATM   17  C   UNK N   1      29.229  16.044   5.966  0.00  0.00     0.274 C 
BRANCH  17  18
HETATM   18  N   UNK N   1      29.993  17.267   6.206  0.00  0.00     0.091 N 
HETATM   19  C   UNK N   1      31.198  17.306   5.366  0.00  0.00     0.302 C 
HETATM   20  C   UNK N   1      32.316  16.373   5.871  0.00  0.00     0.302 C 
HETATM   21  N   UNK N   1      32.628  16.592   7.286  0.00  0.00     0.093 N 
HETATM   22  C   UNK N   1      31.400  16.420   8.066  0.00  0.00     0.302 C 
HETATM   23  C   UNK N   1      30.324  17.419   7.627  0.00  0.00     0.302 C 
BRANCH  21  24
HETATM   24  C   UNK N   1      33.193  17.932   7.479  0.00  0.00     0.298 C 
BRANCH  24  25
HETATM   25  C   UNK N   1      34.349  17.904   8.467  0.00  0.00     0.194 C 
BRANCH  25  26
HETATM   26  O   UNK N   1      35.084  19.083   8.354  0.00  0.00    -0.399 OA
HETATM   27  H   UNK N   1      35.932  19.508   8.561  0.00  0.00     0.209 HD
ENDBRANCH  25  26
ENDBRANCH  24  25
ENDBRANCH  21  24
ENDBRANCH  17  18
ENDBRANCH  16  17
ENDBRANCH  15  16
ENDBRANCH   1  15
BRANCH   8  28
HETATM   28  C   UNK N   1      23.842  13.254   8.285  0.00  0.00     0.159 C 
HETATM   29  O   UNK N   1      24.477  12.279   7.920  0.00  0.00    -0.292 OA
BRANCH  28  30
HETATM   30  C   UNK N   1      23.266  13.246   9.671  0.00  0.00     0.079 C 
HETATM   31  C   UNK N   1      22.114  12.272   9.816  0.00  0.00     0.013 C 
ENDBRANCH  28  30
ENDBRANCH   8  28
TORSDOF 9
ENDMDL
MODEL 6
REMARK VINA RESULT:      -6.3      5.791      7.671
REMARK  9 active torsions:
REMARK  status: ('A' for Active; 'I' for Inactive)
REMARK    1  A    between atoms: C_15  and  N_1 
REMARK    2  A    between atoms: C_11  and  C_8 
REMARK    3  A    between atoms: N_9  and  C_21 
REMARK    4  A    between atoms: C_23  and  N_10 
REMARK    5  A    between atoms: C_26  and  C_11 
REMARK    6  A    between atoms: C_20  and  C_15 
REMARK    7  A    between atoms: C_21  and  C_20 
REMARK    8  A    between atoms: C_27  and  C_23 
REMARK    9  A    between atoms: O_25  and  C_27 
ROOT
HETATM    1  N   UNK N   1      28.843  17.636   5.227  0.00  0.00    -0.345 N 
HETATM    2  C   UNK N   1      29.697  17.163   6.279  0.00  0.00     0.053 A 
HETATM    3  S   UNK N   1      28.439  18.879   8.136  0.00  0.00    -0.086 SA
HETATM    4  C   UNK N   1      29.613  17.652   7.602  0.00  0.00     0.032 A 
HETATM    5  C   UNK N   1      28.057  18.833   5.338  0.00  0.00     0.052 A 
HETATM    6  C   UNK N   1      27.865  19.504   6.568  0.00  0.00     0.032 A 
HETATM    7  C   UNK N   1      30.667  16.177   5.995  0.00  0.00     0.046 A 
HETATM    8  C   UNK N   1      31.510  15.661   6.992  0.00  0.00     0.012 A 
HETATM    9  C   UNK N   1      30.442  17.120   8.593  0.00  0.00     0.022 A 
HETATM   10  C   UNK N   1      31.372  16.128   8.298  0.00  0.00     0.016 A 
HETATM   11  C   UNK N   1      27.464  19.385   4.183  0.00  0.00     0.031 A 
HETATM   12  C   UNK N   1      27.122  20.690   6.609  0.00  0.00     0.021 A 
HETATM   13  C   UNK N   1      26.731  20.569   4.236  0.00  0.00     0.002 A 
HETATM   14  C   UNK N   1      26.567  21.229   5.450  0.00  0.00     0.002 A 
ENDROOT
BRANCH   1  15
HETATM   15  C   UNK N   1      28.777  16.841   4.003  0.00  0.00     0.131 C 
BRANCH  15  16
HETATM   16  C   UNK N   1      27.939  15.583   4.148  0.00  0.00     0.050 C 
BRANCH  16  17
HETATM   17  C   UNK N   1      26.521  15.889   3.681  0.00  0.00     0.274 C 
BRANCH  17  18
HETATM   18  N   UNK N   1      25.557  15.486   4.704  0.00  0.00     0.091 N 
HETATM   19  C   UNK N   1      24.325  14.972   4.090  0.00  0.00     0.302 C 
HETATM   20  C   UNK N   1      23.426  16.086   3.519  0.00  0.00     0.302 C 
HETATM   21  N   UNK N   1      23.151  17.139   4.500  0.00  0.00     0.093 N 
HETATM   22  C   UNK N   1      24.427  17.678   4.975  0.00  0.00     0.302 C 
HETATM   23  C   UNK N   1      25.276  16.586   5.633  0.00  0.00     0.302 C 
BRANCH  21  24
HETATM   24  C   UNK N   1      22.358  16.601   5.611  0.00  0.00     0.298 C 
BRANCH  24  25
HETATM   25  C   UNK N   1      21.133  17.462   5.880  0.00  0.00     0.194 C 
BRANCH  25  26
HETATM   26  O   UNK N   1      21.468  18.476   6.776  0.00  0.00    -0.399 OA
HETATM   27  H   UNK N   1      21.245  19.373   7.072  0.00  0.00     0.209 HD
ENDBRANCH  25  26
ENDBRANCH  24  25
ENDBRANCH  21  24
ENDBRANCH  17  18
ENDBRANCH  16  17
ENDBRANCH  15  16
ENDBRANCH   1  15
BRANCH   8  28
HETATM   28  C   UNK N   1      32.527  14.630   6.665  0.00  0.00     0.159 C 
HETATM   29  O   UNK N   1      32.176  13.487   6.426  0.00  0.00    -0.292 OA
BRANCH  28  30
HETATM   30  C   UNK N   1      33.997  14.934   6.668  0.00  0.00     0.079 C 
HETATM   31  C   UNK N   1      34.380  15.959   5.620  0.00  0.00     0.013 C 
ENDBRANCH  28  30
ENDBRANCH   8  28
TORSDOF 9
ENDMDL
MODEL 7
REMARK VINA RESULT:      -6.2      2.808      6.079
REMARK  9 active torsions:
REMARK  status: ('A' for Active; 'I' for Inactive)
REMARK    1  A    between atoms: C_15  and  N_1 
REMARK    2  A    between atoms: C_11  and  C_8 
REMARK    3  A    between atoms: N_9  and  C_21 
REMARK    4  A    between atoms: C_23  and  N_10 
REMARK    5  A    between atoms: C_26  and  C_11 
REMARK    6  A    between atoms: C_20  and  C_15 
REMARK    7  A    between atoms: C_21  and  C_20 
REMARK    8  A    between atoms: C_27  and  C_23 
REMARK    9  A    between atoms: O_25  and  C_27 
ROOT
HETATM    1  N   UNK N   1      21.959  14.765   7.503  0.00  0.00    -0.345 N 
HETATM    2  C   UNK N   1      23.057  15.345   6.784  0.00  0.00     0.053 A 
HETATM    3  S   UNK N   1      24.845  13.468   7.905  0.00  0.00    -0.086 SA
HETATM    4  C   UNK N   1      24.379  14.859   6.897  0.00  0.00     0.032 A 
HETATM    5  C   UNK N   1      22.138  13.863   8.607  0.00  0.00     0.052 A 
HETATM    6  C   UNK N   1      23.389  13.281   8.917  0.00  0.00     0.032 A 
HETATM    7  C   UNK N   1      22.824  16.448   5.935  0.00  0.00     0.046 A 
HETATM    8  C   UNK N   1      23.858  17.038   5.190  0.00  0.00     0.012 A 
HETATM    9  C   UNK N   1      25.399  15.438   6.136  0.00  0.00     0.022 A 
HETATM   10  C   UNK N   1      25.142  16.507   5.283  0.00  0.00     0.016 A 
HETATM   11  C   UNK N   1      21.040  13.552   9.436  0.00  0.00     0.031 A 
HETATM   12  C   UNK N   1      23.512  12.439  10.029  0.00  0.00     0.021 A 
HETATM   13  C   UNK N   1      21.177  12.718  10.544  0.00  0.00     0.002 A 
HETATM   14  C   UNK N   1      22.418  12.168  10.847  0.00  0.00     0.002 A 
ENDROOT
BRANCH   1  15
HETATM   15  C   UNK N   1      20.609  15.111   7.067  0.00  0.00     0.131 C 
BRANCH  15  16
HETATM   16  C   UNK N   1      20.052  14.159   6.023  0.00  0.00     0.050 C 
BRANCH  16  17
HETATM   17  C   UNK N   1      19.741  14.952   4.760  0.00  0.00     0.274 C 
BRANCH  17  18
HETATM   18  N   UNK N   1      19.807  14.080   3.589  0.00  0.00     0.091 N 
HETATM   19  C   UNK N   1      21.053  13.301   3.585  0.00  0.00     0.302 C 
HETATM   20  C   UNK N   1      22.283  14.134   3.175  0.00  0.00     0.302 C 
HETATM   21  N   UNK N   1      22.078  14.847   1.911  0.00  0.00     0.093 N 
HETATM   22  C   UNK N   1      20.886  15.688   2.039  0.00  0.00     0.302 C 
HETATM   23  C   UNK N   1      19.646  14.843   2.347  0.00  0.00     0.302 C 
BRANCH  21  24
HETATM   24  C   UNK N   1      21.936  13.890   0.808  0.00  0.00     0.298 C 
BRANCH  24  25
HETATM   25  C   UNK N   1      23.291  13.388   0.337  0.00  0.00     0.194 C 
BRANCH  25  26
HETATM   26  O   UNK N   1      24.151  14.472   0.159  0.00  0.00    -0.399 OA
HETATM   27  H   UNK N   1      25.024  14.832   0.384  0.00  0.00     0.209 HD
ENDBRANCH  25  26
ENDBRANCH  24  25
ENDBRANCH  21  24
ENDBRANCH  17  18
ENDBRANCH  16  17
ENDBRANCH  15  16
ENDBRANCH   1  15
BRANCH   8  28
HETATM   28  C   UNK N   1      23.587  18.203   4.310  0.00  0.00     0.159 C 
HETATM   29  O   UNK N   1      22.455  18.404   3.902  0.00  0.00    -0.292 OA
BRANCH  28  30
HETATM   30  C   UNK N   1      24.680  19.125   3.853  0.00  0.00     0.079 C 
HETATM   31  C   UNK N   1      24.147  20.336   3.114  0.00  0.00     0.013 C 
ENDBRANCH  28  30
ENDBRANCH   8  28
TORSDOF 9
ENDMDL
MODEL 8
REMARK VINA RESULT:      -6.2     13.465     16.059
REMARK  9 active torsions:
REMARK  status: ('A' for Active; 'I' for Inactive)
REMARK    1  A    between atoms: C_15  and  N_1 
REMARK    2  A    between atoms: C_11  and  C_8 
REMARK    3  A    between atoms: N_9  and  C_21 
REMARK    4  A    between atoms: C_23  and  N_10 
REMARK    5  A    between atoms: C_26  and  C_11 
REMARK    6  A    between atoms: C_20  and  C_15 
REMARK    7  A    between atoms: C_21  and  C_20 
REMARK    8  A    between atoms: C_27  and  C_23 
REMARK    9  A    between atoms: O_25  and  C_27 
ROOT
HETATM    1  N   UNK N   1      29.415  26.285  -4.874  0.00  0.00    -0.345 N 
HETATM    2  C   UNK N   1      29.400  25.086  -4.086  0.00  0.00     0.053 A 
HETATM    3  S   UNK N   1      26.682  25.490  -3.433  0.00  0.00    -0.086 SA
HETATM    4  C   UNK N   1      28.249  24.646  -3.395  0.00  0.00     0.032 A 
HETATM    5  C   UNK N   1      28.388  27.286  -4.791  0.00  0.00     0.052 A 
HETATM    6  C   UNK N   1      27.163  27.064  -4.119  0.00  0.00     0.032 A 
HETATM    7  C   UNK N   1      30.575  24.310  -3.981  0.00  0.00     0.046 A 
HETATM    8  C   UNK N   1      30.609  23.116  -3.245  0.00  0.00     0.012 A 
HETATM    9  C   UNK N   1      28.285  23.445  -2.679  0.00  0.00     0.022 A 
HETATM   10  C   UNK N   1      29.445  22.681  -2.613  0.00  0.00     0.016 A 
HETATM   11  C   UNK N   1      28.601  28.551  -5.377  0.00  0.00     0.031 A 
HETATM   12  C   UNK N   1      26.215  28.091  -4.036  0.00  0.00     0.021 A 
HETATM   13  C   UNK N   1      27.652  29.567  -5.281  0.00  0.00     0.002 A 
HETATM   14  C   UNK N   1      26.460  29.340  -4.601  0.00  0.00     0.002 A 
ENDROOT
BRANCH   1  15
HETATM   15  C   UNK N   1      30.525  26.467  -5.805  0.00  0.00     0.131 C 
BRANCH  15  16
HETATM   16  C   UNK N   1      30.119  26.325  -7.260  0.00  0.00     0.050 C 
BRANCH  16  17
HETATM   17  C   UNK N   1      29.820  24.857  -7.539  0.00  0.00     0.274 C 
BRANCH  17  18
HETATM   18  N   UNK N   1      28.558  24.731  -8.267  0.00  0.00     0.091 N 
HETATM   19  C   UNK N   1      27.420  24.680  -7.339  0.00  0.00     0.302 C 
HETATM   20  C   UNK N   1      27.279  23.318  -6.631  0.00  0.00     0.302 C 
HETATM   21  N   UNK N   1      27.267  22.197  -7.575  0.00  0.00     0.093 N 
HETATM   22  C   UNK N   1      28.489  22.253  -8.380  0.00  0.00     0.302 C 
HETATM   23  C   UNK N   1      28.574  23.568  -9.162  0.00  0.00     0.302 C 
BRANCH  21  24
HETATM   24  C   UNK N   1      26.071  22.262  -8.422  0.00  0.00     0.298 C 
BRANCH  24  25
HETATM   25  C   UNK N   1      24.949  21.407  -7.856  0.00  0.00     0.194 C 
BRANCH  25  26
HETATM   26  O   UNK N   1      23.728  22.044  -8.070  0.00  0.00    -0.399 OA
HETATM   27  H   UNK N   1      23.211  22.844  -7.882  0.00  0.00     0.209 HD
ENDBRANCH  25  26
ENDBRANCH  24  25
ENDBRANCH  21  24
ENDBRANCH  17  18
ENDBRANCH  16  17
ENDBRANCH  15  16
ENDBRANCH   1  15
BRANCH   8  28
HETATM   28  C   UNK N   1      31.861  22.323  -3.145  0.00  0.00     0.159 C 
HETATM   29  O   UNK N   1      32.137  21.756  -2.101  0.00  0.00    -0.292 OA
BRANCH  28  30
HETATM   30  C   UNK N   1      32.840  22.237  -4.279  0.00  0.00     0.079 C 
HETATM   31  C   UNK N   1      33.927  21.211  -4.031  0.00  0.00     0.013 C 
ENDBRANCH  28  30
ENDBRANCH   8  28
TORSDOF 9
ENDMDL
MODEL 9
REMARK VINA RESULT:      -6.1      7.497     10.997
REMARK  9 active torsions:
REMARK  status: ('A' for Active; 'I' for Inactive)
REMARK    1  A    between atoms: C_15  and  N_1 
REMARK    2  A    between atoms: C_11  and  C_8 
REMARK    3  A    between atoms: N_9  and  C_21 
REMARK    4  A    between atoms: C_23  and  N_10 
REMARK    5  A    between atoms: C_26  and  C_11 
REMARK    6  A    between atoms: C_20  and  C_15 
REMARK    7  A    between atoms: C_21  and  C_20 
REMARK    8  A    between atoms: C_27  and  C_23 
REMARK    9  A    between atoms: O_25  and  C_27 
ROOT
HETATM    1  N   UNK N   1      29.622  15.876   3.632  0.00  0.00    -0.345 N 
HETATM    2  C   UNK N   1      28.336  16.510   3.600  0.00  0.00     0.053 A 
HETATM    3  S   UNK N   1      27.086  14.057   2.971  0.00  0.00    -0.086 SA
HETATM    4  C   UNK N   1      27.148  15.804   3.306  0.00  0.00     0.032 A 
HETATM    5  C   UNK N   1      29.862  14.569   3.085  0.00  0.00     0.052 A 
HETATM    6  C   UNK N   1      28.813  13.704   2.696  0.00  0.00     0.032 A 
HETATM    7  C   UNK N   1      28.239  17.894   3.862  0.00  0.00     0.046 A 
HETATM    8  C   UNK N   1      27.003  18.560   3.867  0.00  0.00     0.012 A 
HETATM    9  C   UNK N   1      25.919  16.470   3.333  0.00  0.00     0.022 A 
HETATM   10  C   UNK N   1      25.843  17.829   3.622  0.00  0.00     0.016 A 
HETATM   11  C   UNK N   1      31.188  14.125   2.901  0.00  0.00     0.031 A 
HETATM   12  C   UNK N   1      29.107  12.458   2.130  0.00  0.00     0.021 A 
HETATM   13  C   UNK N   1      31.468  12.884   2.331  0.00  0.00     0.002 A 
HETATM   14  C   UNK N   1      30.426  12.052   1.936  0.00  0.00     0.002 A 
ENDROOT
BRANCH   1  15
HETATM   15  C   UNK N   1      30.718  16.603   4.268  0.00  0.00     0.131 C 
BRANCH  15  16
HETATM   16  C   UNK N   1      30.836  16.331   5.757  0.00  0.00     0.050 C 
BRANCH  16  17
HETATM   17  C   UNK N   1      32.025  17.114   6.299  0.00  0.00     0.274 C 
BRANCH  17  18
HETATM   18  N   UNK N   1      32.087  16.988   7.755  0.00  0.00     0.091 N 
HETATM   19  C   UNK N   1      32.920  18.049   8.338  0.00  0.00     0.302 C 
HETATM   20  C   UNK N   1      34.430  17.809   8.138  0.00  0.00     0.302 C 
HETATM   21  N   UNK N   1      34.846  16.478   8.586  0.00  0.00     0.093 N 
HETATM   22  C   UNK N   1      34.051  15.477   7.872  0.00  0.00     0.302 C 
HETATM   23  C   UNK N   1      32.556  15.657   8.154  0.00  0.00     0.302 C 
BRANCH  21  24
HETATM   24  C   UNK N   1      34.674  16.354  10.037  0.00  0.00     0.298 C 
BRANCH  24  25
HETATM   25  C   UNK N   1      35.744  15.461  10.644  0.00  0.00     0.194 C 
BRANCH  25  26
HETATM   26  O   UNK N   1      36.915  16.197  10.824  0.00  0.00    -0.399 OA
HETATM   27  H   UNK N   1      37.884  16.154  10.808  0.00  0.00     0.209 HD
ENDBRANCH  25  26
ENDBRANCH  24  25
ENDBRANCH  21  24
ENDBRANCH  17  18
ENDBRANCH  16  17
ENDBRANCH  15  16
ENDBRANCH   1  15
BRANCH   8  28
HETATM   28  C   UNK N   1      26.930  20.019   4.138  0.00  0.00     0.159 C 
HETATM   29  O   UNK N   1      26.343  20.751   3.359  0.00  0.00    -0.292 OA
BRANCH  28  30
HETATM   30  C   UNK N   1      27.608  20.642   5.324  0.00  0.00     0.079 C 
HETATM   31  C   UNK N   1      26.631  21.334   6.253  0.00  0.00     0.013 C 
ENDBRANCH  28  30
ENDBRANCH   8  28
TORSDOF 9
ENDMDL
