MODEL 1
REMARK VINA RESULT:      -7.2      0.000      0.000
REMARK  7 active torsions:
REMARK  status: ('A' for Active; 'I' for Inactive)
REMARK    1  A    between atoms: C_3  and  C_15 
REMARK    2  A    between atoms: C_7  and  N_9 
REMARK       I    between atoms: N_9  and  C_10 
REMARK    3  A    between atoms: C_10  and  C_13 
REMARK    4  A    between atoms: C_13  and  C_18 
REMARK    5  A    between atoms: C_13  and  N_24 
REMARK    6  A    between atoms: C_15  and  O_17 
REMARK    7  A    between atoms: C_21  and  O_25 
ROOT
HETATM    1  N   UNK N   1      35.856  12.499  12.405  0.00  0.00    -0.343 N 
HETATM    2  C   UNK N   1      35.434  12.210  13.660  0.00  0.00     0.245 C 
HETATM    3  O   UNK N   1      34.246  12.186  13.944  0.00  0.00    -0.271 OA
HETATM    4  H   UNK N   1      36.832  12.561  12.284  0.00  0.00     0.163 HD
ENDROOT
BRANCH   1   5
HETATM    5  C   UNK N   1      35.056  12.728  11.214  0.00  0.00     0.210 A 
HETATM    6  C   UNK N   1      35.810  13.058   9.812  0.00  0.00     0.187 A 
HETATM    7  N   UNK N   1      35.258  14.378   9.924  0.00  0.00    -0.293 N 
HETATM    8  S   UNK N   1      35.054  12.281   8.354  0.00  0.00    -0.136 SA
HETATM    9  C   UNK N   1      35.015  15.357   8.905  0.00  0.00     0.115 C 
HETATM   10  C   UNK N   1      34.680  14.158  11.069  0.00  0.00     0.251 A 
HETATM   11  C   UNK N   1      35.213  14.974   7.610  0.00  0.00    -0.041 C 
HETATM   12  C   UNK N   1      35.756  13.599   7.292  0.00  0.00     0.112 C 
HETATM   13  C   UNK N   1      34.914  15.861   6.443  0.00  0.00     0.047 C 
HETATM   14  O   UNK N   1      33.863  14.852  11.656  0.00  0.00    -0.271 OA
BRANCH   9  15
HETATM   15  C   UNK N   1      34.475  16.714   9.268  0.00  0.00     0.194 C 
HETATM   16  O   UNK N   1      35.240  17.641   9.471  0.00  0.00    -0.645 OA
BRANCH  15  17
HETATM   17  O   UNK N   1      33.150  16.943   9.344  0.00  0.00    -0.772 OA
HETATM   18  H   UNK N   1      32.626  16.571  10.026  0.00  0.00     0.167 HD
ENDBRANCH  15  17
ENDBRANCH   9  15
ENDBRANCH   1   5
BRANCH   2  19
HETATM   19  C   UNK N   1      36.467  11.833  14.681  0.00  0.00     0.201 C 
BRANCH  19  20
HETATM   20  C   UNK N   1      36.009  12.214  16.068  0.00  0.00    -0.027 A 
HETATM   21  C   UNK N   1      35.753  11.244  17.050  0.00  0.00     0.012 A 
HETATM   22  C   UNK N   1      35.345  11.630  18.331  0.00  0.00     0.037 A 
HETATM   23  C   UNK N   1      35.196  12.985  18.640  0.00  0.00     0.065 A 
HETATM   24  C   UNK N   1      35.441  13.955  17.666  0.00  0.00     0.037 A 
HETATM   25  C   UNK N   1      35.842  13.571  16.384  0.00  0.00     0.012 A 
BRANCH  23  26
HETATM   26  O   UNK N   1      34.815  13.355  19.874  0.00  0.00    -0.361 OA
HETATM   27  H   UNK N   1      35.064  14.185  20.229  0.00  0.00     0.217 HD
ENDBRANCH  23  26
ENDBRANCH  19  20
BRANCH  19  28
HETATM   28  N   UNK N   1      37.758  12.415  14.344  0.00  0.00    -0.415 N 
HETATM   29  H   UNK N   1      38.393  12.315  13.552  0.00  0.00     0.151 HD
HETATM   30  H   UNK N   1      38.102  13.063  15.052  0.00  0.00     0.151 HD
ENDBRANCH  19  28
ENDBRANCH   2  19
TORSDOF 7
ENDMDL
MODEL 2
REMARK VINA RESULT:      -7.1      3.526      8.259
REMARK  7 active torsions:
REMARK  status: ('A' for Active; 'I' for Inactive)
REMARK    1  A    between atoms: C_3  and  C_15 
REMARK    2  A    between atoms: C_7  and  N_9 
REMARK       I    between atoms: N_9  and  C_10 
REMARK    3  A    between atoms: C_10  and  C_13 
REMARK    4  A    between atoms: C_13  and  C_18 
REMARK    5  A    between atoms: C_13  and  N_24 
REMARK    6  A    between atoms: C_15  and  O_17 
REMARK    7  A    between atoms: C_21  and  O_25 
ROOT
HETATM    1  N   UNK N   1      33.913  15.880   7.505  0.00  0.00    -0.343 N 
HETATM    2  C   UNK N   1      33.514  17.031   6.909  0.00  0.00     0.245 C 
HETATM    3  O   UNK N   1      34.210  18.035   6.929  0.00  0.00    -0.271 OA
HETATM    4  H   UNK N   1      33.259  15.144   7.496  0.00  0.00     0.163 HD
ENDROOT
BRANCH   1   5
HETATM    5  C   UNK N   1      35.182  15.593   8.153  0.00  0.00     0.210 A 
HETATM    6  C   UNK N   1      35.566  14.046   8.475  0.00  0.00     0.187 A 
HETATM    7  N   UNK N   1      35.416  14.385   9.861  0.00  0.00    -0.293 N 
HETATM    8  S   UNK N   1      37.317  13.640   8.207  0.00  0.00    -0.136 SA
HETATM    9  C   UNK N   1      35.965  13.749  11.022  0.00  0.00     0.115 C 
HETATM   10  C   UNK N   1      35.061  15.617   9.634  0.00  0.00     0.251 A 
HETATM   11  C   UNK N   1      36.863  12.742  10.818  0.00  0.00    -0.041 C 
HETATM   12  C   UNK N   1      37.180  12.270   9.417  0.00  0.00     0.112 C 
HETATM   13  C   UNK N   1      37.580  12.050  11.934  0.00  0.00     0.047 C 
HETATM   14  O   UNK N   1      34.952  16.538  10.430  0.00  0.00    -0.271 OA
BRANCH   9  15
HETATM   15  C   UNK N   1      35.620  14.251  12.399  0.00  0.00     0.194 C 
HETATM   16  O   UNK N   1      34.721  13.727  13.032  0.00  0.00    -0.645 OA
BRANCH  15  17
HETATM   17  O   UNK N   1      36.310  15.257  12.970  0.00  0.00    -0.772 OA
HETATM   18  H   UNK N   1      36.417  15.313  13.899  0.00  0.00     0.167 HD
ENDBRANCH  15  17
ENDBRANCH   9  15
ENDBRANCH   1   5
BRANCH   2  19
HETATM   19  C   UNK N   1      32.223  17.017   6.145  0.00  0.00     0.201 C 
BRANCH  19  20
HETATM   20  C   UNK N   1      31.058  17.309   7.060  0.00  0.00    -0.027 A 
HETATM   21  C   UNK N   1      31.242  17.922   8.310  0.00  0.00     0.012 A 
HETATM   22  C   UNK N   1      30.141  18.193   9.129  0.00  0.00     0.037 A 
HETATM   23  C   UNK N   1      28.852  17.860   8.703  0.00  0.00     0.065 A 
HETATM   24  C   UNK N   1      28.663  17.243   7.465  0.00  0.00     0.037 A 
HETATM   25  C   UNK N   1      29.762  16.964   6.648  0.00  0.00     0.012 A 
BRANCH  23  26
HETATM   26  O   UNK N   1      27.795  18.132   9.485  0.00  0.00    -0.361 OA
HETATM   27  H   UNK N   1      27.409  17.471  10.025  0.00  0.00     0.217 HD
ENDBRANCH  23  26
ENDBRANCH  19  20
BRANCH  19  28
HETATM   28  N   UNK N   1      32.064  15.758   5.429  0.00  0.00    -0.415 N 
HETATM   29  H   UNK N   1      32.305  14.790   5.642  0.00  0.00     0.151 HD
HETATM   30  H   UNK N   1      31.616  15.869   4.520  0.00  0.00     0.151 HD
ENDBRANCH  19  28
ENDBRANCH   2  19
TORSDOF 7
ENDMDL
MODEL 3
REMARK VINA RESULT:      -6.9      3.001      9.004
REMARK  7 active torsions:
REMARK  status: ('A' for Active; 'I' for Inactive)
REMARK    1  A    between atoms: C_3  and  C_15 
REMARK    2  A    between atoms: C_7  and  N_9 
REMARK       I    between atoms: N_9  and  C_10 
REMARK    3  A    between atoms: C_10  and  C_13 
REMARK    4  A    between atoms: C_13  and  C_18 
REMARK    5  A    between atoms: C_13  and  N_24 
REMARK    6  A    between atoms: C_15  and  O_17 
REMARK    7  A    between atoms: C_21  and  O_25 
ROOT
HETATM    1  N   UNK N   1      33.478  15.539   9.109  0.00  0.00    -0.343 N 
HETATM    2  C   UNK N   1      33.137  16.826   8.852  0.00  0.00     0.245 C 
HETATM    3  O   UNK N   1      33.933  17.740   9.007  0.00  0.00    -0.271 OA
HETATM    4  H   UNK N   1      32.753  14.878   9.020  0.00  0.00     0.163 HD
ENDROOT
BRANCH   1   5
HETATM    5  C   UNK N   1      34.774  15.010   9.498  0.00  0.00     0.210 A 
HETATM    6  C   UNK N   1      34.895  13.435   9.883  0.00  0.00     0.187 A 
HETATM    7  N   UNK N   1      35.141  13.870  11.229  0.00  0.00    -0.293 N 
HETATM    8  S   UNK N   1      36.415  12.634   9.291  0.00  0.00    -0.136 SA
HETATM    9  C   UNK N   1      35.798  13.188  12.304  0.00  0.00     0.115 C 
HETATM   10  C   UNK N   1      35.005  15.137  10.960  0.00  0.00     0.251 A 
HETATM   11  C   UNK N   1      36.397  11.996  12.016  0.00  0.00    -0.041 C 
HETATM   12  C   UNK N   1      36.280  11.394  10.634  0.00  0.00     0.112 C 
HETATM   13  C   UNK N   1      37.194  11.221  13.017  0.00  0.00     0.047 C 
HETATM   14  O   UNK N   1      35.274  16.098  11.665  0.00  0.00    -0.271 OA
BRANCH   9  15
HETATM   15  C   UNK N   1      35.890  13.825  13.665  0.00  0.00     0.194 C 
HETATM   16  O   UNK N   1      35.089  13.528  14.534  0.00  0.00    -0.645 OA
BRANCH  15  17
HETATM   17  O   UNK N   1      36.868  14.702  13.963  0.00  0.00    -0.772 OA
HETATM   18  H   UNK N   1      37.142  14.851  14.846  0.00  0.00     0.167 HD
ENDBRANCH  15  17
ENDBRANCH   9  15
ENDBRANCH   1   5
BRANCH   2  19
HETATM   19  C   UNK N   1      31.773  17.094   8.285  0.00  0.00     0.201 C 
BRANCH  19  20
HETATM   20  C   UNK N   1      31.833  17.202   6.781  0.00  0.00    -0.027 A 
HETATM   21  C   UNK N   1      33.051  17.376   6.105  0.00  0.00     0.012 A 
HETATM   22  C   UNK N   1      33.075  17.456   4.708  0.00  0.00     0.037 A 
HETATM   23  C   UNK N   1      31.886  17.358   3.980  0.00  0.00     0.065 A 
HETATM   24  C   UNK N   1      30.670  17.192   4.647  0.00  0.00     0.037 A 
HETATM   25  C   UNK N   1      30.643  17.119   6.042  0.00  0.00     0.012 A 
BRANCH  23  26
HETATM   26  O   UNK N   1      31.912  17.423   2.639  0.00  0.00    -0.361 OA
HETATM   27  H   UNK N   1      31.848  18.244   2.193  0.00  0.00     0.217 HD
ENDBRANCH  23  26
ENDBRANCH  19  20
BRANCH  19  28
HETATM   28  N   UNK N   1      31.185  18.275   8.903  0.00  0.00    -0.415 N 
HETATM   29  H   UNK N   1      30.663  19.074   8.543  0.00  0.00     0.151 HD
HETATM   30  H   UNK N   1      31.325  18.310   9.912  0.00  0.00     0.151 HD
ENDBRANCH  19  28
ENDBRANCH   2  19
TORSDOF 7
ENDMDL
MODEL 4
REMARK VINA RESULT:      -6.6      4.753      9.463
REMARK  7 active torsions:
REMARK  status: ('A' for Active; 'I' for Inactive)
REMARK    1  A    between atoms: C_3  and  C_15 
REMARK    2  A    between atoms: C_7  and  N_9 
REMARK       I    between atoms: N_9  and  C_10 
REMARK    3  A    between atoms: C_10  and  C_13 
REMARK    4  A    between atoms: C_13  and  C_18 
REMARK    5  A    between atoms: C_13  and  N_24 
REMARK    6  A    between atoms: C_15  and  O_17 
REMARK    7  A    between atoms: C_21  and  O_25 
ROOT
HETATM    1  N   UNK N   1      31.953  16.404   8.014  0.00  0.00    -0.343 N 
HETATM    2  C   UNK N   1      31.187  17.461   8.380  0.00  0.00     0.245 C 
HETATM    3  O   UNK N   1      31.678  18.557   8.606  0.00  0.00    -0.271 OA
HETATM    4  H   UNK N   1      31.481  15.545   7.919  0.00  0.00     0.163 HD
ENDROOT
BRANCH   1   5
HETATM    5  C   UNK N   1      33.380  16.375   7.744  0.00  0.00     0.210 A 
HETATM    6  C   UNK N   1      34.104  14.940   7.497  0.00  0.00     0.187 A 
HETATM    7  N   UNK N   1      34.774  15.157   8.747  0.00  0.00    -0.293 N 
HETATM    8  S   UNK N   1      35.373  14.956   6.197  0.00  0.00    -0.136 SA
HETATM    9  C   UNK N   1      35.998  14.597   9.237  0.00  0.00     0.115 C 
HETATM   10  C   UNK N   1      34.177  16.288   8.995  0.00  0.00     0.251 A 
HETATM   11  C   UNK N   1      36.726  13.832   8.373  0.00  0.00    -0.041 C 
HETATM   12  C   UNK N   1      36.198  13.525   6.990  0.00  0.00     0.112 C 
HETATM   13  C   UNK N   1      38.064  13.259   8.720  0.00  0.00     0.047 C 
HETATM   14  O   UNK N   1      34.437  17.114   9.858  0.00  0.00    -0.271 OA
BRANCH   9  15
HETATM   15  C   UNK N   1      36.486  14.930  10.622  0.00  0.00     0.194 C 
HETATM   16  O   UNK N   1      36.336  14.132  11.530  0.00  0.00    -0.645 OA
BRANCH  15  17
HETATM   17  O   UNK N   1      37.121  16.089  10.881  0.00  0.00    -0.772 OA
HETATM   18  H   UNK N   1      37.444  16.291  11.737  0.00  0.00     0.167 HD
ENDBRANCH  15  17
ENDBRANCH   9  15
ENDBRANCH   1   5
BRANCH   2  19
HETATM   19  C   UNK N   1      29.699  17.272   8.420  0.00  0.00     0.201 C 
BRANCH  19  20
HETATM   20  C   UNK N   1      29.034  18.043   7.304  0.00  0.00    -0.027 A 
HETATM   21  C   UNK N   1      28.190  19.133   7.566  0.00  0.00     0.012 A 
HETATM   22  C   UNK N   1      27.602  19.837   6.510  0.00  0.00     0.037 A 
HETATM   23  C   UNK N   1      27.857  19.459   5.188  0.00  0.00     0.065 A 
HETATM   24  C   UNK N   1      28.690  18.370   4.921  0.00  0.00     0.037 A 
HETATM   25  C   UNK N   1      29.272  17.662   5.975  0.00  0.00     0.012 A 
BRANCH  23  26
HETATM   26  O   UNK N   1      27.301  20.143   4.175  0.00  0.00    -0.361 OA
HETATM   27  H   UNK N   1      26.456  19.915   3.843  0.00  0.00     0.217 HD
ENDBRANCH  23  26
ENDBRANCH  19  20
BRANCH  19  28
HETATM   28  N   UNK N   1      29.172  17.628   9.730  0.00  0.00    -0.415 N 
HETATM   29  H   UNK N   1      28.278  17.474  10.197  0.00  0.00     0.151 HD
HETATM   30  H   UNK N   1      29.840  18.141  10.304  0.00  0.00     0.151 HD
ENDBRANCH  19  28
ENDBRANCH   2  19
TORSDOF 7
ENDMDL
MODEL 5
REMARK VINA RESULT:      -6.6     13.083     14.632
REMARK  7 active torsions:
REMARK  status: ('A' for Active; 'I' for Inactive)
REMARK    1  A    between atoms: C_3  and  C_15 
REMARK    2  A    between atoms: C_7  and  N_9 
REMARK       I    between atoms: N_9  and  C_10 
REMARK    3  A    between atoms: C_10  and  C_13 
REMARK    4  A    between atoms: C_13  and  C_18 
REMARK    5  A    between atoms: C_13  and  N_24 
REMARK    6  A    between atoms: C_15  and  O_17 
REMARK    7  A    between atoms: C_21  and  O_25 
ROOT
HETATM    1  N   UNK N   1      22.300  14.815   7.073  0.00  0.00    -0.343 N 
HETATM    2  C   UNK N   1      22.649  13.506   7.128  0.00  0.00     0.245 C 
HETATM    3  O   UNK N   1      21.989  12.646   6.564  0.00  0.00    -0.271 OA
HETATM    4  H   UNK N   1      22.851  15.428   7.612  0.00  0.00     0.163 HD
ENDROOT
BRANCH   1   5
HETATM    5  C   UNK N   1      21.220  15.430   6.321  0.00  0.00     0.210 A 
HETATM    6  C   UNK N   1      21.222  15.308   4.700  0.00  0.00     0.187 A 
HETATM    7  N   UNK N   1      21.476  16.721   4.678  0.00  0.00    -0.293 N 
HETATM    8  S   UNK N   1      19.580  15.046   3.967  0.00  0.00    -0.136 SA
HETATM    9  C   UNK N   1      21.233  17.677   3.639  0.00  0.00     0.115 C 
HETATM   10  C   UNK N   1      21.524  16.842   5.974  0.00  0.00     0.251 A 
HETATM   11  C   UNK N   1      20.555  17.244   2.537  0.00  0.00    -0.041 C 
HETATM   12  C   UNK N   1      20.166  15.790   2.398  0.00  0.00     0.112 C 
HETATM   13  C   UNK N   1      20.155  18.152   1.417  0.00  0.00     0.047 C 
HETATM   14  O   UNK N   1      21.536  17.865   6.643  0.00  0.00    -0.271 OA
BRANCH   9  15
HETATM   15  C   UNK N   1      21.639  19.115   3.819  0.00  0.00     0.194 C 
HETATM   16  O   UNK N   1      22.733  19.494   3.440  0.00  0.00    -0.645 OA
BRANCH  15  17
HETATM   17  O   UNK N   1      20.800  20.016   4.367  0.00  0.00    -0.772 OA
HETATM   18  H   UNK N   1      19.894  20.048   4.133  0.00  0.00     0.167 HD
ENDBRANCH  15  17
ENDBRANCH   9  15
ENDBRANCH   1   5
BRANCH   2  19
HETATM   19  C   UNK N   1      23.923  13.145   7.833  0.00  0.00     0.201 C 
BRANCH  19  20
HETATM   20  C   UNK N   1      23.642  12.704   9.249  0.00  0.00    -0.027 A 
HETATM   21  C   UNK N   1      24.681  12.427  10.152  0.00  0.00     0.012 A 
HETATM   22  C   UNK N   1      24.388  12.035  11.463  0.00  0.00     0.037 A 
HETATM   23  C   UNK N   1      23.058  11.923  11.880  0.00  0.00     0.065 A 
HETATM   24  C   UNK N   1      22.020  12.189  10.984  0.00  0.00     0.037 A 
HETATM   25  C   UNK N   1      22.311  12.574   9.673  0.00  0.00     0.012 A 
BRANCH  23  26
HETATM   26  O   UNK N   1      22.778  11.558  13.141  0.00  0.00    -0.361 OA
HETATM   27  H   UNK N   1      22.421  12.170  13.754  0.00  0.00     0.217 HD
ENDBRANCH  23  26
ENDBRANCH  19  20
BRANCH  19  28
HETATM   28  N   UNK N   1      24.872  14.249   7.774  0.00  0.00    -0.415 N 
HETATM   29  H   UNK N   1      25.120  14.928   7.055  0.00  0.00     0.151 HD
HETATM   30  H   UNK N   1      25.402  14.367   8.636  0.00  0.00     0.151 HD
ENDBRANCH  19  28
ENDBRANCH   2  19
TORSDOF 7
ENDMDL
MODEL 6
REMARK VINA RESULT:      -6.5      5.464      7.545
REMARK  7 active torsions:
REMARK  status: ('A' for Active; 'I' for Inactive)
REMARK    1  A    between atoms: C_3  and  C_15 
REMARK    2  A    between atoms: C_7  and  N_9 
REMARK       I    between atoms: N_9  and  C_10 
REMARK    3  A    between atoms: C_10  and  C_13 
REMARK    4  A    between atoms: C_13  and  C_18 
REMARK    5  A    between atoms: C_13  and  N_24 
REMARK    6  A    between atoms: C_15  and  O_17 
REMARK    7  A    between atoms: C_21  and  O_25 
ROOT
HETATM    1  N   UNK N   1      33.284  16.662   9.273  0.00  0.00    -0.343 N 
HETATM    2  C   UNK N   1      34.578  16.853   9.629  0.00  0.00     0.245 C 
HETATM    3  O   UNK N   1      35.184  17.866   9.313  0.00  0.00    -0.271 OA
HETATM    4  H   UNK N   1      32.898  15.788   9.512  0.00  0.00     0.163 HD
ENDROOT
BRANCH   1   5
HETATM    5  C   UNK N   1      32.393  17.580   8.584  0.00  0.00     0.210 A 
HETATM    6  C   UNK N   1      30.859  17.121   8.299  0.00  0.00     0.187 A 
HETATM    7  N   UNK N   1      31.215  17.090   6.909  0.00  0.00    -0.293 N 
HETATM    8  S   UNK N   1      29.631  18.444   8.510  0.00  0.00    -0.136 SA
HETATM    9  C   UNK N   1      30.379  17.185   5.749  0.00  0.00     0.115 C 
HETATM   10  C   UNK N   1      32.461  17.412   7.109  0.00  0.00     0.251 A 
HETATM   11  C   UNK N   1      29.059  17.467   5.951  0.00  0.00    -0.041 C 
HETATM   12  C   UNK N   1      28.505  17.576   7.354  0.00  0.00     0.112 C 
HETATM   13  C   UNK N   1      28.091  17.682   4.831  0.00  0.00     0.047 C 
HETATM   14  O   UNK N   1      33.305  17.739   6.287  0.00  0.00    -0.271 OA
BRANCH   9  15
HETATM   15  C   UNK N   1      30.974  17.068   4.372  0.00  0.00     0.194 C 
HETATM   16  O   UNK N   1      30.930  16.007   3.775  0.00  0.00    -0.645 OA
BRANCH  15  17
HETATM   17  O   UNK N   1      31.534  18.129   3.758  0.00  0.00    -0.772 OA
HETATM   18  H   UNK N   1      32.415  18.391   3.937  0.00  0.00     0.167 HD
ENDBRANCH  15  17
ENDBRANCH   9  15
ENDBRANCH   1   5
BRANCH   2  19
HETATM   19  C   UNK N   1      35.229  15.819  10.500  0.00  0.00     0.201 C 
BRANCH  19  20
HETATM   20  C   UNK N   1      36.143  14.936   9.687  0.00  0.00    -0.027 A 
HETATM   21  C   UNK N   1      35.757  14.434   8.433  0.00  0.00     0.012 A 
HETATM   22  C   UNK N   1      36.634  13.631   7.697  0.00  0.00     0.037 A 
HETATM   23  C   UNK N   1      37.901  13.329   8.204  0.00  0.00     0.065 A 
HETATM   24  C   UNK N   1      38.289  13.818   9.453  0.00  0.00     0.037 A 
HETATM   25  C   UNK N   1      37.412  14.614  10.193  0.00  0.00     0.012 A 
BRANCH  23  26
HETATM   26  O   UNK N   1      38.746  12.567   7.490  0.00  0.00    -0.361 OA
HETATM   27  H   UNK N   1      39.425  12.952   6.972  0.00  0.00     0.217 HD
ENDBRANCH  23  26
ENDBRANCH  19  20
BRANCH  19  28
HETATM   28  N   UNK N   1      34.224  15.057  11.228  0.00  0.00    -0.415 N 
HETATM   29  H   UNK N   1      34.246  14.489  12.075  0.00  0.00     0.151 HD
HETATM   30  H   UNK N   1      33.301  15.100  10.799  0.00  0.00     0.151 HD
ENDBRANCH  19  28
ENDBRANCH   2  19
TORSDOF 7
ENDMDL
MODEL 7
REMARK VINA RESULT:      -6.4     18.501     22.274
REMARK  7 active torsions:
REMARK  status: ('A' for Active; 'I' for Inactive)
REMARK    1  A    between atoms: C_3  and  C_15 
REMARK    2  A    between atoms: C_7  and  N_9 
REMARK       I    between atoms: N_9  and  C_10 
REMARK    3  A    between atoms: C_10  and  C_13 
REMARK    4  A    between atoms: C_13  and  C_18 
REMARK    5  A    between atoms: C_13  and  N_24 
REMARK    6  A    between atoms: C_15  and  O_17 
REMARK    7  A    between atoms: C_21  and  O_25 
ROOT
HETATM    1  N   UNK N   1      28.659  25.117  -3.603  0.00  0.00    -0.343 N 
HETATM    2  C   UNK N   1      27.909  26.110  -4.143  0.00  0.00     0.245 C 
HETATM    3  O   UNK N   1      28.417  27.147  -4.543  0.00  0.00    -0.271 OA
HETATM    4  H   UNK N   1      28.158  24.348  -3.247  0.00  0.00     0.163 HD
ENDROOT
BRANCH   1   5
HETATM    5  C   UNK N   1      30.105  25.043  -3.483  0.00  0.00     0.210 A 
HETATM    6  C   UNK N   1      30.978  24.594  -4.778  0.00  0.00     0.187 A 
HETATM    7  N   UNK N   1      31.279  23.392  -4.054  0.00  0.00    -0.293 N 
HETATM    8  S   UNK N   1      32.539  25.503  -4.980  0.00  0.00    -0.136 SA
HETATM    9  C   UNK N   1      32.373  22.479  -4.210  0.00  0.00     0.115 C 
HETATM   10  C   UNK N   1      30.551  23.703  -3.020  0.00  0.00     0.251 A 
HETATM   11  C   UNK N   1      33.360  22.831  -5.085  0.00  0.00    -0.041 C 
HETATM   12  C   UNK N   1      33.237  24.090  -5.913  0.00  0.00     0.112 C 
HETATM   13  C   UNK N   1      34.601  22.019  -5.282  0.00  0.00     0.047 C 
HETATM   14  O   UNK N   1      30.510  23.160  -1.926  0.00  0.00    -0.271 OA
BRANCH   9  15
HETATM   15  C   UNK N   1      32.453  21.236  -3.365  0.00  0.00     0.194 C 
HETATM   16  O   UNK N   1      32.139  20.157  -3.835  0.00  0.00    -0.645 OA
BRANCH  15  17
HETATM   17  O   UNK N   1      32.900  21.281  -2.095  0.00  0.00    -0.772 OA
HETATM   18  H   UNK N   1      33.788  21.502  -1.895  0.00  0.00     0.167 HD
ENDBRANCH  15  17
ENDBRANCH   9  15
ENDBRANCH   1   5
BRANCH   2  19
HETATM   19  C   UNK N   1      26.439  25.867  -4.317  0.00  0.00     0.201 C 
BRANCH  19  20
HETATM   20  C   UNK N   1      26.170  25.132  -5.608  0.00  0.00    -0.027 A 
HETATM   21  C   UNK N   1      26.059  23.733  -5.648  0.00  0.00     0.012 A 
HETATM   22  C   UNK N   1      25.794  23.083  -6.858  0.00  0.00     0.037 A 
HETATM   23  C   UNK N   1      25.632  23.825  -8.032  0.00  0.00     0.065 A 
HETATM   24  C   UNK N   1      25.748  25.216  -8.000  0.00  0.00     0.037 A 
HETATM   25  C   UNK N   1      26.020  25.867  -6.795  0.00  0.00     0.012 A 
BRANCH  23  26
HETATM   26  O   UNK N   1      25.365  23.200  -9.190  0.00  0.00    -0.361 OA
HETATM   27  H   UNK N   1      25.594  23.585 -10.012  0.00  0.00     0.217 HD
ENDBRANCH  23  26
ENDBRANCH  19  20
BRANCH  19  28
HETATM   28  N   UNK N   1      25.698  27.118  -4.226  0.00  0.00    -0.415 N 
HETATM   29  H   UNK N   1      24.876  27.415  -3.701  0.00  0.00     0.151 HD
HETATM   30  H   UNK N   1      26.085  27.855  -4.814  0.00  0.00     0.151 HD
ENDBRANCH  19  28
ENDBRANCH   2  19
TORSDOF 7
ENDMDL
MODEL 8
REMARK VINA RESULT:      -6.3      2.939      7.871
REMARK  7 active torsions:
REMARK  status: ('A' for Active; 'I' for Inactive)
REMARK    1  A    between atoms: C_3  and  C_15 
REMARK    2  A    between atoms: C_7  and  N_9 
REMARK       I    between atoms: N_9  and  C_10 
REMARK    3  A    between atoms: C_10  and  C_13 
REMARK    4  A    between atoms: C_13  and  C_18 
REMARK    5  A    between atoms: C_13  and  N_24 
REMARK    6  A    between atoms: C_15  and  O_17 
REMARK    7  A    between atoms: C_21  and  O_25 
ROOT
HETATM    1  N   UNK N   1      35.105  14.881   8.375  0.00  0.00    -0.343 N 
HETATM    2  C   UNK N   1      35.072  15.164   7.049  0.00  0.00     0.245 C 
HETATM    3  O   UNK N   1      36.095  15.224   6.383  0.00  0.00    -0.271 OA
HETATM    4  H   UNK N   1      34.240  14.921   8.843  0.00  0.00     0.163 HD
ENDROOT
BRANCH   1   5
HETATM    5  C   UNK N   1      36.252  14.525   9.193  0.00  0.00     0.210 A 
HETATM    6  C   UNK N   1      36.351  13.018   9.794  0.00  0.00     0.187 A 
HETATM    7  N   UNK N   1      36.146  13.610  11.085  0.00  0.00    -0.293 N 
HETATM    8  S   UNK N   1      38.027  12.317   9.783  0.00  0.00    -0.136 SA
HETATM    9  C   UNK N   1      36.487  13.110  12.384  0.00  0.00     0.115 C 
HETATM   10  C   UNK N   1      36.017  14.823  10.629  0.00  0.00     0.251 A 
HETATM   11  C   UNK N   1      37.221  11.961  12.439  0.00  0.00    -0.041 C 
HETATM   12  C   UNK N   1      37.570  11.212  11.172  0.00  0.00     0.112 C 
HETATM   13  C   UNK N   1      37.723  11.374  13.721  0.00  0.00     0.047 C 
HETATM   14  O   UNK N   1      35.996  15.873  11.254  0.00  0.00    -0.271 OA
BRANCH   9  15
HETATM   15  C   UNK N   1      36.119  13.887  13.619  0.00  0.00     0.194 C 
HETATM   16  O   UNK N   1      35.120  13.592  14.252  0.00  0.00    -0.645 OA
BRANCH  15  17
HETATM   17  O   UNK N   1      36.891  14.895  14.068  0.00  0.00    -0.772 OA
HETATM   18  H   UNK N   1      36.624  15.790  13.991  0.00  0.00     0.167 HD
ENDBRANCH  15  17
ENDBRANCH   9  15
ENDBRANCH   1   5
BRANCH   2  19
HETATM   19  C   UNK N   1      33.730  15.321   6.395  0.00  0.00     0.201 C 
BRANCH  19  20
HETATM   20  C   UNK N   1      32.867  16.285   7.174  0.00  0.00    -0.027 A 
HETATM   21  C   UNK N   1      33.335  17.556   7.542  0.00  0.00     0.012 A 
HETATM   22  C   UNK N   1      32.505  18.433   8.250  0.00  0.00     0.037 A 
HETATM   23  C   UNK N   1      31.205  18.047   8.589  0.00  0.00     0.065 A 
HETATM   24  C   UNK N   1      30.737  16.781   8.232  0.00  0.00     0.037 A 
HETATM   25  C   UNK N   1      31.566  15.901   7.532  0.00  0.00     0.012 A 
BRANCH  23  26
HETATM   26  O   UNK N   1      30.406  18.894   9.257  0.00  0.00    -0.361 OA
HETATM   27  H   UNK N   1      30.406  19.811   9.069  0.00  0.00     0.217 HD
ENDBRANCH  23  26
ENDBRANCH  19  20
BRANCH  19  28
HETATM   28  N   UNK N   1      33.092  14.024   6.218  0.00  0.00    -0.415 N 
HETATM   29  H   UNK N   1      32.724  13.324   6.863  0.00  0.00     0.151 HD
HETATM   30  H   UNK N   1      32.991  13.759   5.239  0.00  0.00     0.151 HD
ENDBRANCH  19  28
ENDBRANCH   2  19
TORSDOF 7
ENDMDL
MODEL 9
REMARK VINA RESULT:      -6.2     10.218     14.626
REMARK  7 active torsions:
REMARK  status: ('A' for Active; 'I' for Inactive)
REMARK    1  A    between atoms: C_3  and  C_15 
REMARK    2  A    between atoms: C_7  and  N_9 
REMARK       I    between atoms: N_9  and  C_10 
REMARK    3  A    between atoms: C_10  and  C_13 
REMARK    4  A    between atoms: C_13  and  C_18 
REMARK    5  A    between atoms: C_13  and  N_24 
REMARK    6  A    between atoms: C_15  and  O_17 
REMARK    7  A    between atoms: C_21  and  O_25 
ROOT
HETATM    1  N   UNK N   1      25.605  18.401   5.263  0.00  0.00    -0.343 N 
HETATM    2  C   UNK N   1      24.811  17.826   4.326  0.00  0.00     0.245 C 
HETATM    3  O   UNK N   1      25.273  17.370   3.290  0.00  0.00    -0.271 OA
HETATM    4  H   UNK N   1      25.138  18.800   6.033  0.00  0.00     0.163 HD
ENDROOT
BRANCH   1   5
HETATM    5  C   UNK N   1      27.054  18.502   5.278  0.00  0.00     0.210 A 
HETATM    6  C   UNK N   1      27.935  17.145   5.436  0.00  0.00     0.187 A 
HETATM    7  N   UNK N   1      28.309  17.639   6.730  0.00  0.00    -0.293 N 
HETATM    8  S   UNK N   1      29.441  17.108   4.419  0.00  0.00    -0.136 SA
HETATM    9  C   UNK N   1      29.449  17.317   7.537  0.00  0.00     0.115 C 
HETATM   10  C   UNK N   1      27.577  18.713   6.652  0.00  0.00     0.251 A 
HETATM   11  C   UNK N   1      30.404  16.519   6.979  0.00  0.00    -0.041 C 
HETATM   12  C   UNK N   1      30.204  15.932   5.600  0.00  0.00     0.112 C 
HETATM   13  C   UNK N   1      31.685  16.175   7.672  0.00  0.00     0.047 C 
HETATM   14  O   UNK N   1      27.580  19.691   7.385  0.00  0.00    -0.271 OA
BRANCH   9  15
HETATM   15  C   UNK N   1      29.607  17.923   8.906  0.00  0.00     0.194 C 
HETATM   16  O   UNK N   1      29.185  17.335   9.887  0.00  0.00    -0.645 OA
BRANCH  15  17
HETATM   17  O   UNK N   1      30.238  19.099   9.083  0.00  0.00    -0.772 OA
HETATM   18  H   UNK N   1      31.110  19.240   8.769  0.00  0.00     0.167 HD
ENDBRANCH  15  17
ENDBRANCH   9  15
ENDBRANCH   1   5
BRANCH   2  19
HETATM   19  C   UNK N   1      23.348  17.686   4.631  0.00  0.00     0.201 C 
BRANCH  19  20
HETATM   20  C   UNK N   1      22.523  18.523   3.684  0.00  0.00    -0.027 A 
HETATM   21  C   UNK N   1      22.904  19.829   3.336  0.00  0.00     0.012 A 
HETATM   22  C   UNK N   1      22.126  20.574   2.443  0.00  0.00     0.037 A 
HETATM   23  C   UNK N   1      20.969  20.018   1.890  0.00  0.00     0.065 A 
HETATM   24  C   UNK N   1      20.580  18.724   2.239  0.00  0.00     0.037 A 
HETATM   25  C   UNK N   1      21.351  17.981   3.135  0.00  0.00     0.012 A 
BRANCH  23  26
HETATM   26  O   UNK N   1      20.230  20.730   1.024  0.00  0.00    -0.361 OA
HETATM   27  H   UNK N   1      19.436  20.385   0.667  0.00  0.00     0.217 HD
ENDBRANCH  23  26
ENDBRANCH  19  20
BRANCH  19  28
HETATM   28  N   UNK N   1      23.084  18.004   6.028  0.00  0.00    -0.415 N 
HETATM   29  H   UNK N   1      22.812  18.856   6.518  0.00  0.00     0.151 HD
HETATM   30  H   UNK N   1      23.194  17.203   6.648  0.00  0.00     0.151 HD
ENDBRANCH  19  28
ENDBRANCH   2  19
TORSDOF 7
ENDMDL
