REMARK  9 active torsions:
REMARK  status: ('A' for Active; 'I' for Inactive)
REMARK    1  A    between atoms: C_15  and  N_1 
REMARK    2  A    between atoms: C_11  and  C_8 
REMARK    3  A    between atoms: N_9  and  C_21 
REMARK    4  A    between atoms: C_23  and  N_10 
REMARK    5  A    between atoms: C_26  and  C_11 
REMARK    6  A    between atoms: C_20  and  C_15 
REMARK    7  A    between atoms: C_21  and  C_20 
REMARK    8  A    between atoms: C_27  and  C_23 
REMARK    9  A    between atoms: O_25  and  C_27 
ROOT
HETATM    1  N   UNK N   1      -1.803   1.226   0.280  0.00  0.00    -0.345 N 
HETATM    2  C   UNK N   1      -0.533   1.891   0.343  0.00  0.00     0.053 A 
HETATM    3  S   UNK N   1      -1.799   4.415   0.352  0.00  0.00    -0.086 SA
HETATM    4  C   UNK N   1      -0.413   3.298   0.367  0.00  0.00     0.032 A 
HETATM    5  C   UNK N   1      -3.022   1.903  -0.066  0.00  0.00     0.052 A 
HETATM    6  C   UNK N   1      -3.116   3.313  -0.129  0.00  0.00     0.032 A 
HETATM    7  C   UNK N   1       0.651   1.122   0.375  0.00  0.00     0.046 A 
HETATM    8  C   UNK N   1       1.918   1.720   0.462  0.00  0.00     0.012 A 
HETATM    9  C   UNK N   1       0.851   3.886   0.474  0.00  0.00     0.022 A 
HETATM   10  C   UNK N   1       2.003   3.109   0.533  0.00  0.00     0.016 A 
HETATM   11  C   UNK N   1      -4.172   1.149  -0.378  0.00  0.00     0.031 A 
HETATM   12  C   UNK N   1      -4.320   3.917  -0.511  0.00  0.00     0.021 A 
HETATM   13  C   UNK N   1      -5.363   1.762  -0.763  0.00  0.00     0.002 A 
HETATM   14  C   UNK N   1      -5.435   3.149  -0.839  0.00  0.00     0.002 A 
ENDROOT
BRANCH   1  15
HETATM   15  C   UNK N   1      -1.836  -0.199   0.599  0.00  0.00     0.131 C 
BRANCH  15  16
HETATM   16  C   UNK N   1      -2.188  -1.073  -0.591  0.00  0.00     0.050 C 
BRANCH  16  17
HETATM   17  C   UNK N   1      -1.694  -2.488  -0.316  0.00  0.00     0.274 C 
BRANCH  17  18
HETATM   18  N   UNK N   1      -0.546  -2.794  -1.168  0.00  0.00     0.091 N 
HETATM   19  C   UNK N   1      -0.218  -4.225  -1.112  0.00  0.00     0.302 C 
HETATM   20  C   UNK N   1       0.498  -4.629   0.192  0.00  0.00     0.302 C 
HETATM   21  N   UNK N   1       1.665  -3.788   0.471  0.00  0.00     0.093 N 
HETATM   22  C   UNK N   1       1.232  -2.390   0.515  0.00  0.00     0.302 C 
HETATM   23  C   UNK N   1       0.612  -1.963  -0.820  0.00  0.00     0.302 C 
BRANCH  21  24
HETATM   24  C   UNK N   1       2.693  -3.992  -0.555  0.00  0.00     0.298 C 
BRANCH  24  25
HETATM   25  C   UNK N   1       3.998  -3.314  -0.169  0.00  0.00     0.194 C 
BRANCH  25  26
HETATM   26  O   UNK N   1       4.850  -3.286  -1.272  0.00  0.00    -0.399 OA
HETATM   27  H   UNK N   1       5.164  -3.790  -2.040  0.00  0.00     0.209 HD
ENDBRANCH  25  26
ENDBRANCH  24  25
ENDBRANCH  21  24
ENDBRANCH  17  18
ENDBRANCH  16  17
ENDBRANCH  15  16
ENDBRANCH   1  15
BRANCH   8  28
HETATM   28  C   UNK N   1       3.148   0.888   0.486  0.00  0.00     0.159 C 
HETATM   29  O   UNK N   1       3.086  -0.293   0.189  0.00  0.00    -0.292 OA
BRANCH  28  30
HETATM   30  C   UNK N   1       4.474   1.442   0.920  0.00  0.00     0.079 C 
HETATM   31  C   UNK N   1       4.984   2.523  -0.011  0.00  0.00     0.013 C 
ENDBRANCH  28  30
ENDBRANCH   8  28
TORSDOF 9
