REMARK  4 active torsions:
REMARK  status: ('A' for Active; 'I' for Inactive)
REMARK    1  A    between atoms: C_1  and  N_14 
REMARK    2  A    between atoms: C_5  and  C_11 
REMARK    3  A    between atoms: O_12  and  C_11 
REMARK    4  A    between atoms: N_17  and  C_16 
ROOT
HETATM    1  C   UNK N   1      -1.029   1.476  -0.354  0.00  0.00     0.197 A 
HETATM    2  N   UNK N   1       0.687   0.310  -0.753  0.00  0.00    -0.219 NA
HETATM    3  C   UNK N   1       0.581   1.665  -0.335  0.00  0.00     0.160 A 
HETATM    4  C   UNK N   1      -0.601   0.132  -0.839  0.00  0.00     0.226 A 
HETATM    5  C   UNK N   1       1.529  -0.576   0.002  0.00  0.00     0.182 C 
HETATM    6  C   UNK N   1       2.551   0.338   0.667  0.00  0.00     0.029 C 
HETATM    7  S   UNK N   1       1.532   1.763   1.233  0.00  0.00    -0.135 SA
HETATM    8  C   UNK N   1       3.219  -0.350   1.841  0.00  0.00     0.029 C 
HETATM    9  C   UNK N   1       3.611   0.827  -0.315  0.00  0.00     0.029 C 
HETATM   10  O   UNK N   1      -1.190  -0.934  -0.768  0.00  0.00    -0.277 OA
ENDROOT
BRANCH   1  11
HETATM   11  N   UNK N   1      -1.599   1.239   0.955  0.00  0.00    -0.371 N 
HETATM   12  C   UNK N   1      -2.853   0.966   1.137  0.00  0.00     0.174 C 
ATOM     13  HN  UNK N   1      -0.987   1.288   1.770  1.00  0.00     0.161 HD
BRANCH  12  14
HETATM   14  N   UNK N   1      -3.819   1.011   0.078  0.00  0.00    -0.377 N 
HETATM   15  C   UNK N   1      -5.043   0.252   0.199  0.00  0.00     0.123 C 
HETATM   16  C   UNK N   1      -6.188   1.084   0.776  0.00  0.00     0.020 C 
HETATM   17  C   UNK N   1      -6.409   2.405   0.046  0.00  0.00     0.002 C 
HETATM   18  C   UNK N   1      -5.336   3.406   0.463  0.00  0.00     0.002 C 
HETATM   19  C   UNK N   1      -4.103   3.385  -0.452  0.00  0.00     0.020 C 
HETATM   20  C   UNK N   1      -3.738   1.992  -0.981  0.00  0.00     0.123 C 
ENDBRANCH  12  14
ENDBRANCH   1  11
BRANCH   5  21
HETATM   21  C   UNK N   1       1.940  -1.839  -0.702  0.00  0.00     0.160 C 
HETATM   22  O   UNK N   1       1.085  -2.635  -1.057  0.00  0.00    -0.649 OA
BRANCH  21  23
HETATM   23  O   UNK N   1       3.240  -2.140  -0.877  0.00  0.00    -0.775 OA
HETATM   24  H   UNK N   1       3.511  -3.028  -0.998  0.00  0.00     0.167 HD
ENDBRANCH  21  23
ENDBRANCH   5  21
TORSDOF 4
