MODEL 1
REMARK VINA RESULT:      -5.5      0.000      0.000
REMARK  5 active torsions:
REMARK  status: ('A' for Active; 'I' for Inactive)
REMARK    1  A    between atoms: C_2  and  C_1 
REMARK    2  A    between atoms: C_7  and  C_4 
REMARK    3  A    between atoms: C_10  and  C_7 
REMARK    4  A    between atoms: C_10  and  N_8 
REMARK    5  A    between atoms: N_8  and  C_15 
ROOT
HETATM    1  C   UNK N   1      32.982  17.442   6.784  0.00  0.00     0.048 A 
HETATM    2  C   UNK N   1      31.618  17.267   7.074  0.00  0.00     0.023 A 
HETATM    3  C   UNK N   1      30.676  17.214   6.039  0.00  0.00    -0.056 A 
HETATM    4  C   UNK N   1      33.394  17.549   5.449  0.00  0.00     0.016 A 
HETATM    5  C   UNK N   1      32.458  17.496   4.415  0.00  0.00     0.001 A 
HETATM    6  C   UNK N   1      31.103  17.342   4.712  0.00  0.00     0.007 A 
ENDROOT
BRANCH   3   7
HETATM    7  C   UNK N   1      29.219  17.080   6.364  0.00  0.00     0.062 C 
BRANCH   7   8
HETATM    8  C   UNK N   1      28.705  18.203   7.263  0.00  0.00     0.076 C 
HETATM    9  C   UNK N   1      27.942  19.199   6.415  0.00  0.00     0.032 C 
BRANCH   8  10
HETATM   10  N   UNK N   1      27.792  17.658   8.264  0.00  0.00    -0.417 N 
HETATM   11  H   UNK N   1      26.801  17.469   8.116  0.00  0.00     0.153 HD
BRANCH  10  12
HETATM   12  C   UNK N   1      28.517  17.426   9.505  0.00  0.00     0.110 C 
HETATM   13  C   UNK N   1      29.508  18.547   9.753  0.00  0.00     0.026 C 
ENDBRANCH  10  12
ENDBRANCH   8  10
ENDBRANCH   7   8
ENDBRANCH   3   7
BRANCH   1  14
HETATM   14  C   UNK N   1      33.983  17.539   7.899  0.00  0.00     0.417 C 
HETATM   15  F   UNK N   1      34.919  16.530   7.778  0.00  0.00    -0.166 F 
HETATM   16  F   UNK N   1      34.639  18.760   7.873  0.00  0.00    -0.166 F 
HETATM   17  F   UNK N   1      33.333  17.413   9.112  0.00  0.00    -0.166 F 
ENDBRANCH   1  14
TORSDOF 5
ENDMDL
MODEL 2
REMARK VINA RESULT:      -5.4      3.451      5.562
REMARK  5 active torsions:
REMARK  status: ('A' for Active; 'I' for Inactive)
REMARK    1  A    between atoms: C_2  and  C_1 
REMARK    2  A    between atoms: C_7  and  C_4 
REMARK    3  A    between atoms: C_10  and  C_7 
REMARK    4  A    between atoms: C_10  and  N_8 
REMARK    5  A    between atoms: N_8  and  C_15 
ROOT
HETATM    1  C   UNK N   1      30.030  17.896   8.249  0.00  0.00     0.048 A 
HETATM    2  C   UNK N   1      31.361  18.000   8.685  0.00  0.00     0.023 A 
HETATM    3  C   UNK N   1      32.413  17.619   7.842  0.00  0.00    -0.056 A 
HETATM    4  C   UNK N   1      29.762  17.421   6.959  0.00  0.00     0.016 A 
HETATM    5  C   UNK N   1      30.807  17.041   6.116  0.00  0.00     0.001 A 
HETATM    6  C   UNK N   1      32.127  17.128   6.563  0.00  0.00     0.007 A 
ENDROOT
BRANCH   3   7
HETATM    7  C   UNK N   1      33.826  17.685   8.338  0.00  0.00     0.062 C 
BRANCH   7   8
HETATM    8  C   UNK N   1      34.178  16.539   9.283  0.00  0.00     0.076 C 
HETATM    9  C   UNK N   1      35.020  15.527   8.534  0.00  0.00     0.032 C 
BRANCH   8  10
HETATM   10  N   UNK N   1      34.962  17.045  10.406  0.00  0.00    -0.417 N 
HETATM   11  H   UNK N   1      34.798  17.929  10.888  0.00  0.00     0.153 HD
BRANCH  10  12
HETATM   12  C   UNK N   1      36.013  16.092  10.732  0.00  0.00     0.110 C 
HETATM   13  C   UNK N   1      35.717  15.413  12.056  0.00  0.00     0.026 C 
ENDBRANCH  10  12
ENDBRANCH   8  10
ENDBRANCH   7   8
ENDBRANCH   3   7
BRANCH   1  14
HETATM   14  C   UNK N   1      28.903  18.268   9.172  0.00  0.00     0.417 C 
HETATM   15  F   UNK N   1      28.010  19.091   8.513  0.00  0.00    -0.166 F 
HETATM   16  F   UNK N   1      28.228  17.140   9.611  0.00  0.00    -0.166 F 
HETATM   17  F   UNK N   1      29.411  18.934  10.271  0.00  0.00    -0.166 F 
ENDBRANCH   1  14
TORSDOF 5
ENDMDL
MODEL 3
REMARK VINA RESULT:      -5.4     11.363     13.137
REMARK  5 active torsions:
REMARK  status: ('A' for Active; 'I' for Inactive)
REMARK    1  A    between atoms: C_2  and  C_1 
REMARK    2  A    between atoms: C_7  and  C_4 
REMARK    3  A    between atoms: C_10  and  C_7 
REMARK    4  A    between atoms: C_10  and  N_8 
REMARK    5  A    between atoms: N_8  and  C_15 
ROOT
HETATM    1  C   UNK N   1      35.387  10.773  18.536  0.00  0.00     0.048 A 
HETATM    2  C   UNK N   1      35.277  11.245  17.217  0.00  0.00     0.023 A 
HETATM    3  C   UNK N   1      35.143  12.616  16.966  0.00  0.00    -0.056 A 
HETATM    4  C   UNK N   1      35.376  11.687  19.598  0.00  0.00     0.016 A 
HETATM    5  C   UNK N   1      35.243  13.054  19.351  0.00  0.00     0.001 A 
HETATM    6  C   UNK N   1      35.114  13.513  18.040  0.00  0.00     0.007 A 
ENDROOT
BRANCH   3   7
HETATM    7  C   UNK N   1      34.974  13.102  15.559  0.00  0.00     0.062 C 
BRANCH   7   8
HETATM    8  C   UNK N   1      36.199  12.838  14.686  0.00  0.00     0.076 C 
HETATM    9  C   UNK N   1      35.870  13.211  13.255  0.00  0.00     0.032 C 
BRANCH   8  10
HETATM   10  N   UNK N   1      37.313  13.668  15.132  0.00  0.00    -0.417 N 
HETATM   11  H   UNK N   1      38.213  13.319  15.463  0.00  0.00     0.153 HD
BRANCH  10  12
HETATM   12  C   UNK N   1      36.942  15.073  15.030  0.00  0.00     0.110 C 
HETATM   13  C   UNK N   1      37.481  15.848  16.218  0.00  0.00     0.026 C 
ENDBRANCH  10  12
ENDBRANCH   8  10
ENDBRANCH   7   8
ENDBRANCH   3   7
BRANCH   1  14
HETATM   14  C   UNK N   1      35.490   9.298  18.803  0.00  0.00     0.417 C 
HETATM   15  F   UNK N   1      36.767   8.858  18.517  0.00  0.00    -0.166 F 
HETATM   16  F   UNK N   1      35.207   9.012  20.129  0.00  0.00    -0.166 F 
HETATM   17  F   UNK N   1      34.586   8.623  18.004  0.00  0.00    -0.166 F 
ENDBRANCH   1  14
TORSDOF 5
ENDMDL
MODEL 4
REMARK VINA RESULT:      -5.2     15.691     17.301
REMARK  5 active torsions:
REMARK  status: ('A' for Active; 'I' for Inactive)
REMARK    1  A    between atoms: C_2  and  C_1 
REMARK    2  A    between atoms: C_7  and  C_4 
REMARK    3  A    between atoms: C_10  and  C_7 
REMARK    4  A    between atoms: C_10  and  N_8 
REMARK    5  A    between atoms: N_8  and  C_15 
ROOT
HETATM    1  C   UNK N   1      27.581  29.107  -5.781  0.00  0.00     0.048 A 
HETATM    2  C   UNK N   1      26.849  27.967  -6.154  0.00  0.00     0.023 A 
HETATM    3  C   UNK N   1      25.822  27.486  -5.331  0.00  0.00    -0.056 A 
HETATM    4  C   UNK N   1      27.267  29.768  -4.586  0.00  0.00     0.016 A 
HETATM    5  C   UNK N   1      26.245  29.291  -3.764  0.00  0.00     0.001 A 
HETATM    6  C   UNK N   1      25.535  28.147  -4.131  0.00  0.00     0.007 A 
ENDROOT
BRANCH   3   7
HETATM    7  C   UNK N   1      25.084  26.239  -5.713  0.00  0.00     0.062 C 
BRANCH   7   8
HETATM    8  C   UNK N   1      26.008  25.040  -5.918  0.00  0.00     0.076 C 
HETATM    9  C   UNK N   1      26.160  24.309  -4.600  0.00  0.00     0.032 C 
BRANCH   8  10
HETATM   10  N   UNK N   1      25.420  24.122  -6.888  0.00  0.00    -0.417 N 
HETATM   11  H   UNK N   1      24.972  24.395  -7.762  0.00  0.00     0.153 HD
BRANCH  10  12
HETATM   12  C   UNK N   1      25.575  22.753  -6.414  0.00  0.00     0.110 C 
HETATM   13  C   UNK N   1      25.051  21.775  -7.448  0.00  0.00     0.026 C 
ENDBRANCH  10  12
ENDBRANCH   8  10
ENDBRANCH   7   8
ENDBRANCH   3   7
BRANCH   1  14
HETATM   14  C   UNK N   1      28.707  29.595  -6.648  0.00  0.00     0.417 C 
HETATM   15  F   UNK N   1      28.758  30.976  -6.617  0.00  0.00    -0.166 F 
HETATM   16  F   UNK N   1      29.923  29.095  -6.209  0.00  0.00    -0.166 F 
HETATM   17  F   UNK N   1      28.501  29.177  -7.949  0.00  0.00    -0.166 F 
ENDBRANCH   1  14
TORSDOF 5
ENDMDL
MODEL 5
REMARK VINA RESULT:      -5.1     12.665     13.957
REMARK  5 active torsions:
REMARK  status: ('A' for Active; 'I' for Inactive)
REMARK    1  A    between atoms: C_2  and  C_1 
REMARK    2  A    between atoms: C_7  and  C_4 
REMARK    3  A    between atoms: C_10  and  C_7 
REMARK    4  A    between atoms: C_10  and  N_8 
REMARK    5  A    between atoms: N_8  and  C_15 
ROOT
HETATM    1  C   UNK N   1      29.650  24.017  -3.324  0.00  0.00     0.048 A 
HETATM    2  C   UNK N   1      28.270  24.274  -3.383  0.00  0.00     0.023 A 
HETATM    3  C   UNK N   1      27.789  25.406  -4.054  0.00  0.00    -0.056 A 
HETATM    4  C   UNK N   1      30.542  24.895  -3.954  0.00  0.00     0.016 A 
HETATM    5  C   UNK N   1      30.066  26.023  -4.623  0.00  0.00     0.001 A 
HETATM    6  C   UNK N   1      28.696  26.283  -4.661  0.00  0.00     0.007 A 
ENDROOT
BRANCH   3   7
HETATM    7  C   UNK N   1      26.319  25.697  -4.065  0.00  0.00     0.062 C 
BRANCH   7   8
HETATM    8  C   UNK N   1      25.993  27.096  -4.583  0.00  0.00     0.076 C 
HETATM    9  C   UNK N   1      24.838  27.000  -5.557  0.00  0.00     0.032 C 
BRANCH   8  10
HETATM   10  N   UNK N   1      25.588  27.954  -3.473  0.00  0.00    -0.417 N 
HETATM   11  H   UNK N   1      24.744  27.834  -2.914  0.00  0.00     0.153 HD
BRANCH  10  12
HETATM   12  C   UNK N   1      26.578  29.007  -3.290  0.00  0.00     0.110 C 
HETATM   13  C   UNK N   1      26.940  29.628  -4.626  0.00  0.00     0.026 C 
ENDBRANCH  10  12
ENDBRANCH   8  10
ENDBRANCH   7   8
ENDBRANCH   3   7
BRANCH   1  14
HETATM   14  C   UNK N   1      30.163  22.824  -2.569  0.00  0.00     0.417 C 
HETATM   15  F   UNK N   1      29.709  21.662  -3.164  0.00  0.00    -0.166 F 
HETATM   16  F   UNK N   1      31.548  22.804  -2.554  0.00  0.00    -0.166 F 
HETATM   17  F   UNK N   1      29.707  22.875  -1.265  0.00  0.00    -0.166 F 
ENDBRANCH   1  14
TORSDOF 5
ENDMDL
MODEL 6
REMARK VINA RESULT:      -5.1     13.785     15.238
REMARK  5 active torsions:
REMARK  status: ('A' for Active; 'I' for Inactive)
REMARK    1  A    between atoms: C_2  and  C_1 
REMARK    2  A    between atoms: C_7  and  C_4 
REMARK    3  A    between atoms: C_10  and  C_7 
REMARK    4  A    between atoms: C_10  and  N_8 
REMARK    5  A    between atoms: N_8  and  C_15 
ROOT
HETATM    1  C   UNK N   1      27.301  24.620  -4.234  0.00  0.00     0.048 A 
HETATM    2  C   UNK N   1      26.873  25.907  -3.870  0.00  0.00     0.023 A 
HETATM    3  C   UNK N   1      25.878  26.557  -4.611  0.00  0.00    -0.056 A 
HETATM    4  C   UNK N   1      26.716  23.985  -5.337  0.00  0.00     0.016 A 
HETATM    5  C   UNK N   1      25.724  24.630  -6.077  0.00  0.00     0.001 A 
HETATM    6  C   UNK N   1      25.317  25.916  -5.722  0.00  0.00     0.007 A 
ENDROOT
BRANCH   3   7
HETATM    7  C   UNK N   1      25.467  27.951  -4.244  0.00  0.00     0.062 C 
BRANCH   7   8
HETATM    8  C   UNK N   1      26.654  28.900  -4.089  0.00  0.00     0.076 C 
HETATM    9  C   UNK N   1      27.244  29.172  -5.457  0.00  0.00     0.032 C 
BRANCH   8  10
HETATM   10  N   UNK N   1      26.204  30.168  -3.522  0.00  0.00    -0.417 N 
HETATM   11  H   UNK N   1      25.262  30.548  -3.603  0.00  0.00     0.153 HD
BRANCH  10  12
HETATM   12  C   UNK N   1      27.312  30.805  -2.823  0.00  0.00     0.110 C 
HETATM   13  C   UNK N   1      27.956  29.828  -1.857  0.00  0.00     0.026 C 
ENDBRANCH  10  12
ENDBRANCH   8  10
ENDBRANCH   7   8
ENDBRANCH   3   7
BRANCH   1  14
HETATM   14  C   UNK N   1      28.397  23.943  -3.461  0.00  0.00     0.417 C 
HETATM   15  F   UNK N   1      27.901  23.470  -2.261  0.00  0.00    -0.166 F 
HETATM   16  F   UNK N   1      28.926  22.879  -4.175  0.00  0.00    -0.166 F 
HETATM   17  F   UNK N   1      29.409  24.851  -3.208  0.00  0.00    -0.166 F 
ENDBRANCH   1  14
TORSDOF 5
ENDMDL
MODEL 7
REMARK VINA RESULT:      -5.1      1.913      3.582
REMARK  5 active torsions:
REMARK  status: ('A' for Active; 'I' for Inactive)
REMARK    1  A    between atoms: C_2  and  C_1 
REMARK    2  A    between atoms: C_7  and  C_4 
REMARK    3  A    between atoms: C_10  and  C_7 
REMARK    4  A    between atoms: C_10  and  N_8 
REMARK    5  A    between atoms: N_8  and  C_15 
ROOT
HETATM    1  C   UNK N   1      30.822  17.740   7.991  0.00  0.00     0.048 A 
HETATM    2  C   UNK N   1      29.830  17.323   7.087  0.00  0.00     0.023 A 
HETATM    3  C   UNK N   1      28.475  17.479   7.404  0.00  0.00    -0.056 A 
HETATM    4  C   UNK N   1      30.445  18.327   9.206  0.00  0.00     0.016 A 
HETATM    5  C   UNK N   1      29.096  18.484   9.524  0.00  0.00     0.001 A 
HETATM    6  C   UNK N   1      28.116  18.049   8.631  0.00  0.00     0.007 A 
ENDROOT
BRANCH   3   7
HETATM    7  C   UNK N   1      27.426  16.982   6.455  0.00  0.00     0.062 C 
BRANCH   7   8
HETATM    8  C   UNK N   1      27.162  17.947   5.301  0.00  0.00     0.076 C 
HETATM    9  C   UNK N   1      26.669  17.157   4.106  0.00  0.00     0.032 C 
BRANCH   8  10
HETATM   10  N   UNK N   1      26.126  18.902   5.680  0.00  0.00    -0.417 N 
HETATM   11  H   UNK N   1      25.237  18.663   6.119  0.00  0.00     0.153 HD
BRANCH  10  12
HETATM   12  C   UNK N   1      26.559  20.248   5.334  0.00  0.00     0.110 C 
HETATM   13  C   UNK N   1      26.933  21.019   6.586  0.00  0.00     0.026 C 
ENDBRANCH  10  12
ENDBRANCH   8  10
ENDBRANCH   7   8
ENDBRANCH   3   7
BRANCH   1  14
HETATM   14  C   UNK N   1      32.274  17.533   7.664  0.00  0.00     0.417 C 
HETATM   15  F   UNK N   1      32.700  16.320   8.168  0.00  0.00    -0.166 F 
HETATM   16  F   UNK N   1      32.481  17.543   6.293  0.00  0.00    -0.166 F 
HETATM   17  F   UNK N   1      33.021  18.549   8.230  0.00  0.00    -0.166 F 
ENDBRANCH   1  14
TORSDOF 5
ENDMDL
MODEL 8
REMARK VINA RESULT:      -5.0     13.348     14.795
REMARK  5 active torsions:
REMARK  status: ('A' for Active; 'I' for Inactive)
REMARK    1  A    between atoms: C_2  and  C_1 
REMARK    2  A    between atoms: C_7  and  C_4 
REMARK    3  A    between atoms: C_10  and  C_7 
REMARK    4  A    between atoms: C_10  and  N_8 
REMARK    5  A    between atoms: N_8  and  C_15 
ROOT
HETATM    1  C   UNK N   1      35.248  12.018  17.890  0.00  0.00     0.048 A 
HETATM    2  C   UNK N   1      34.954  11.792  19.246  0.00  0.00     0.023 A 
HETATM    3  C   UNK N   1      34.992  10.494  19.770  0.00  0.00    -0.056 A 
HETATM    4  C   UNK N   1      35.592  10.936  17.070  0.00  0.00     0.016 A 
HETATM    5  C   UNK N   1      35.631   9.641  17.589  0.00  0.00     0.001 A 
HETATM    6  C   UNK N   1      35.319   9.422  18.932  0.00  0.00     0.007 A 
ENDROOT
BRANCH   3   7
HETATM    7  C   UNK N   1      34.625  10.259  21.204  0.00  0.00     0.062 C 
BRANCH   7   8
HETATM    8  C   UNK N   1      33.145  10.507  21.488  0.00  0.00     0.076 C 
HETATM    9  C   UNK N   1      32.439   9.172  21.609  0.00  0.00     0.032 C 
BRANCH   8  10
HETATM   10  N   UNK N   1      32.995  11.222  22.751  0.00  0.00    -0.417 N 
HETATM   11  H   UNK N   1      33.120  12.226  22.879  0.00  0.00     0.153 HD
BRANCH  10  12
HETATM   12  C   UNK N   1      32.639  10.278  23.802  0.00  0.00     0.110 C 
HETATM   13  C   UNK N   1      33.405  10.591  25.073  0.00  0.00     0.026 C 
ENDBRANCH  10  12
ENDBRANCH   8  10
ENDBRANCH   7   8
ENDBRANCH   3   7
BRANCH   1  14
HETATM   14  C   UNK N   1      35.167  13.407  17.323  0.00  0.00     0.417 C 
HETATM   15  F   UNK N   1      35.128  14.331  18.350  0.00  0.00    -0.166 F 
HETATM   16  F   UNK N   1      36.263  13.681  16.520  0.00  0.00    -0.166 F 
HETATM   17  F   UNK N   1      34.021  13.526  16.561  0.00  0.00    -0.166 F 
ENDBRANCH   1  14
TORSDOF 5
ENDMDL
MODEL 9
REMARK VINA RESULT:      -5.0      2.962      4.572
REMARK  5 active torsions:
REMARK  status: ('A' for Active; 'I' for Inactive)
REMARK    1  A    between atoms: C_2  and  C_1 
REMARK    2  A    between atoms: C_7  and  C_4 
REMARK    3  A    between atoms: C_10  and  C_7 
REMARK    4  A    between atoms: C_10  and  N_8 
REMARK    5  A    between atoms: N_8  and  C_15 
ROOT
HETATM    1  C   UNK N   1      30.299  17.822   8.390  0.00  0.00     0.048 A 
HETATM    2  C   UNK N   1      30.008  17.152   7.190  0.00  0.00     0.023 A 
HETATM    3  C   UNK N   1      31.042  16.768   6.326  0.00  0.00    -0.056 A 
HETATM    4  C   UNK N   1      31.634  18.091   8.723  0.00  0.00     0.016 A 
HETATM    5  C   UNK N   1      32.665  17.709   7.865  0.00  0.00     0.001 A 
HETATM    6  C   UNK N   1      32.368  17.062   6.665  0.00  0.00     0.007 A 
ENDROOT
BRANCH   3   7
HETATM    7  C   UNK N   1      30.715  16.102   5.024  0.00  0.00     0.062 C 
BRANCH   7   8
HETATM    8  C   UNK N   1      30.672  17.078   3.850  0.00  0.00     0.076 C 
HETATM    9  C   UNK N   1      31.929  16.905   3.023  0.00  0.00     0.032 C 
BRANCH   8  10
HETATM   10  N   UNK N   1      29.521  16.783   3.002  0.00  0.00    -0.417 N 
HETATM   11  H   UNK N   1      29.565  16.533   2.015  0.00  0.00     0.153 HD
BRANCH  10  12
HETATM   12  C   UNK N   1      28.300  16.903   3.786  0.00  0.00     0.110 C 
HETATM   13  C   UNK N   1      28.048  18.354   4.151  0.00  0.00     0.026 C 
ENDBRANCH  10  12
ENDBRANCH   8  10
ENDBRANCH   7   8
ENDBRANCH   3   7
BRANCH   1  14
HETATM   14  C   UNK N   1      29.185  18.268   9.294  0.00  0.00     0.417 C 
HETATM   15  F   UNK N   1      28.277  19.026   8.579  0.00  0.00    -0.166 F 
HETATM   16  F   UNK N   1      28.523  17.180   9.840  0.00  0.00    -0.166 F 
HETATM   17  F   UNK N   1      29.705  19.031  10.322  0.00  0.00    -0.166 F 
ENDBRANCH   1  14
TORSDOF 5
ENDMDL
