MODEL 1
REMARK VINA RESULT:      -6.8      0.000      0.000
REMARK  6 active torsions:
REMARK  status: ('A' for Active; 'I' for Inactive)
REMARK       I    between atoms: N_2  and  C_1 
REMARK    1  A    between atoms: C_4  and  C_1 
REMARK    2  A    between atoms: C_3  and  N_2 
REMARK    3  A    between atoms: C_7  and  C_6 
REMARK    4  A    between atoms: C_7  and  C_19 
REMARK    5  A    between atoms: O_13  and  C_10 
REMARK    6  A    between atoms: C_21  and  C_19 
ROOT
HETATM    1  C   UNK N   1      27.093  28.491  -5.959  0.00  0.00     0.041 A 
HETATM    2  C   UNK N   1      27.033  27.612  -7.056  0.00  0.00    -0.031 A 
HETATM    3  C   UNK N   1      28.077  29.498  -5.948  0.00  0.00     0.030 A 
HETATM    4  C   UNK N   1      27.985  27.701  -8.077  0.00  0.00     0.009 A 
HETATM    5  C   UNK N   1      29.019  29.586  -6.972  0.00  0.00     0.002 A 
HETATM    6  C   UNK N   1      28.982  28.678  -8.030  0.00  0.00     0.001 A 
ENDROOT
BRANCH   1   7
HETATM    7  N   UNK N   1      26.134  28.394  -4.905  0.00  0.00    -0.322 N 
HETATM    8  C   UNK N   1      26.214  27.576  -3.811  0.00  0.00     0.256 C 
HETATM    9  O   UNK N   1      25.484  27.803  -2.861  0.00  0.00    -0.267 OA
HETATM   10  H   UNK N   1      25.338  28.971  -4.973  0.00  0.00     0.169 HD
BRANCH   8  11
HETATM   11  C   UNK N   1      27.149  26.412  -3.736  0.00  0.00     0.032 A 
HETATM   12  C   UNK N   1      26.677  25.114  -3.498  0.00  0.00     0.020 A 
HETATM   13  C   UNK N   1      27.542  24.026  -3.496  0.00  0.00     0.038 A 
HETATM   14  C   UNK N   1      28.913  24.218  -3.718  0.00  0.00     0.068 A 
HETATM   15  C   UNK N   1      29.404  25.517  -3.894  0.00  0.00     0.038 A 
HETATM   16  C   UNK N   1      28.529  26.611  -3.893  0.00  0.00     0.020 A 
BRANCH  14  17
HETATM   17  O   UNK N   1      29.769  23.171  -3.777  0.00  0.00    -0.356 OA
HETATM   18  C   UNK N   1      30.963  23.138  -3.091  0.00  0.00     0.210 C 
ENDBRANCH  14  17
ENDBRANCH   8  11
ENDBRANCH   1   7
BRANCH   2  19
HETATM   19  C   UNK N   1      25.958  26.585  -7.152  0.00  0.00     0.043 C 
BRANCH  19  20
HETATM   20  C   UNK N   1      26.084  25.892  -8.496  0.00  0.00     0.040 C 
BRANCH  20  21
HETATM   21  C   UNK N   1      26.314  24.403  -8.312  0.00  0.00     0.223 C 
HETATM   22  N   UNK N   1      25.598  23.646  -9.351  0.00  0.00     0.088 N 
HETATM   23  C   UNK N   1      26.204  23.939 -10.643  0.00  0.00     0.310 C 
HETATM   24  C   UNK N   1      25.791  22.212  -9.139  0.00  0.00     0.272 C 
HETATM   25  C   UNK N   1      25.195  21.787  -7.803  0.00  0.00     0.030 C 
HETATM   26  C   UNK N   1      25.902  22.539  -6.684  0.00  0.00     0.004 C 
HETATM   27  C   UNK N   1      25.786  24.038  -6.922  0.00  0.00     0.036 C 
ENDBRANCH  20  21
ENDBRANCH  19  20
ENDBRANCH   2  19
TORSDOF 6
ENDMDL
MODEL 2
REMARK VINA RESULT:      -6.7      2.492      5.107
REMARK  6 active torsions:
REMARK  status: ('A' for Active; 'I' for Inactive)
REMARK       I    between atoms: N_2  and  C_1 
REMARK    1  A    between atoms: C_4  and  C_1 
REMARK    2  A    between atoms: C_3  and  N_2 
REMARK    3  A    between atoms: C_7  and  C_6 
REMARK    4  A    between atoms: C_7  and  C_19 
REMARK    5  A    between atoms: O_13  and  C_10 
REMARK    6  A    between atoms: C_21  and  C_19 
ROOT
HETATM    1  C   UNK N   1      27.694  26.832  -4.706  0.00  0.00     0.041 A 
HETATM    2  C   UNK N   1      29.087  26.994  -4.813  0.00  0.00    -0.031 A 
HETATM    3  C   UNK N   1      26.862  27.450  -5.661  0.00  0.00     0.030 A 
HETATM    4  C   UNK N   1      29.623  27.815  -5.812  0.00  0.00     0.009 A 
HETATM    5  C   UNK N   1      27.403  28.261  -6.658  0.00  0.00     0.002 A 
HETATM    6  C   UNK N   1      28.782  28.455  -6.725  0.00  0.00     0.001 A 
ENDROOT
BRANCH   1   7
HETATM    7  N   UNK N   1      27.141  26.010  -3.679  0.00  0.00    -0.322 N 
HETATM    8  C   UNK N   1      26.943  24.657  -3.744  0.00  0.00     0.256 C 
HETATM    9  O   UNK N   1      26.740  24.049  -2.707  0.00  0.00    -0.267 OA
HETATM   10  H   UNK N   1      26.877  26.459  -2.843  0.00  0.00     0.169 HD
BRANCH   8  11
HETATM   11  C   UNK N   1      26.953  23.897  -5.031  0.00  0.00     0.032 A 
HETATM   12  C   UNK N   1      28.148  23.413  -5.581  0.00  0.00     0.020 A 
HETATM   13  C   UNK N   1      28.144  22.650  -6.743  0.00  0.00     0.038 A 
HETATM   14  C   UNK N   1      26.935  22.366  -7.393  0.00  0.00     0.068 A 
HETATM   15  C   UNK N   1      25.743  22.897  -6.887  0.00  0.00     0.038 A 
HETATM   16  C   UNK N   1      25.751  23.668  -5.718  0.00  0.00     0.020 A 
BRANCH  14  17
HETATM   17  O   UNK N   1      26.897  21.579  -8.494  0.00  0.00    -0.356 OA
HETATM   18  C   UNK N   1      25.735  21.307  -9.182  0.00  0.00     0.210 C 
ENDBRANCH  14  17
ENDBRANCH   8  11
ENDBRANCH   1   7
BRANCH   2  19
HETATM   19  C   UNK N   1      30.010  26.293  -3.877  0.00  0.00     0.043 C 
BRANCH  19  20
HETATM   20  C   UNK N   1      31.142  25.691  -4.690  0.00  0.00     0.040 C 
BRANCH  20  21
HETATM   21  C   UNK N   1      31.535  24.334  -4.139  0.00  0.00     0.223 C 
HETATM   22  N   UNK N   1      31.541  23.330  -5.215  0.00  0.00     0.088 N 
HETATM   23  C   UNK N   1      32.611  23.655  -6.149  0.00  0.00     0.310 C 
HETATM   24  C   UNK N   1      31.880  22.018  -4.665  0.00  0.00     0.272 C 
HETATM   25  C   UNK N   1      30.824  21.573  -3.661  0.00  0.00     0.030 C 
HETATM   26  C   UNK N   1      30.773  22.576  -2.518  0.00  0.00     0.004 C 
HETATM   27  C   UNK N   1      30.502  23.969  -3.069  0.00  0.00     0.036 C 
ENDBRANCH  20  21
ENDBRANCH  19  20
ENDBRANCH   2  19
TORSDOF 6
ENDMDL
MODEL 3
REMARK VINA RESULT:      -6.7     12.955     16.605
REMARK  6 active torsions:
REMARK  status: ('A' for Active; 'I' for Inactive)
REMARK       I    between atoms: N_2  and  C_1 
REMARK    1  A    between atoms: C_4  and  C_1 
REMARK    2  A    between atoms: C_3  and  N_2 
REMARK    3  A    between atoms: C_7  and  C_6 
REMARK    4  A    between atoms: C_7  and  C_19 
REMARK    5  A    between atoms: O_13  and  C_10 
REMARK    6  A    between atoms: C_21  and  C_19 
ROOT
HETATM    1  C   UNK N   1      30.697  15.940   4.516  0.00  0.00     0.041 A 
HETATM    2  C   UNK N   1      31.639  16.309   5.494  0.00  0.00    -0.031 A 
HETATM    3  C   UNK N   1      30.983  16.204   3.163  0.00  0.00     0.030 A 
HETATM    4  C   UNK N   1      32.804  16.990   5.122  0.00  0.00     0.009 A 
HETATM    5  C   UNK N   1      32.149  16.877   2.798  0.00  0.00     0.002 A 
HETATM    6  C   UNK N   1      33.053  17.283   3.779  0.00  0.00     0.001 A 
ENDROOT
BRANCH   1   7
HETATM    7  N   UNK N   1      29.499  15.260   4.892  0.00  0.00    -0.322 N 
HETATM    8  C   UNK N   1      28.272  15.833   5.090  0.00  0.00     0.256 C 
HETATM    9  O   UNK N   1      27.291  15.109   5.121  0.00  0.00    -0.267 OA
HETATM   10  H   UNK N   1      29.563  14.286   5.022  0.00  0.00     0.169 HD
BRANCH   8  11
HETATM   11  C   UNK N   1      28.085  17.303   5.282  0.00  0.00     0.032 A 
HETATM   12  C   UNK N   1      27.860  18.156   4.193  0.00  0.00     0.020 A 
HETATM   13  C   UNK N   1      27.620  19.513   4.383  0.00  0.00     0.038 A 
HETATM   14  C   UNK N   1      27.615  20.051   5.677  0.00  0.00     0.068 A 
HETATM   15  C   UNK N   1      27.900  19.220   6.767  0.00  0.00     0.038 A 
HETATM   16  C   UNK N   1      28.145  17.854   6.571  0.00  0.00     0.020 A 
BRANCH  14  17
HETATM   17  O   UNK N   1      27.328  21.356   5.895  0.00  0.00    -0.356 OA
HETATM   18  C   UNK N   1      26.388  21.775   6.811  0.00  0.00     0.210 C 
ENDBRANCH  14  17
ENDBRANCH   8  11
ENDBRANCH   1   7
BRANCH   2  19
HETATM   19  C   UNK N   1      31.420  15.977   6.929  0.00  0.00     0.043 C 
BRANCH  19  20
HETATM   20  C   UNK N   1      31.818  17.182   7.761  0.00  0.00     0.040 C 
BRANCH  20  21
HETATM   21  C   UNK N   1      32.790  16.781   8.855  0.00  0.00     0.223 C 
HETATM   22  N   UNK N   1      34.175  16.986   8.404  0.00  0.00     0.088 N 
HETATM   23  C   UNK N   1      34.404  18.415   8.235  0.00  0.00     0.310 C 
HETATM   24  C   UNK N   1      35.104  16.556   9.449  0.00  0.00     0.272 C 
HETATM   25  C   UNK N   1      34.950  15.064   9.717  0.00  0.00     0.030 C 
HETATM   26  C   UNK N   1      33.530  14.791  10.191  0.00  0.00     0.004 C 
HETATM   27  C   UNK N   1      32.537  15.301   9.158  0.00  0.00     0.036 C 
ENDBRANCH  20  21
ENDBRANCH  19  20
ENDBRANCH   2  19
TORSDOF 6
ENDMDL
MODEL 4
REMARK VINA RESULT:      -6.6      2.946      5.904
REMARK  6 active torsions:
REMARK  status: ('A' for Active; 'I' for Inactive)
REMARK       I    between atoms: N_2  and  C_1 
REMARK    1  A    between atoms: C_4  and  C_1 
REMARK    2  A    between atoms: C_3  and  N_2 
REMARK    3  A    between atoms: C_7  and  C_6 
REMARK    4  A    between atoms: C_7  and  C_19 
REMARK    5  A    between atoms: O_13  and  C_10 
REMARK    6  A    between atoms: C_21  and  C_19 
ROOT
HETATM    1  C   UNK N   1      25.525  25.502  -5.127  0.00  0.00     0.041 A 
HETATM    2  C   UNK N   1      26.339  25.558  -3.980  0.00  0.00    -0.031 A 
HETATM    3  C   UNK N   1      24.943  26.692  -5.606  0.00  0.00     0.030 A 
HETATM    4  C   UNK N   1      26.501  26.767  -3.295  0.00  0.00     0.009 A 
HETATM    5  C   UNK N   1      25.114  27.895  -4.923  0.00  0.00     0.002 A 
HETATM    6  C   UNK N   1      25.882  27.930  -3.759  0.00  0.00     0.001 A 
ENDROOT
BRANCH   1   7
HETATM    7  N   UNK N   1      25.342  24.267  -5.820  0.00  0.00    -0.322 N 
HETATM    8  C   UNK N   1      25.922  23.912  -7.007  0.00  0.00     0.256 C 
HETATM    9  O   UNK N   1      25.908  22.736  -7.331  0.00  0.00    -0.267 OA
HETATM   10  H   UNK N   1      24.739  23.608  -5.403  0.00  0.00     0.169 HD
BRANCH   8  11
HETATM   11  C   UNK N   1      26.559  24.903  -7.927  0.00  0.00     0.032 A 
HETATM   12  C   UNK N   1      25.908  25.344  -9.086  0.00  0.00     0.020 A 
HETATM   13  C   UNK N   1      26.476  26.316  -9.902  0.00  0.00     0.038 A 
HETATM   14  C   UNK N   1      27.727  26.860  -9.580  0.00  0.00     0.068 A 
HETATM   15  C   UNK N   1      28.415  26.382  -8.458  0.00  0.00     0.038 A 
HETATM   16  C   UNK N   1      27.840  25.400  -7.641  0.00  0.00     0.020 A 
BRANCH  14  17
HETATM   17  O   UNK N   1      28.277  27.847 -10.325  0.00  0.00    -0.356 OA
HETATM   18  C   UNK N   1      28.720  27.655 -11.616  0.00  0.00     0.210 C 
ENDBRANCH  14  17
ENDBRANCH   8  11
ENDBRANCH   1   7
BRANCH   2  19
HETATM   19  C   UNK N   1      27.042  24.343  -3.485  0.00  0.00     0.043 C 
BRANCH  19  20
HETATM   20  C   UNK N   1      28.461  24.364  -4.021  0.00  0.00     0.040 C 
BRANCH  20  21
HETATM   21  C   UNK N   1      29.001  22.954  -4.170  0.00  0.00     0.223 C 
HETATM   22  N   UNK N   1      30.288  22.826  -3.468  0.00  0.00     0.088 N 
HETATM   23  C   UNK N   1      30.055  22.965  -2.036  0.00  0.00     0.310 C 
HETATM   24  C   UNK N   1      30.819  21.476  -3.653  0.00  0.00     0.272 C 
HETATM   25  C   UNK N   1      31.100  21.212  -5.127  0.00  0.00     0.030 C 
HETATM   26  C   UNK N   1      29.799  21.329  -5.907  0.00  0.00     0.004 C 
HETATM   27  C   UNK N   1      29.179  22.699  -5.669  0.00  0.00     0.036 C 
ENDBRANCH  20  21
ENDBRANCH  19  20
ENDBRANCH   2  19
TORSDOF 6
ENDMDL
MODEL 5
REMARK VINA RESULT:      -6.5      2.442      5.172
REMARK  6 active torsions:
REMARK  status: ('A' for Active; 'I' for Inactive)
REMARK       I    between atoms: N_2  and  C_1 
REMARK    1  A    between atoms: C_4  and  C_1 
REMARK    2  A    between atoms: C_3  and  N_2 
REMARK    3  A    between atoms: C_7  and  C_6 
REMARK    4  A    between atoms: C_7  and  C_19 
REMARK    5  A    between atoms: O_13  and  C_10 
REMARK    6  A    between atoms: C_21  and  C_19 
ROOT
HETATM    1  C   UNK N   1      25.819  24.609  -8.786  0.00  0.00     0.041 A 
HETATM    2  C   UNK N   1      26.125  25.698  -7.948  0.00  0.00    -0.031 A 
HETATM    3  C   UNK N   1      26.446  24.522 -10.044  0.00  0.00     0.030 A 
HETATM    4  C   UNK N   1      26.982  26.708  -8.399  0.00  0.00     0.009 A 
HETATM    5  C   UNK N   1      27.304  25.529 -10.484  0.00  0.00     0.002 A 
HETATM    6  C   UNK N   1      27.562  26.629  -9.667  0.00  0.00     0.001 A 
ENDROOT
BRANCH   1   7
HETATM    7  N   UNK N   1      24.932  23.584  -8.338  0.00  0.00    -0.322 N 
HETATM    8  C   UNK N   1      25.283  22.451  -7.655  0.00  0.00     0.256 C 
HETATM    9  O   UNK N   1      24.407  21.819  -7.090  0.00  0.00    -0.267 OA
HETATM   10  H   UNK N   1      23.975  23.704  -8.541  0.00  0.00     0.169 HD
BRANCH   8  11
HETATM   11  C   UNK N   1      26.689  21.951  -7.583  0.00  0.00     0.032 A 
HETATM   12  C   UNK N   1      27.638  22.564  -6.755  0.00  0.00     0.020 A 
HETATM   13  C   UNK N   1      28.927  22.053  -6.641  0.00  0.00     0.038 A 
HETATM   14  C   UNK N   1      29.300  20.918  -7.373  0.00  0.00     0.068 A 
HETATM   15  C   UNK N   1      28.379  20.335  -8.252  0.00  0.00     0.038 A 
HETATM   16  C   UNK N   1      27.083  20.854  -8.365  0.00  0.00     0.020 A 
BRANCH  14  17
HETATM   17  O   UNK N   1      30.529  20.367  -7.239  0.00  0.00    -0.356 OA
HETATM   18  C   UNK N   1      31.190  20.293  -6.032  0.00  0.00     0.210 C 
ENDBRANCH  14  17
ENDBRANCH   8  11
ENDBRANCH   1   7
BRANCH   2  19
HETATM   19  C   UNK N   1      25.552  25.790  -6.577  0.00  0.00     0.043 C 
BRANCH  19  20
HETATM   20  C   UNK N   1      26.315  26.858  -5.815  0.00  0.00     0.040 C 
BRANCH  20  21
HETATM   21  C   UNK N   1      27.075  26.248  -4.653  0.00  0.00     0.223 C 
HETATM   22  N   UNK N   1      28.456  25.938  -5.056  0.00  0.00     0.088 N 
HETATM   23  C   UNK N   1      29.157  27.187  -5.319  0.00  0.00     0.310 C 
HETATM   24  C   UNK N   1      29.168  25.312  -3.942  0.00  0.00     0.272 C 
HETATM   25  C   UNK N   1      28.514  23.986  -3.571  0.00  0.00     0.030 C 
HETATM   26  C   UNK N   1      27.078  24.245  -3.142  0.00  0.00     0.004 C 
HETATM   27  C   UNK N   1      26.333  24.970  -4.253  0.00  0.00     0.036 C 
ENDBRANCH  20  21
ENDBRANCH  19  20
ENDBRANCH   2  19
TORSDOF 6
ENDMDL
MODEL 6
REMARK VINA RESULT:      -6.5      2.040      2.903
REMARK  6 active torsions:
REMARK  status: ('A' for Active; 'I' for Inactive)
REMARK       I    between atoms: N_2  and  C_1 
REMARK    1  A    between atoms: C_4  and  C_1 
REMARK    2  A    between atoms: C_3  and  N_2 
REMARK    3  A    between atoms: C_7  and  C_6 
REMARK    4  A    between atoms: C_7  and  C_19 
REMARK    5  A    between atoms: O_13  and  C_10 
REMARK    6  A    between atoms: C_21  and  C_19 
ROOT
HETATM    1  C   UNK N   1      25.948  26.653  -6.023  0.00  0.00     0.041 A 
HETATM    2  C   UNK N   1      27.120  27.261  -6.511  0.00  0.00    -0.031 A 
HETATM    3  C   UNK N   1      25.192  27.324  -5.043  0.00  0.00     0.030 A 
HETATM    4  C   UNK N   1      27.555  28.477  -5.971  0.00  0.00     0.009 A 
HETATM    5  C   UNK N   1      25.627  28.538  -4.513  0.00  0.00     0.002 A 
HETATM    6  C   UNK N   1      26.816  29.108  -4.968  0.00  0.00     0.001 A 
ENDROOT
BRANCH   1   7
HETATM    7  N   UNK N   1      25.509  25.405  -6.559  0.00  0.00    -0.322 N 
HETATM    8  C   UNK N   1      25.808  24.163  -6.067  0.00  0.00     0.256 C 
HETATM    9  O   UNK N   1      25.141  23.214  -6.440  0.00  0.00    -0.267 OA
HETATM   10  H   UNK N   1      24.937  25.440  -7.360  0.00  0.00     0.169 HD
BRANCH   8  11
HETATM   11  C   UNK N   1      26.924  23.921  -5.102  0.00  0.00     0.032 A 
HETATM   12  C   UNK N   1      28.192  23.517  -5.542  0.00  0.00     0.020 A 
HETATM   13  C   UNK N   1      29.244  23.358  -4.647  0.00  0.00     0.038 A 
HETATM   14  C   UNK N   1      29.043  23.586  -3.279  0.00  0.00     0.068 A 
HETATM   15  C   UNK N   1      27.766  23.929  -2.821  0.00  0.00     0.038 A 
HETATM   16  C   UNK N   1      26.707  24.085  -3.726  0.00  0.00     0.020 A 
BRANCH  14  17
HETATM   17  O   UNK N   1      30.063  23.494  -2.394  0.00  0.00    -0.356 OA
HETATM   18  C   UNK N   1      31.119  22.623  -2.554  0.00  0.00     0.210 C 
ENDBRANCH  14  17
ENDBRANCH   8  11
ENDBRANCH   1   7
BRANCH   2  19
HETATM   19  C   UNK N   1      27.907  26.630  -7.606  0.00  0.00     0.043 C 
BRANCH  19  20
HETATM   20  C   UNK N   1      27.179  26.876  -8.915  0.00  0.00     0.040 C 
BRANCH  20  21
HETATM   21  C   UNK N   1      27.188  25.628  -9.777  0.00  0.00     0.223 C 
HETATM   22  N   UNK N   1      25.823  25.095  -9.914  0.00  0.00     0.088 N 
HETATM   23  C   UNK N   1      25.026  26.045 -10.679  0.00  0.00     0.310 C 
HETATM   24  C   UNK N   1      25.849  23.868 -10.710  0.00  0.00     0.272 C 
HETATM   25  C   UNK N   1      26.666  22.793 -10.005  0.00  0.00     0.030 C 
HETATM   26  C   UNK N   1      28.094  23.289  -9.836  0.00  0.00     0.004 C 
HETATM   27  C   UNK N   1      28.094  24.609  -9.079  0.00  0.00     0.036 C 
ENDBRANCH  20  21
ENDBRANCH  19  20
ENDBRANCH   2  19
TORSDOF 6
ENDMDL
MODEL 7
REMARK VINA RESULT:      -6.4     12.532     15.427
REMARK  6 active torsions:
REMARK  status: ('A' for Active; 'I' for Inactive)
REMARK       I    between atoms: N_2  and  C_1 
REMARK    1  A    between atoms: C_4  and  C_1 
REMARK    2  A    between atoms: C_3  and  N_2 
REMARK    3  A    between atoms: C_7  and  C_6 
REMARK    4  A    between atoms: C_7  and  C_19 
REMARK    5  A    between atoms: O_13  and  C_10 
REMARK    6  A    between atoms: C_21  and  C_19 
ROOT
HETATM    1  C   UNK N   1      27.291  18.762   4.686  0.00  0.00     0.041 A 
HETATM    2  C   UNK N   1      27.831  18.556   5.969  0.00  0.00    -0.031 A 
HETATM    3  C   UNK N   1      26.829  20.047   4.341  0.00  0.00     0.030 A 
HETATM    4  C   UNK N   1      27.838  19.599   6.902  0.00  0.00     0.009 A 
HETATM    5  C   UNK N   1      26.845  21.084   5.273  0.00  0.00     0.002 A 
HETATM    6  C   UNK N   1      27.336  20.856   6.558  0.00  0.00     0.001 A 
ENDROOT
BRANCH   1   7
HETATM    7  N   UNK N   1      27.266  17.696   3.737  0.00  0.00    -0.322 N 
HETATM    8  C   UNK N   1      26.212  16.860   3.486  0.00  0.00     0.256 C 
HETATM    9  O   UNK N   1      26.228  16.195   2.464  0.00  0.00    -0.267 OA
HETATM   10  H   UNK N   1      28.087  17.549   3.212  0.00  0.00     0.169 HD
BRANCH   8  11
HETATM   11  C   UNK N   1      25.052  16.717   4.417  0.00  0.00     0.032 A 
HETATM   12  C   UNK N   1      23.917  17.531   4.296  0.00  0.00     0.020 A 
HETATM   13  C   UNK N   1      22.813  17.349   5.121  0.00  0.00     0.038 A 
HETATM   14  C   UNK N   1      22.828  16.350   6.105  0.00  0.00     0.068 A 
HETATM   15  C   UNK N   1      23.980  15.573   6.276  0.00  0.00     0.038 A 
HETATM   16  C   UNK N   1      25.091  15.762   5.444  0.00  0.00     0.020 A 
BRANCH  14  17
HETATM   17  O   UNK N   1      21.746  16.115   6.884  0.00  0.00    -0.356 OA
HETATM   18  C   UNK N   1      20.762  17.053   7.105  0.00  0.00     0.210 C 
ENDBRANCH  14  17
ENDBRANCH   8  11
ENDBRANCH   1   7
BRANCH   2  19
HETATM   19  C   UNK N   1      28.408  17.237   6.351  0.00  0.00     0.043 C 
BRANCH  19  20
HETATM   20  C   UNK N   1      29.680  17.486   7.139  0.00  0.00     0.040 C 
BRANCH  20  21
HETATM   21  C   UNK N   1      30.886  16.941   6.397  0.00  0.00     0.223 C 
HETATM   22  N   UNK N   1      32.127  17.339   7.080  0.00  0.00     0.088 N 
HETATM   23  C   UNK N   1      32.180  16.675   8.376  0.00  0.00     0.310 C 
HETATM   24  C   UNK N   1      33.283  16.845   6.334  0.00  0.00     0.272 C 
HETATM   25  C   UNK N   1      33.330  17.474   4.947  0.00  0.00     0.030 C 
HETATM   26  C   UNK N   1      32.067  17.093   4.188  0.00  0.00     0.004 C 
HETATM   27  C   UNK N   1      30.842  17.524   4.982  0.00  0.00     0.036 C 
ENDBRANCH  20  21
ENDBRANCH  19  20
ENDBRANCH   2  19
TORSDOF 6
ENDMDL
MODEL 8
REMARK VINA RESULT:      -6.4      1.704      4.884
REMARK  6 active torsions:
REMARK  status: ('A' for Active; 'I' for Inactive)
REMARK       I    between atoms: N_2  and  C_1 
REMARK    1  A    between atoms: C_4  and  C_1 
REMARK    2  A    between atoms: C_3  and  N_2 
REMARK    3  A    between atoms: C_7  and  C_6 
REMARK    4  A    between atoms: C_7  and  C_19 
REMARK    5  A    between atoms: O_13  and  C_10 
REMARK    6  A    between atoms: C_21  and  C_19 
ROOT
HETATM    1  C   UNK N   1      25.931  24.268  -6.084  0.00  0.00     0.041 A 
HETATM    2  C   UNK N   1      25.948  25.197  -7.140  0.00  0.00    -0.031 A 
HETATM    3  C   UNK N   1      26.192  22.913  -6.365  0.00  0.00     0.030 A 
HETATM    4  C   UNK N   1      26.150  24.759  -8.454  0.00  0.00     0.009 A 
HETATM    5  C   UNK N   1      26.399  22.484  -7.676  0.00  0.00     0.002 A 
HETATM    6  C   UNK N   1      26.364  23.405  -8.722  0.00  0.00     0.001 A 
ENDROOT
BRANCH   1   7
HETATM    7  N   UNK N   1      25.709  24.707  -4.743  0.00  0.00    -0.322 N 
HETATM    8  C   UNK N   1      26.666  24.894  -3.784  0.00  0.00     0.256 C 
HETATM    9  O   UNK N   1      26.375  25.540  -2.791  0.00  0.00    -0.267 OA
HETATM   10  H   UNK N   1      24.776  24.892  -4.485  0.00  0.00     0.169 HD
BRANCH   8  11
HETATM   11  C   UNK N   1      28.047  24.332  -3.895  0.00  0.00     0.032 A 
HETATM   12  C   UNK N   1      28.905  24.711  -4.937  0.00  0.00     0.020 A 
HETATM   13  C   UNK N   1      30.210  24.237  -4.997  0.00  0.00     0.038 A 
HETATM   14  C   UNK N   1      30.684  23.353  -4.017  0.00  0.00     0.068 A 
HETATM   15  C   UNK N   1      29.816  22.920  -3.008  0.00  0.00     0.038 A 
HETATM   16  C   UNK N   1      28.500  23.398  -2.952  0.00  0.00     0.020 A 
BRANCH  14  17
HETATM   17  O   UNK N   1      31.966  22.921  -4.021  0.00  0.00    -0.356 OA
HETATM   18  C   UNK N   1      32.372  21.768  -3.383  0.00  0.00     0.210 C 
ENDBRANCH  14  17
ENDBRANCH   8  11
ENDBRANCH   1   7
BRANCH   2  19
HETATM   19  C   UNK N   1      25.761  26.651  -6.880  0.00  0.00     0.043 C 
BRANCH  19  20
HETATM   20  C   UNK N   1      27.116  27.328  -6.975  0.00  0.00     0.040 C 
BRANCH  20  21
HETATM   21  C   UNK N   1      27.281  28.355  -5.872  0.00  0.00     0.223 C 
HETATM   22  N   UNK N   1      28.497  28.073  -5.092  0.00  0.00     0.088 N 
HETATM   23  C   UNK N   1      29.658  28.284  -5.946  0.00  0.00     0.310 C 
HETATM   24  C   UNK N   1      28.624  29.044  -4.005  0.00  0.00     0.272 C 
HETATM   25  C   UNK N   1      27.450  28.919  -3.041  0.00  0.00     0.030 C 
HETATM   26  C   UNK N   1      26.159  29.203  -3.794  0.00  0.00     0.004 C 
HETATM   27  C   UNK N   1      26.039  28.259  -4.982  0.00  0.00     0.036 C 
ENDBRANCH  20  21
ENDBRANCH  19  20
ENDBRANCH   2  19
TORSDOF 6
ENDMDL
MODEL 9
REMARK VINA RESULT:      -6.4     28.573     32.779
REMARK  6 active torsions:
REMARK  status: ('A' for Active; 'I' for Inactive)
REMARK       I    between atoms: N_2  and  C_1 
REMARK    1  A    between atoms: C_4  and  C_1 
REMARK    2  A    between atoms: C_3  and  N_2 
REMARK    3  A    between atoms: C_7  and  C_6 
REMARK    4  A    between atoms: C_7  and  C_19 
REMARK    5  A    between atoms: O_13  and  C_10 
REMARK    6  A    between atoms: C_21  and  C_19 
ROOT
HETATM    1  C   UNK N   1      34.020   9.044  21.027  0.00  0.00     0.041 A 
HETATM    2  C   UNK N   1      33.001   9.601  21.820  0.00  0.00    -0.031 A 
HETATM    3  C   UNK N   1      33.665   8.333  19.864  0.00  0.00     0.030 A 
HETATM    4  C   UNK N   1      31.658   9.386  21.488  0.00  0.00     0.009 A 
HETATM    5  C   UNK N   1      32.326   8.128  19.535  0.00  0.00     0.002 A 
HETATM    6  C   UNK N   1      31.322   8.643  20.355  0.00  0.00     0.001 A 
ENDROOT
BRANCH   1   7
HETATM    7  N   UNK N   1      35.391   9.246  21.371  0.00  0.00    -0.322 N 
HETATM    8  C   UNK N   1      36.208  10.234  20.892  0.00  0.00     0.256 C 
HETATM    9  O   UNK N   1      37.252  10.461  21.481  0.00  0.00    -0.267 OA
HETATM   10  H   UNK N   1      35.787   8.613  22.013  0.00  0.00     0.169 HD
BRANCH   8  11
HETATM   11  C   UNK N   1      35.882  11.036  19.674  0.00  0.00     0.032 A 
HETATM   12  C   UNK N   1      36.042  10.504  18.387  0.00  0.00     0.020 A 
HETATM   13  C   UNK N   1      35.673  11.230  17.260  0.00  0.00     0.038 A 
HETATM   14  C   UNK N   1      35.148  12.522  17.398  0.00  0.00     0.068 A 
HETATM   15  C   UNK N   1      35.043  13.088  18.674  0.00  0.00     0.038 A 
HETATM   16  C   UNK N   1      35.418  12.354  19.807  0.00  0.00     0.020 A 
BRANCH  14  17
HETATM   17  O   UNK N   1      34.729  13.229  16.322  0.00  0.00    -0.356 OA
HETATM   18  C   UNK N   1      35.238  13.040  15.055  0.00  0.00     0.210 C 
ENDBRANCH  14  17
ENDBRANCH   8  11
ENDBRANCH   1   7
BRANCH   2  19
HETATM   19  C   UNK N   1      33.330  10.431  23.012  0.00  0.00     0.043 C 
BRANCH  19  20
HETATM   20  C   UNK N   1      33.633   9.498  24.170  0.00  0.00     0.040 C 
BRANCH  20  21
HETATM   21  C   UNK N   1      32.666   9.732  25.315  0.00  0.00     0.223 C 
HETATM   22  N   UNK N   1      31.367   9.105  25.020  0.00  0.00     0.088 N 
HETATM   23  C   UNK N   1      31.542   7.659  24.996  0.00  0.00     0.310 C 
HETATM   24  C   UNK N   1      30.430   9.373  26.111  0.00  0.00     0.272 C 
HETATM   25  C   UNK N   1      30.172  10.870  26.235  0.00  0.00     0.030 C 
HETATM   26  C   UNK N   1      31.485  11.574  26.543  0.00  0.00     0.004 C 
HETATM   27  C   UNK N   1      32.508  11.248  25.465  0.00  0.00     0.036 C 
ENDBRANCH  20  21
ENDBRANCH  19  20
ENDBRANCH   2  19
TORSDOF 6
ENDMDL
