MODEL 1
REMARK VINA RESULT:      -6.8      0.000      0.000
REMARK  7 active torsions:
REMARK  status: ('A' for Active; 'I' for Inactive)
REMARK    1  A    between atoms: C_2  and  O_22 
REMARK    2  A    between atoms: C_10  and  C_7 
REMARK    3  A    between atoms: N_11  and  N_13 
REMARK       I    between atoms: N_13  and  C_14 
REMARK       I    between atoms: C_14  and  N_15 
REMARK       I    between atoms: C_14  and  N_21 
REMARK    4  A    between atoms: N_15  and  C_16 
REMARK    5  A    between atoms: C_16  and  C_17 
REMARK    6  A    between atoms: C_17  and  C_18 
REMARK    7  A    between atoms: C_18  and  C_19 
ROOT
HETATM    1  C   UNK N   1      21.784  16.486   5.282  0.00  0.00     0.120 C 
HETATM    2  N   UNK N   1      21.639  16.680   6.550  0.00  0.00    -0.308 N 
ATOM      3  HN  UNK N   1      22.207  16.156   7.216  1.00  0.00     0.186 HD
ENDROOT
BRANCH   2   4
HETATM    4  N   UNK N   1      20.719  17.592   6.995  0.00  0.00    -0.260 N 
HETATM    5  C   UNK N   1      20.185  17.580   8.310  0.00  0.00     0.262 C 
HETATM    6  N   UNK N   1      20.075  16.392   9.084  0.00  0.00    -0.350 N 
HETATM    7  N   UNK N   1      19.822  18.687   8.830  0.00  0.00    -0.424 NA
HETATM    8  H   UNK N   1      19.845  16.488  10.035  0.00  0.00     0.163 HD
HETATM    9  H   UNK N   1      19.314  19.514   8.990  0.00  0.00     0.270 HD
HETATM   10  H   UNK N   1      20.412  18.290   6.371  0.00  0.00     0.191 HD
BRANCH   6  11
HETATM   11  C   UNK N   1      20.275  15.060   8.578  0.00  0.00     0.123 C 
BRANCH  11  12
HETATM   12  C   UNK N   1      20.239  14.082   9.745  0.00  0.00     0.020 C 
BRANCH  12  13
HETATM   13  C   UNK N   1      21.623  13.508  10.001  0.00  0.00     0.001 C 
BRANCH  13  14
HETATM   14  C   UNK N   1      21.527  12.283  10.885  0.00  0.00    -0.004 C 
HETATM   15  C   UNK N   1      22.878  12.015  11.516  0.00  0.00     0.005 C 
ENDBRANCH  13  14
ENDBRANCH  12  13
ENDBRANCH  11  12
ENDBRANCH   6  11
ENDBRANCH   2   4
BRANCH   1  16
HETATM   16  C   UNK N   1      20.902  17.164   4.306  0.00  0.00     0.009 A 
HETATM   17  C   UNK N   1      21.178  18.305   3.595  0.00  0.00     0.006 A 
HETATM   18  C   UNK N   1      22.283  19.153   3.615  0.00  0.00     0.051 A 
HETATM   19  C   UNK N   1      20.100  18.543   2.794  0.00  0.00     0.043 A 
HETATM   20  C   UNK N   1      22.262  20.289   2.786  0.00  0.00     0.069 A 
HETATM   21  C   UNK N   1      21.139  20.527   1.945  0.00  0.00     0.039 A 
HETATM   22  C   UNK N   1      20.044  19.642   1.942  0.00  0.00     0.033 A 
HETATM   23  N   UNK N   1      19.153  17.600   2.965  0.00  0.00    -0.364 N 
HETATM   24  C   UNK N   1      19.638  16.744   3.904  0.00  0.00     0.102 A 
HETATM   25  H   UNK N   1      18.285  17.542   2.503  0.00  0.00     0.165 HD
BRANCH  20  26
HETATM   26  O   UNK N   1      23.311  21.145   2.825  0.00  0.00    -0.356 OA
HETATM   27  C   UNK N   1      24.604  20.740   3.067  0.00  0.00     0.210 C 
ENDBRANCH  20  26
ENDBRANCH   1  16
TORSDOF 7
ENDMDL
MODEL 2
REMARK VINA RESULT:      -6.5     13.583     15.512
REMARK  7 active torsions:
REMARK  status: ('A' for Active; 'I' for Inactive)
REMARK    1  A    between atoms: C_2  and  O_22 
REMARK    2  A    between atoms: C_10  and  C_7 
REMARK    3  A    between atoms: N_11  and  N_13 
REMARK       I    between atoms: N_13  and  C_14 
REMARK       I    between atoms: C_14  and  N_15 
REMARK       I    between atoms: C_14  and  N_21 
REMARK    4  A    between atoms: N_15  and  C_16 
REMARK    5  A    between atoms: C_16  and  C_17 
REMARK    6  A    between atoms: C_17  and  C_18 
REMARK    7  A    between atoms: C_18  and  C_19 
ROOT
HETATM    1  C   UNK N   1      34.460  13.651  10.162  0.00  0.00     0.120 C 
HETATM    2  N   UNK N   1      35.504  12.897  10.256  0.00  0.00    -0.308 N 
ATOM      3  HN  UNK N   1      35.400  11.902  10.452  1.00  0.00     0.186 HD
ENDROOT
BRANCH   2   4
HETATM    4  N   UNK N   1      36.749  13.442  10.090  0.00  0.00    -0.260 N 
HETATM    5  C   UNK N   1      37.808  13.259  11.018  0.00  0.00     0.262 C 
HETATM    6  N   UNK N   1      37.584  13.019  12.401  0.00  0.00    -0.350 N 
HETATM    7  N   UNK N   1      39.007  13.274  10.584  0.00  0.00    -0.424 NA
HETATM    8  H   UNK N   1      38.356  12.746  12.947  0.00  0.00     0.163 HD
HETATM    9  H   UNK N   1      39.850  13.605  10.197  0.00  0.00     0.270 HD
HETATM   10  H   UNK N   1      36.919  13.989   9.289  0.00  0.00     0.191 HD
BRANCH   6  11
HETATM   11  C   UNK N   1      36.313  13.146  13.063  0.00  0.00     0.123 C 
BRANCH  11  12
HETATM   12  C   UNK N   1      36.370  14.335  14.013  0.00  0.00     0.020 C 
BRANCH  12  13
HETATM   13  C   UNK N   1      36.817  13.888  15.396  0.00  0.00     0.001 C 
BRANCH  13  14
HETATM   14  C   UNK N   1      35.844  12.873  15.957  0.00  0.00    -0.004 C 
HETATM   15  C   UNK N   1      35.211  13.432  17.216  0.00  0.00     0.005 C 
ENDBRANCH  13  14
ENDBRANCH  12  13
ENDBRANCH  11  12
ENDBRANCH   6  11
ENDBRANCH   2   4
BRANCH   1  16
HETATM   16  C   UNK N   1      34.595  15.114   9.976  0.00  0.00     0.009 A 
HETATM   17  C   UNK N   1      34.304  15.833   8.845  0.00  0.00     0.006 A 
HETATM   18  C   UNK N   1      33.871  15.426   7.585  0.00  0.00     0.051 A 
HETATM   19  C   UNK N   1      34.542  17.144   9.137  0.00  0.00     0.043 A 
HETATM   20  C   UNK N   1      33.693  16.410   6.595  0.00  0.00     0.069 A 
HETATM   21  C   UNK N   1      33.934  17.777   6.909  0.00  0.00     0.039 A 
HETATM   22  C   UNK N   1      34.359  18.153   8.197  0.00  0.00     0.033 A 
HETATM   23  N   UNK N   1      34.971  17.286  10.406  0.00  0.00    -0.364 N 
HETATM   24  C   UNK N   1      35.012  16.033  10.933  0.00  0.00     0.102 A 
HETATM   25  H   UNK N   1      35.206  18.127  10.861  0.00  0.00     0.165 HD
BRANCH  20  26
HETATM   26  O   UNK N   1      33.312  16.025   5.354  0.00  0.00    -0.356 OA
HETATM   27  C   UNK N   1      34.063  15.186   4.562  0.00  0.00     0.210 C 
ENDBRANCH  20  26
ENDBRANCH   1  16
TORSDOF 7
ENDMDL
MODEL 3
REMARK VINA RESULT:      -6.5     13.144     16.680
REMARK  7 active torsions:
REMARK  status: ('A' for Active; 'I' for Inactive)
REMARK    1  A    between atoms: C_2  and  O_22 
REMARK    2  A    between atoms: C_10  and  C_7 
REMARK    3  A    between atoms: N_11  and  N_13 
REMARK       I    between atoms: N_13  and  C_14 
REMARK       I    between atoms: C_14  and  N_15 
REMARK       I    between atoms: C_14  and  N_21 
REMARK    4  A    between atoms: N_15  and  C_16 
REMARK    5  A    between atoms: C_16  and  C_17 
REMARK    6  A    between atoms: C_17  and  C_18 
REMARK    7  A    between atoms: C_18  and  C_19 
ROOT
HETATM    1  C   UNK N   1      35.758  15.934  10.811  0.00  0.00     0.120 C 
HETATM    2  N   UNK N   1      34.541  16.297  10.578  0.00  0.00    -0.308 N 
ATOM      3  HN  UNK N   1      34.326  17.277  10.397  1.00  0.00     0.186 HD
ENDROOT
BRANCH   2   4
HETATM    4  N   UNK N   1      33.544  15.358  10.572  0.00  0.00    -0.260 N 
HETATM    5  C   UNK N   1      32.765  15.058   9.424  0.00  0.00     0.262 C 
HETATM    6  N   UNK N   1      32.519  16.006   8.393  0.00  0.00    -0.350 N 
HETATM    7  N   UNK N   1      32.299  13.878   9.296  0.00  0.00    -0.424 NA
HETATM    8  H   UNK N   1      32.108  15.679   7.562  0.00  0.00     0.163 HD
HETATM    9  H   UNK N   1      31.761  13.070   9.461  0.00  0.00     0.270 HD
HETATM   10  H   UNK N   1      33.357  14.868  11.405  0.00  0.00     0.191 HD
BRANCH   6  11
HETATM   11  C   UNK N   1      32.826  17.409   8.476  0.00  0.00     0.123 C 
BRANCH  11  12
HETATM   12  C   UNK N   1      33.729  17.784   7.308  0.00  0.00     0.020 C 
BRANCH  12  13
HETATM   13  C   UNK N   1      33.512  16.833   6.142  0.00  0.00     0.001 C 
BRANCH  13  14
HETATM   14  C   UNK N   1      33.203  17.613   4.882  0.00  0.00    -0.004 C 
HETATM   15  C   UNK N   1      31.728  17.479   4.561  0.00  0.00     0.005 C 
ENDBRANCH  13  14
ENDBRANCH  12  13
ENDBRANCH  11  12
ENDBRANCH   6  11
ENDBRANCH   2   4
BRANCH   1  16
HETATM   16  C   UNK N   1      36.075  14.533  11.171  0.00  0.00     0.009 A 
HETATM   17  C   UNK N   1      36.319  14.038  12.427  0.00  0.00     0.006 A 
HETATM   18  C   UNK N   1      36.392  14.672  13.665  0.00  0.00     0.051 A 
HETATM   19  C   UNK N   1      36.527  12.697  12.289  0.00  0.00     0.043 A 
HETATM   20  C   UNK N   1      36.705  13.891  14.793  0.00  0.00     0.069 A 
HETATM   21  C   UNK N   1      36.911  12.491  14.644  0.00  0.00     0.039 A 
HETATM   22  C   UNK N   1      36.817  11.882  13.379  0.00  0.00     0.033 A 
HETATM   23  N   UNK N   1      36.424  12.321  11.000  0.00  0.00    -0.364 N 
HETATM   24  C   UNK N   1      36.149  13.453  10.298  0.00  0.00     0.102 A 
HETATM   25  H   UNK N   1      36.526  11.411  10.639  0.00  0.00     0.165 HD
BRANCH  20  26
HETATM   26  O   UNK N   1      36.820  14.501  15.996  0.00  0.00    -0.356 OA
HETATM   27  C   UNK N   1      37.388  15.744  16.160  0.00  0.00     0.210 C 
ENDBRANCH  20  26
ENDBRANCH   1  16
TORSDOF 7
ENDMDL
MODEL 4
REMARK VINA RESULT:      -6.4     13.732     15.012
REMARK  7 active torsions:
REMARK  status: ('A' for Active; 'I' for Inactive)
REMARK    1  A    between atoms: C_2  and  O_22 
REMARK    2  A    between atoms: C_10  and  C_7 
REMARK    3  A    between atoms: N_11  and  N_13 
REMARK       I    between atoms: N_13  and  C_14 
REMARK       I    between atoms: C_14  and  N_15 
REMARK       I    between atoms: C_14  and  N_21 
REMARK    4  A    between atoms: N_15  and  C_16 
REMARK    5  A    between atoms: C_16  and  C_17 
REMARK    6  A    between atoms: C_17  and  C_18 
REMARK    7  A    between atoms: C_18  and  C_19 
ROOT
HETATM    1  C   UNK N   1      27.579  23.795  -3.051  0.00  0.00     0.120 C 
HETATM    2  N   UNK N   1      28.814  23.550  -3.335  0.00  0.00    -0.308 N 
ATOM      3  HN  UNK N   1      29.451  23.225  -2.609  1.00  0.00     0.186 HD
ENDROOT
BRANCH   2   4
HETATM    4  N   UNK N   1      29.261  23.726  -4.618  0.00  0.00    -0.260 N 
HETATM    5  C   UNK N   1      29.753  22.666  -5.422  0.00  0.00     0.262 C 
HETATM    6  N   UNK N   1      30.358  21.502  -4.874  0.00  0.00    -0.350 N 
HETATM    7  N   UNK N   1      29.612  22.746  -6.688  0.00  0.00    -0.424 NA
HETATM    8  H   UNK N   1      30.528  20.747  -5.482  0.00  0.00     0.163 HD
HETATM    9  H   UNK N   1      29.722  23.056  -7.616  0.00  0.00     0.270 HD
HETATM   10  H   UNK N   1      29.241  24.634  -5.000  0.00  0.00     0.191 HD
BRANCH   6  11
HETATM   11  C   UNK N   1      30.741  21.346  -3.496  0.00  0.00     0.123 C 
BRANCH  11  12
HETATM   12  C   UNK N   1      32.084  22.029  -3.279  0.00  0.00     0.020 C 
BRANCH  12  13
HETATM   13  C   UNK N   1      33.063  21.076  -2.611  0.00  0.00     0.001 C 
BRANCH  13  14
HETATM   14  C   UNK N   1      34.181  20.720  -3.568  0.00  0.00    -0.004 C 
HETATM   15  C   UNK N   1      33.949  19.323  -4.108  0.00  0.00     0.005 C 
ENDBRANCH  13  14
ENDBRANCH  12  13
ENDBRANCH  11  12
ENDBRANCH   6  11
ENDBRANCH   2   4
BRANCH   1  16
HETATM   16  C   UNK N   1      26.664  24.360  -4.069  0.00  0.00     0.009 A 
HETATM   17  C   UNK N   1      26.271  25.668  -4.191  0.00  0.00     0.006 A 
HETATM   18  C   UNK N   1      26.551  26.787  -3.411  0.00  0.00     0.051 A 
HETATM   19  C   UNK N   1      25.459  25.737  -5.286  0.00  0.00     0.043 A 
HETATM   20  C   UNK N   1      25.960  28.012  -3.770  0.00  0.00     0.069 A 
HETATM   21  C   UNK N   1      25.122  28.079  -4.919  0.00  0.00     0.039 A 
HETATM   22  C   UNK N   1      24.871  26.930  -5.692  0.00  0.00     0.033 A 
HETATM   23  N   UNK N   1      25.323  24.528  -5.863  0.00  0.00    -0.364 N 
HETATM   24  C   UNK N   1      26.062  23.666  -5.113  0.00  0.00     0.102 A 
HETATM   25  H   UNK N   1      24.796  24.311  -6.666  0.00  0.00     0.165 HD
BRANCH  20  26
HETATM   26  O   UNK N   1      26.190  29.099  -2.997  0.00  0.00    -0.356 OA
HETATM   27  C   UNK N   1      27.450  29.594  -2.748  0.00  0.00     0.210 C 
ENDBRANCH  20  26
ENDBRANCH   1  16
TORSDOF 7
ENDMDL
MODEL 5
REMARK VINA RESULT:      -6.3     12.162     13.998
REMARK  7 active torsions:
REMARK  status: ('A' for Active; 'I' for Inactive)
REMARK    1  A    between atoms: C_2  and  O_22 
REMARK    2  A    between atoms: C_10  and  C_7 
REMARK    3  A    between atoms: N_11  and  N_13 
REMARK       I    between atoms: N_13  and  C_14 
REMARK       I    between atoms: C_14  and  N_15 
REMARK       I    between atoms: C_14  and  N_21 
REMARK    4  A    between atoms: N_15  and  C_16 
REMARK    5  A    between atoms: C_16  and  C_17 
REMARK    6  A    between atoms: C_17  and  C_18 
REMARK    7  A    between atoms: C_18  and  C_19 
ROOT
HETATM    1  C   UNK N   1      33.868  13.801   9.519  0.00  0.00     0.120 C 
HETATM    2  N   UNK N   1      33.863  14.349  10.687  0.00  0.00    -0.308 N 
ATOM      3  HN  UNK N   1      33.630  13.796  11.511  1.00  0.00     0.186 HD
ENDROOT
BRANCH   2   4
HETATM    4  N   UNK N   1      34.175  15.677  10.813  0.00  0.00    -0.260 N 
HETATM    5  C   UNK N   1      35.503  16.153  10.966  0.00  0.00     0.262 C 
HETATM    6  N   UNK N   1      36.535  15.374  11.557  0.00  0.00    -0.350 N 
HETATM    7  N   UNK N   1      35.789  17.314  10.521  0.00  0.00    -0.424 NA
HETATM    8  H   UNK N   1      37.457  15.708  11.484  0.00  0.00     0.163 HD
HETATM    9  H   UNK N   1      35.804  18.293  10.427  0.00  0.00     0.270 HD
HETATM   10  H   UNK N   1      33.441  16.334  10.798  0.00  0.00     0.191 HD
BRANCH   6  11
HETATM   11  C   UNK N   1      36.331  14.132  12.255  0.00  0.00     0.123 C 
BRANCH  11  12
HETATM   12  C   UNK N   1      36.291  14.411  13.752  0.00  0.00     0.020 C 
BRANCH  12  13
HETATM   13  C   UNK N   1      35.482  13.343  14.470  0.00  0.00     0.001 C 
BRANCH  13  14
HETATM   14  C   UNK N   1      36.112  13.022  15.809  0.00  0.00    -0.004 C 
HETATM   15  C   UNK N   1      35.085  13.224  16.904  0.00  0.00     0.005 C 
ENDBRANCH  13  14
ENDBRANCH  12  13
ENDBRANCH  11  12
ENDBRANCH   6  11
ENDBRANCH   2   4
BRANCH   1  16
HETATM   16  C   UNK N   1      34.109  14.611   8.302  0.00  0.00     0.009 A 
HETATM   17  C   UNK N   1      33.220  15.450   7.680  0.00  0.00     0.006 A 
HETATM   18  C   UNK N   1      31.885  15.738   7.952  0.00  0.00     0.051 A 
HETATM   19  C   UNK N   1      33.879  16.013   6.626  0.00  0.00     0.043 A 
HETATM   20  C   UNK N   1      31.209  16.627   7.097  0.00  0.00     0.069 A 
HETATM   21  C   UNK N   1      31.905  17.219   6.005  0.00  0.00     0.039 A 
HETATM   22  C   UNK N   1      33.258  16.914   5.767  0.00  0.00     0.033 A 
HETATM   23  N   UNK N   1      35.147  15.567   6.556  0.00  0.00    -0.364 N 
HETATM   24  C   UNK N   1      35.298  14.694   7.587  0.00  0.00     0.102 A 
HETATM   25  H   UNK N   1      35.829  15.823   5.892  0.00  0.00     0.165 HD
BRANCH  20  26
HETATM   26  O   UNK N   1      29.900  16.885   7.325  0.00  0.00    -0.356 OA
HETATM   27  C   UNK N   1      29.083  17.508   6.408  0.00  0.00     0.210 C 
ENDBRANCH  20  26
ENDBRANCH   1  16
TORSDOF 7
ENDMDL
MODEL 6
REMARK VINA RESULT:      -6.3     12.927     16.175
REMARK  7 active torsions:
REMARK  status: ('A' for Active; 'I' for Inactive)
REMARK    1  A    between atoms: C_2  and  O_22 
REMARK    2  A    between atoms: C_10  and  C_7 
REMARK    3  A    between atoms: N_11  and  N_13 
REMARK       I    between atoms: N_13  and  C_14 
REMARK       I    between atoms: C_14  and  N_15 
REMARK       I    between atoms: C_14  and  N_21 
REMARK    4  A    between atoms: N_15  and  C_16 
REMARK    5  A    between atoms: C_16  and  C_17 
REMARK    6  A    between atoms: C_17  and  C_18 
REMARK    7  A    between atoms: C_18  and  C_19 
ROOT
HETATM    1  C   UNK N   1      35.447  16.004  10.712  0.00  0.00     0.120 C 
HETATM    2  N   UNK N   1      34.163  16.072  10.595  0.00  0.00    -0.308 N 
ATOM      3  HN  UNK N   1      33.702  16.980  10.540  1.00  0.00     0.186 HD
ENDROOT
BRANCH   2   4
HETATM    4  N   UNK N   1      33.426  14.919  10.544  0.00  0.00    -0.260 N 
HETATM    5  C   UNK N   1      32.810  14.442   9.358  0.00  0.00     0.262 C 
HETATM    6  N   UNK N   1      32.400  15.305   8.304  0.00  0.00    -0.350 N 
HETATM    7  N   UNK N   1      32.652  13.184   9.217  0.00  0.00    -0.424 NA
HETATM    8  H   UNK N   1      32.128  14.889   7.455  0.00  0.00     0.163 HD
HETATM    9  H   UNK N   1      32.319  12.269   9.360  0.00  0.00     0.270 HD
HETATM   10  H   UNK N   1      33.317  14.396  11.371  0.00  0.00     0.191 HD
BRANCH   6  11
HETATM   11  C   UNK N   1      32.351  16.740   8.389  0.00  0.00     0.123 C 
BRANCH  11  12
HETATM   12  C   UNK N   1      30.896  17.186   8.333  0.00  0.00     0.020 C 
BRANCH  12  13
HETATM   13  C   UNK N   1      30.741  18.569   8.944  0.00  0.00     0.001 C 
BRANCH  13  14
HETATM   14  C   UNK N   1      29.428  18.665   9.693  0.00  0.00    -0.004 C 
HETATM   15  C   UNK N   1      28.691  17.346   9.578  0.00  0.00     0.005 C 
ENDBRANCH  13  14
ENDBRANCH  12  13
ENDBRANCH  11  12
ENDBRANCH   6  11
ENDBRANCH   2   4
BRANCH   1  16
HETATM   16  C   UNK N   1      36.123  14.699  10.892  0.00  0.00     0.009 A 
HETATM   17  C   UNK N   1      36.349  14.042  12.075  0.00  0.00     0.006 A 
HETATM   18  C   UNK N   1      36.077  14.405  13.392  0.00  0.00     0.051 A 
HETATM   19  C   UNK N   1      36.966  12.866  11.762  0.00  0.00     0.043 A 
HETATM   20  C   UNK N   1      36.468  13.524  14.417  0.00  0.00     0.069 A 
HETATM   21  C   UNK N   1      37.102  12.294  14.084  0.00  0.00     0.039 A 
HETATM   22  C   UNK N   1      37.351  11.955  12.741  0.00  0.00     0.033 A 
HETATM   23  N   UNK N   1      37.138  12.750  10.432  0.00  0.00    -0.364 N 
HETATM   24  C   UNK N   1      36.624  13.883   9.884  0.00  0.00     0.102 A 
HETATM   25  H   UNK N   1      37.552  11.996   9.953  0.00  0.00     0.165 HD
BRANCH  20  26
HETATM   26  O   UNK N   1      36.248  13.881  15.704  0.00  0.00    -0.356 OA
HETATM   27  C   UNK N   1      35.401  13.192  16.543  0.00  0.00     0.210 C 
ENDBRANCH  20  26
ENDBRANCH   1  16
TORSDOF 7
ENDMDL
MODEL 7
REMARK VINA RESULT:      -6.3      7.180     10.168
REMARK  7 active torsions:
REMARK  status: ('A' for Active; 'I' for Inactive)
REMARK    1  A    between atoms: C_2  and  O_22 
REMARK    2  A    between atoms: C_10  and  C_7 
REMARK    3  A    between atoms: N_11  and  N_13 
REMARK       I    between atoms: N_13  and  C_14 
REMARK       I    between atoms: C_14  and  N_15 
REMARK       I    between atoms: C_14  and  N_21 
REMARK    4  A    between atoms: N_15  and  C_16 
REMARK    5  A    between atoms: C_16  and  C_17 
REMARK    6  A    between atoms: C_17  and  C_18 
REMARK    7  A    between atoms: C_18  and  C_19 
ROOT
HETATM    1  C   UNK N   1      27.853  17.310   7.103  0.00  0.00     0.120 C 
HETATM    2  N   UNK N   1      27.271  18.278   6.478  0.00  0.00    -0.308 N 
ATOM      3  HN  UNK N   1      26.462  18.091   5.885  1.00  0.00     0.186 HD
ENDROOT
BRANCH   2   4
HETATM    4  N   UNK N   1      27.744  19.556   6.616  0.00  0.00    -0.260 N 
HETATM    5  C   UNK N   1      27.265  20.650   5.849  0.00  0.00     0.262 C 
HETATM    6  N   UNK N   1      26.719  20.494   4.546  0.00  0.00    -0.350 N 
HETATM    7  N   UNK N   1      27.294  21.815   6.368  0.00  0.00    -0.424 NA
HETATM    8  H   UNK N   1      26.267  21.270   4.146  0.00  0.00     0.163 HD
HETATM    9  H   UNK N   1      27.643  22.658   6.737  0.00  0.00     0.270 HD
HETATM   10  H   UNK N   1      28.452  19.723   7.280  0.00  0.00     0.191 HD
BRANCH   6  11
HETATM   11  C   UNK N   1      26.780  19.285   3.768  0.00  0.00     0.123 C 
BRANCH  11  12
HETATM   12  C   UNK N   1      25.360  18.802   3.501  0.00  0.00     0.020 C 
BRANCH  12  13
HETATM   13  C   UNK N   1      24.411  19.983   3.383  0.00  0.00     0.001 C 
BRANCH  13  14
HETATM   14  C   UNK N   1      22.975  19.510   3.473  0.00  0.00    -0.004 C 
HETATM   15  C   UNK N   1      22.090  20.451   2.679  0.00  0.00     0.005 C 
ENDBRANCH  13  14
ENDBRANCH  12  13
ENDBRANCH  11  12
ENDBRANCH   6  11
ENDBRANCH   2   4
BRANCH   1  16
HETATM   16  C   UNK N   1      29.085  17.548   7.889  0.00  0.00     0.009 A 
HETATM   17  C   UNK N   1      30.379  17.480   7.438  0.00  0.00     0.006 A 
HETATM   18  C   UNK N   1      30.899  17.134   6.193  0.00  0.00     0.051 A 
HETATM   19  C   UNK N   1      31.182  17.810   8.490  0.00  0.00     0.043 A 
HETATM   20  C   UNK N   1      32.297  17.117   6.041  0.00  0.00     0.069 A 
HETATM   21  C   UNK N   1      33.130  17.471   7.139  0.00  0.00     0.039 A 
HETATM   22  C   UNK N   1      32.569  17.827   8.380  0.00  0.00     0.033 A 
HETATM   23  N   UNK N   1      30.452  18.085   9.588  0.00  0.00    -0.364 N 
HETATM   24  C   UNK N   1      29.151  17.920   9.228  0.00  0.00     0.102 A 
HETATM   25  H   UNK N   1      30.792  18.351  10.473  0.00  0.00     0.165 HD
BRANCH  20  26
HETATM   26  O   UNK N   1      32.818  16.743   4.848  0.00  0.00    -0.356 OA
HETATM   27  C   UNK N   1      32.488  17.349   3.657  0.00  0.00     0.210 C 
ENDBRANCH  20  26
ENDBRANCH   1  16
TORSDOF 7
ENDMDL
MODEL 8
REMARK VINA RESULT:      -6.2      7.528     10.092
REMARK  7 active torsions:
REMARK  status: ('A' for Active; 'I' for Inactive)
REMARK    1  A    between atoms: C_2  and  O_22 
REMARK    2  A    between atoms: C_10  and  C_7 
REMARK    3  A    between atoms: N_11  and  N_13 
REMARK       I    between atoms: N_13  and  C_14 
REMARK       I    between atoms: C_14  and  N_15 
REMARK       I    between atoms: C_14  and  N_21 
REMARK    4  A    between atoms: N_15  and  C_16 
REMARK    5  A    between atoms: C_16  and  C_17 
REMARK    6  A    between atoms: C_17  and  C_18 
REMARK    7  A    between atoms: C_18  and  C_19 
ROOT
HETATM    1  C   UNK N   1      27.814  17.184   7.255  0.00  0.00     0.120 C 
HETATM    2  N   UNK N   1      27.087  18.122   6.747  0.00  0.00    -0.308 N 
ATOM      3  HN  UNK N   1      26.270  17.888   6.184  1.00  0.00     0.186 HD
ENDROOT
BRANCH   2   4
HETATM    4  N   UNK N   1      27.421  19.432   6.969  0.00  0.00    -0.260 N 
HETATM    5  C   UNK N   1      27.068  20.484   6.085  0.00  0.00     0.262 C 
HETATM    6  N   UNK N   1      26.871  20.284   4.691  0.00  0.00    -0.350 N 
HETATM    7  N   UNK N   1      26.886  21.651   6.569  0.00  0.00    -0.424 NA
HETATM    8  H   UNK N   1      26.477  21.023   4.176  0.00  0.00     0.163 HD
HETATM    9  H   UNK N   1      27.074  22.519   6.994  0.00  0.00     0.270 HD
HETATM   10  H   UNK N   1      27.931  19.654   7.782  0.00  0.00     0.191 HD
BRANCH   6  11
HETATM   11  C   UNK N   1      27.206  19.080   3.978  0.00  0.00     0.123 C 
BRANCH  11  12
HETATM   12  C   UNK N   1      25.921  18.431   3.480  0.00  0.00     0.020 C 
BRANCH  12  13
HETATM   13  C   UNK N   1      26.074  16.920   3.431  0.00  0.00     0.001 C 
BRANCH  13  14
HETATM   14  C   UNK N   1      27.540  16.543   3.414  0.00  0.00    -0.004 C 
HETATM   15  C   UNK N   1      27.736  15.339   2.515  0.00  0.00     0.005 C 
ENDBRANCH  13  14
ENDBRANCH  12  13
ENDBRANCH  11  12
ENDBRANCH   6  11
ENDBRANCH   2   4
BRANCH   1  16
HETATM   16  C   UNK N   1      29.058  17.503   7.991  0.00  0.00     0.009 A 
HETATM   17  C   UNK N   1      30.341  17.454   7.507  0.00  0.00     0.006 A 
HETATM   18  C   UNK N   1      30.838  17.062   6.267  0.00  0.00     0.051 A 
HETATM   19  C   UNK N   1      31.161  17.864   8.517  0.00  0.00     0.043 A 
HETATM   20  C   UNK N   1      32.232  17.083   6.074  0.00  0.00     0.069 A 
HETATM   21  C   UNK N   1      33.082  17.520   7.128  0.00  0.00     0.039 A 
HETATM   22  C   UNK N   1      32.543  17.922   8.365  0.00  0.00     0.033 A 
HETATM   23  N   UNK N   1      30.453  18.172   9.620  0.00  0.00    -0.364 N 
HETATM   24  C   UNK N   1      29.149  17.946   9.306  0.00  0.00     0.102 A 
HETATM   25  H   UNK N   1      30.807  18.495  10.480  0.00  0.00     0.165 HD
BRANCH  20  26
HETATM   26  O   UNK N   1      32.732  16.664   4.888  0.00  0.00    -0.356 OA
HETATM   27  C   UNK N   1      33.865  15.889   4.779  0.00  0.00     0.210 C 
ENDBRANCH  20  26
ENDBRANCH   1  16
TORSDOF 7
ENDMDL
MODEL 9
REMARK VINA RESULT:      -6.0     12.989     15.674
REMARK  7 active torsions:
REMARK  status: ('A' for Active; 'I' for Inactive)
REMARK    1  A    between atoms: C_2  and  O_22 
REMARK    2  A    between atoms: C_10  and  C_7 
REMARK    3  A    between atoms: N_11  and  N_13 
REMARK       I    between atoms: N_13  and  C_14 
REMARK       I    between atoms: C_14  and  N_15 
REMARK       I    between atoms: C_14  and  N_21 
REMARK    4  A    between atoms: N_15  and  C_16 
REMARK    5  A    between atoms: C_16  and  C_17 
REMARK    6  A    between atoms: C_17  and  C_18 
REMARK    7  A    between atoms: C_18  and  C_19 
ROOT
HETATM    1  C   UNK N   1      35.499  16.532  10.586  0.00  0.00     0.120 C 
HETATM    2  N   UNK N   1      34.265  16.541  10.207  0.00  0.00    -0.308 N 
ATOM      3  HN  UNK N   1      33.851  17.393   9.830  1.00  0.00     0.186 HD
ENDROOT
BRANCH   2   4
HETATM    4  N   UNK N   1      33.516  15.398  10.313  0.00  0.00    -0.260 N 
HETATM    5  C   UNK N   1      32.620  14.960   9.304  0.00  0.00     0.262 C 
HETATM    6  N   UNK N   1      31.981  15.854   8.402  0.00  0.00    -0.350 N 
HETATM    7  N   UNK N   1      32.410  13.707   9.180  0.00  0.00    -0.424 NA
HETATM    8  H   UNK N   1      31.503  15.463   7.636  0.00  0.00     0.163 HD
HETATM    9  H   UNK N   1      32.104  12.793   9.381  0.00  0.00     0.270 HD
HETATM   10  H   UNK N   1      33.603  14.856  11.131  0.00  0.00     0.191 HD
BRANCH   6  11
HETATM   11  C   UNK N   1      31.981  17.287   8.526  0.00  0.00     0.123 C 
BRANCH  11  12
HETATM   12  C   UNK N   1      30.564  17.799   8.303  0.00  0.00     0.020 C 
BRANCH  12  13
HETATM   13  C   UNK N   1      29.662  17.383   9.453  0.00  0.00     0.001 C 
BRANCH  13  14
HETATM   14  C   UNK N   1      28.265  17.927   9.245  0.00  0.00    -0.004 C 
HETATM   15  C   UNK N   1      28.250  18.803   8.008  0.00  0.00     0.005 C 
ENDBRANCH  13  14
ENDBRANCH  12  13
ENDBRANCH  11  12
ENDBRANCH   6  11
ENDBRANCH   2   4
BRANCH   1  16
HETATM   16  C   UNK N   1      36.087  15.333  11.226  0.00  0.00     0.009 A 
HETATM   17  C   UNK N   1      36.737  14.299  10.601  0.00  0.00     0.006 A 
HETATM   18  C   UNK N   1      36.979  14.048   9.253  0.00  0.00     0.051 A 
HETATM   19  C   UNK N   1      37.141  13.438  11.580  0.00  0.00     0.043 A 
HETATM   20  C   UNK N   1      37.650  12.860   8.909  0.00  0.00     0.069 A 
HETATM   21  C   UNK N   1      38.077  11.971   9.935  0.00  0.00     0.039 A 
HETATM   22  C   UNK N   1      37.826  12.263  11.289  0.00  0.00     0.033 A 
HETATM   23  N   UNK N   1      36.776  13.884  12.797  0.00  0.00    -0.364 N 
HETATM   24  C   UNK N   1      36.118  15.056  12.588  0.00  0.00     0.102 A 
HETATM   25  H   UNK N   1      36.951  13.450  13.663  0.00  0.00     0.165 HD
BRANCH  20  26
HETATM   26  O   UNK N   1      37.856  12.583   7.600  0.00  0.00    -0.356 OA
HETATM   27  C   UNK N   1      38.205  11.333   7.140  0.00  0.00     0.210 C 
ENDBRANCH  20  26
ENDBRANCH   1  16
TORSDOF 7
ENDMDL
