MODEL 1
REMARK VINA RESULT:      -7.0      0.000      0.000
REMARK  4 active torsions:
REMARK  status: ('A' for Active; 'I' for Inactive)
REMARK    1  A    between atoms: C_1  and  N_14 
REMARK    2  A    between atoms: C_5  and  C_11 
REMARK    3  A    between atoms: O_12  and  C_11 
REMARK    4  A    between atoms: N_17  and  C_16 
ROOT
HETATM    1  C   UNK N   1      35.408  14.256  10.383  0.00  0.00     0.197 A 
HETATM    2  N   UNK N   1      34.972  15.727   8.930  0.00  0.00    -0.219 NA
HETATM    3  C   UNK N   1      34.413  14.433   9.115  0.00  0.00     0.160 A 
HETATM    4  C   UNK N   1      35.829  15.604   9.903  0.00  0.00     0.226 A 
HETATM    5  C   UNK N   1      34.082  16.851   8.836  0.00  0.00     0.182 C 
HETATM    6  C   UNK N   1      32.767  16.260   8.342  0.00  0.00     0.029 C 
HETATM    7  S   UNK N   1      32.609  14.711   9.323  0.00  0.00    -0.135 SA
HETATM    8  C   UNK N   1      31.608  17.197   8.618  0.00  0.00     0.029 C 
HETATM    9  C   UNK N   1      32.811  15.920   6.855  0.00  0.00     0.029 C 
HETATM   10  O   UNK N   1      36.349  16.514  10.528  0.00  0.00    -0.277 OA
ENDROOT
BRANCH   1  11
HETATM   11  N   UNK N   1      34.767  14.495  11.658  0.00  0.00    -0.371 N 
HETATM   12  C   UNK N   1      34.909  13.704  12.675  0.00  0.00     0.174 C 
ATOM     13  HN  UNK N   1      34.179  15.322  11.762  1.00  0.00     0.161 HD
BRANCH  12  14
HETATM   14  N   UNK N   1      35.597  12.448  12.592  0.00  0.00    -0.377 N 
HETATM   15  C   UNK N   1      36.958  12.350  13.069  0.00  0.00     0.123 C 
HETATM   16  C   UNK N   1      37.033  11.871  14.518  0.00  0.00     0.020 C 
HETATM   17  C   UNK N   1      36.247  10.590  14.778  0.00  0.00     0.002 C 
HETATM   18  C   UNK N   1      34.757  10.910  14.854  0.00  0.00     0.002 C 
HETATM   19  C   UNK N   1      34.044  10.786  13.500  0.00  0.00     0.020 C 
HETATM   20  C   UNK N   1      34.896  11.218  12.300  0.00  0.00     0.123 C 
ENDBRANCH  12  14
ENDBRANCH   1  11
BRANCH   5  21
HETATM   21  C   UNK N   1      34.668  18.094   8.226  0.00  0.00     0.160 C 
HETATM   22  O   UNK N   1      34.557  18.284   7.025  0.00  0.00    -0.649 OA
BRANCH  21  23
HETATM   23  O   UNK N   1      35.379  18.960   8.972  0.00  0.00    -0.775 OA
HETATM   24  H   UNK N   1      35.405  19.869   8.750  0.00  0.00     0.167 HD
ENDBRANCH  21  23
ENDBRANCH   5  21
TORSDOF 4
ENDMDL
MODEL 2
REMARK VINA RESULT:      -6.6     16.154     19.506
REMARK  4 active torsions:
REMARK  status: ('A' for Active; 'I' for Inactive)
REMARK    1  A    between atoms: C_1  and  N_14 
REMARK    2  A    between atoms: C_5  and  C_11 
REMARK    3  A    between atoms: O_12  and  C_11 
REMARK    4  A    between atoms: N_17  and  C_16 
ROOT
HETATM    1  C   UNK N   1      29.159  23.509  -3.614  0.00  0.00     0.197 A 
HETATM    2  N   UNK N   1      30.644  22.015  -3.778  0.00  0.00    -0.219 NA
HETATM    3  C   UNK N   1      29.731  22.506  -4.752  0.00  0.00     0.160 A 
HETATM    4  C   UNK N   1      30.175  22.762  -2.818  0.00  0.00     0.226 A 
HETATM    5  C   UNK N   1      32.043  21.985  -4.104  0.00  0.00     0.182 C 
HETATM    6  C   UNK N   1      32.082  21.908  -5.625  0.00  0.00     0.029 C 
HETATM    7  S   UNK N   1      30.778  23.102  -6.138  0.00  0.00    -0.135 SA
HETATM    8  C   UNK N   1      33.438  22.324  -6.160  0.00  0.00     0.029 C 
HETATM    9  C   UNK N   1      31.730  20.516  -6.140  0.00  0.00     0.029 C 
HETATM   10  O   UNK N   1      30.775  23.112  -1.815  0.00  0.00    -0.277 OA
ENDROOT
BRANCH   1  11
HETATM   11  N   UNK N   1      29.678  24.856  -3.716  0.00  0.00    -0.371 N 
HETATM   12  C   UNK N   1      28.940  25.871  -4.041  0.00  0.00     0.174 C 
ATOM     13  HN  UNK N   1      30.667  25.014  -3.522  1.00  0.00     0.161 HD
BRANCH  12  14
HETATM   14  N   UNK N   1      27.577  25.736  -4.466  0.00  0.00    -0.377 N 
HETATM   15  C   UNK N   1      26.512  25.904  -3.503  0.00  0.00     0.123 C 
HETATM   16  C   UNK N   1      25.972  27.334  -3.478  0.00  0.00     0.020 C 
HETATM   17  C   UNK N   1      25.582  27.862  -4.854  0.00  0.00     0.002 C 
HETATM   18  C   UNK N   1      26.838  28.242  -5.632  0.00  0.00     0.002 C 
HETATM   19  C   UNK N   1      27.384  27.095  -6.494  0.00  0.00     0.020 C 
HETATM   20  C   UNK N   1      27.219  25.705  -5.866  0.00  0.00     0.123 C 
ENDBRANCH  12  14
ENDBRANCH   1  11
BRANCH   5  21
HETATM   21  C   UNK N   1      32.890  21.087  -3.246  0.00  0.00     0.160 C 
HETATM   22  O   UNK N   1      33.598  20.244  -3.774  0.00  0.00    -0.649 OA
BRANCH  21  23
HETATM   23  O   UNK N   1      32.821  21.149  -1.904  0.00  0.00    -0.775 OA
HETATM   24  H   UNK N   1      33.598  21.250  -1.391  0.00  0.00     0.167 HD
ENDBRANCH  21  23
ENDBRANCH   5  21
TORSDOF 4
ENDMDL
MODEL 3
REMARK VINA RESULT:      -6.4      1.946      3.074
REMARK  4 active torsions:
REMARK  status: ('A' for Active; 'I' for Inactive)
REMARK    1  A    between atoms: C_1  and  N_14 
REMARK    2  A    between atoms: C_5  and  C_11 
REMARK    3  A    between atoms: O_12  and  C_11 
REMARK    4  A    between atoms: N_17  and  C_16 
ROOT
HETATM    1  C   UNK N   1      36.014  12.343  12.373  0.00  0.00     0.197 A 
HETATM    2  N   UNK N   1      36.010  13.967  11.021  0.00  0.00    -0.219 NA
HETATM    3  C   UNK N   1      35.988  12.568  10.768  0.00  0.00     0.160 A 
HETATM    4  C   UNK N   1      36.091  13.831  12.315  0.00  0.00     0.226 A 
HETATM    5  C   UNK N   1      35.008  14.791  10.404  0.00  0.00     0.182 C 
HETATM    6  C   UNK N   1      34.584  14.016   9.162  0.00  0.00     0.029 C 
HETATM    7  S   UNK N   1      34.474  12.281   9.769  0.00  0.00    -0.135 SA
HETATM    8  C   UNK N   1      33.241  14.496   8.649  0.00  0.00     0.029 C 
HETATM    9  C   UNK N   1      35.622  14.102   8.048  0.00  0.00     0.029 C 
HETATM   10  O   UNK N   1      35.750  14.651  13.151  0.00  0.00    -0.277 OA
ENDROOT
BRANCH   1  11
HETATM   11  N   UNK N   1      34.713  12.056  12.938  0.00  0.00    -0.371 N 
HETATM   12  C   UNK N   1      34.540  11.754  14.187  0.00  0.00     0.174 C 
ATOM     13  HN  UNK N   1      33.897  12.093  12.328  1.00  0.00     0.161 HD
BRANCH  12  14
HETATM   14  N   UNK N   1      35.632  11.540  15.092  0.00  0.00    -0.377 N 
HETATM   15  C   UNK N   1      35.942  12.546  16.083  0.00  0.00     0.123 C 
HETATM   16  C   UNK N   1      35.263  12.269  17.424  0.00  0.00     0.020 C 
HETATM   17  C   UNK N   1      35.507  10.859  17.951  0.00  0.00     0.002 C 
HETATM   18  C   UNK N   1      34.632   9.869  17.189  0.00  0.00     0.002 C 
HETATM   19  C   UNK N   1      35.330   9.269  15.959  0.00  0.00     0.020 C 
HETATM   20  C   UNK N   1      36.261  10.245  15.228  0.00  0.00     0.123 C 
ENDBRANCH  12  14
ENDBRANCH   1  11
BRANCH   5  21
HETATM   21  C   UNK N   1      35.318  16.260  10.350  0.00  0.00     0.160 C 
HETATM   22  O   UNK N   1      36.457  16.643  10.567  0.00  0.00    -0.649 OA
BRANCH  21  23
HETATM   23  O   UNK N   1      34.343  17.165  10.142  0.00  0.00    -0.775 OA
HETATM   24  H   UNK N   1      34.338  17.690   9.367  0.00  0.00     0.167 HD
ENDBRANCH  21  23
ENDBRANCH   5  21
TORSDOF 4
ENDMDL
MODEL 4
REMARK VINA RESULT:      -6.1      4.234      8.883
REMARK  4 active torsions:
REMARK  status: ('A' for Active; 'I' for Inactive)
REMARK    1  A    between atoms: C_1  and  N_14 
REMARK    2  A    between atoms: C_5  and  C_11 
REMARK    3  A    between atoms: O_12  and  C_11 
REMARK    4  A    between atoms: N_17  and  C_16 
ROOT
HETATM    1  C   UNK N   1      30.386  16.470   7.123  0.00  0.00     0.197 A 
HETATM    2  N   UNK N   1      32.130  16.100   8.257  0.00  0.00    -0.219 NA
HETATM    3  C   UNK N   1      31.446  15.261   7.335  0.00  0.00     0.160 A 
HETATM    4  C   UNK N   1      31.269  17.074   8.162  0.00  0.00     0.226 A 
HETATM    5  C   UNK N   1      33.540  16.310   8.076  0.00  0.00     0.182 C 
HETATM    6  C   UNK N   1      34.017  15.080   7.313  0.00  0.00     0.029 C 
HETATM    7  S   UNK N   1      32.693  14.825   6.060  0.00  0.00    -0.135 SA
HETATM    8  C   UNK N   1      35.354  15.334   6.645  0.00  0.00     0.029 C 
HETATM    9  C   UNK N   1      34.115  13.849   8.209  0.00  0.00     0.029 C 
HETATM   10  O   UNK N   1      31.481  18.252   8.400  0.00  0.00    -0.277 OA
ENDROOT
BRANCH   1  11
HETATM   11  N   UNK N   1      30.626  17.247   5.927  0.00  0.00    -0.371 N 
HETATM   12  C   UNK N   1      29.745  18.052   5.422  0.00  0.00     0.174 C 
ATOM     13  HN  UNK N   1      31.529  17.158   5.460  1.00  0.00     0.161 HD
BRANCH  12  14
HETATM   14  N   UNK N   1      28.402  18.144   5.919  0.00  0.00    -0.377 N 
HETATM   15  C   UNK N   1      28.093  19.096   6.962  0.00  0.00     0.123 C 
HETATM   16  C   UNK N   1      27.580  20.423   6.403  0.00  0.00     0.020 C 
HETATM   17  C   UNK N   1      26.426  20.264   5.419  0.00  0.00     0.002 C 
HETATM   18  C   UNK N   1      26.963  19.788   4.073  0.00  0.00     0.002 C 
HETATM   19  C   UNK N   1      26.973  18.259   3.934  0.00  0.00     0.020 C 
HETATM   20  C   UNK N   1      27.296  17.513   5.235  0.00  0.00     0.123 C 
ENDBRANCH  12  14
ENDBRANCH   1  11
BRANCH   5  21
HETATM   21  C   UNK N   1      34.279  16.829   9.278  0.00  0.00     0.160 C 
HETATM   22  O   UNK N   1      35.046  17.771   9.151  0.00  0.00    -0.649 OA
BRANCH  21  23
HETATM   23  O   UNK N   1      34.165  16.222  10.473  0.00  0.00    -0.775 OA
HETATM   24  H   UNK N   1      33.322  16.031  10.832  0.00  0.00     0.167 HD
ENDBRANCH  21  23
ENDBRANCH   5  21
TORSDOF 4
ENDMDL
MODEL 5
REMARK VINA RESULT:      -6.0     12.834     14.336
REMARK  4 active torsions:
REMARK  status: ('A' for Active; 'I' for Inactive)
REMARK    1  A    between atoms: C_1  and  N_14 
REMARK    2  A    between atoms: C_5  and  C_11 
REMARK    3  A    between atoms: O_12  and  C_11 
REMARK    4  A    between atoms: N_17  and  C_16 
ROOT
HETATM    1  C   UNK N   1      20.300  15.163   7.104  0.00  0.00     0.197 A 
HETATM    2  N   UNK N   1      20.472  16.335   5.355  0.00  0.00    -0.219 NA
HETATM    3  C   UNK N   1      21.410  16.112   6.400  0.00  0.00     0.160 A 
HETATM    4  C   UNK N   1      19.530  15.629   5.914  0.00  0.00     0.226 A 
HETATM    5  C   UNK N   1      20.890  16.108   3.999  0.00  0.00     0.182 C 
HETATM    6  C   UNK N   1      22.403  16.289   4.027  0.00  0.00     0.029 C 
HETATM    7  S   UNK N   1      22.899  15.423   5.574  0.00  0.00    -0.135 SA
HETATM    8  C   UNK N   1      23.053  15.650   2.816  0.00  0.00     0.029 C 
HETATM    9  C   UNK N   1      22.805  17.758   4.113  0.00  0.00     0.029 C 
HETATM   10  O   UNK N   1      18.595  15.092   5.345  0.00  0.00    -0.277 OA
ENDROOT
BRANCH   1  11
HETATM   11  N   UNK N   1      20.520  13.750   6.878  0.00  0.00    -0.371 N 
HETATM   12  C   UNK N   1      21.112  12.984   7.740  0.00  0.00     0.174 C 
ATOM     13  HN  UNK N   1      20.195  13.339   6.003  1.00  0.00     0.161 HD
BRANCH  12  14
HETATM   14  N   UNK N   1      21.727  13.489   8.933  0.00  0.00    -0.377 N 
HETATM   15  C   UNK N   1      20.946  13.602  10.144  0.00  0.00     0.123 C 
HETATM   16  C   UNK N   1      21.082  12.371  11.040  0.00  0.00     0.020 C 
HETATM   17  C   UNK N   1      22.529  11.988  11.333  0.00  0.00     0.002 C 
HETATM   18  C   UNK N   1      23.131  11.294  10.115  0.00  0.00     0.002 C 
HETATM   19  C   UNK N   1      23.836  12.263   9.155  0.00  0.00     0.020 C 
HETATM   20  C   UNK N   1      23.162  13.636   9.043  0.00  0.00     0.123 C 
ENDBRANCH  12  14
ENDBRANCH   1  11
BRANCH   5  21
HETATM   21  C   UNK N   1      20.038  16.751   2.940  0.00  0.00     0.160 C 
HETATM   22  O   UNK N   1      20.324  16.598   1.763  0.00  0.00    -0.649 OA
BRANCH  21  23
HETATM   23  O   UNK N   1      19.011  17.554   3.274  0.00  0.00    -0.775 OA
HETATM   24  H   UNK N   1      18.150  17.387   2.946  0.00  0.00     0.167 HD
ENDBRANCH  21  23
ENDBRANCH   5  21
TORSDOF 4
ENDMDL
MODEL 6
REMARK VINA RESULT:      -6.0      1.556      2.047
REMARK  4 active torsions:
REMARK  status: ('A' for Active; 'I' for Inactive)
REMARK    1  A    between atoms: C_1  and  N_14 
REMARK    2  A    between atoms: C_5  and  C_11 
REMARK    3  A    between atoms: O_12  and  C_11 
REMARK    4  A    between atoms: N_17  and  C_16 
ROOT
HETATM    1  C   UNK N   1      35.781  14.453   9.526  0.00  0.00     0.197 A 
HETATM    2  N   UNK N   1      34.736  15.981   8.508  0.00  0.00    -0.219 NA
HETATM    3  C   UNK N   1      35.341  14.797   8.004  0.00  0.00     0.160 A 
HETATM    4  C   UNK N   1      35.120  15.774   9.736  0.00  0.00     0.226 A 
HETATM    5  C   UNK N   1      33.363  16.245   8.175  0.00  0.00     0.182 C 
HETATM    6  C   UNK N   1      33.133  15.494   6.869  0.00  0.00     0.029 C 
HETATM    7  S   UNK N   1      33.990  13.889   7.152  0.00  0.00    -0.135 SA
HETATM    8  C   UNK N   1      31.655  15.280   6.613  0.00  0.00     0.029 C 
HETATM    9  C   UNK N   1      33.765  16.206   5.677  0.00  0.00     0.029 C 
HETATM   10  O   UNK N   1      34.596  16.219  10.743  0.00  0.00    -0.277 OA
ENDROOT
BRANCH   1  11
HETATM   11  N   UNK N   1      34.916  13.493  10.176  0.00  0.00    -0.371 N 
HETATM   12  C   UNK N   1      35.147  13.029  11.364  0.00  0.00     0.174 C 
ATOM     13  HN  UNK N   1      34.087  13.167   9.677  1.00  0.00     0.161 HD
BRANCH  12  14
HETATM   14  N   UNK N   1      36.351  13.314  12.088  0.00  0.00    -0.377 N 
HETATM   15  C   UNK N   1      36.325  14.287  13.157  0.00  0.00     0.123 C 
HETATM   16  C   UNK N   1      36.098  13.642  14.524  0.00  0.00     0.020 C 
HETATM   17  C   UNK N   1      37.058  12.496  14.823  0.00  0.00     0.002 C 
HETATM   18  C   UNK N   1      36.627  11.252  14.052  0.00  0.00     0.002 C 
HETATM   19  C   UNK N   1      37.298  11.134  12.676  0.00  0.00     0.020 C 
HETATM   20  C   UNK N   1      37.524  12.477  11.970  0.00  0.00     0.123 C 
ENDBRANCH  12  14
ENDBRANCH   1  11
BRANCH   5  21
HETATM   21  C   UNK N   1      32.912  17.667   8.358  0.00  0.00     0.160 C 
HETATM   22  O   UNK N   1      33.668  18.580   8.067  0.00  0.00    -0.649 OA
BRANCH  21  23
HETATM   23  O   UNK N   1      31.716  17.946   8.909  0.00  0.00    -0.775 OA
HETATM   24  H   UNK N   1      31.538  18.798   9.254  0.00  0.00     0.167 HD
ENDBRANCH  21  23
ENDBRANCH   5  21
TORSDOF 4
ENDMDL
MODEL 7
REMARK VINA RESULT:      -5.9     16.668     19.236
REMARK  4 active torsions:
REMARK  status: ('A' for Active; 'I' for Inactive)
REMARK    1  A    between atoms: C_1  and  N_14 
REMARK    2  A    between atoms: C_5  and  C_11 
REMARK    3  A    between atoms: O_12  and  C_11 
REMARK    4  A    between atoms: N_17  and  C_16 
ROOT
HETATM    1  C   UNK N   1      29.720  22.549  -6.593  0.00  0.00     0.197 A 
HETATM    2  N   UNK N   1      27.855  23.535  -6.476  0.00  0.00    -0.219 NA
HETATM    3  C   UNK N   1      28.464  22.860  -7.570  0.00  0.00     0.160 A 
HETATM    4  C   UNK N   1      28.868  23.359  -5.675  0.00  0.00     0.226 A 
HETATM    5  C   UNK N   1      26.517  23.167  -6.104  0.00  0.00     0.182 C 
HETATM    6  C   UNK N   1      25.907  22.593  -7.376  0.00  0.00     0.029 C 
HETATM    7  S   UNK N   1      27.266  21.557  -8.061  0.00  0.00    -0.135 SA
HETATM    8  C   UNK N   1      24.687  21.749  -7.067  0.00  0.00     0.029 C 
HETATM    9  C   UNK N   1      25.540  23.681  -8.380  0.00  0.00     0.029 C 
HETATM   10  O   UNK N   1      28.833  23.355  -4.455  0.00  0.00    -0.277 OA
ENDROOT
BRANCH   1  11
HETATM   11  N   UNK N   1      29.705  21.212  -6.038  0.00  0.00    -0.371 N 
HETATM   12  C   UNK N   1      30.676  20.736  -5.325  0.00  0.00     0.174 C 
ATOM     13  HN  UNK N   1      28.893  20.620  -6.216  1.00  0.00     0.161 HD
BRANCH  12  14
HETATM   14  N   UNK N   1      31.915  21.433  -5.135  0.00  0.00    -0.377 N 
HETATM   15  C   UNK N   1      32.139  22.164  -3.909  0.00  0.00     0.123 C 
HETATM   16  C   UNK N   1      32.878  21.331  -2.862  0.00  0.00     0.020 C 
HETATM   17  C   UNK N   1      34.161  20.694  -3.386  0.00  0.00     0.002 C 
HETATM   18  C   UNK N   1      33.817  19.486  -4.253  0.00  0.00     0.002 C 
HETATM   19  C   UNK N   1      33.668  19.834  -5.741  0.00  0.00     0.020 C 
HETATM   20  C   UNK N   1      33.049  21.213  -6.004  0.00  0.00     0.123 C 
ENDBRANCH  12  14
ENDBRANCH   1  11
BRANCH   5  21
HETATM   21  C   UNK N   1      25.780  24.168  -5.257  0.00  0.00     0.160 C 
HETATM   22  O   UNK N   1      25.089  25.018  -5.796  0.00  0.00    -0.649 OA
BRANCH  21  23
HETATM   23  O   UNK N   1      25.934  24.187  -3.920  0.00  0.00    -0.775 OA
HETATM   24  H   UNK N   1      26.007  23.388  -3.438  0.00  0.00     0.167 HD
ENDBRANCH  21  23
ENDBRANCH   5  21
TORSDOF 4
ENDMDL
MODEL 8
REMARK VINA RESULT:      -5.7     18.915     20.453
REMARK  4 active torsions:
REMARK  status: ('A' for Active; 'I' for Inactive)
REMARK    1  A    between atoms: C_1  and  N_14 
REMARK    2  A    between atoms: C_5  and  C_11 
REMARK    3  A    between atoms: O_12  and  C_11 
REMARK    4  A    between atoms: N_17  and  C_16 
ROOT
HETATM    1  C   UNK N   1      28.298  23.868  -4.371  0.00  0.00     0.197 A 
HETATM    2  N   UNK N   1      27.666  25.803  -3.806  0.00  0.00    -0.219 NA
HETATM    3  C   UNK N   1      28.916  25.366  -4.326  0.00  0.00     0.160 A 
HETATM    4  C   UNK N   1      27.151  24.607  -3.769  0.00  0.00     0.226 A 
HETATM    5  C   UNK N   1      27.000  26.899  -4.453  0.00  0.00     0.182 C 
HETATM    6  C   UNK N   1      28.118  27.681  -5.133  0.00  0.00     0.029 C 
HETATM    7  S   UNK N   1      29.178  26.358  -5.849  0.00  0.00    -0.135 SA
HETATM    8  C   UNK N   1      27.571  28.585  -6.220  0.00  0.00     0.029 C 
HETATM    9  C   UNK N   1      28.931  28.504  -4.139  0.00  0.00     0.029 C 
HETATM   10  O   UNK N   1      25.963  24.330  -3.790  0.00  0.00    -0.277 OA
ENDROOT
BRANCH   1  11
HETATM   11  N   UNK N   1      27.841  23.470  -5.685  0.00  0.00    -0.371 N 
HETATM   12  C   UNK N   1      28.550  22.734  -6.483  0.00  0.00     0.174 C 
ATOM     13  HN  UNK N   1      26.921  23.781  -5.997  1.00  0.00     0.161 HD
BRANCH  12  14
HETATM   14  N   UNK N   1      29.905  22.363  -6.198  0.00  0.00    -0.377 N 
HETATM   15  C   UNK N   1      30.174  21.110  -5.529  0.00  0.00     0.123 C 
HETATM   16  C   UNK N   1      30.463  19.977  -6.513  0.00  0.00     0.020 C 
HETATM   17  C   UNK N   1      31.543  20.318  -7.535  0.00  0.00     0.002 C 
HETATM   18  C   UNK N   1      30.962  21.236  -8.606  0.00  0.00     0.002 C 
HETATM   19  C   UNK N   1      31.138  22.727  -8.283  0.00  0.00     0.020 C 
HETATM   20  C   UNK N   1      31.023  23.063  -6.790  0.00  0.00     0.123 C 
ENDBRANCH  12  14
ENDBRANCH   1  11
BRANCH   5  21
HETATM   21  C   UNK N   1      25.939  27.586  -3.640  0.00  0.00     0.160 C 
HETATM   22  O   UNK N   1      26.021  27.587  -2.421  0.00  0.00    -0.649 OA
BRANCH  21  23
HETATM   23  O   UNK N   1      24.860  28.130  -4.232  0.00  0.00    -0.775 OA
HETATM   24  H   UNK N   1      24.456  28.895  -3.874  0.00  0.00     0.167 HD
ENDBRANCH  21  23
ENDBRANCH   5  21
TORSDOF 4
ENDMDL
MODEL 9
REMARK VINA RESULT:      -5.6     14.440     16.402
REMARK  4 active torsions:
REMARK  status: ('A' for Active; 'I' for Inactive)
REMARK    1  A    between atoms: C_1  and  N_14 
REMARK    2  A    between atoms: C_5  and  C_11 
REMARK    3  A    between atoms: O_12  and  C_11 
REMARK    4  A    between atoms: N_17  and  C_16 
ROOT
HETATM    1  C   UNK N   1      20.084  16.004   2.131  0.00  0.00     0.197 A 
HETATM    2  N   UNK N   1      20.472  17.786   3.198  0.00  0.00    -0.219 NA
HETATM    3  C   UNK N   1      20.494  16.434   3.640  0.00  0.00     0.160 A 
HETATM    4  C   UNK N   1      20.085  17.489   1.990  0.00  0.00     0.226 A 
HETATM    5  C   UNK N   1      21.625  18.607   3.449  0.00  0.00     0.182 C 
HETATM    6  C   UNK N   1      22.294  17.972   4.661  0.00  0.00     0.029 C 
HETATM    7  S   UNK N   1      22.186  16.169   4.302  0.00  0.00    -0.135 SA
HETATM    8  C   UNK N   1      23.738  18.414   4.784  0.00  0.00     0.029 C 
HETATM    9  C   UNK N   1      21.549  18.279   5.957  0.00  0.00     0.029 C 
HETATM   10  O   UNK N   1      20.256  18.166   0.989  0.00  0.00    -0.277 OA
ENDROOT
BRANCH   1  11
HETATM   11  N   UNK N   1      21.204  15.550   1.334  0.00  0.00    -0.371 N 
HETATM   12  C   UNK N   1      21.458  14.296   1.128  0.00  0.00     0.174 C 
ATOM     13  HN  UNK N   1      21.821  16.248   0.917  1.00  0.00     0.161 HD
BRANCH  12  14
HETATM   14  N   UNK N   1      20.739  13.241   1.781  0.00  0.00    -0.377 N 
HETATM   15  C   UNK N   1      19.606  12.636   1.118  0.00  0.00     0.123 C 
HETATM   16  C   UNK N   1      19.992  11.382   0.334  0.00  0.00     0.020 C 
HETATM   17  C   UNK N   1      20.777  10.366   1.157  0.00  0.00     0.002 C 
HETATM   18  C   UNK N   1      22.220  10.838   1.313  0.00  0.00     0.002 C 
HETATM   19  C   UNK N   1      22.447  11.678   2.578  0.00  0.00     0.020 C 
HETATM   20  C   UNK N   1      21.264  12.579   2.954  0.00  0.00     0.123 C 
ENDBRANCH  12  14
ENDBRANCH   1  11
BRANCH   5  21
HETATM   21  C   UNK N   1      21.397  20.090   3.359  0.00  0.00     0.160 C 
HETATM   22  O   UNK N   1      20.348  20.563   3.766  0.00  0.00    -0.649 OA
BRANCH  21  23
HETATM   23  O   UNK N   1      22.301  20.892   2.768  0.00  0.00    -0.775 OA
HETATM   24  H   UNK N   1      22.904  21.392   3.282  0.00  0.00     0.167 HD
ENDBRANCH  21  23
ENDBRANCH   5  21
TORSDOF 4
ENDMDL
