MODEL 1
REMARK VINA RESULT:      -6.6      0.000      0.000
REMARK  3 active torsions:
REMARK  status: ('A' for Active; 'I' for Inactive)
REMARK    1  A    between atoms: C_16  and  C_17 
REMARK    2  A    between atoms: C_17  and  C_18 
REMARK    3  A    between atoms: C_18  and  N_19 
ROOT
HETATM    1  C   UNK N   1      21.057  13.403  10.178  0.00  0.00     0.013 A 
HETATM    2  C   UNK N   1      21.450  12.311  10.947  0.00  0.00     0.001 A 
HETATM    3  C   UNK N   1      22.660  11.683  10.681  0.00  0.00     0.001 A 
HETATM    4  C   UNK N   1      23.474  12.156   9.655  0.00  0.00     0.020 A 
HETATM    5  C   UNK N   1      23.086  13.251   8.872  0.00  0.00     0.016 A 
HETATM    6  C   UNK N   1      21.858  13.898   9.125  0.00  0.00    -0.008 A 
HETATM    7  C   UNK N   1      21.373  15.076   8.322  0.00  0.00    -0.017 C 
HETATM    8  S   UNK N   1      24.272  13.802   7.657  0.00  0.00    -0.089 SA
HETATM    9  C   UNK N   1      23.275  14.857   6.617  0.00  0.00     0.017 A 
HETATM   10  C   UNK N   1      22.038  15.423   7.010  0.00  0.00    -0.007 A 
HETATM   11  C   UNK N   1      21.393  16.283   6.097  0.00  0.00     0.037 A 
HETATM   12  C   UNK N   1      23.822  15.166   5.365  0.00  0.00     0.021 A 
HETATM   13  C   UNK N   1      23.161  16.014   4.483  0.00  0.00     0.025 A 
HETATM   14  C   UNK N   1      21.946  16.576   4.850  0.00  0.00     0.035 A 
HETATM   15 Cl   UNK N   1      21.102  17.633   3.740  0.00  0.00    -0.084 Cl
HETATM   16  C   UNK N   1      20.299  15.774   8.807  0.00  0.00    -0.012 C 
ENDROOT
BRANCH  16  17
HETATM   17  C   UNK N   1      19.696  17.000   8.194  0.00  0.00     0.058 C 
BRANCH  17  18
HETATM   18  C   UNK N   1      19.187  17.972   9.276  0.00  0.00     0.275 C 
BRANCH  18  19
HETATM   19  N   UNK N   1      17.914  17.606   9.917  0.00  0.00     0.080 N 
HETATM   20  C   UNK N   1      17.352  18.703  10.691  0.00  0.00     0.309 C 
HETATM   21  C   UNK N   1      16.938  17.165   8.932  0.00  0.00     0.309 C 
ENDBRANCH  18  19
ENDBRANCH  17  18
ENDBRANCH  16  17
TORSDOF 3
ENDMDL
MODEL 2
REMARK VINA RESULT:      -6.4      7.207      9.002
REMARK  3 active torsions:
REMARK  status: ('A' for Active; 'I' for Inactive)
REMARK    1  A    between atoms: C_16  and  C_17 
REMARK    2  A    between atoms: C_17  and  C_18 
REMARK    3  A    between atoms: C_18  and  N_19 
ROOT
HETATM    1  C   UNK N   1      31.091  16.253   6.408  0.00  0.00     0.013 A 
HETATM    2  C   UNK N   1      31.964  15.964   7.453  0.00  0.00     0.001 A 
HETATM    3  C   UNK N   1      31.785  16.575   8.687  0.00  0.00     0.001 A 
HETATM    4  C   UNK N   1      30.730  17.464   8.872  0.00  0.00     0.020 A 
HETATM    5  C   UNK N   1      29.848  17.767   7.826  0.00  0.00     0.016 A 
HETATM    6  C   UNK N   1      30.018  17.158   6.564  0.00  0.00    -0.008 A 
HETATM    7  C   UNK N   1      29.115  17.439   5.393  0.00  0.00    -0.017 C 
HETATM    8  S   UNK N   1      28.491  18.850   8.236  0.00  0.00    -0.089 SA
HETATM    9  C   UNK N   1      27.898  19.331   6.623  0.00  0.00     0.017 A 
HETATM   10  C   UNK N   1      28.172  18.620   5.429  0.00  0.00    -0.007 A 
HETATM   11  C   UNK N   1      27.587  19.093   4.237  0.00  0.00     0.037 A 
HETATM   12  C   UNK N   1      27.063  20.456   6.593  0.00  0.00     0.021 A 
HETATM   13  C   UNK N   1      26.503  20.903   5.401  0.00  0.00     0.025 A 
HETATM   14  C   UNK N   1      26.763  20.219   4.221  0.00  0.00     0.035 A 
HETATM   15 Cl   UNK N   1      26.072  20.784   2.715  0.00  0.00    -0.084 Cl
HETATM   16  C   UNK N   1      29.217  16.616   4.303  0.00  0.00    -0.012 C 
ENDROOT
BRANCH  16  17
HETATM   17  C   UNK N   1      28.381  16.688   3.062  0.00  0.00     0.058 C 
BRANCH  17  18
HETATM   18  C   UNK N   1      27.279  15.611   3.068  0.00  0.00     0.275 C 
BRANCH  18  19
HETATM   19  N   UNK N   1      25.995  16.008   2.467  0.00  0.00     0.080 N 
HETATM   20  C   UNK N   1      25.405  14.937   1.676  0.00  0.00     0.309 C 
HETATM   21  C   UNK N   1      25.047  16.431   3.486  0.00  0.00     0.309 C 
ENDBRANCH  18  19
ENDBRANCH  17  18
ENDBRANCH  16  17
TORSDOF 3
ENDMDL
MODEL 3
REMARK VINA RESULT:      -6.3     14.916     16.528
REMARK  3 active torsions:
REMARK  status: ('A' for Active; 'I' for Inactive)
REMARK    1  A    between atoms: C_16  and  C_17 
REMARK    2  A    between atoms: C_17  and  C_18 
REMARK    3  A    between atoms: C_18  and  N_19 
ROOT
HETATM    1  C   UNK N   1      35.464  13.753  17.069  0.00  0.00     0.013 A 
HETATM    2  C   UNK N   1      35.238  13.818  18.441  0.00  0.00     0.001 A 
HETATM    3  C   UNK N   1      35.180  12.647  19.185  0.00  0.00     0.001 A 
HETATM    4  C   UNK N   1      35.357  11.418  18.555  0.00  0.00     0.020 A 
HETATM    5  C   UNK N   1      35.580  11.339  17.174  0.00  0.00     0.016 A 
HETATM    6  C   UNK N   1      35.637  12.519  16.401  0.00  0.00    -0.008 A 
HETATM    7  C   UNK N   1      35.866  12.512  14.914  0.00  0.00    -0.017 C 
HETATM    8  S   UNK N   1      35.881   9.706  16.522  0.00  0.00    -0.089 SA
HETATM    9  C   UNK N   1      35.671   9.960  14.768  0.00  0.00     0.017 A 
HETATM   10  C   UNK N   1      35.737  11.225  14.134  0.00  0.00    -0.007 A 
HETATM   11  C   UNK N   1      35.606  11.259  12.730  0.00  0.00     0.037 A 
HETATM   12  C   UNK N   1      35.492   8.800  14.003  0.00  0.00     0.021 A 
HETATM   13  C   UNK N   1      35.361   8.865  12.620  0.00  0.00     0.025 A 
HETATM   14  C   UNK N   1      35.421  10.096  11.982  0.00  0.00     0.035 A 
HETATM   15 Cl   UNK N   1      35.244  10.187  10.243  0.00  0.00    -0.084 Cl
HETATM   16  C   UNK N   1      36.149  13.710  14.311  0.00  0.00    -0.012 C 
ENDROOT
BRANCH  16  17
HETATM   17  C   UNK N   1      36.460  13.914  12.861  0.00  0.00     0.058 C 
BRANCH  17  18
HETATM   18  C   UNK N   1      35.678  15.110  12.285  0.00  0.00     0.275 C 
BRANCH  18  19
HETATM   19  N   UNK N   1      36.244  15.719  11.070  0.00  0.00     0.080 N 
HETATM   20  C   UNK N   1      36.683  14.719  10.108  0.00  0.00     0.309 C 
HETATM   21  C   UNK N   1      35.286  16.609  10.433  0.00  0.00     0.309 C 
ENDBRANCH  18  19
ENDBRANCH  17  18
ENDBRANCH  16  17
TORSDOF 3
ENDMDL
MODEL 4
REMARK VINA RESULT:      -6.3     16.283     18.086
REMARK  3 active torsions:
REMARK  status: ('A' for Active; 'I' for Inactive)
REMARK    1  A    between atoms: C_16  and  C_17 
REMARK    2  A    between atoms: C_17  and  C_18 
REMARK    3  A    between atoms: C_18  and  N_19 
ROOT
HETATM    1  C   UNK N   1      26.834  26.373  -3.689  0.00  0.00     0.013 A 
HETATM    2  C   UNK N   1      26.038  27.513  -3.765  0.00  0.00     0.001 A 
HETATM    3  C   UNK N   1      25.192  27.689  -4.851  0.00  0.00     0.001 A 
HETATM    4  C   UNK N   1      25.140  26.722  -5.852  0.00  0.00     0.020 A 
HETATM    5  C   UNK N   1      25.940  25.574  -5.789  0.00  0.00     0.016 A 
HETATM    6  C   UNK N   1      26.809  25.380  -4.694  0.00  0.00    -0.008 A 
HETATM    7  C   UNK N   1      27.702  24.176  -4.562  0.00  0.00    -0.017 C 
HETATM    8  S   UNK N   1      25.698  24.380  -7.094  0.00  0.00    -0.089 SA
HETATM    9  C   UNK N   1      27.142  23.344  -6.921  0.00  0.00     0.017 A 
HETATM   10  C   UNK N   1      27.934  23.271  -5.750  0.00  0.00    -0.007 A 
HETATM   11  C   UNK N   1      29.013  22.363  -5.746  0.00  0.00     0.037 A 
HETATM   12  C   UNK N   1      27.434  22.523  -8.019  0.00  0.00     0.021 A 
HETATM   13  C   UNK N   1      28.508  21.640  -7.988  0.00  0.00     0.025 A 
HETATM   14  C   UNK N   1      29.297  21.556  -6.849  0.00  0.00     0.035 A 
HETATM   15 Cl   UNK N   1      30.658  20.457  -6.808  0.00  0.00    -0.084 Cl
HETATM   16  C   UNK N   1      28.312  23.969  -3.353  0.00  0.00    -0.012 C 
ENDROOT
BRANCH  16  17
HETATM   17  C   UNK N   1      29.192  22.811  -2.996  0.00  0.00     0.058 C 
BRANCH  17  18
HETATM   18  C   UNK N   1      30.595  23.286  -2.572  0.00  0.00     0.275 C 
BRANCH  18  19
HETATM   19  N   UNK N   1      31.720  22.478  -3.070  0.00  0.00     0.080 N 
HETATM   20  C   UNK N   1      31.339  21.094  -3.312  0.00  0.00     0.309 C 
HETATM   21  C   UNK N   1      32.273  23.043  -4.291  0.00  0.00     0.309 C 
ENDBRANCH  18  19
ENDBRANCH  17  18
ENDBRANCH  16  17
TORSDOF 3
ENDMDL
MODEL 5
REMARK VINA RESULT:      -5.9     17.427     18.704
REMARK  3 active torsions:
REMARK  status: ('A' for Active; 'I' for Inactive)
REMARK    1  A    between atoms: C_16  and  C_17 
REMARK    2  A    between atoms: C_17  and  C_18 
REMARK    3  A    between atoms: C_18  and  N_19 
ROOT
HETATM    1  C   UNK N   1      25.508  25.784  -5.892  0.00  0.00     0.013 A 
HETATM    2  C   UNK N   1      24.775  26.938  -5.627  0.00  0.00     0.001 A 
HETATM    3  C   UNK N   1      25.345  27.957  -4.876  0.00  0.00     0.001 A 
HETATM    4  C   UNK N   1      26.647  27.822  -4.402  0.00  0.00     0.020 A 
HETATM    5  C   UNK N   1      27.393  26.663  -4.658  0.00  0.00     0.016 A 
HETATM    6  C   UNK N   1      26.828  25.616  -5.416  0.00  0.00    -0.008 A 
HETATM    7  C   UNK N   1      27.565  24.341  -5.726  0.00  0.00    -0.017 C 
HETATM    8  S   UNK N   1      29.077  26.671  -4.068  0.00  0.00    -0.089 SA
HETATM    9  C   UNK N   1      29.517  24.944  -4.178  0.00  0.00     0.017 A 
HETATM   10  C   UNK N   1      28.832  23.998  -4.978  0.00  0.00    -0.007 A 
HETATM   11  C   UNK N   1      29.333  22.680  -5.004  0.00  0.00     0.037 A 
HETATM   12  C   UNK N   1      30.655  24.561  -3.456  0.00  0.00     0.021 A 
HETATM   13  C   UNK N   1      31.123  23.252  -3.497  0.00  0.00     0.025 A 
HETATM   14  C   UNK N   1      30.464  22.310  -4.274  0.00  0.00     0.035 A 
HETATM   15 Cl   UNK N   1      31.040  20.658  -4.320  0.00  0.00    -0.084 Cl
HETATM   16  C   UNK N   1      27.021  23.507  -6.668  0.00  0.00    -0.012 C 
ENDROOT
BRANCH  16  17
HETATM   17  C   UNK N   1      27.617  22.224  -7.158  0.00  0.00     0.058 C 
BRANCH  17  18
HETATM   18  C   UNK N   1      26.634  21.464  -8.068  0.00  0.00     0.275 C 
BRANCH  18  19
HETATM   19  N   UNK N   1      27.104  21.201  -9.438  0.00  0.00     0.080 N 
HETATM   20  C   UNK N   1      26.389  21.996 -10.427  0.00  0.00     0.309 C 
HETATM   21  C   UNK N   1      28.531  21.454  -9.562  0.00  0.00     0.309 C 
ENDBRANCH  18  19
ENDBRANCH  17  18
ENDBRANCH  16  17
TORSDOF 3
ENDMDL
MODEL 6
REMARK VINA RESULT:      -5.9      3.086      5.231
REMARK  3 active torsions:
REMARK  status: ('A' for Active; 'I' for Inactive)
REMARK    1  A    between atoms: C_16  and  C_17 
REMARK    2  A    between atoms: C_17  and  C_18 
REMARK    3  A    between atoms: C_18  and  N_19 
ROOT
HETATM    1  C   UNK N   1      23.258  12.248   9.224  0.00  0.00     0.013 A 
HETATM    2  C   UNK N   1      22.875  11.600  10.395  0.00  0.00     0.001 A 
HETATM    3  C   UNK N   1      21.732  12.011  11.067  0.00  0.00     0.001 A 
HETATM    4  C   UNK N   1      20.972  13.062  10.560  0.00  0.00     0.020 A 
HETATM    5  C   UNK N   1      21.350  13.726   9.385  0.00  0.00     0.016 A 
HETATM    6  C   UNK N   1      22.511  13.324   8.691  0.00  0.00    -0.008 A 
HETATM    7  C   UNK N   1      22.982  13.993   7.428  0.00  0.00    -0.017 C 
HETATM    8  S   UNK N   1      20.230  14.989   8.807  0.00  0.00    -0.089 SA
HETATM    9  C   UNK N   1      21.236  15.860   7.616  0.00  0.00     0.017 A 
HETATM   10  C   UNK N   1      22.401  15.325   7.015  0.00  0.00    -0.007 A 
HETATM   11  C   UNK N   1      23.059  16.113   6.049  0.00  0.00     0.037 A 
HETATM   12  C   UNK N   1      20.771  17.127   7.239  0.00  0.00     0.021 A 
HETATM   13  C   UNK N   1      21.444  17.885   6.287  0.00  0.00     0.025 A 
HETATM   14  C   UNK N   1      22.588  17.376   5.688  0.00  0.00     0.035 A 
HETATM   15 Cl   UNK N   1      23.448  18.330   4.499  0.00  0.00    -0.084 Cl
HETATM   16  C   UNK N   1      23.969  13.369   6.711  0.00  0.00    -0.012 C 
ENDROOT
BRANCH  16  17
HETATM   17  C   UNK N   1      24.539  13.835   5.407  0.00  0.00     0.058 C 
BRANCH  17  18
HETATM   18  C   UNK N   1      26.079  13.811   5.431  0.00  0.00     0.275 C 
BRANCH  18  19
HETATM   19  N   UNK N   1      26.742  15.104   5.198  0.00  0.00     0.080 N 
HETATM   20  C   UNK N   1      26.182  15.812   4.056  0.00  0.00     0.309 C 
HETATM   21  C   UNK N   1      26.663  15.955   6.376  0.00  0.00     0.309 C 
ENDBRANCH  18  19
ENDBRANCH  17  18
ENDBRANCH  16  17
TORSDOF 3
ENDMDL
MODEL 7
REMARK VINA RESULT:      -5.8     14.943     17.539
REMARK  3 active torsions:
REMARK  status: ('A' for Active; 'I' for Inactive)
REMARK    1  A    between atoms: C_16  and  C_17 
REMARK    2  A    between atoms: C_17  and  C_18 
REMARK    3  A    between atoms: C_18  and  N_19 
ROOT
HETATM    1  C   UNK N   1      37.815  10.303  13.330  0.00  0.00     0.013 A 
HETATM    2  C   UNK N   1      38.259   9.023  13.010  0.00  0.00     0.001 A 
HETATM    3  C   UNK N   1      37.935   7.955  13.836  0.00  0.00     0.001 A 
HETATM    4  C   UNK N   1      37.161   8.171  14.973  0.00  0.00     0.020 A 
HETATM    5  C   UNK N   1      36.713   9.455  15.309  0.00  0.00     0.016 A 
HETATM    6  C   UNK N   1      37.037  10.552  14.483  0.00  0.00    -0.008 A 
HETATM    7  C   UNK N   1      36.596  11.960  14.783  0.00  0.00    -0.017 C 
HETATM    8  S   UNK N   1      35.654   9.564  16.742  0.00  0.00    -0.089 SA
HETATM    9  C   UNK N   1      35.675  11.315  17.087  0.00  0.00     0.017 A 
HETATM   10  C   UNK N   1      36.048  12.307  16.148  0.00  0.00    -0.007 A 
HETATM   11  C   UNK N   1      35.960  13.655  16.552  0.00  0.00     0.037 A 
HETATM   12  C   UNK N   1      35.227  11.688  18.361  0.00  0.00     0.021 A 
HETATM   13  C   UNK N   1      35.155  13.026  18.733  0.00  0.00     0.025 A 
HETATM   14  C   UNK N   1      35.519  14.012  17.827  0.00  0.00     0.035 A 
HETATM   15 Cl   UNK N   1      35.444  15.697  18.293  0.00  0.00    -0.084 Cl
HETATM   16  C   UNK N   1      36.752  12.897  13.796  0.00  0.00    -0.012 C 
ENDROOT
BRANCH  16  17
HETATM   17  C   UNK N   1      36.334  14.333  13.869  0.00  0.00     0.058 C 
BRANCH  17  18
HETATM   18  C   UNK N   1      35.887  14.855  12.491  0.00  0.00     0.275 C 
BRANCH  18  19
HETATM   19  N   UNK N   1      36.064  13.922  11.366  0.00  0.00     0.080 N 
HETATM   20  C   UNK N   1      34.806  13.627  10.693  0.00  0.00     0.309 C 
HETATM   21  C   UNK N   1      37.015  14.442  10.396  0.00  0.00     0.309 C 
ENDBRANCH  18  19
ENDBRANCH  17  18
ENDBRANCH  16  17
TORSDOF 3
ENDMDL
MODEL 8
REMARK VINA RESULT:      -5.8      8.415     10.734
REMARK  3 active torsions:
REMARK  status: ('A' for Active; 'I' for Inactive)
REMARK    1  A    between atoms: C_16  and  C_17 
REMARK    2  A    between atoms: C_17  and  C_18 
REMARK    3  A    between atoms: C_18  and  N_19 
ROOT
HETATM    1  C   UNK N   1      28.647  17.560   7.267  0.00  0.00     0.013 A 
HETATM    2  C   UNK N   1      28.084  17.974   8.471  0.00  0.00     0.001 A 
HETATM    3  C   UNK N   1      28.908  18.284   9.545  0.00  0.00     0.001 A 
HETATM    4  C   UNK N   1      30.290  18.186   9.407  0.00  0.00     0.020 A 
HETATM    5  C   UNK N   1      30.868  17.765   8.202  0.00  0.00     0.016 A 
HETATM    6  C   UNK N   1      30.046  17.443   7.102  0.00  0.00    -0.008 A 
HETATM    7  C   UNK N   1      30.595  16.978   5.779  0.00  0.00    -0.017 C 
HETATM    8  S   UNK N   1      32.652  17.778   8.145  0.00  0.00    -0.089 SA
HETATM    9  C   UNK N   1      32.984  16.795   6.692  0.00  0.00     0.017 A 
HETATM   10  C   UNK N   1      32.037  16.541   5.670  0.00  0.00    -0.007 A 
HETATM   11  C   UNK N   1      32.465  15.792   4.554  0.00  0.00     0.037 A 
HETATM   12  C   UNK N   1      34.295  16.317   6.568  0.00  0.00     0.021 A 
HETATM   13  C   UNK N   1      34.688  15.577   5.459  0.00  0.00     0.025 A 
HETATM   14  C   UNK N   1      33.773  15.316   4.448  0.00  0.00     0.035 A 
HETATM   15 Cl   UNK N   1      34.256  14.373   3.055  0.00  0.00    -0.084 Cl
HETATM   16  C   UNK N   1      29.732  16.933   4.716  0.00  0.00    -0.012 C 
ENDROOT
BRANCH  16  17
HETATM   17  C   UNK N   1      30.084  16.553   3.311  0.00  0.00     0.058 C 
BRANCH  17  18
HETATM   18  C   UNK N   1      29.148  15.452   2.779  0.00  0.00     0.275 C 
BRANCH  18  19
HETATM   19  N   UNK N   1      27.859  15.316   3.478  0.00  0.00     0.080 N 
HETATM   20  C   UNK N   1      26.759  15.894   2.720  0.00  0.00     0.309 C 
HETATM   21  C   UNK N   1      27.563  13.921   3.766  0.00  0.00     0.309 C 
ENDBRANCH  18  19
ENDBRANCH  17  18
ENDBRANCH  16  17
TORSDOF 3
ENDMDL
MODEL 9
REMARK VINA RESULT:      -5.8     14.338     16.678
REMARK  3 active torsions:
REMARK  status: ('A' for Active; 'I' for Inactive)
REMARK    1  A    between atoms: C_16  and  C_17 
REMARK    2  A    between atoms: C_17  and  C_18 
REMARK    3  A    between atoms: C_18  and  N_19 
ROOT
HETATM    1  C   UNK N   1      34.535   9.424  17.694  0.00  0.00     0.013 A 
HETATM    2  C   UNK N   1      34.580   8.996  19.018  0.00  0.00     0.001 A 
HETATM    3  C   UNK N   1      34.947   9.888  20.017  0.00  0.00     0.001 A 
HETATM    4  C   UNK N   1      35.260  11.205  19.688  0.00  0.00     0.020 A 
HETATM    5  C   UNK N   1      35.225  11.645  18.358  0.00  0.00     0.016 A 
HETATM    6  C   UNK N   1      34.857  10.751  17.330  0.00  0.00    -0.008 A 
HETATM    7  C   UNK N   1      34.802  11.151  15.880  0.00  0.00    -0.017 C 
HETATM    8  S   UNK N   1      35.559  13.379  18.100  0.00  0.00    -0.089 SA
HETATM    9  C   UNK N   1      35.856  13.442  16.340  0.00  0.00     0.017 A 
HETATM   10  C   UNK N   1      35.437  12.445  15.426  0.00  0.00    -0.007 A 
HETATM   11  C   UNK N   1      35.696  12.662  14.057  0.00  0.00     0.037 A 
HETATM   12  C   UNK N   1      36.493  14.599  15.873  0.00  0.00     0.021 A 
HETATM   13  C   UNK N   1      36.741  14.784  14.517  0.00  0.00     0.025 A 
HETATM   14  C   UNK N   1      36.339  13.817  13.607  0.00  0.00     0.035 A 
HETATM   15 Cl   UNK N   1      36.658  14.038  11.901  0.00  0.00    -0.084 Cl
HETATM   16  C   UNK N   1      34.199  10.284  15.006  0.00  0.00    -0.012 C 
ENDROOT
BRANCH  16  17
HETATM   17  C   UNK N   1      33.993  10.512  13.541  0.00  0.00     0.058 C 
BRANCH  17  18
HETATM   18  C   UNK N   1      34.652   9.398  12.705  0.00  0.00     0.275 C 
BRANCH  18  19
HETATM   19  N   UNK N   1      34.547   9.549  11.244  0.00  0.00     0.080 N 
HETATM   20  C   UNK N   1      33.165   9.515  10.786  0.00  0.00     0.309 C 
HETATM   21  C   UNK N   1      35.171  10.784  10.797  0.00  0.00     0.309 C 
ENDBRANCH  18  19
ENDBRANCH  17  18
ENDBRANCH  16  17
TORSDOF 3
ENDMDL
