MODEL 1
REMARK VINA RESULT:      -7.3      0.000      0.000
REMARK  13 active torsions:
REMARK  status: ('A' for Active; 'I' for Inactive)
REMARK    1  A    between atoms: O_3  and  C_25 
REMARK    2  A    between atoms: O_3  and  C_30 
REMARK    3  A    between atoms: O_5  and  N_10 
REMARK       I    between atoms: N_6  and  C_22 
REMARK    4  A    between atoms: C_13  and  N_7 
REMARK    5  A    between atoms: N_7  and  C_24 
REMARK       I    between atoms: N_8  and  C_23 
REMARK    6  A    between atoms: N_8  and  C_26 
REMARK    7  A    between atoms: N_9  and  C_35 
REMARK    8  A    between atoms: C_12  and  C_13 
REMARK    9  A    between atoms: C_13  and  C_22 
REMARK   10  A    between atoms: C_18  and  C_23 
REMARK   11  A    between atoms: C_24  and  C_25 
REMARK   12  A    between atoms: C_26  and  C_27 
REMARK   13  A    between atoms: C_33  and  C_35 
ROOT
HETATM    1  O   UNK N   1      24.350  17.747   5.094  0.00  0.00    -0.271 OA
HETATM    2  N   UNK N   1      25.384  16.438   3.617  0.00  0.00    -0.337 N 
HETATM    3  C   UNK N   1      24.771  15.198   3.911  0.00  0.00     0.180 A 
HETATM    4  C   UNK N   1      26.229  16.035   2.560  0.00  0.00     0.129 A 
HETATM    5  C   UNK N   1      25.629  14.609   2.754  0.00  0.00     0.055 A 
HETATM    6  C   UNK N   1      25.174  17.654   4.199  0.00  0.00     0.243 C 
ENDROOT
BRANCH   3   7
HETATM    7  C   UNK N   1      23.292  15.204   3.589  0.00  0.00     0.240 C 
HETATM    8  O   UNK N   1      22.918  15.262   2.428  0.00  0.00    -0.271 OA
HETATM    9  N   UNK N   1      22.372  15.123   4.580  0.00  0.00    -0.355 N 
HETATM   10  H   UNK N   1      21.415  15.120   4.350  0.00  0.00     0.162 HD
BRANCH   9  11
HETATM   11  C   UNK N   1      22.763  15.042   5.967  0.00  0.00     0.161 C 
BRANCH  11  12
HETATM   12  C   UNK N   1      21.757  15.734   6.821  0.00  0.00    -0.040 A 
HETATM   13  C   UNK N   1      21.293  16.996   6.447  0.00  0.00     0.010 A 
HETATM   14  C   UNK N   1      20.352  17.659   7.238  0.00  0.00     0.016 A 
HETATM   15  C   UNK N   1      19.854  17.065   8.409  0.00  0.00     0.009 A 
HETATM   16  C   UNK N   1      20.325  15.792   8.772  0.00  0.00     0.016 A 
HETATM   17  C   UNK N   1      21.275  15.131   7.986  0.00  0.00     0.010 A 
BRANCH  15  18
HETATM   18  C   UNK N   1      18.835  17.739   9.275  0.00  0.00     0.129 C 
HETATM   19  N   UNK N   1      19.067  18.835   9.923  0.00  0.00    -0.253 N 
ATOM     20  HN  UNK N   1      18.317  19.233  10.488  1.00  0.00     0.196 HD
BRANCH  18  21
HETATM   21  N   UNK N   1      17.553  17.153   9.392  0.00  0.00    -0.383 N 
HETATM   22  H   UNK N   1      16.821  17.589   9.885  0.00  0.00     0.157 HD
HETATM   23  H   UNK N   1      17.387  16.282   8.965  0.00  0.00     0.157 HD
ENDBRANCH  18  21
BRANCH  19  24
HETATM   24  O   UNK N   1      20.226  19.457   9.887  0.00  0.00    -0.288 OA
HETATM   25  H   UNK N   1      20.756  19.559  10.652  0.00  0.00     0.244 HD
ENDBRANCH  19  24
ENDBRANCH  15  18
ENDBRANCH  11  12
ENDBRANCH   9  11
ENDBRANCH   3   7
BRANCH   6  26
HETATM   26  C   UNK N   1      25.934  18.912   3.793  0.00  0.00     0.174 C 
BRANCH  26  27
HETATM   27  N   UNK N   1      25.147  20.139   3.877  0.00  0.00    -0.400 N 
HETATM   28  H   UNK N   1      25.113  20.768   4.680  0.00  0.00     0.154 HD
BRANCH  27  29
HETATM   29  C   UNK N   1      24.419  20.317   2.631  0.00  0.00     0.226 C 
BRANCH  29  30
HETATM   30  C   UNK N   1      22.970  20.502   2.926  0.00  0.00     0.276 C 
HETATM   31  O   UNK N   1      22.437  21.577   2.693  0.00  0.00    -0.263 OA
BRANCH  30  32
HETATM   32  O   UNK N   1      22.265  19.476   3.460  0.00  0.00    -0.321 OA
BRANCH  32  33
HETATM   33  C   UNK N   1      20.899  19.514   3.610  0.00  0.00     0.174 C 
HETATM   34  C   UNK N   1      20.248  18.771   2.462  0.00  0.00     0.034 C 
ENDBRANCH  32  33
ENDBRANCH  30  32
ENDBRANCH  29  30
ENDBRANCH  27  29
ENDBRANCH  26  27
BRANCH  26  35
HETATM   35  C   UNK N   1      27.259  19.126   4.546  0.00  0.00     0.017 C 
HETATM   36  C   UNK N   1      27.539  17.896   5.425  0.00  0.00     0.007 C 
HETATM   37  C   UNK N   1      28.666  18.174   6.416  0.00  0.00     0.000 C 
HETATM   38  C   UNK N   1      28.331  19.340   7.359  0.00  0.00     0.000 C 
HETATM   39  C   UNK N   1      27.244  20.278   6.820  0.00  0.00     0.000 C 
HETATM   40  C   UNK N   1      27.385  20.458   5.315  0.00  0.00     0.007 C 
ENDBRANCH  26  35
ENDBRANCH   6  26
TORSDOF 13
ENDMDL
MODEL 2
REMARK VINA RESULT:      -7.2     12.246     15.054
REMARK  13 active torsions:
REMARK  status: ('A' for Active; 'I' for Inactive)
REMARK    1  A    between atoms: O_3  and  C_25 
REMARK    2  A    between atoms: O_3  and  C_30 
REMARK    3  A    between atoms: O_5  and  N_10 
REMARK       I    between atoms: N_6  and  C_22 
REMARK    4  A    between atoms: C_13  and  N_7 
REMARK    5  A    between atoms: N_7  and  C_24 
REMARK       I    between atoms: N_8  and  C_23 
REMARK    6  A    between atoms: N_8  and  C_26 
REMARK    7  A    between atoms: N_9  and  C_35 
REMARK    8  A    between atoms: C_12  and  C_13 
REMARK    9  A    between atoms: C_13  and  C_22 
REMARK   10  A    between atoms: C_18  and  C_23 
REMARK   11  A    between atoms: C_24  and  C_25 
REMARK   12  A    between atoms: C_26  and  C_27 
REMARK   13  A    between atoms: C_33  and  C_35 
ROOT
HETATM    1  O   UNK N   1      34.348  14.300  11.695  0.00  0.00    -0.271 OA
HETATM    2  N   UNK N   1      36.323  13.818  10.785  0.00  0.00    -0.337 N 
HETATM    3  C   UNK N   1      36.980  13.251  11.902  0.00  0.00     0.180 A 
HETATM    4  C   UNK N   1      37.344  13.679   9.819  0.00  0.00     0.129 A 
HETATM    5  C   UNK N   1      38.188  13.014  10.950  0.00  0.00     0.055 A 
HETATM    6  C   UNK N   1      35.059  14.322  10.704  0.00  0.00     0.243 C 
ENDROOT
BRANCH   3   7
HETATM    7  C   UNK N   1      36.333  11.958  12.348  0.00  0.00     0.240 C 
HETATM    8  O   UNK N   1      36.187  11.041  11.555  0.00  0.00    -0.271 OA
HETATM    9  N   UNK N   1      35.929  11.798  13.631  0.00  0.00    -0.355 N 
HETATM   10  H   UNK N   1      35.518  10.946  13.903  0.00  0.00     0.162 HD
BRANCH   9  11
HETATM   11  C   UNK N   1      36.089  12.847  14.608  0.00  0.00     0.161 C 
BRANCH  11  12
HETATM   12  C   UNK N   1      35.911  12.296  15.980  0.00  0.00    -0.040 A 
HETATM   13  C   UNK N   1      36.339  10.997  16.258  0.00  0.00     0.010 A 
HETATM   14  C   UNK N   1      36.177  10.464  17.539  0.00  0.00     0.016 A 
HETATM   15  C   UNK N   1      35.593  11.225  18.564  0.00  0.00     0.009 A 
HETATM   16  C   UNK N   1      35.169  12.533  18.273  0.00  0.00     0.016 A 
HETATM   17  C   UNK N   1      35.322  13.066  16.989  0.00  0.00     0.010 A 
BRANCH  15  18
HETATM   18  C   UNK N   1      35.414  10.694  19.952  0.00  0.00     0.129 C 
HETATM   19  N   UNK N   1      34.493   9.844  20.273  0.00  0.00    -0.253 N 
ATOM     20  HN  UNK N   1      34.442   9.526  21.242  1.00  0.00     0.196 HD
BRANCH  18  21
HETATM   21  N   UNK N   1      36.296  11.138  20.965  0.00  0.00    -0.383 N 
HETATM   22  H   UNK N   1      36.878  11.922  20.845  0.00  0.00     0.157 HD
HETATM   23  H   UNK N   1      36.328  10.646  21.817  0.00  0.00     0.157 HD
ENDBRANCH  18  21
BRANCH  19  24
HETATM   24  O   UNK N   1      33.620   9.372  19.409  0.00  0.00    -0.288 OA
HETATM   25  H   UNK N   1      33.809   8.628  18.872  0.00  0.00     0.244 HD
ENDBRANCH  19  24
ENDBRANCH  15  18
ENDBRANCH  11  12
ENDBRANCH   9  11
ENDBRANCH   3   7
BRANCH   6  26
HETATM   26  C   UNK N   1      34.487  14.931   9.428  0.00  0.00     0.174 C 
BRANCH  26  27
HETATM   27  N   UNK N   1      35.173  16.141   8.984  0.00  0.00    -0.400 N 
HETATM   28  H   UNK N   1      36.135  16.188   8.649  0.00  0.00     0.154 HD
BRANCH  27  29
HETATM   29  C   UNK N   1      34.259  17.268   9.095  0.00  0.00     0.226 C 
BRANCH  29  30
HETATM   30  C   UNK N   1      34.688  18.346   8.161  0.00  0.00     0.276 C 
HETATM   31  O   UNK N   1      35.338  19.291   8.584  0.00  0.00    -0.263 OA
BRANCH  30  32
HETATM   32  O   UNK N   1      34.339  18.270   6.854  0.00  0.00    -0.321 OA
BRANCH  32  33
HETATM   33  C   UNK N   1      33.212  17.609   6.425  0.00  0.00     0.174 C 
HETATM   34  C   UNK N   1      33.283  17.422   4.924  0.00  0.00     0.034 C 
ENDBRANCH  32  33
ENDBRANCH  30  32
ENDBRANCH  29  30
ENDBRANCH  27  29
ENDBRANCH  26  27
BRANCH  26  35
HETATM   35  C   UNK N   1      34.395  13.955   8.242  0.00  0.00     0.017 C 
HETATM   36  C   UNK N   1      35.074  14.590   7.018  0.00  0.00     0.007 C 
HETATM   37  C   UNK N   1      34.751  13.812   5.745  0.00  0.00     0.000 C 
HETATM   38  C   UNK N   1      33.241  13.773   5.459  0.00  0.00     0.000 C 
HETATM   39  C   UNK N   1      32.372  14.041   6.693  0.00  0.00     0.000 C 
HETATM   40  C   UNK N   1      32.986  13.407   7.934  0.00  0.00     0.007 C 
ENDBRANCH  26  35
ENDBRANCH   6  26
TORSDOF 13
ENDMDL
MODEL 3
REMARK VINA RESULT:      -7.1     11.021     14.651
REMARK  13 active torsions:
REMARK  status: ('A' for Active; 'I' for Inactive)
REMARK    1  A    between atoms: O_3  and  C_25 
REMARK    2  A    between atoms: O_3  and  C_30 
REMARK    3  A    between atoms: O_5  and  N_10 
REMARK       I    between atoms: N_6  and  C_22 
REMARK    4  A    between atoms: C_13  and  N_7 
REMARK    5  A    between atoms: N_7  and  C_24 
REMARK       I    between atoms: N_8  and  C_23 
REMARK    6  A    between atoms: N_8  and  C_26 
REMARK    7  A    between atoms: N_9  and  C_35 
REMARK    8  A    between atoms: C_12  and  C_13 
REMARK    9  A    between atoms: C_13  and  C_22 
REMARK   10  A    between atoms: C_18  and  C_23 
REMARK   11  A    between atoms: C_24  and  C_25 
REMARK   12  A    between atoms: C_26  and  C_27 
REMARK   13  A    between atoms: C_33  and  C_35 
ROOT
HETATM    1  O   UNK N   1      34.349  14.174  12.210  0.00  0.00    -0.271 OA
HETATM    2  N   UNK N   1      36.184  13.874  10.983  0.00  0.00    -0.337 N 
HETATM    3  C   UNK N   1      35.767  14.457   9.764  0.00  0.00     0.180 A 
HETATM    4  C   UNK N   1      37.501  13.510  10.628  0.00  0.00     0.129 A 
HETATM    5  C   UNK N   1      37.193  14.135   9.233  0.00  0.00     0.055 A 
HETATM    6  C   UNK N   1      35.488  13.742  12.148  0.00  0.00     0.243 C 
ENDROOT
BRANCH   3   7
HETATM    7  C   UNK N   1      35.522  15.944   9.898  0.00  0.00     0.240 C 
HETATM    8  O   UNK N   1      36.205  16.611  10.661  0.00  0.00    -0.271 OA
HETATM    9  N   UNK N   1      34.561  16.553   9.163  0.00  0.00    -0.355 N 
HETATM   10  H   UNK N   1      34.424  17.523   9.259  0.00  0.00     0.162 HD
BRANCH   9  11
HETATM   11  C   UNK N   1      33.735  15.812   8.241  0.00  0.00     0.161 C 
BRANCH  11  12
HETATM   12  C   UNK N   1      32.410  16.477   8.098  0.00  0.00    -0.040 A 
HETATM   13  C   UNK N   1      32.178  17.690   8.747  0.00  0.00     0.010 A 
HETATM   14  C   UNK N   1      30.940  18.325   8.625  0.00  0.00     0.016 A 
HETATM   15  C   UNK N   1      29.918  17.761   7.845  0.00  0.00     0.009 A 
HETATM   16  C   UNK N   1      30.165  16.541   7.192  0.00  0.00     0.016 A 
HETATM   17  C   UNK N   1      31.401  15.899   7.321  0.00  0.00     0.010 A 
BRANCH  15  18
HETATM   18  C   UNK N   1      28.583  18.418   7.680  0.00  0.00     0.129 C 
HETATM   19  N   UNK N   1      27.683  18.438   8.608  0.00  0.00    -0.253 N 
ATOM     20  HN  UNK N   1      26.799  18.912   8.417  1.00  0.00     0.196 HD
BRANCH  18  21
HETATM   21  N   UNK N   1      28.289  19.052   6.450  0.00  0.00    -0.383 N 
HETATM   22  H   UNK N   1      27.394  19.013   6.042  0.00  0.00     0.157 HD
HETATM   23  H   UNK N   1      29.002  19.548   5.988  0.00  0.00     0.157 HD
ENDBRANCH  18  21
BRANCH  19  24
HETATM   24  O   UNK N   1      27.853  17.875   9.785  0.00  0.00    -0.288 OA
HETATM   25  H   UNK N   1      27.871  16.944   9.890  0.00  0.00     0.244 HD
ENDBRANCH  19  24
ENDBRANCH  15  18
ENDBRANCH  11  12
ENDBRANCH   9  11
ENDBRANCH   3   7
BRANCH   6  26
HETATM   26  C   UNK N   1      36.061  13.061  13.387  0.00  0.00     0.174 C 
BRANCH  26  27
HETATM   27  N   UNK N   1      35.335  13.353  14.619  0.00  0.00    -0.400 N 
HETATM   28  H   UNK N   1      34.326  13.278  14.744  0.00  0.00     0.154 HD
BRANCH  27  29
HETATM   29  C   UNK N   1      36.287  13.767  15.639  0.00  0.00     0.226 C 
BRANCH  29  30
HETATM   30  C   UNK N   1      35.634  13.711  16.977  0.00  0.00     0.276 C 
HETATM   31  O   UNK N   1      35.810  14.620  17.775  0.00  0.00    -0.263 OA
BRANCH  30  32
HETATM   32  O   UNK N   1      34.860  12.645  17.294  0.00  0.00    -0.321 OA
BRANCH  32  33
HETATM   33  C   UNK N   1      35.387  11.447  17.714  0.00  0.00     0.174 C 
HETATM   34  C   UNK N   1      35.415  11.415  19.227  0.00  0.00     0.034 C 
ENDBRANCH  32  33
ENDBRANCH  30  32
ENDBRANCH  29  30
ENDBRANCH  27  29
ENDBRANCH  26  27
BRANCH  26  35
HETATM   35  C   UNK N   1      36.219  11.535  13.259  0.00  0.00     0.017 C 
HETATM   36  C   UNK N   1      35.054  10.849  13.991  0.00  0.00     0.007 C 
HETATM   37  C   UNK N   1      35.315   9.355  14.161  0.00  0.00     0.000 C 
HETATM   38  C   UNK N   1      36.590   9.080  14.975  0.00  0.00     0.000 C 
HETATM   39  C   UNK N   1      37.571  10.258  15.002  0.00  0.00     0.000 C 
HETATM   40  C   UNK N   1      37.598  10.969  13.656  0.00  0.00     0.007 C 
ENDBRANCH  26  35
ENDBRANCH   6  26
TORSDOF 13
ENDMDL
MODEL 4
REMARK VINA RESULT:      -7.0      3.415      4.410
REMARK  13 active torsions:
REMARK  status: ('A' for Active; 'I' for Inactive)
REMARK    1  A    between atoms: O_3  and  C_25 
REMARK    2  A    between atoms: O_3  and  C_30 
REMARK    3  A    between atoms: O_5  and  N_10 
REMARK       I    between atoms: N_6  and  C_22 
REMARK    4  A    between atoms: C_13  and  N_7 
REMARK    5  A    between atoms: N_7  and  C_24 
REMARK       I    between atoms: N_8  and  C_23 
REMARK    6  A    between atoms: N_8  and  C_26 
REMARK    7  A    between atoms: N_9  and  C_35 
REMARK    8  A    between atoms: C_12  and  C_13 
REMARK    9  A    between atoms: C_13  and  C_22 
REMARK   10  A    between atoms: C_18  and  C_23 
REMARK   11  A    between atoms: C_24  and  C_25 
REMARK   12  A    between atoms: C_26  and  C_27 
REMARK   13  A    between atoms: C_33  and  C_35 
ROOT
HETATM    1  O   UNK N   1      24.688  15.554   5.508  0.00  0.00    -0.271 OA
HETATM    2  N   UNK N   1      25.344  15.230   3.403  0.00  0.00    -0.337 N 
HETATM    3  C   UNK N   1      25.531  13.829   3.413  0.00  0.00     0.180 A 
HETATM    4  C   UNK N   1      25.669  15.500   2.056  0.00  0.00     0.129 A 
HETATM    5  C   UNK N   1      25.898  13.964   1.907  0.00  0.00     0.055 A 
HETATM    6  C   UNK N   1      24.943  16.046   4.420  0.00  0.00     0.243 C 
ENDROOT
BRANCH   3   7
HETATM    7  C   UNK N   1      24.232  13.083   3.627  0.00  0.00     0.240 C 
HETATM    8  O   UNK N   1      23.321  13.194   2.820  0.00  0.00    -0.271 OA
HETATM    9  N   UNK N   1      24.074  12.271   4.699  0.00  0.00    -0.355 N 
HETATM   10  H   UNK N   1      23.224  11.788   4.816  0.00  0.00     0.162 HD
BRANCH   9  11
HETATM   11  C   UNK N   1      25.122  12.097   5.675  0.00  0.00     0.161 C 
BRANCH  11  12
HETATM   12  C   UNK N   1      24.545  12.097   7.048  0.00  0.00    -0.040 A 
HETATM   13  C   UNK N   1      23.732  11.036   7.450  0.00  0.00     0.010 A 
HETATM   14  C   UNK N   1      23.181  11.023   8.733  0.00  0.00     0.016 A 
HETATM   15  C   UNK N   1      23.442  12.065   9.637  0.00  0.00     0.009 A 
HETATM   16  C   UNK N   1      24.266  13.125   9.222  0.00  0.00     0.016 A 
HETATM   17  C   UNK N   1      24.811  13.146   7.934  0.00  0.00     0.010 A 
BRANCH  15  18
HETATM   18  C   UNK N   1      22.880  12.079  11.025  0.00  0.00     0.129 C 
HETATM   19  N   UNK N   1      23.615  12.137  12.087  0.00  0.00    -0.253 N 
ATOM     20  HN  UNK N   1      23.154  12.148  12.998  1.00  0.00     0.196 HD
BRANCH  18  21
HETATM   21  N   UNK N   1      21.476  12.029  11.186  0.00  0.00    -0.383 N 
HETATM   22  H   UNK N   1      20.966  11.194  11.078  0.00  0.00     0.157 HD
HETATM   23  H   UNK N   1      20.994  12.856  11.414  0.00  0.00     0.157 HD
ENDBRANCH  18  21
BRANCH  19  24
HETATM   24  O   UNK N   1      24.930  12.182  12.048  0.00  0.00    -0.288 OA
HETATM   25  H   UNK N   1      25.420  12.783  12.574  0.00  0.00     0.244 HD
ENDBRANCH  19  24
ENDBRANCH  15  18
ENDBRANCH  11  12
ENDBRANCH   9  11
ENDBRANCH   3   7
BRANCH   6  26
HETATM   26  C   UNK N   1      24.809  17.558   4.271  0.00  0.00     0.174 C 
BRANCH  26  27
HETATM   27  N   UNK N   1      24.032  18.196   5.330  0.00  0.00    -0.400 N 
HETATM   28  H   UNK N   1      24.392  18.478   6.242  0.00  0.00     0.154 HD
BRANCH  27  29
HETATM   29  C   UNK N   1      22.662  18.364   4.872  0.00  0.00     0.226 C 
BRANCH  29  30
HETATM   30  C   UNK N   1      21.726  17.843   5.908  0.00  0.00     0.276 C 
HETATM   31  O   UNK N   1      21.361  18.573   6.817  0.00  0.00    -0.263 OA
BRANCH  30  32
HETATM   32  O   UNK N   1      21.302  16.558   5.833  0.00  0.00    -0.321 OA
BRANCH  32  33
HETATM   33  C   UNK N   1      20.621  15.942   6.856  0.00  0.00     0.174 C 
HETATM   34  C   UNK N   1      21.585  15.095   7.660  0.00  0.00     0.034 C 
ENDBRANCH  32  33
ENDBRANCH  30  32
ENDBRANCH  29  30
ENDBRANCH  27  29
ENDBRANCH  26  27
BRANCH  26  35
HETATM   35  C   UNK N   1      26.146  18.304   4.125  0.00  0.00     0.017 C 
HETATM   36  C   UNK N   1      26.943  18.163   5.433  0.00  0.00     0.007 C 
HETATM   37  C   UNK N   1      28.128  19.125   5.461  0.00  0.00     0.000 C 
HETATM   38  C   UNK N   1      27.683  20.593   5.354  0.00  0.00     0.000 C 
HETATM   39  C   UNK N   1      26.287  20.773   4.747  0.00  0.00     0.000 C 
HETATM   40  C   UNK N   1      26.050  19.762   3.632  0.00  0.00     0.007 C 
ENDBRANCH  26  35
ENDBRANCH   6  26
TORSDOF 13
ENDMDL
MODEL 5
REMARK VINA RESULT:      -7.0     11.392     15.496
REMARK  13 active torsions:
REMARK  status: ('A' for Active; 'I' for Inactive)
REMARK    1  A    between atoms: O_3  and  C_25 
REMARK    2  A    between atoms: O_3  and  C_30 
REMARK    3  A    between atoms: O_5  and  N_10 
REMARK       I    between atoms: N_6  and  C_22 
REMARK    4  A    between atoms: C_13  and  N_7 
REMARK    5  A    between atoms: N_7  and  C_24 
REMARK       I    between atoms: N_8  and  C_23 
REMARK    6  A    between atoms: N_8  and  C_26 
REMARK    7  A    between atoms: N_9  and  C_35 
REMARK    8  A    between atoms: C_12  and  C_13 
REMARK    9  A    between atoms: C_13  and  C_22 
REMARK   10  A    between atoms: C_18  and  C_23 
REMARK   11  A    between atoms: C_24  and  C_25 
REMARK   12  A    between atoms: C_26  and  C_27 
REMARK   13  A    between atoms: C_33  and  C_35 
ROOT
HETATM    1  O   UNK N   1      34.357  13.959  12.387  0.00  0.00    -0.271 OA
HETATM    2  N   UNK N   1      36.294  13.738  11.307  0.00  0.00    -0.337 N 
HETATM    3  C   UNK N   1      35.963  14.350  10.076  0.00  0.00     0.180 A 
HETATM    4  C   UNK N   1      37.644  13.414  11.052  0.00  0.00     0.129 A 
HETATM    5  C   UNK N   1      37.436  14.076   9.655  0.00  0.00     0.055 A 
HETATM    6  C   UNK N   1      35.508  13.554  12.407  0.00  0.00     0.243 C 
ENDROOT
BRANCH   3   7
HETATM    7  C   UNK N   1      35.672  15.826  10.234  0.00  0.00     0.240 C 
HETATM    8  O   UNK N   1      36.536  16.579  10.658  0.00  0.00    -0.271 OA
HETATM    9  N   UNK N   1      34.463  16.330   9.889  0.00  0.00    -0.355 N 
HETATM   10  H   UNK N   1      34.296  17.295   9.992  0.00  0.00     0.162 HD
BRANCH   9  11
HETATM   11  C   UNK N   1      33.413  15.484   9.374  0.00  0.00     0.161 C 
BRANCH  11  12
HETATM   12  C   UNK N   1      33.113  15.849   7.962  0.00  0.00    -0.040 A 
HETATM   13  C   UNK N   1      33.641  17.027   7.431  0.00  0.00     0.010 A 
HETATM   14  C   UNK N   1      33.366  17.385   6.109  0.00  0.00     0.016 A 
HETATM   15  C   UNK N   1      32.567  16.566   5.295  0.00  0.00     0.009 A 
HETATM   16  C   UNK N   1      32.044  15.381   5.840  0.00  0.00     0.016 A 
HETATM   17  C   UNK N   1      32.311  15.025   7.166  0.00  0.00     0.010 A 
BRANCH  15  18
HETATM   18  C   UNK N   1      32.261  16.910   3.871  0.00  0.00     0.129 C 
HETATM   19  N   UNK N   1      31.199  17.553   3.508  0.00  0.00    -0.253 N 
ATOM     20  HN  UNK N   1      31.067  17.753   2.516  1.00  0.00     0.196 HD
BRANCH  18  21
HETATM   21  N   UNK N   1      33.179  16.516   2.868  0.00  0.00    -0.383 N 
HETATM   22  H   UNK N   1      33.560  15.609   2.835  0.00  0.00     0.157 HD
HETATM   23  H   UNK N   1      33.442  17.170   2.182  0.00  0.00     0.157 HD
ENDBRANCH  18  21
BRANCH  19  24
HETATM   24  O   UNK N   1      30.281  17.960   4.359  0.00  0.00    -0.288 OA
HETATM   25  H   UNK N   1      30.504  18.280   5.211  0.00  0.00     0.244 HD
ENDBRANCH  19  24
ENDBRANCH  15  18
ENDBRANCH  11  12
ENDBRANCH   9  11
ENDBRANCH   3   7
BRANCH   6  26
HETATM   26  C   UNK N   1      35.995  12.847  13.668  0.00  0.00     0.174 C 
BRANCH  26  27
HETATM   27  N   UNK N   1      35.219  13.159  14.865  0.00  0.00    -0.400 N 
HETATM   28  H   UNK N   1      34.213  13.032  14.969  0.00  0.00     0.154 HD
BRANCH  27  29
HETATM   29  C   UNK N   1      36.117  13.679  15.885  0.00  0.00     0.226 C 
BRANCH  29  30
HETATM   30  C   UNK N   1      35.461  13.581  17.219  0.00  0.00     0.276 C 
HETATM   31  O   UNK N   1      35.484  14.539  17.978  0.00  0.00    -0.263 OA
BRANCH  30  32
HETATM   32  O   UNK N   1      34.855  12.423  17.577  0.00  0.00    -0.321 OA
BRANCH  32  33
HETATM   33  C   UNK N   1      35.558  11.321  18.004  0.00  0.00     0.174 C 
HETATM   34  C   UNK N   1      35.629  11.329  19.517  0.00  0.00     0.034 C 
ENDBRANCH  32  33
ENDBRANCH  30  32
ENDBRANCH  29  30
ENDBRANCH  27  29
ENDBRANCH  26  27
BRANCH  26  35
HETATM   35  C   UNK N   1      36.104  11.318  13.539  0.00  0.00     0.017 C 
HETATM   36  C   UNK N   1      34.960  10.665  14.331  0.00  0.00     0.007 C 
HETATM   37  C   UNK N   1      35.189   9.165  14.493  0.00  0.00     0.000 C 
HETATM   38  C   UNK N   1      36.495   8.858  15.243  0.00  0.00     0.000 C 
HETATM   39  C   UNK N   1      37.508  10.008  15.216  0.00  0.00     0.000 C 
HETATM   40  C   UNK N   1      37.486  10.715  13.868  0.00  0.00     0.007 C 
ENDBRANCH  26  35
ENDBRANCH   6  26
TORSDOF 13
ENDMDL
MODEL 6
REMARK VINA RESULT:      -6.9      3.635      8.358
REMARK  13 active torsions:
REMARK  status: ('A' for Active; 'I' for Inactive)
REMARK    1  A    between atoms: O_3  and  C_25 
REMARK    2  A    between atoms: O_3  and  C_30 
REMARK    3  A    between atoms: O_5  and  N_10 
REMARK       I    between atoms: N_6  and  C_22 
REMARK    4  A    between atoms: C_13  and  N_7 
REMARK    5  A    between atoms: N_7  and  C_24 
REMARK       I    between atoms: N_8  and  C_23 
REMARK    6  A    between atoms: N_8  and  C_26 
REMARK    7  A    between atoms: N_9  and  C_35 
REMARK    8  A    between atoms: C_12  and  C_13 
REMARK    9  A    between atoms: C_13  and  C_22 
REMARK   10  A    between atoms: C_18  and  C_23 
REMARK   11  A    between atoms: C_24  and  C_25 
REMARK   12  A    between atoms: C_26  and  C_27 
REMARK   13  A    between atoms: C_33  and  C_35 
ROOT
HETATM    1  O   UNK N   1      24.010  16.168   5.705  0.00  0.00    -0.271 OA
HETATM    2  N   UNK N   1      23.968  18.093   4.583  0.00  0.00    -0.337 N 
HETATM    3  C   UNK N   1      25.222  18.628   4.960  0.00  0.00     0.180 A 
HETATM    4  C   UNK N   1      23.526  19.119   3.720  0.00  0.00     0.129 A 
HETATM    5  C   UNK N   1      24.882  19.826   4.027  0.00  0.00     0.055 A 
HETATM    6  C   UNK N   1      23.398  16.910   4.955  0.00  0.00     0.243 C 
ENDROOT
BRANCH   3   7
HETATM    7  C   UNK N   1      26.375  17.798   4.439  0.00  0.00     0.240 C 
HETATM    8  O   UNK N   1      26.336  17.337   3.308  0.00  0.00    -0.271 OA
HETATM    9  N   UNK N   1      27.466  17.576   5.210  0.00  0.00    -0.355 N 
HETATM   10  H   UNK N   1      28.209  17.040   4.850  0.00  0.00     0.162 HD
BRANCH   9  11
HETATM   11  C   UNK N   1      27.564  18.107   6.548  0.00  0.00     0.161 C 
BRANCH  11  12
HETATM   12  C   UNK N   1      28.952  17.935   7.063  0.00  0.00    -0.040 A 
HETATM   13  C   UNK N   1      29.288  18.457   8.313  0.00  0.00     0.010 A 
HETATM   14  C   UNK N   1      30.586  18.307   8.809  0.00  0.00     0.016 A 
HETATM   15  C   UNK N   1      31.563  17.625   8.066  0.00  0.00     0.009 A 
HETATM   16  C   UNK N   1      31.211  17.101   6.810  0.00  0.00     0.016 A 
HETATM   17  C   UNK N   1      29.915  17.258   6.308  0.00  0.00     0.010 A 
BRANCH  15  18
HETATM   18  C   UNK N   1      32.960  17.433   8.569  0.00  0.00     0.129 C 
HETATM   19  N   UNK N   1      33.302  16.469   9.362  0.00  0.00    -0.253 N 
ATOM     20  HN  UNK N   1      34.277  16.405   9.655  1.00  0.00     0.196 HD
BRANCH  18  21
HETATM   21  N   UNK N   1      33.959  18.346   8.158  0.00  0.00    -0.383 N 
HETATM   22  H   UNK N   1      34.881  18.300   8.498  0.00  0.00     0.157 HD
HETATM   23  H   UNK N   1      33.723  19.048   7.510  0.00  0.00     0.157 HD
ENDBRANCH  18  21
BRANCH  19  24
HETATM   24  O   UNK N   1      32.451  15.570   9.807  0.00  0.00    -0.288 OA
HETATM   25  H   UNK N   1      32.696  14.673   9.926  0.00  0.00     0.244 HD
ENDBRANCH  19  24
ENDBRANCH  15  18
ENDBRANCH  11  12
ENDBRANCH   9  11
ENDBRANCH   3   7
BRANCH   6  26
HETATM   26  C   UNK N   1      22.015  16.471   4.486  0.00  0.00     0.174 C 
BRANCH  26  27
HETATM   27  N   UNK N   1      20.918  17.255   5.044  0.00  0.00    -0.400 N 
HETATM   28  H   UNK N   1      20.512  18.092   4.623  0.00  0.00     0.154 HD
BRANCH  27  29
HETATM   29  C   UNK N   1      20.497  16.650   6.299  0.00  0.00     0.226 C 
BRANCH  29  30
HETATM   30  C   UNK N   1      20.600  17.657   7.393  0.00  0.00     0.276 C 
HETATM   31  O   UNK N   1      20.982  18.790   7.140  0.00  0.00    -0.263 OA
BRANCH  30  32
HETATM   32  O   UNK N   1      20.278  17.296   8.659  0.00  0.00    -0.321 OA
BRANCH  32  33
HETATM   33  C   UNK N   1      19.245  16.436   8.944  0.00  0.00     0.174 C 
HETATM   34  C   UNK N   1      17.960  17.225   9.080  0.00  0.00     0.034 C 
ENDBRANCH  32  33
ENDBRANCH  30  32
ENDBRANCH  29  30
ENDBRANCH  27  29
ENDBRANCH  26  27
BRANCH  26  35
HETATM   35  C   UNK N   1      21.849  16.412   2.958  0.00  0.00     0.017 C 
HETATM   36  C   UNK N   1      20.556  17.146   2.566  0.00  0.00     0.007 C 
HETATM   37  C   UNK N   1      20.181  16.862   1.114  0.00  0.00     0.000 C 
HETATM   38  C   UNK N   1      19.950  15.364   0.859  0.00  0.00     0.000 C 
HETATM   39  C   UNK N   1      20.611  14.451   1.899  0.00  0.00     0.000 C 
HETATM   40  C   UNK N   1      21.962  15.010   2.325  0.00  0.00     0.007 C 
ENDBRANCH  26  35
ENDBRANCH   6  26
TORSDOF 13
ENDMDL
MODEL 7
REMARK VINA RESULT:      -6.9      3.630      4.668
REMARK  13 active torsions:
REMARK  status: ('A' for Active; 'I' for Inactive)
REMARK    1  A    between atoms: O_3  and  C_25 
REMARK    2  A    between atoms: O_3  and  C_30 
REMARK    3  A    between atoms: O_5  and  N_10 
REMARK       I    between atoms: N_6  and  C_22 
REMARK    4  A    between atoms: C_13  and  N_7 
REMARK    5  A    between atoms: N_7  and  C_24 
REMARK       I    between atoms: N_8  and  C_23 
REMARK    6  A    between atoms: N_8  and  C_26 
REMARK    7  A    between atoms: N_9  and  C_35 
REMARK    8  A    between atoms: C_12  and  C_13 
REMARK    9  A    between atoms: C_13  and  C_22 
REMARK   10  A    between atoms: C_18  and  C_23 
REMARK   11  A    between atoms: C_24  and  C_25 
REMARK   12  A    between atoms: C_26  and  C_27 
REMARK   13  A    between atoms: C_33  and  C_35 
ROOT
HETATM    1  O   UNK N   1      26.073  15.454   6.754  0.00  0.00    -0.271 OA
HETATM    2  N   UNK N   1      26.275  15.630   4.542  0.00  0.00    -0.337 N 
HETATM    3  C   UNK N   1      25.359  14.635   4.129  0.00  0.00     0.180 A 
HETATM    4  C   UNK N   1      26.695  16.099   3.278  0.00  0.00     0.129 A 
HETATM    5  C   UNK N   1      25.707  15.056   2.672  0.00  0.00     0.055 A 
HETATM    6  C   UNK N   1      26.611  16.008   5.809  0.00  0.00     0.243 C 
ENDROOT
BRANCH   3   7
HETATM    7  C   UNK N   1      23.935  14.981   4.506  0.00  0.00     0.240 C 
HETATM    8  O   UNK N   1      23.443  16.037   4.138  0.00  0.00    -0.271 OA
HETATM    9  N   UNK N   1      23.187  14.119   5.235  0.00  0.00    -0.355 N 
HETATM   10  H   UNK N   1      22.260  14.359   5.462  0.00  0.00     0.162 HD
BRANCH   9  11
HETATM   11  C   UNK N   1      23.718  12.855   5.685  0.00  0.00     0.161 C 
BRANCH  11  12
HETATM   12  C   UNK N   1      23.430  12.670   7.135  0.00  0.00    -0.040 A 
HETATM   13  C   UNK N   1      23.586  11.407   7.708  0.00  0.00     0.010 A 
HETATM   14  C   UNK N   1      23.318  11.216   9.066  0.00  0.00     0.016 A 
HETATM   15  C   UNK N   1      22.899  12.287   9.872  0.00  0.00     0.009 A 
HETATM   16  C   UNK N   1      22.750  13.555   9.283  0.00  0.00     0.016 A 
HETATM   17  C   UNK N   1      23.009  13.746   7.922  0.00  0.00     0.010 A 
BRANCH  15  18
HETATM   18  C   UNK N   1      22.615  12.124  11.333  0.00  0.00     0.129 C 
HETATM   19  N   UNK N   1      23.535  12.149  12.242  0.00  0.00    -0.253 N 
ATOM     20  HN  UNK N   1      23.257  12.036  13.217  1.00  0.00     0.196 HD
BRANCH  18  21
HETATM   21  N   UNK N   1      21.274  11.937  11.744  0.00  0.00    -0.383 N 
HETATM   22  H   UNK N   1      20.769  12.638  12.216  0.00  0.00     0.157 HD
HETATM   23  H   UNK N   1      20.833  11.079  11.551  0.00  0.00     0.157 HD
ENDBRANCH  18  21
BRANCH  19  24
HETATM   24  O   UNK N   1      24.811  12.312  11.966  0.00  0.00    -0.288 OA
HETATM   25  H   UNK N   1      25.117  13.028  11.445  0.00  0.00     0.244 HD
ENDBRANCH  19  24
ENDBRANCH  15  18
ENDBRANCH  11  12
ENDBRANCH   9  11
ENDBRANCH   3   7
BRANCH   6  26
HETATM   26  C   UNK N   1      27.645  17.088   6.107  0.00  0.00     0.174 C 
BRANCH  26  27
HETATM   27  N   UNK N   1      27.092  18.436   6.202  0.00  0.00    -0.400 N 
HETATM   28  H   UNK N   1      26.316  18.717   6.801  0.00  0.00     0.154 HD
BRANCH  27  29
HETATM   29  C   UNK N   1      27.827  19.311   5.302  0.00  0.00     0.226 C 
BRANCH  29  30
HETATM   30  C   UNK N   1      26.874  20.224   4.611  0.00  0.00     0.276 C 
HETATM   31  O   UNK N   1      26.594  20.032   3.436  0.00  0.00    -0.263 OA
BRANCH  30  32
HETATM   32  O   UNK N   1      26.339  21.265   5.293  0.00  0.00    -0.321 OA
BRANCH  32  33
HETATM   33  C   UNK N   1      26.909  21.773   6.436  0.00  0.00     0.174 C 
HETATM   34  C   UNK N   1      25.938  21.620   7.589  0.00  0.00     0.034 C 
ENDBRANCH  32  33
ENDBRANCH  30  32
ENDBRANCH  29  30
ENDBRANCH  27  29
ENDBRANCH  26  27
BRANCH  26  35
HETATM   35  C   UNK N   1      28.502  16.821   7.357  0.00  0.00     0.017 C 
HETATM   36  C   UNK N   1      28.166  17.870   8.429  0.00  0.00     0.007 C 
HETATM   37  C   UNK N   1      29.188  17.847   9.562  0.00  0.00     0.000 C 
HETATM   38  C   UNK N   1      30.611  18.146   9.063  0.00  0.00     0.000 C 
HETATM   39  C   UNK N   1      30.803  17.900   7.562  0.00  0.00     0.000 C 
HETATM   40  C   UNK N   1      30.018  16.676   7.111  0.00  0.00     0.007 C 
ENDBRANCH  26  35
ENDBRANCH   6  26
TORSDOF 13
ENDMDL
MODEL 8
REMARK VINA RESULT:      -6.8     11.394     15.595
REMARK  13 active torsions:
REMARK  status: ('A' for Active; 'I' for Inactive)
REMARK    1  A    between atoms: O_3  and  C_25 
REMARK    2  A    between atoms: O_3  and  C_30 
REMARK    3  A    between atoms: O_5  and  N_10 
REMARK       I    between atoms: N_6  and  C_22 
REMARK    4  A    between atoms: C_13  and  N_7 
REMARK    5  A    between atoms: N_7  and  C_24 
REMARK       I    between atoms: N_8  and  C_23 
REMARK    6  A    between atoms: N_8  and  C_26 
REMARK    7  A    between atoms: N_9  and  C_35 
REMARK    8  A    between atoms: C_12  and  C_13 
REMARK    9  A    between atoms: C_13  and  C_22 
REMARK   10  A    between atoms: C_18  and  C_23 
REMARK   11  A    between atoms: C_24  and  C_25 
REMARK   12  A    between atoms: C_26  and  C_27 
REMARK   13  A    between atoms: C_33  and  C_35 
ROOT
HETATM    1  O   UNK N   1      34.896  14.455  12.729  0.00  0.00    -0.271 OA
HETATM    2  N   UNK N   1      34.936  13.064  10.990  0.00  0.00    -0.337 N 
HETATM    3  C   UNK N   1      34.460  13.923   9.973  0.00  0.00     0.180 A 
HETATM    4  C   UNK N   1      35.149  11.895  10.227  0.00  0.00     0.129 A 
HETATM    5  C   UNK N   1      34.660  12.725   9.000  0.00  0.00     0.055 A 
HETATM    6  C   UNK N   1      35.135  13.334  12.312  0.00  0.00     0.243 C 
ENDROOT
BRANCH   3   7
HETATM    7  C   UNK N   1      35.418  15.061   9.694  0.00  0.00     0.240 C 
HETATM    8  O   UNK N   1      36.619  14.904   9.858  0.00  0.00    -0.271 OA
HETATM    9  N   UNK N   1      34.959  16.252   9.242  0.00  0.00    -0.355 N 
HETATM   10  H   UNK N   1      35.600  16.976   9.059  0.00  0.00     0.162 HD
BRANCH   9  11
HETATM   11  C   UNK N   1      33.552  16.483   9.022  0.00  0.00     0.161 C 
BRANCH  11  12
HETATM   12  C   UNK N   1      33.258  16.477   7.561  0.00  0.00    -0.040 A 
HETATM   13  C   UNK N   1      33.719  17.526   6.765  0.00  0.00     0.010 A 
HETATM   14  C   UNK N   1      33.449  17.536   5.394  0.00  0.00     0.016 A 
HETATM   15  C   UNK N   1      32.722  16.493   4.798  0.00  0.00     0.009 A 
HETATM   16  C   UNK N   1      32.267  15.440   5.611  0.00  0.00     0.016 A 
HETATM   17  C   UNK N   1      32.528  15.432   6.985  0.00  0.00     0.010 A 
BRANCH  15  18
HETATM   18  C   UNK N   1      32.425  16.462   3.332  0.00  0.00     0.129 C 
HETATM   19  N   UNK N   1      31.325  16.913   2.821  0.00  0.00    -0.253 N 
ATOM     20  HN  UNK N   1      31.202  16.860   1.809  1.00  0.00     0.196 HD
BRANCH  18  21
HETATM   21  N   UNK N   1      33.393  15.916   2.456  0.00  0.00    -0.383 N 
HETATM   22  H   UNK N   1      33.145  15.350   1.690  0.00  0.00     0.157 HD
HETATM   23  H   UNK N   1      34.344  16.109   2.619  0.00  0.00     0.157 HD
ENDBRANCH  18  21
BRANCH  19  24
HETATM   24  O   UNK N   1      30.359  17.436   3.546  0.00  0.00    -0.288 OA
HETATM   25  H   UNK N   1      30.231  17.199   4.443  0.00  0.00     0.244 HD
ENDBRANCH  19  24
ENDBRANCH  15  18
ENDBRANCH  11  12
ENDBRANCH   9  11
ENDBRANCH   3   7
BRANCH   6  26
HETATM   26  C   UNK N   1      35.633  12.291  13.308  0.00  0.00     0.174 C 
BRANCH  26  27
HETATM   27  N   UNK N   1      37.060  12.379  13.600  0.00  0.00    -0.400 N 
HETATM   28  H   UNK N   1      37.493  13.031  14.255  0.00  0.00     0.154 HD
BRANCH  27  29
HETATM   29  C   UNK N   1      37.765  11.383  12.807  0.00  0.00     0.226 C 
BRANCH  29  30
HETATM   30  C   UNK N   1      37.746  10.076  13.523  0.00  0.00     0.276 C 
HETATM   31  O   UNK N   1      37.173   9.119  13.022  0.00  0.00    -0.263 OA
BRANCH  30  32
HETATM   32  O   UNK N   1      38.355   9.970  14.728  0.00  0.00    -0.321 OA
BRANCH  32  33
HETATM   33  C   UNK N   1      38.916   8.797  15.175  0.00  0.00     0.174 C 
HETATM   34  C   UNK N   1      40.401   8.810  14.881  0.00  0.00     0.034 C 
ENDBRANCH  32  33
ENDBRANCH  30  32
ENDBRANCH  29  30
ENDBRANCH  27  29
ENDBRANCH  26  27
BRANCH  26  35
HETATM   35  C   UNK N   1      34.860  12.262  14.638  0.00  0.00     0.017 C 
HETATM   36  C   UNK N   1      35.733  12.885  15.738  0.00  0.00     0.007 C 
HETATM   37  C   UNK N   1      35.153  12.610  17.123  0.00  0.00     0.000 C 
HETATM   38  C   UNK N   1      35.052  11.106  17.419  0.00  0.00     0.000 C 
HETATM   39  C   UNK N   1      35.052  10.227  16.162  0.00  0.00     0.000 C 
HETATM   40  C   UNK N   1      34.269  10.894  15.039  0.00  0.00     0.007 C 
ENDBRANCH  26  35
ENDBRANCH   6  26
TORSDOF 13
ENDMDL
MODEL 9
REMARK VINA RESULT:      -6.7     13.373     16.031
REMARK  13 active torsions:
REMARK  status: ('A' for Active; 'I' for Inactive)
REMARK    1  A    between atoms: O_3  and  C_25 
REMARK    2  A    between atoms: O_3  and  C_30 
REMARK    3  A    between atoms: O_5  and  N_10 
REMARK       I    between atoms: N_6  and  C_22 
REMARK    4  A    between atoms: C_13  and  N_7 
REMARK    5  A    between atoms: N_7  and  C_24 
REMARK       I    between atoms: N_8  and  C_23 
REMARK    6  A    between atoms: N_8  and  C_26 
REMARK    7  A    between atoms: N_9  and  C_35 
REMARK    8  A    between atoms: C_12  and  C_13 
REMARK    9  A    between atoms: C_13  and  C_22 
REMARK   10  A    between atoms: C_18  and  C_23 
REMARK   11  A    between atoms: C_24  and  C_25 
REMARK   12  A    between atoms: C_26  and  C_27 
REMARK   13  A    between atoms: C_33  and  C_35 
ROOT
HETATM    1  O   UNK N   1      34.851  13.821  12.309  0.00  0.00    -0.271 OA
HETATM    2  N   UNK N   1      35.506  11.725  11.933  0.00  0.00    -0.337 N 
HETATM    3  C   UNK N   1      35.578  11.244  13.261  0.00  0.00     0.180 A 
HETATM    4  C   UNK N   1      35.871  10.550  11.240  0.00  0.00     0.129 A 
HETATM    5  C   UNK N   1      35.975   9.874  12.641  0.00  0.00     0.055 A 
HETATM    6  C   UNK N   1      35.160  12.968  11.492  0.00  0.00     0.243 C 
ENDROOT
BRANCH   3   7
HETATM    7  C   UNK N   1      34.220  11.207  13.927  0.00  0.00     0.240 C 
HETATM    8  O   UNK N   1      33.316  10.544  13.439  0.00  0.00    -0.271 OA
HETATM    9  N   UNK N   1      33.998  11.887  15.077  0.00  0.00    -0.355 N 
HETATM   10  H   UNK N   1      33.110  11.842  15.499  0.00  0.00     0.162 HD
BRANCH   9  11
HETATM   11  C   UNK N   1      35.035  12.674  15.699  0.00  0.00     0.161 C 
BRANCH  11  12
HETATM   12  C   UNK N   1      35.304  12.167  17.073  0.00  0.00    -0.040 A 
HETATM   13  C   UNK N   1      35.782  10.867  17.243  0.00  0.00     0.010 A 
HETATM   14  C   UNK N   1      36.036  10.376  18.526  0.00  0.00     0.016 A 
HETATM   15  C   UNK N   1      35.825  11.181  19.657  0.00  0.00     0.009 A 
HETATM   16  C   UNK N   1      35.348  12.490  19.473  0.00  0.00     0.016 A 
HETATM   17  C   UNK N   1      35.083  12.980  18.190  0.00  0.00     0.010 A 
BRANCH  15  18
HETATM   18  C   UNK N   1      36.099  10.694  21.046  0.00  0.00     0.129 C 
HETATM   19  N   UNK N   1      35.214  10.097  21.776  0.00  0.00    -0.253 N 
ATOM     20  HN  UNK N   1      35.482   9.792  22.712  1.00  0.00     0.196 HD
BRANCH  18  21
HETATM   21  N   UNK N   1      37.390  10.893  21.590  0.00  0.00    -0.383 N 
HETATM   22  H   UNK N   1      37.903  10.159  22.001  0.00  0.00     0.157 HD
HETATM   23  H   UNK N   1      37.787  11.792  21.556  0.00  0.00     0.157 HD
ENDBRANCH  18  21
BRANCH  19  24
HETATM   24  O   UNK N   1      33.984   9.868  21.368  0.00  0.00    -0.288 OA
HETATM   25  H   UNK N   1      33.643  10.252  20.584  0.00  0.00     0.244 HD
ENDBRANCH  19  24
ENDBRANCH  15  18
ENDBRANCH  11  12
ENDBRANCH   9  11
ENDBRANCH   3   7
BRANCH   6  26
HETATM   26  C   UNK N   1      35.152  13.356  10.017  0.00  0.00     0.174 C 
BRANCH  26  27
HETATM   27  N   UNK N   1      34.279  14.482   9.700  0.00  0.00    -0.400 N 
HETATM   28  H   UNK N   1      33.289  14.550   9.938  0.00  0.00     0.154 HD
BRANCH  27  29
HETATM   29  C   UNK N   1      35.051  15.491   8.991  0.00  0.00     0.226 C 
BRANCH  29  30
HETATM   30  C   UNK N   1      34.837  16.819   9.632  0.00  0.00     0.276 C 
HETATM   31  O   UNK N   1      35.547  17.162  10.565  0.00  0.00    -0.263 OA
BRANCH  30  32
HETATM   32  O   UNK N   1      33.847  17.624   9.176  0.00  0.00    -0.321 OA
BRANCH  32  33
HETATM   33  C   UNK N   1      33.973  18.381   8.036  0.00  0.00     0.174 C 
HETATM   34  C   UNK N   1      33.292  17.670   6.886  0.00  0.00     0.034 C 
ENDBRANCH  32  33
ENDBRANCH  30  32
ENDBRANCH  29  30
ENDBRANCH  27  29
ENDBRANCH  26  27
BRANCH  26  35
HETATM   35  C   UNK N   1      36.544  13.632   9.424  0.00  0.00     0.017 C 
HETATM   36  C   UNK N   1      36.913  12.491   8.461  0.00  0.00     0.007 C 
HETATM   37  C   UNK N   1      38.390  12.548   8.081  0.00  0.00     0.000 C 
HETATM   38  C   UNK N   1      39.307  12.422   9.307  0.00  0.00     0.000 C 
HETATM   39  C   UNK N   1      38.620  12.776  10.632  0.00  0.00     0.000 C 
HETATM   40  C   UNK N   1      37.658  13.941  10.446  0.00  0.00     0.007 C 
ENDBRANCH  26  35
ENDBRANCH   6  26
TORSDOF 13
ENDMDL
