MODEL 1
REMARK VINA RESULT:      -7.5      0.000      0.000
REMARK  9 active torsions:
REMARK  status: ('A' for Active; 'I' for Inactive)
REMARK    1  A    between atoms: C_4  and  O_16 
REMARK    2  A    between atoms: C_5  and  N_8 
REMARK    3  A    between atoms: C_27  and  N_8 
REMARK    4  A    between atoms: C_9  and  N_14 
REMARK    5  A    between atoms: C_10  and  O_19 
REMARK    6  A    between atoms: C_21  and  O_16 
REMARK    7  A    between atoms: C_22  and  O_19 
REMARK    8  A    between atoms: C_35  and  C_21 
REMARK    9  A    between atoms: C_26  and  C_27 
ROOT
HETATM    1  C   UNK N   1      26.852  16.539   5.060  0.00  0.00    -0.011 C 
HETATM    2  C   UNK N   1      23.655  13.922   3.517  0.00  0.00    -0.034 C 
HETATM    3  C   UNK N   1      26.710  16.281   3.561  0.00  0.00     0.003 C 
HETATM    4  C   UNK N   1      27.918  17.647   5.022  0.00  0.00     0.171 C 
HETATM    5  C   UNK N   1      28.932  17.162   3.919  0.00  0.00     0.221 C 
HETATM    6  C   UNK N   1      24.506  15.203   3.785  0.00  0.00    -0.002 C 
HETATM    7  C   UNK N   1      25.958  14.982   3.310  0.00  0.00    -0.005 C 
HETATM    8  C   UNK N   1      21.626  15.216   2.735  0.00  0.00     0.253 C 
HETATM    9  C   UNK N   1      21.728  14.640   1.316  0.00  0.00     0.165 C 
HETATM   10  C   UNK N   1      28.087  16.296   2.994  0.00  0.00     0.042 C 
HETATM   11  C   UNK N   1      22.171  14.217   3.778  0.00  0.00     0.048 C 
HETATM   12  C   UNK N   1      23.825  13.428   2.041  0.00  0.00    -0.004 C 
HETATM   13  C   UNK N   1      25.439  16.851   5.578  0.00  0.00     0.012 C 
HETATM   14  C   UNK N   1      23.208  14.406   1.036  0.00  0.00     0.040 C 
HETATM   15  C   UNK N   1      24.480  15.659   5.277  0.00  0.00     0.007 C 
HETATM   16  C   UNK N   1      26.015  14.582   1.838  0.00  0.00     0.006 C 
HETATM   17  C   UNK N   1      25.293  13.254   1.665  0.00  0.00     0.006 C 
HETATM   18  C   UNK N   1      27.401  15.340   5.851  0.00  0.00     0.018 C 
HETATM   19  C   UNK N   1      24.087  12.801   4.463  0.00  0.00     0.016 C 
ENDROOT
BRANCH   5  20
HETATM   20  N   UNK N   1      30.238  16.504   4.284  0.00  0.00    -0.057 N 
HETATM   21  C   UNK N   1      31.406  17.380   4.042  0.00  0.00     0.238 C 
HETATM   22  C   UNK N   1      32.409  16.850   3.014  0.00  0.00     0.028 C 
HETATM   23  C   UNK N   1      32.830  15.434   3.392  0.00  0.00     0.003 C 
HETATM   24  C   UNK N   1      31.630  14.521   3.652  0.00  0.00     0.028 C 
HETATM   25  C   UNK N   1      30.294  15.259   3.492  0.00  0.00     0.238 C 
BRANCH  20  26
HETATM   26  C   UNK N   1      30.362  16.158   5.727  0.00  0.00     0.264 C 
BRANCH  26  27
HETATM   27  C   UNK N   1      31.432  16.909   6.482  0.00  0.00    -0.009 C 
HETATM   28  C   UNK N   1      31.487  16.841   7.813  0.00  0.00     0.008 C 
ENDBRANCH  26  27
ENDBRANCH  20  26
ENDBRANCH   5  20
BRANCH   4  29
HETATM   29  O   UNK N   1      28.503  17.944   6.243  0.00  0.00    -0.313 OA
BRANCH  29  30
HETATM   30  C   UNK N   1      28.092  18.928   7.082  0.00  0.00     0.258 C 
HETATM   31  O   UNK N   1      27.545  19.932   6.655  0.00  0.00    -0.265 OA
BRANCH  30  32
HETATM   32  C   UNK N   1      28.306  18.775   8.552  0.00  0.00     0.106 C 
HETATM   33  C   UNK N   1      28.003  17.355   8.990  0.00  0.00     0.015 C 
ENDBRANCH  30  32
ENDBRANCH  29  30
ENDBRANCH   4  29
BRANCH   8  34
HETATM   34  N   UNK N   1      20.296  15.755   3.045  0.00  0.00     0.095 N 
HETATM   35  C   UNK N   1      20.346  17.219   3.199  0.00  0.00     0.273 C 
HETATM   36  C   UNK N   1      20.906  17.663   4.560  0.00  0.00     0.030 C 
HETATM   37  C   UNK N   1      20.446  16.775   5.718  0.00  0.00     0.003 C 
HETATM   38  C   UNK N   1      19.249  15.920   5.330  0.00  0.00     0.030 C 
HETATM   39  C   UNK N   1      19.622  15.033   4.143  0.00  0.00     0.273 C 
ENDBRANCH   8  34
BRANCH   9  40
HETATM   40  O   UNK N   1      20.997  13.464   1.225  0.00  0.00    -0.314 OA
BRANCH  40  41
HETATM   41  C   UNK N   1      19.784  13.335   0.625  0.00  0.00     0.255 C 
HETATM   42  O   UNK N   1      19.147  14.314   0.264  0.00  0.00    -0.266 OA
HETATM   43  C   UNK N   1      19.247  11.975   0.355  0.00  0.00     0.126 C 
ENDBRANCH  40  41
ENDBRANCH   9  40
TORSDOF 9
ENDMDL
MODEL 2
REMARK VINA RESULT:      -7.2      1.376      2.245
REMARK  9 active torsions:
REMARK  status: ('A' for Active; 'I' for Inactive)
REMARK    1  A    between atoms: C_4  and  O_16 
REMARK    2  A    between atoms: C_5  and  N_8 
REMARK    3  A    between atoms: C_27  and  N_8 
REMARK    4  A    between atoms: C_9  and  N_14 
REMARK    5  A    between atoms: C_10  and  O_19 
REMARK    6  A    between atoms: C_21  and  O_16 
REMARK    7  A    between atoms: C_22  and  O_19 
REMARK    8  A    between atoms: C_35  and  C_21 
REMARK    9  A    between atoms: C_26  and  C_27 
ROOT
HETATM    1  C   UNK N   1      26.564  16.897   4.518  0.00  0.00    -0.011 C 
HETATM    2  C   UNK N   1      22.991  14.455   3.668  0.00  0.00    -0.034 C 
HETATM    3  C   UNK N   1      26.391  16.209   3.165  0.00  0.00     0.003 C 
HETATM    4  C   UNK N   1      27.798  17.760   4.204  0.00  0.00     0.171 C 
HETATM    5  C   UNK N   1      28.726  16.804   3.363  0.00  0.00     0.221 C 
HETATM    6  C   UNK N   1      24.039  15.608   3.580  0.00  0.00    -0.002 C 
HETATM    7  C   UNK N   1      25.438  15.029   3.281  0.00  0.00    -0.005 C 
HETATM    8  C   UNK N   1      21.207  15.738   2.412  0.00  0.00     0.253 C 
HETATM    9  C   UNK N   1      21.224  14.740   1.246  0.00  0.00     0.165 C 
HETATM   10  C   UNK N   1      27.757  15.835   2.700  0.00  0.00     0.042 C 
HETATM   11  C   UNK N   1      21.574  15.041   3.741  0.00  0.00     0.048 C 
HETATM   12  C   UNK N   1      23.088  13.506   2.427  0.00  0.00    -0.004 C 
HETATM   13  C   UNK N   1      25.218  17.568   4.833  0.00  0.00     0.012 C 
HETATM   14  C   UNK N   1      22.647  14.205   1.137  0.00  0.00     0.040 C 
HETATM   15  C   UNK N   1      24.078  16.505   4.857  0.00  0.00     0.007 C 
HETATM   16  C   UNK N   1      25.439  14.188   2.007  0.00  0.00     0.006 C 
HETATM   17  C   UNK N   1      24.509  12.999   2.208  0.00  0.00     0.006 C 
HETATM   18  C   UNK N   1      26.903  15.934   5.668  0.00  0.00     0.018 C 
HETATM   19  C   UNK N   1      23.226  13.632   4.935  0.00  0.00     0.016 C 
ENDROOT
BRANCH   5  20
HETATM   20  N   UNK N   1      29.903  16.100   3.986  0.00  0.00    -0.057 N 
HETATM   21  C   UNK N   1      29.850  16.097   5.465  0.00  0.00     0.238 C 
HETATM   22  C   UNK N   1      31.010  16.822   6.154  0.00  0.00     0.028 C 
HETATM   23  C   UNK N   1      32.336  16.279   5.633  0.00  0.00     0.003 C 
HETATM   24  C   UNK N   1      32.399  16.270   4.104  0.00  0.00     0.028 C 
HETATM   25  C   UNK N   1      31.102  16.787   3.467  0.00  0.00     0.238 C 
BRANCH  20  26
HETATM   26  C   UNK N   1      29.997  14.654   3.644  0.00  0.00     0.264 C 
BRANCH  26  27
HETATM   27  C   UNK N   1      29.606  13.701   4.749  0.00  0.00    -0.009 C 
HETATM   28  C   UNK N   1      28.669  12.776   4.536  0.00  0.00     0.008 C 
ENDBRANCH  26  27
ENDBRANCH  20  26
ENDBRANCH   5  20
BRANCH   4  29
HETATM   29  O   UNK N   1      28.416  18.328   5.307  0.00  0.00    -0.313 OA
BRANCH  29  30
HETATM   30  C   UNK N   1      27.920  19.370   6.022  0.00  0.00     0.258 C 
HETATM   31  O   UNK N   1      27.865  19.329   7.240  0.00  0.00    -0.265 OA
BRANCH  30  32
HETATM   32  C   UNK N   1      27.441  20.589   5.303  0.00  0.00     0.106 C 
HETATM   33  C   UNK N   1      26.966  21.637   6.290  0.00  0.00     0.015 C 
ENDBRANCH  30  32
ENDBRANCH  29  30
ENDBRANCH   4  29
BRANCH   8  34
HETATM   34  N   UNK N   1      19.983  16.545   2.465  0.00  0.00     0.095 N 
HETATM   35  C   UNK N   1      19.710  17.172   1.161  0.00  0.00     0.273 C 
HETATM   36  C   UNK N   1      20.581  18.410   0.894  0.00  0.00     0.030 C 
HETATM   37  C   UNK N   1      20.800  19.271   2.139  0.00  0.00     0.003 C 
HETATM   38  C   UNK N   1      19.802  18.935   3.237  0.00  0.00     0.030 C 
HETATM   39  C   UNK N   1      19.945  17.463   3.621  0.00  0.00     0.273 C 
ENDBRANCH   8  34
BRANCH   9  40
HETATM   40  O   UNK N   1      20.310  13.722   1.478  0.00  0.00    -0.314 OA
BRANCH  40  41
HETATM   41  C   UNK N   1      19.455  13.205   0.556  0.00  0.00     0.255 C 
HETATM   42  O   UNK N   1      19.639  12.099   0.070  0.00  0.00    -0.266 OA
HETATM   43  C   UNK N   1      18.245  13.979   0.171  0.00  0.00     0.126 C 
ENDBRANCH  40  41
ENDBRANCH   9  40
TORSDOF 9
ENDMDL
MODEL 3
REMARK VINA RESULT:      -6.8      7.939     13.719
REMARK  9 active torsions:
REMARK  status: ('A' for Active; 'I' for Inactive)
REMARK    1  A    between atoms: C_4  and  O_16 
REMARK    2  A    between atoms: C_5  and  N_8 
REMARK    3  A    between atoms: C_27  and  N_8 
REMARK    4  A    between atoms: C_9  and  N_14 
REMARK    5  A    between atoms: C_10  and  O_19 
REMARK    6  A    between atoms: C_21  and  O_16 
REMARK    7  A    between atoms: C_22  and  O_19 
REMARK    8  A    between atoms: C_35  and  C_21 
REMARK    9  A    between atoms: C_26  and  C_27 
ROOT
HETATM    1  C   UNK N   1      34.102  14.637   9.382  0.00  0.00    -0.011 C 
HETATM    2  C   UNK N   1      37.243  12.084  11.133  0.00  0.00    -0.034 C 
HETATM    3  C   UNK N   1      34.242  13.175   8.965  0.00  0.00     0.003 C 
HETATM    4  C   UNK N   1      32.774  14.971   8.681  0.00  0.00     0.171 C 
HETATM    5  C   UNK N   1      32.897  14.266   7.278  0.00  0.00     0.221 C 
HETATM    6  C   UNK N   1      35.829  12.636  10.771  0.00  0.00    -0.002 C 
HETATM    7  C   UNK N   1      35.652  12.672   9.238  0.00  0.00    -0.005 C 
HETATM    8  C   UNK N   1      36.399  10.682  13.064  0.00  0.00     0.253 C 
HETATM    9  C   UNK N   1      36.796   9.374  12.368  0.00  0.00     0.165 C 
HETATM   10  C   UNK N   1      33.846  13.102   7.531  0.00  0.00     0.042 C 
HETATM   11  C   UNK N   1      37.336  11.837  12.645  0.00  0.00     0.048 C 
HETATM   12  C   UNK N   1      37.539  10.745  10.378  0.00  0.00    -0.004 C 
HETATM   13  C   UNK N   1      34.186  14.656  10.917  0.00  0.00     0.012 C 
HETATM   14  C   UNK N   1      36.644   9.602  10.869  0.00  0.00     0.040 C 
HETATM   15  C   UNK N   1      35.537  14.039  11.390  0.00  0.00     0.007 C 
HETATM   16  C   UNK N   1      35.884  11.300   8.612  0.00  0.00     0.006 C 
HETATM   17  C   UNK N   1      37.323  10.880   8.875  0.00  0.00     0.006 C 
HETATM   18  C   UNK N   1      35.207  15.553   8.829  0.00  0.00     0.018 C 
HETATM   19  C   UNK N   1      38.315  13.108  10.756  0.00  0.00     0.016 C 
ENDROOT
BRANCH   5  20
HETATM   20  N   UNK N   1      33.258  15.039   6.037  0.00  0.00    -0.057 N 
HETATM   21  C   UNK N   1      33.860  16.356   6.338  0.00  0.00     0.238 C 
HETATM   22  C   UNK N   1      33.067  17.562   5.824  0.00  0.00     0.028 C 
HETATM   23  C   UNK N   1      32.786  17.393   4.336  0.00  0.00     0.003 C 
HETATM   24  C   UNK N   1      32.171  16.031   4.011  0.00  0.00     0.028 C 
HETATM   25  C   UNK N   1      32.008  15.155   5.260  0.00  0.00     0.238 C 
BRANCH  20  26
HETATM   26  C   UNK N   1      34.287  14.378   5.187  0.00  0.00     0.264 C 
BRANCH  26  27
HETATM   27  C   UNK N   1      35.685  14.937   5.312  0.00  0.00    -0.009 C 
HETATM   28  C   UNK N   1      36.710  14.127   5.577  0.00  0.00     0.008 C 
ENDBRANCH  26  27
ENDBRANCH  20  26
ENDBRANCH   5  20
BRANCH   4  29
HETATM   29  O   UNK N   1      32.466  16.321   8.615  0.00  0.00    -0.313 OA
BRANCH  29  30
HETATM   30  C   UNK N   1      31.291  16.868   9.018  0.00  0.00     0.258 C 
HETATM   31  O   UNK N   1      30.475  16.216   9.648  0.00  0.00    -0.265 OA
BRANCH  30  32
HETATM   32  C   UNK N   1      30.997  18.295   8.688  0.00  0.00     0.106 C 
HETATM   33  C   UNK N   1      29.688  18.729   9.317  0.00  0.00     0.015 C 
ENDBRANCH  30  32
ENDBRANCH  29  30
ENDBRANCH   4  29
BRANCH   8  34
HETATM   34  N   UNK N   1      36.224  10.536  14.514  0.00  0.00     0.095 N 
HETATM   35  C   UNK N   1      34.863  10.071  14.833  0.00  0.00     0.273 C 
HETATM   36  C   UNK N   1      33.812  11.191  14.762  0.00  0.00     0.030 C 
HETATM   37  C   UNK N   1      34.322  12.530  15.299  0.00  0.00     0.003 C 
HETATM   38  C   UNK N   1      35.584  12.358  16.131  0.00  0.00     0.030 C 
HETATM   39  C   UNK N   1      36.675  11.720  15.273  0.00  0.00     0.273 C 
ENDBRANCH   8  34
BRANCH   9  40
HETATM   40  O   UNK N   1      38.098   9.031  12.705  0.00  0.00    -0.314 OA
BRANCH  40  41
HETATM   41  C   UNK N   1      38.459   8.240  13.751  0.00  0.00     0.255 C 
HETATM   42  O   UNK N   1      38.008   7.111  13.877  0.00  0.00    -0.266 OA
HETATM   43  C   UNK N   1      39.461   8.741  14.728  0.00  0.00     0.126 C 
ENDBRANCH  40  41
ENDBRANCH   9  40
TORSDOF 9
ENDMDL
MODEL 4
REMARK VINA RESULT:      -6.7      2.482      9.145
REMARK  9 active torsions:
REMARK  status: ('A' for Active; 'I' for Inactive)
REMARK    1  A    between atoms: C_4  and  O_16 
REMARK    2  A    between atoms: C_5  and  N_8 
REMARK    3  A    between atoms: C_27  and  N_8 
REMARK    4  A    between atoms: C_9  and  N_14 
REMARK    5  A    between atoms: C_10  and  O_19 
REMARK    6  A    between atoms: C_21  and  O_16 
REMARK    7  A    between atoms: C_22  and  O_19 
REMARK    8  A    between atoms: C_35  and  C_21 
REMARK    9  A    between atoms: C_26  and  C_27 
ROOT
HETATM    1  C   UNK N   1      25.200  14.866   5.126  0.00  0.00    -0.011 C 
HETATM    2  C   UNK N   1      29.087  16.942   4.974  0.00  0.00    -0.034 C 
HETATM    3  C   UNK N   1      26.458  14.134   4.665  0.00  0.00     0.003 C 
HETATM    4  C   UNK N   1      24.232  13.672   5.209  0.00  0.00     0.171 C 
HETATM    5  C   UNK N   1      24.567  12.823   3.925  0.00  0.00     0.221 C 
HETATM    6  C   UNK N   1      27.976  15.931   5.396  0.00  0.00    -0.002 C 
HETATM    7  C   UNK N   1      27.502  15.124   4.169  0.00  0.00    -0.005 C 
HETATM    8  C   UNK N   1      30.497  16.529   7.034  0.00  0.00     0.253 C 
HETATM    9  C   UNK N   1      31.646  15.940   6.205  0.00  0.00     0.165 C 
HETATM   10  C   UNK N   1      26.025  13.151   3.633  0.00  0.00     0.042 C 
HETATM   11  C   UNK N   1      29.712  17.583   6.221  0.00  0.00     0.048 C 
HETATM   12  C   UNK N   1      30.211  16.236   4.145  0.00  0.00    -0.004 C 
HETATM   13  C   UNK N   1      25.590  15.627   6.404  0.00  0.00     0.012 C 
HETATM   14  C   UNK N   1      31.018  15.252   4.998  0.00  0.00     0.040 C 
HETATM   15  C   UNK N   1      26.763  16.609   6.107  0.00  0.00     0.007 C 
HETATM   16  C   UNK N   1      28.663  14.409   3.483  0.00  0.00     0.006 C 
HETATM   17  C   UNK N   1      29.641  15.454   2.965  0.00  0.00     0.006 C 
HETATM   18  C   UNK N   1      24.659  15.881   4.107  0.00  0.00     0.018 C 
HETATM   19  C   UNK N   1      28.480  18.060   4.125  0.00  0.00     0.016 C 
ENDROOT
BRANCH   5  20
HETATM   20  N   UNK N   1      23.706  12.891   2.690  0.00  0.00    -0.057 N 
HETATM   21  C   UNK N   1      23.398  11.554   2.135  0.00  0.00     0.238 C 
HETATM   22  C   UNK N   1      23.922  11.308   0.717  0.00  0.00     0.028 C 
HETATM   23  C   UNK N   1      23.451  12.427  -0.205  0.00  0.00     0.003 C 
HETATM   24  C   UNK N   1      23.758  13.814   0.363  0.00  0.00     0.028 C 
HETATM   25  C   UNK N   1      24.443  13.742   1.735  0.00  0.00     0.238 C 
BRANCH  20  26
HETATM   26  C   UNK N   1      22.360  13.486   2.919  0.00  0.00     0.264 C 
BRANCH  26  27
HETATM   27  C   UNK N   1      21.197  12.537   2.749  0.00  0.00    -0.009 C 
HETATM   28  C   UNK N   1      20.125  12.909   2.049  0.00  0.00     0.008 C 
ENDBRANCH  26  27
ENDBRANCH  20  26
ENDBRANCH   5  20
BRANCH   4  29
HETATM   29  O   UNK N   1      22.894  14.006   5.339  0.00  0.00    -0.313 OA
BRANCH  29  30
HETATM   30  C   UNK N   1      22.147  13.797   6.453  0.00  0.00     0.258 C 
HETATM   31  O   UNK N   1      21.700  12.693   6.713  0.00  0.00    -0.265 OA
BRANCH  30  32
HETATM   32  C   UNK N   1      21.875  14.940   7.376  0.00  0.00     0.106 C 
HETATM   33  C   UNK N   1      21.918  16.255   6.624  0.00  0.00     0.015 C 
ENDBRANCH  30  32
ENDBRANCH  29  30
ENDBRANCH   4  29
BRANCH   8  34
HETATM   34  N   UNK N   1      30.917  16.978   8.367  0.00  0.00     0.095 N 
HETATM   35  C   UNK N   1      30.130  16.310   9.417  0.00  0.00     0.273 C 
HETATM   36  C   UNK N   1      28.728  16.914   9.594  0.00  0.00     0.030 C 
HETATM   37  C   UNK N   1      28.706  18.438   9.458  0.00  0.00     0.003 C 
HETATM   38  C   UNK N   1      30.102  19.032   9.576  0.00  0.00     0.030 C 
HETATM   39  C   UNK N   1      30.997  18.449   8.483  0.00  0.00     0.273 C 
ENDBRANCH   8  34
BRANCH   9  40
HETATM   40  O   UNK N   1      32.523  16.946   5.823  0.00  0.00    -0.314 OA
BRANCH  40  41
HETATM   41  C   UNK N   1      33.851  16.985   6.110  0.00  0.00     0.255 C 
HETATM   42  O   UNK N   1      34.372  17.993   6.564  0.00  0.00    -0.266 OA
HETATM   43  C   UNK N   1      34.673  15.761   5.917  0.00  0.00     0.126 C 
ENDBRANCH  40  41
ENDBRANCH   9  40
TORSDOF 9
ENDMDL
MODEL 5
REMARK VINA RESULT:      -6.6      9.724     14.744
REMARK  9 active torsions:
REMARK  status: ('A' for Active; 'I' for Inactive)
REMARK    1  A    between atoms: C_4  and  O_16 
REMARK    2  A    between atoms: C_5  and  N_8 
REMARK    3  A    between atoms: C_27  and  N_8 
REMARK    4  A    between atoms: C_9  and  N_14 
REMARK    5  A    between atoms: C_10  and  O_19 
REMARK    6  A    between atoms: C_21  and  O_16 
REMARK    7  A    between atoms: C_22  and  O_19 
REMARK    8  A    between atoms: C_35  and  C_21 
REMARK    9  A    between atoms: C_26  and  C_27 
ROOT
HETATM    1  C   UNK N   1      35.718  10.009  12.039  0.00  0.00    -0.011 C 
HETATM    2  C   UNK N   1      36.400  13.929  10.137  0.00  0.00    -0.034 C 
HETATM    3  C   UNK N   1      35.029  11.265  12.570  0.00  0.00     0.003 C 
HETATM    4  C   UNK N   1      34.982   8.948  12.875  0.00  0.00     0.171 C 
HETATM    5  C   UNK N   1      34.888   9.592  14.309  0.00  0.00     0.221 C 
HETATM    6  C   UNK N   1      35.669  12.641  10.629  0.00  0.00    -0.002 C 
HETATM    7  C   UNK N   1      35.800  12.512  12.162  0.00  0.00    -0.005 C 
HETATM    8  C   UNK N   1      34.590  14.536   8.475  0.00  0.00     0.253 C 
HETATM    9  C   UNK N   1      34.241  15.824   9.232  0.00  0.00     0.165 C 
HETATM   10  C   UNK N   1      34.905  11.091  14.044  0.00  0.00     0.042 C 
HETATM   11  C   UNK N   1      36.082  14.176   8.656  0.00  0.00     0.048 C 
HETATM   12  C   UNK N   1      35.962  15.181  10.969  0.00  0.00    -0.004 C 
HETATM   13  C   UNK N   1      35.547  10.038  10.512  0.00  0.00     0.012 C 
HETATM   14  C   UNK N   1      34.499  15.556  10.710  0.00  0.00     0.040 C 
HETATM   15  C   UNK N   1      36.170  11.341   9.925  0.00  0.00     0.007 C 
HETATM   16  C   UNK N   1      35.271  13.751  12.878  0.00  0.00     0.006 C 
HETATM   17  C   UNK N   1      36.115  14.949  12.468  0.00  0.00     0.006 C 
HETATM   18  C   UNK N   1      37.222   9.942  12.353  0.00  0.00     0.018 C 
HETATM   19  C   UNK N   1      37.913  13.755  10.271  0.00  0.00     0.016 C 
ENDROOT
BRANCH   5  20
HETATM   20  N   UNK N   1      35.831   9.195  15.414  0.00  0.00    -0.057 N 
HETATM   21  C   UNK N   1      37.117   9.925  15.357  0.00  0.00     0.238 C 
HETATM   22  C   UNK N   1      38.352   9.043  15.148  0.00  0.00     0.028 C 
HETATM   23  C   UNK N   1      38.374   7.935  16.196  0.00  0.00     0.003 C 
HETATM   24  C   UNK N   1      37.046   7.179  16.269  0.00  0.00     0.028 C 
HETATM   25  C   UNK N   1      36.006   7.734  15.286  0.00  0.00     0.238 C 
BRANCH  20  26
HETATM   26  C   UNK N   1      35.326   9.496  16.782  0.00  0.00     0.264 C 
BRANCH  26  27
HETATM   27  C   UNK N   1      36.015  10.639  17.488  0.00  0.00    -0.009 C 
HETATM   28  C   UNK N   1      35.297  11.624  18.029  0.00  0.00     0.008 C 
ENDBRANCH  26  27
ENDBRANCH  20  26
ENDBRANCH   5  20
BRANCH   4  29
HETATM   29  O   UNK N   1      35.549   7.683  12.853  0.00  0.00    -0.313 OA
BRANCH  29  30
HETATM   30  C   UNK N   1      35.318   6.746  11.899  0.00  0.00     0.258 C 
HETATM   31  O   UNK N   1      34.186   6.503  11.515  0.00  0.00    -0.265 OA
BRANCH  30  32
HETATM   32  C   UNK N   1      36.473   6.007  11.306  0.00  0.00     0.106 C 
HETATM   33  C   UNK N   1      37.719   6.201  12.147  0.00  0.00     0.015 C 
ENDBRANCH  30  32
ENDBRANCH  29  30
ENDBRANCH   4  29
BRANCH   8  34
HETATM   34  N   UNK N   1      34.131  14.542   7.081  0.00  0.00     0.095 N 
HETATM   35  C   UNK N   1      32.993  13.624   6.900  0.00  0.00     0.273 C 
HETATM   36  C   UNK N   1      33.418  12.150   6.812  0.00  0.00     0.030 C 
HETATM   37  C   UNK N   1      34.717  11.943   6.029  0.00  0.00     0.003 C 
HETATM   38  C   UNK N   1      35.069  13.164   5.193  0.00  0.00     0.030 C 
HETATM   39  C   UNK N   1      35.230  14.377   6.108  0.00  0.00     0.273 C 
ENDBRANCH   8  34
BRANCH   9  40
HETATM   40  O   UNK N   1      35.010  16.878   8.760  0.00  0.00    -0.314 OA
BRANCH  40  41
HETATM   41  C   UNK N   1      34.539  18.110   8.426  0.00  0.00     0.255 C 
HETATM   42  O   UNK N   1      35.256  19.098   8.479  0.00  0.00    -0.266 OA
HETATM   43  C   UNK N   1      33.142  18.246   7.936  0.00  0.00     0.126 C 
ENDBRANCH  40  41
ENDBRANCH   9  40
TORSDOF 9
ENDMDL
MODEL 6
REMARK VINA RESULT:      -6.6      5.026      9.544
REMARK  9 active torsions:
REMARK  status: ('A' for Active; 'I' for Inactive)
REMARK    1  A    between atoms: C_4  and  O_16 
REMARK    2  A    between atoms: C_5  and  N_8 
REMARK    3  A    between atoms: C_27  and  N_8 
REMARK    4  A    between atoms: C_9  and  N_14 
REMARK    5  A    between atoms: C_10  and  O_19 
REMARK    6  A    between atoms: C_21  and  O_16 
REMARK    7  A    between atoms: C_22  and  O_19 
REMARK    8  A    between atoms: C_35  and  C_21 
REMARK    9  A    between atoms: C_26  and  C_27 
ROOT
HETATM    1  C   UNK N   1      33.910  13.503   7.859  0.00  0.00    -0.011 C 
HETATM    2  C   UNK N   1      31.649  16.857   6.103  0.00  0.00    -0.034 C 
HETATM    3  C   UNK N   1      33.046  14.406   8.736  0.00  0.00     0.003 C 
HETATM    4  C   UNK N   1      34.263  12.416   8.890  0.00  0.00     0.171 C 
HETATM    5  C   UNK N   1      34.557  13.225  10.209  0.00  0.00     0.221 C 
HETATM    6  C   UNK N   1      31.954  15.506   6.822  0.00  0.00    -0.002 C 
HETATM    7  C   UNK N   1      32.831  15.756   8.067  0.00  0.00    -0.005 C 
HETATM    8  C   UNK N   1      29.236  16.264   5.623  0.00  0.00     0.253 C 
HETATM    9  C   UNK N   1      28.715  17.390   6.526  0.00  0.00     0.165 C 
HETATM   10  C   UNK N   1      33.728  14.494  10.058  0.00  0.00     0.042 C 
HETATM   11  C   UNK N   1      30.600  16.639   5.003  0.00  0.00     0.048 C 
HETATM   12  C   UNK N   1      31.114  17.928   7.112  0.00  0.00    -0.004 C 
HETATM   13  C   UNK N   1      33.053  13.148   6.633  0.00  0.00     0.012 C 
HETATM   14  C   UNK N   1      29.727  17.563   7.652  0.00  0.00     0.040 C 
HETATM   15  C   UNK N   1      32.618  14.446   5.888  0.00  0.00     0.007 C 
HETATM   16  C   UNK N   1      32.180  16.752   9.023  0.00  0.00     0.006 C 
HETATM   17  C   UNK N   1      32.042  18.090   8.312  0.00  0.00     0.006 C 
HETATM   18  C   UNK N   1      35.206  14.166   7.365  0.00  0.00     0.018 C 
HETATM   19  C   UNK N   1      32.918  17.395   5.443  0.00  0.00     0.016 C 
ENDROOT
BRANCH   5  20
HETATM   20  N   UNK N   1      35.966  13.512  10.659  0.00  0.00    -0.057 N 
HETATM   21  C   UNK N   1      36.737  14.288   9.664  0.00  0.00     0.238 C 
HETATM   22  C   UNK N   1      37.972  13.575   9.106  0.00  0.00     0.028 C 
HETATM   23  C   UNK N   1      38.851  13.095  10.255  0.00  0.00     0.003 C 
HETATM   24  C   UNK N   1      38.061  12.298  11.296  0.00  0.00     0.028 C 
HETATM   25  C   UNK N   1      36.572  12.195  10.941  0.00  0.00     0.238 C 
BRANCH  20  26
HETATM   26  C   UNK N   1      36.052  14.348  11.888  0.00  0.00     0.264 C 
BRANCH  26  27
HETATM   27  C   UNK N   1      35.479  13.722  13.138  0.00  0.00    -0.009 C 
HETATM   28  C   UNK N   1      36.137  13.813  14.295  0.00  0.00     0.008 C 
ENDBRANCH  26  27
ENDBRANCH  20  26
ENDBRANCH   5  20
BRANCH   4  29
HETATM   29  O   UNK N   1      35.279  11.553   8.512  0.00  0.00    -0.313 OA
BRANCH  29  30
HETATM   30  C   UNK N   1      35.090  10.305   8.013  0.00  0.00     0.258 C 
HETATM   31  O   UNK N   1      34.970   9.342   8.752  0.00  0.00    -0.265 OA
BRANCH  30  32
HETATM   32  C   UNK N   1      35.023  10.111   6.533  0.00  0.00     0.106 C 
HETATM   33  C   UNK N   1      36.201  10.782   5.853  0.00  0.00     0.015 C 
ENDBRANCH  30  32
ENDBRANCH  29  30
ENDBRANCH   4  29
BRANCH   8  34
HETATM   34  N   UNK N   1      28.238  15.789   4.657  0.00  0.00     0.095 N 
HETATM   35  C   UNK N   1      27.860  14.393   4.935  0.00  0.00     0.273 C 
HETATM   36  C   UNK N   1      28.903  13.377   4.443  0.00  0.00     0.030 C 
HETATM   37  C   UNK N   1      29.528  13.760   3.099  0.00  0.00     0.003 C 
HETATM   38  C   UNK N   1      28.708  14.820   2.380  0.00  0.00     0.030 C 
HETATM   39  C   UNK N   1      28.612  16.069   3.255  0.00  0.00     0.273 C 
ENDBRANCH   8  34
BRANCH   9  40
HETATM   40  O   UNK N   1      28.560  18.557   5.792  0.00  0.00    -0.314 OA
BRANCH  40  41
HETATM   41  C   UNK N   1      27.422  19.296   5.718  0.00  0.00     0.255 C 
HETATM   42  O   UNK N   1      26.376  18.811   5.312  0.00  0.00    -0.266 OA
HETATM   43  C   UNK N   1      27.438  20.706   6.190  0.00  0.00     0.126 C 
ENDBRANCH  40  41
ENDBRANCH   9  40
TORSDOF 9
ENDMDL
MODEL 7
REMARK VINA RESULT:      -6.6      3.772     10.373
REMARK  9 active torsions:
REMARK  status: ('A' for Active; 'I' for Inactive)
REMARK    1  A    between atoms: C_4  and  O_16 
REMARK    2  A    between atoms: C_5  and  N_8 
REMARK    3  A    between atoms: C_27  and  N_8 
REMARK    4  A    between atoms: C_9  and  N_14 
REMARK    5  A    between atoms: C_10  and  O_19 
REMARK    6  A    between atoms: C_21  and  O_16 
REMARK    7  A    between atoms: C_22  and  O_19 
REMARK    8  A    between atoms: C_35  and  C_21 
REMARK    9  A    between atoms: C_26  and  C_27 
ROOT
HETATM    1  C   UNK N   1      29.629  16.877   5.906  0.00  0.00    -0.011 C 
HETATM    2  C   UNK N   1      33.593  15.028   5.343  0.00  0.00    -0.034 C 
HETATM    3  C   UNK N   1      29.789  15.358   5.902  0.00  0.00     0.003 C 
HETATM    4  C   UNK N   1      28.160  16.972   6.354  0.00  0.00     0.171 C 
HETATM    5  C   UNK N   1      27.443  15.823   5.551  0.00  0.00     0.221 C 
HETATM    6  C   UNK N   1      32.248  15.447   6.015  0.00  0.00    -0.002 C 
HETATM    7  C   UNK N   1      31.057  14.954   5.165  0.00  0.00    -0.005 C 
HETATM    8  C   UNK N   1      34.697  14.398   7.532  0.00  0.00     0.253 C 
HETATM    9  C   UNK N   1      34.801  12.922   7.124  0.00  0.00     0.165 C 
HETATM   10  C   UNK N   1      28.544  14.800   5.304  0.00  0.00     0.042 C 
HETATM   11  C   UNK N   1      34.764  15.318   6.293  0.00  0.00     0.048 C 
HETATM   12  C   UNK N   1      33.595  13.506   4.980  0.00  0.00    -0.004 C 
HETATM   13  C   UNK N   1      30.745  17.424   6.811  0.00  0.00     0.012 C 
HETATM   14  C   UNK N   1      33.604  12.620   6.231  0.00  0.00     0.040 C 
HETATM   15  C   UNK N   1      32.139  16.983   6.272  0.00  0.00     0.007 C 
HETATM   16  C   UNK N   1      31.113  13.446   4.939  0.00  0.00     0.006 C 
HETATM   17  C   UNK N   1      32.374  13.116   4.154  0.00  0.00     0.006 C 
HETATM   18  C   UNK N   1      29.774  17.523   4.519  0.00  0.00     0.018 C 
HETATM   19  C   UNK N   1      33.813  15.838   4.065  0.00  0.00     0.016 C 
ENDROOT
BRANCH   5  20
HETATM   20  N   UNK N   1      26.640  16.111   4.309  0.00  0.00    -0.057 N 
HETATM   21  C   UNK N   1      25.190  15.892   4.502  0.00  0.00     0.238 C 
HETATM   22  C   UNK N   1      24.577  14.806   3.612  0.00  0.00     0.028 C 
HETATM   23  C   UNK N   1      24.919  15.087   2.153  0.00  0.00     0.003 C 
HETATM   24  C   UNK N   1      26.416  15.324   1.943  0.00  0.00     0.028 C 
HETATM   25  C   UNK N   1      27.207  15.245   3.256  0.00  0.00     0.238 C 
BRANCH  20  26
HETATM   26  C   UNK N   1      26.715  17.527   3.853  0.00  0.00     0.264 C 
BRANCH  26  27
HETATM   27  C   UNK N   1      25.403  18.276   3.854  0.00  0.00    -0.009 C 
HETATM   28  C   UNK N   1      25.354  19.542   3.438  0.00  0.00     0.008 C 
ENDBRANCH  26  27
ENDBRANCH  20  26
ENDBRANCH   5  20
BRANCH   4  29
HETATM   29  O   UNK N   1      27.578  18.221   6.204  0.00  0.00    -0.313 OA
BRANCH  29  30
HETATM   30  C   UNK N   1      27.803  19.284   7.017  0.00  0.00     0.258 C 
HETATM   31  O   UNK N   1      28.001  19.133   8.212  0.00  0.00    -0.265 OA
BRANCH  30  32
HETATM   32  C   UNK N   1      27.812  20.661   6.437  0.00  0.00     0.106 C 
HETATM   33  C   UNK N   1      26.438  21.293   6.541  0.00  0.00     0.015 C 
ENDBRANCH  30  32
ENDBRANCH  29  30
ENDBRANCH   4  29
BRANCH   8  34
HETATM   34  N   UNK N   1      35.617  14.766   8.614  0.00  0.00     0.095 N 
HETATM   35  C   UNK N   1      35.752  13.666   9.585  0.00  0.00     0.273 C 
HETATM   36  C   UNK N   1      34.562  13.570  10.554  0.00  0.00     0.030 C 
HETATM   37  C   UNK N   1      34.033  14.937  10.995  0.00  0.00     0.003 C 
HETATM   38  C   UNK N   1      35.031  16.047  10.701  0.00  0.00     0.030 C 
HETATM   39  C   UNK N   1      35.320  16.088   9.202  0.00  0.00     0.273 C 
ENDBRANCH   8  34
BRANCH   9  40
HETATM   40  O   UNK N   1      36.002  12.692   6.468  0.00  0.00    -0.314 OA
BRANCH  40  41
HETATM   41  C   UNK N   1      36.782  11.588   6.616  0.00  0.00     0.255 C 
HETATM   42  O   UNK N   1      36.646  10.839   7.572  0.00  0.00    -0.266 OA
HETATM   43  C   UNK N   1      37.783  11.259   5.567  0.00  0.00     0.126 C 
ENDBRANCH  40  41
ENDBRANCH   9  40
TORSDOF 9
ENDMDL
MODEL 8
REMARK VINA RESULT:      -6.5      8.511     13.916
REMARK  9 active torsions:
REMARK  status: ('A' for Active; 'I' for Inactive)
REMARK    1  A    between atoms: C_4  and  O_16 
REMARK    2  A    between atoms: C_5  and  N_8 
REMARK    3  A    between atoms: C_27  and  N_8 
REMARK    4  A    between atoms: C_9  and  N_14 
REMARK    5  A    between atoms: C_10  and  O_19 
REMARK    6  A    between atoms: C_21  and  O_16 
REMARK    7  A    between atoms: C_22  and  O_19 
REMARK    8  A    between atoms: C_35  and  C_21 
REMARK    9  A    between atoms: C_26  and  C_27 
ROOT
HETATM    1  C   UNK N   1      34.505  14.147   8.631  0.00  0.00    -0.011 C 
HETATM    2  C   UNK N   1      37.653  11.923  10.773  0.00  0.00    -0.034 C 
HETATM    3  C   UNK N   1      34.633  12.632   8.478  0.00  0.00     0.003 C 
HETATM    4  C   UNK N   1      33.170  14.360   7.896  0.00  0.00     0.171 C 
HETATM    5  C   UNK N   1      33.273  13.416   6.639  0.00  0.00     0.221 C 
HETATM    6  C   UNK N   1      36.238  12.411  10.333  0.00  0.00    -0.002 C 
HETATM    7  C   UNK N   1      36.043  12.177   8.820  0.00  0.00    -0.005 C 
HETATM    8  C   UNK N   1      36.826  10.892  12.931  0.00  0.00     0.253 C 
HETATM    9  C   UNK N   1      37.208   9.478  12.473  0.00  0.00     0.165 C 
HETATM   10  C   UNK N   1      34.219  12.309   7.084  0.00  0.00     0.042 C 
HETATM   11  C   UNK N   1      37.763  11.948  12.304  0.00  0.00     0.048 C 
HETATM   12  C   UNK N   1      37.934  10.470  10.264  0.00  0.00    -0.004 C 
HETATM   13  C   UNK N   1      34.606  14.436  10.137  0.00  0.00     0.012 C 
HETATM   14  C   UNK N   1      37.040   9.438  10.959  0.00  0.00     0.040 C 
HETATM   15  C   UNK N   1      35.959  13.904  10.697  0.00  0.00     0.007 C 
HETATM   16  C   UNK N   1      36.261  10.713   8.445  0.00  0.00     0.006 C 
HETATM   17  C   UNK N   1      37.701  10.338   8.763  0.00  0.00     0.006 C 
HETATM   18  C   UNK N   1      35.607  14.942   7.912  0.00  0.00     0.018 C 
HETATM   19  C   UNK N   1      38.726  12.856  10.209  0.00  0.00     0.016 C 
ENDROOT
BRANCH   5  20
HETATM   20  N   UNK N   1      33.623  13.954   5.276  0.00  0.00    -0.057 N 
HETATM   21  C   UNK N   1      32.542  13.748   4.286  0.00  0.00     0.238 C 
HETATM   22  C   UNK N   1      32.920  12.866   3.093  0.00  0.00     0.028 C 
HETATM   23  C   UNK N   1      34.191  13.400   2.442  0.00  0.00     0.003 C 
HETATM   24  C   UNK N   1      35.313  13.624   3.458  0.00  0.00     0.028 C 
HETATM   25  C   UNK N   1      34.878  13.280   4.889  0.00  0.00     0.238 C 
BRANCH  20  26
HETATM   26  C   UNK N   1      33.843  15.427   5.242  0.00  0.00     0.264 C 
BRANCH  26  27
HETATM   27  C   UNK N   1      32.904  16.200   4.346  0.00  0.00    -0.009 C 
HETATM   28  C   UNK N   1      32.812  17.525   4.456  0.00  0.00     0.008 C 
ENDBRANCH  26  27
ENDBRANCH  20  26
ENDBRANCH   5  20
BRANCH   4  29
HETATM   29  O   UNK N   1      32.867  15.678   7.595  0.00  0.00    -0.313 OA
BRANCH  29  30
HETATM   30  C   UNK N   1      32.163  16.515   8.399  0.00  0.00     0.258 C 
HETATM   31  O   UNK N   1      31.261  16.099   9.106  0.00  0.00    -0.265 OA
BRANCH  30  32
HETATM   32  C   UNK N   1      32.506  17.969   8.421  0.00  0.00     0.106 C 
HETATM   33  C   UNK N   1      33.932  18.188   7.954  0.00  0.00     0.015 C 
ENDBRANCH  30  32
ENDBRANCH  29  30
ENDBRANCH   4  29
BRANCH   8  34
HETATM   34  N   UNK N   1      36.667  11.006  14.385  0.00  0.00     0.095 N 
HETATM   35  C   UNK N   1      35.760   9.964  14.897  0.00  0.00     0.273 C 
HETATM   36  C   UNK N   1      34.277  10.284  14.653  0.00  0.00     0.030 C 
HETATM   37  C   UNK N   1      33.942  11.766  14.839  0.00  0.00     0.003 C 
HETATM   38  C   UNK N   1      35.039  12.499  15.596  0.00  0.00     0.030 C 
HETATM   39  C   UNK N   1      36.354  12.380  14.826  0.00  0.00     0.273 C 
ENDBRANCH   8  34
BRANCH   9  40
HETATM   40  O   UNK N   1      38.512   9.191  12.852  0.00  0.00    -0.314 OA
BRANCH  40  41
HETATM   41  C   UNK N   1      38.877   8.286  13.799  0.00  0.00     0.255 C 
HETATM   42  O   UNK N   1      38.216   7.278  14.001  0.00  0.00    -0.266 OA
HETATM   43  C   UNK N   1      40.132   8.502  14.566  0.00  0.00     0.126 C 
ENDBRANCH  40  41
ENDBRANCH   9  40
TORSDOF 9
ENDMDL
MODEL 9
REMARK VINA RESULT:      -6.5      3.286      8.918
REMARK  9 active torsions:
REMARK  status: ('A' for Active; 'I' for Inactive)
REMARK    1  A    between atoms: C_4  and  O_16 
REMARK    2  A    between atoms: C_5  and  N_8 
REMARK    3  A    between atoms: C_27  and  N_8 
REMARK    4  A    between atoms: C_9  and  N_14 
REMARK    5  A    between atoms: C_10  and  O_19 
REMARK    6  A    between atoms: C_21  and  O_16 
REMARK    7  A    between atoms: C_22  and  O_19 
REMARK    8  A    between atoms: C_35  and  C_21 
REMARK    9  A    between atoms: C_26  and  C_27 
ROOT
HETATM    1  C   UNK N   1      24.039  13.578   6.104  0.00  0.00    -0.011 C 
HETATM    2  C   UNK N   1      27.182  15.899   4.058  0.00  0.00    -0.034 C 
HETATM    3  C   UNK N   1      25.390  12.944   5.777  0.00  0.00     0.003 C 
HETATM    4  C   UNK N   1      23.445  12.461   6.980  0.00  0.00     0.171 C 
HETATM    5  C   UNK N   1      23.853  11.135   6.233  0.00  0.00     0.221 C 
HETATM    6  C   UNK N   1      26.438  15.088   5.165  0.00  0.00    -0.002 C 
HETATM    7  C   UNK N   1      26.068  13.686   4.635  0.00  0.00    -0.005 C 
HETATM    8  C   UNK N   1      28.868  16.889   5.665  0.00  0.00     0.253 C 
HETATM    9  C   UNK N   1      30.035  16.161   4.985  0.00  0.00     0.165 C 
HETATM   10  C   UNK N   1      25.127  11.507   5.487  0.00  0.00     0.042 C 
HETATM   11  C   UNK N   1      27.744  17.198   4.652  0.00  0.00     0.048 C 
HETATM   12  C   UNK N   1      28.357  15.069   3.442  0.00  0.00    -0.004 C 
HETATM   13  C   UNK N   1      24.347  14.953   6.718  0.00  0.00     0.012 C 
HETATM   14  C   UNK N   1      29.488  14.842   4.451  0.00  0.00     0.040 C 
HETATM   15  C   UNK N   1      25.172  15.817   5.718  0.00  0.00     0.007 C 
HETATM   16  C   UNK N   1      27.296  12.932   4.133  0.00  0.00     0.006 C 
HETATM   17  C   UNK N   1      27.894  13.698   2.962  0.00  0.00     0.006 C 
HETATM   18  C   UNK N   1      23.136  13.789   4.878  0.00  0.00     0.018 C 
HETATM   19  C   UNK N   1      26.207  16.274   2.941  0.00  0.00     0.016 C 
ENDROOT
BRANCH   5  20
HETATM   20  N   UNK N   1      22.876  10.390   5.361  0.00  0.00    -0.057 N 
HETATM   21  C   UNK N   1      21.667  11.183   5.050  0.00  0.00     0.238 C 
HETATM   22  C   UNK N   1      20.353  10.584   5.561  0.00  0.00     0.028 C 
HETATM   23  C   UNK N   1      20.226   9.143   5.080  0.00  0.00     0.003 C 
HETATM   24  C   UNK N   1      21.475   8.315   5.389  0.00  0.00     0.028 C 
HETATM   25  C   UNK N   1      22.562   9.143   6.087  0.00  0.00     0.238 C 
BRANCH  20  26
HETATM   26  C   UNK N   1      23.410  10.036   4.016  0.00  0.00     0.264 C 
BRANCH  26  27
HETATM   27  C   UNK N   1      22.833  10.825   2.865  0.00  0.00    -0.009 C 
HETATM   28  C   UNK N   1      23.643  11.401   1.975  0.00  0.00     0.008 C 
ENDBRANCH  26  27
ENDBRANCH  20  26
ENDBRANCH   5  20
BRANCH   4  29
HETATM   29  O   UNK N   1      22.088  12.574   7.239  0.00  0.00    -0.313 OA
BRANCH  29  30
HETATM   30  C   UNK N   1      21.556  12.971   8.423  0.00  0.00     0.258 C 
HETATM   31  O   UNK N   1      20.426  13.428   8.484  0.00  0.00    -0.265 OA
BRANCH  30  32
HETATM   32  C   UNK N   1      22.366  12.838   9.671  0.00  0.00     0.106 C 
HETATM   33  C   UNK N   1      21.500  12.359  10.820  0.00  0.00     0.015 C 
ENDBRANCH  30  32
ENDBRANCH  29  30
ENDBRANCH   4  29
BRANCH   8  34
HETATM   34  N   UNK N   1      29.294  18.039   6.471  0.00  0.00     0.095 N 
HETATM   35  C   UNK N   1      30.283  17.632   7.484  0.00  0.00     0.273 C 
HETATM   36  C   UNK N   1      29.648  16.942   8.702  0.00  0.00     0.030 C 
HETATM   37  C   UNK N   1      28.318  17.569   9.123  0.00  0.00     0.003 C 
HETATM   38  C   UNK N   1      28.127  18.948   8.509  0.00  0.00     0.030 C 
HETATM   39  C   UNK N   1      28.163  18.836   6.986  0.00  0.00     0.273 C 
ENDBRANCH   8  34
BRANCH   9  40
HETATM   40  O   UNK N   1      30.561  16.947   3.970  0.00  0.00    -0.314 OA
BRANCH  40  41
HETATM   41  C   UNK N   1      31.878  17.041   3.648  0.00  0.00     0.255 C 
HETATM   42  O   UNK N   1      32.275  16.789   2.520  0.00  0.00    -0.266 OA
HETATM   43  C   UNK N   1      32.847  17.512   4.674  0.00  0.00     0.126 C 
ENDBRANCH  40  41
ENDBRANCH   9  40
TORSDOF 9
ENDMDL
