MODEL 1
REMARK VINA RESULT:      -7.7      0.000      0.000
REMARK  14 active torsions:
REMARK  status: ('A' for Active; 'I' for Inactive)
REMARK       I    between atoms: N_7  and  C_24 
REMARK       I    between atoms: N_8  and  C_23 
REMARK    1  A    between atoms: C_27  and  N_8 
REMARK    2  A    between atoms: C_25  and  N_9 
REMARK       I    between atoms: N_9  and  C_33 
REMARK    3  A    between atoms: C_32  and  N_10 
REMARK       I    between atoms: N_10  and  C_47 
REMARK    4  A    between atoms: N_11  and  C_41 
REMARK       I    between atoms: N_11  and  C_45 
REMARK    5  A    between atoms: C_18  and  C_23 
REMARK    6  A    between atoms: C_24  and  C_25 
REMARK    7  A    between atoms: C_25  and  C_26 
REMARK    8  A    between atoms: C_27  and  C_34 
REMARK    9  A    between atoms: C_27  and  C_37 
REMARK   10  A    between atoms: C_31  and  C_32 
REMARK   11  A    between atoms: C_32  and  C_33 
REMARK   12  A    between atoms: C_34  and  C_42 
REMARK   13  A    between atoms: C_37  and  C_45 
REMARK   14  A    between atoms: C_47  and  C_48 
ROOT
HETATM    1  C   UNK N   1      24.809  16.197   5.160  0.00  0.00     0.184 C 
ENDROOT
BRANCH   1   2
HETATM    2  N   UNK N   1      23.712  16.812   5.882  0.00  0.00    -0.345 N 
HETATM    3  C   UNK N   1      22.688  16.072   6.382  0.00  0.00     0.241 C 
HETATM    4  O   UNK N   1      21.721  16.634   6.872  0.00  0.00    -0.271 OA
HETATM    5  H   UNK N   1      23.709  17.788   6.012  0.00  0.00     0.163 HD
BRANCH   3   6
HETATM    6  C   UNK N   1      22.796  14.566   6.432  0.00  0.00     0.181 C 
BRANCH   6   7
HETATM    7  N   UNK N   1      22.839  14.116   7.808  0.00  0.00    -0.342 N 
HETATM    8  C   UNK N   1      23.869  13.417   8.365  0.00  0.00     0.270 C 
HETATM    9  O   UNK N   1      24.901  13.224   7.751  0.00  0.00    -0.266 OA
HETATM   10  H   UNK N   1      22.068  14.329   8.382  0.00  0.00     0.163 HD
BRANCH   8  11
HETATM   11  C   UNK N   1      23.703  12.839   9.705  0.00  0.00     0.116 A 
HETATM   12  N   UNK N   1      22.452  12.650  10.215  0.00  0.00    -0.359 N 
HETATM   13  C   UNK N   1      22.277  12.152  11.467  0.00  0.00     0.105 A 
ATOM     14  HN  UNK N   1      21.638  12.886   9.648  1.00  0.00     0.165 HD
HETATM   15  C   UNK N   1      23.389  11.845  12.248  0.00  0.00     0.104 A 
HETATM   16  N   UNK N   1      24.634  12.037  11.741  0.00  0.00    -0.372 N 
HETATM   17  C   UNK N   1      24.814  12.527  10.489  0.00  0.00     0.122 A 
ATOM     18  HN  UNK N   1      25.449  11.808  12.311  1.00  0.00     0.164 HD
ENDBRANCH   8  11
ENDBRANCH   6   7
BRANCH   6  19
HETATM   19  C   UNK N   1      21.986  13.670   5.463  0.00  0.00     0.018 C 
HETATM   20  C   UNK N   1      22.750  12.731   4.520  0.00  0.00     0.007 C 
HETATM   21  C   UNK N   1      23.166  11.414   5.185  0.00  0.00     0.000 C 
HETATM   22  C   UNK N   1      22.191  10.934   6.264  0.00  0.00     0.000 C 
HETATM   23  C   UNK N   1      20.784  11.475   6.036  0.00  0.00     0.000 C 
HETATM   24  C   UNK N   1      20.771  13.005   6.132  0.00  0.00     0.007 C 
ENDBRANCH   6  19
ENDBRANCH   3   6
ENDBRANCH   1   2
BRANCH   1  25
HETATM   25  C   UNK N   1      26.161  16.113   5.890  0.00  0.00     0.244 C 
HETATM   26  O   UNK N   1      26.072  16.121   7.106  0.00  0.00    -0.271 OA
HETATM   27  N   UNK N   1      27.238  15.460   5.347  0.00  0.00    -0.336 N 
HETATM   28  C   UNK N   1      28.120  16.035   4.342  0.00  0.00     0.183 C 
HETATM   29  C   UNK N   1      27.349  14.014   5.423  0.00  0.00     0.132 C 
HETATM   30  C   UNK N   1      28.847  14.777   3.822  0.00  0.00     0.023 C 
HETATM   31  C   UNK N   1      27.839  13.706   4.020  0.00  0.00     0.010 C 
HETATM   32  C   UNK N   1      29.283  14.543   2.400  0.00  0.00     0.007 C 
HETATM   33  C   UNK N   1      28.601  12.476   3.605  0.00  0.00     0.007 C 
HETATM   34  C   UNK N   1      29.351  12.996   2.353  0.00  0.00     0.001 C 
BRANCH  28  35
HETATM   35  C   UNK N   1      29.157  16.852   5.092  0.00  0.00     0.241 C 
HETATM   36  O   UNK N   1      29.787  17.735   4.532  0.00  0.00    -0.271 OA
HETATM   37  N   UNK N   1      29.371  16.556   6.408  0.00  0.00    -0.347 N 
HETATM   38  H   UNK N   1      28.777  15.876   6.801  0.00  0.00     0.163 HD
BRANCH  37  39
HETATM   39  C   UNK N   1      30.365  17.121   7.292  0.00  0.00     0.164 C 
BRANCH  39  40
HETATM   40  C   UNK N   1      31.411  16.162   7.823  0.00  0.00     0.033 C 
BRANCH  40  41
HETATM   41  C   UNK N   1      32.591  16.031   6.901  0.00  0.00    -0.002 C 
HETATM   42  C   UNK N   1      32.935  17.430   6.452  0.00  0.00     0.005 C 
ENDBRANCH  40  41
ENDBRANCH  39  40
BRANCH  39  43
HETATM   43  C   UNK N   1      29.808  18.040   8.337  0.00  0.00     0.238 C 
HETATM   44  O   UNK N   1      30.588  18.688   9.018  0.00  0.00    -0.285 OA
BRANCH  43  45
HETATM   45  C   UNK N   1      28.342  18.067   8.621  0.00  0.00     0.289 C 
HETATM   46  O   UNK N   1      27.900  17.366   9.517  0.00  0.00    -0.264 OA
HETATM   47  N   UNK N   1      27.484  18.887   7.957  0.00  0.00    -0.350 N 
HETATM   48  H   UNK N   1      26.522  18.786   8.140  0.00  0.00     0.163 HD
BRANCH  47  49
HETATM   49  C   UNK N   1      27.880  19.896   7.000  0.00  0.00     0.085 A 
HETATM   50  C   UNK N   1      26.975  19.788   5.784  0.00  0.00     0.027 A 
HETATM   51  C   UNK N   1      26.749  20.897   6.780  0.00  0.00     0.027 A 
ENDBRANCH  47  49
ENDBRANCH  43  45
ENDBRANCH  39  43
ENDBRANCH  37  39
ENDBRANCH  28  35
ENDBRANCH   1  25
BRANCH   1  52
HETATM   52  C   UNK N   1      24.692  16.410   3.638  0.00  0.00    -0.022 C 
HETATM   53  C   UNK N   1      23.267  16.797   3.284  0.00  0.00     0.017 C 
HETATM   54  C   UNK N   1      25.598  17.536   3.187  0.00  0.00     0.017 C 
HETATM   55  C   UNK N   1      24.979  15.135   2.869  0.00  0.00     0.017 C 
ENDBRANCH   1  52
TORSDOF 14
ENDMDL
MODEL 2
REMARK VINA RESULT:      -7.3      2.972      8.222
REMARK  14 active torsions:
REMARK  status: ('A' for Active; 'I' for Inactive)
REMARK       I    between atoms: N_7  and  C_24 
REMARK       I    between atoms: N_8  and  C_23 
REMARK    1  A    between atoms: C_27  and  N_8 
REMARK    2  A    between atoms: C_25  and  N_9 
REMARK       I    between atoms: N_9  and  C_33 
REMARK    3  A    between atoms: C_32  and  N_10 
REMARK       I    between atoms: N_10  and  C_47 
REMARK    4  A    between atoms: N_11  and  C_41 
REMARK       I    between atoms: N_11  and  C_45 
REMARK    5  A    between atoms: C_18  and  C_23 
REMARK    6  A    between atoms: C_24  and  C_25 
REMARK    7  A    between atoms: C_25  and  C_26 
REMARK    8  A    between atoms: C_27  and  C_34 
REMARK    9  A    between atoms: C_27  and  C_37 
REMARK   10  A    between atoms: C_31  and  C_32 
REMARK   11  A    between atoms: C_32  and  C_33 
REMARK   12  A    between atoms: C_34  and  C_42 
REMARK   13  A    between atoms: C_37  and  C_45 
REMARK   14  A    between atoms: C_47  and  C_48 
ROOT
HETATM    1  C   UNK N   1      27.075  14.268   4.005  0.00  0.00     0.184 C 
ENDROOT
BRANCH   1   2
HETATM    2  N   UNK N   1      27.774  13.087   4.474  0.00  0.00    -0.345 N 
HETATM    3  C   UNK N   1      29.112  13.099   4.708  0.00  0.00     0.241 C 
HETATM    4  O   UNK N   1      29.685  12.056   4.980  0.00  0.00    -0.271 OA
HETATM    5  H   UNK N   1      27.266  12.256   4.625  0.00  0.00     0.163 HD
BRANCH   3   6
HETATM    6  C   UNK N   1      29.862  14.409   4.743  0.00  0.00     0.181 C 
BRANCH   6   7
HETATM    7  N   UNK N   1      30.751  14.444   5.886  0.00  0.00    -0.342 N 
HETATM    8  C   UNK N   1      30.759  15.424   6.834  0.00  0.00     0.270 C 
HETATM    9  O   UNK N   1      29.914  16.299   6.840  0.00  0.00    -0.266 OA
HETATM   10  H   UNK N   1      31.395  13.707   5.986  0.00  0.00     0.163 HD
BRANCH   8  11
HETATM   11  C   UNK N   1      31.843  15.456   7.825  0.00  0.00     0.116 A 
HETATM   12  N   UNK N   1      32.363  14.289   8.302  0.00  0.00    -0.359 N 
HETATM   13  C   UNK N   1      33.339  14.295   9.246  0.00  0.00     0.105 A 
ATOM     14  HN  UNK N   1      32.015  13.400   7.944  1.00  0.00     0.165 HD
HETATM   15  C   UNK N   1      33.806  15.509   9.748  0.00  0.00     0.104 A 
HETATM   16  N   UNK N   1      33.284  16.671   9.275  0.00  0.00    -0.372 N 
HETATM   17  C   UNK N   1      32.314  16.670   8.326  0.00  0.00     0.122 A 
ATOM     18  HN  UNK N   1      33.628  17.560   9.639  1.00  0.00     0.164 HD
ENDBRANCH   8  11
ENDBRANCH   6   7
BRANCH   6  19
HETATM   19  C   UNK N   1      30.419  15.050   3.447  0.00  0.00     0.018 C 
HETATM   20  C   UNK N   1      30.201  16.552   3.221  0.00  0.00     0.007 C 
HETATM   21  C   UNK N   1      31.230  17.428   3.943  0.00  0.00     0.000 C 
HETATM   22  C   UNK N   1      32.610  16.775   4.077  0.00  0.00     0.000 C 
HETATM   23  C   UNK N   1      32.850  15.734   2.988  0.00  0.00     0.000 C 
HETATM   24  C   UNK N   1      31.844  14.584   3.109  0.00  0.00     0.007 C 
ENDBRANCH   6  19
ENDBRANCH   3   6
ENDBRANCH   1   2
BRANCH   1  25
HETATM   25  C   UNK N   1      26.209  15.017   5.032  0.00  0.00     0.244 C 
HETATM   26  O   UNK N   1      26.192  14.504   6.139  0.00  0.00    -0.271 OA
HETATM   27  N   UNK N   1      26.023  16.374   4.970  0.00  0.00    -0.336 N 
HETATM   28  C   UNK N   1      25.068  17.028   4.088  0.00  0.00     0.183 C 
HETATM   29  C   UNK N   1      27.032  17.289   5.474  0.00  0.00     0.132 C 
HETATM   30  C   UNK N   1      25.566  18.488   4.133  0.00  0.00     0.023 C 
HETATM   31  C   UNK N   1      27.023  18.335   4.375  0.00  0.00     0.010 C 
HETATM   32  C   UNK N   1      25.536  19.459   2.982  0.00  0.00     0.007 C 
HETATM   33  C   UNK N   1      27.470  19.766   4.518  0.00  0.00     0.007 C 
HETATM   34  C   UNK N   1      26.657  20.448   3.389  0.00  0.00     0.001 C 
BRANCH  28  35
HETATM   35  C   UNK N   1      23.730  17.008   4.805  0.00  0.00     0.241 C 
HETATM   36  O   UNK N   1      23.487  17.799   5.703  0.00  0.00    -0.271 OA
HETATM   37  N   UNK N   1      22.817  16.069   4.423  0.00  0.00    -0.347 N 
HETATM   38  H   UNK N   1      23.065  15.513   3.648  0.00  0.00     0.163 HD
BRANCH  37  39
HETATM   39  C   UNK N   1      21.529  15.793   5.018  0.00  0.00     0.164 C 
BRANCH  39  40
HETATM   40  C   UNK N   1      21.379  14.443   5.691  0.00  0.00     0.033 C 
BRANCH  40  41
HETATM   41  C   UNK N   1      21.754  14.482   7.145  0.00  0.00    -0.002 C 
HETATM   42  C   UNK N   1      21.231  15.791   7.684  0.00  0.00     0.005 C 
ENDBRANCH  40  41
ENDBRANCH  39  40
BRANCH  39  43
HETATM   43  C   UNK N   1      20.360  16.168   4.159  0.00  0.00     0.238 C 
HETATM   44  O   UNK N   1      19.238  16.090   4.634  0.00  0.00    -0.285 OA
BRANCH  43  45
HETATM   45  C   UNK N   1      20.556  16.510   2.718  0.00  0.00     0.289 C 
HETATM   46  O   UNK N   1      20.622  15.607   1.899  0.00  0.00    -0.264 OA
HETATM   47  N   UNK N   1      20.606  17.794   2.271  0.00  0.00    -0.350 N 
HETATM   48  H   UNK N   1      20.823  17.939   1.322  0.00  0.00     0.163 HD
BRANCH  47  49
HETATM   49  C   UNK N   1      20.365  18.963   3.089  0.00  0.00     0.085 A 
HETATM   50  C   UNK N   1      21.679  19.704   3.267  0.00  0.00     0.027 A 
HETATM   51  C   UNK N   1      20.654  20.236   2.299  0.00  0.00     0.027 A 
ENDBRANCH  47  49
ENDBRANCH  43  45
ENDBRANCH  39  43
ENDBRANCH  37  39
ENDBRANCH  28  35
ENDBRANCH   1  25
BRANCH   1  52
HETATM   52  C   UNK N   1      26.704  14.166   2.512  0.00  0.00    -0.022 C 
HETATM   53  C   UNK N   1      27.447  13.004   1.878  0.00  0.00     0.017 C 
HETATM   54  C   UNK N   1      25.221  13.905   2.350  0.00  0.00     0.017 C 
HETATM   55  C   UNK N   1      27.130  15.401   1.743  0.00  0.00     0.017 C 
ENDBRANCH   1  52
TORSDOF 14
ENDMDL
MODEL 3
REMARK VINA RESULT:      -7.2      1.923      3.620
REMARK  14 active torsions:
REMARK  status: ('A' for Active; 'I' for Inactive)
REMARK       I    between atoms: N_7  and  C_24 
REMARK       I    between atoms: N_8  and  C_23 
REMARK    1  A    between atoms: C_27  and  N_8 
REMARK    2  A    between atoms: C_25  and  N_9 
REMARK       I    between atoms: N_9  and  C_33 
REMARK    3  A    between atoms: C_32  and  N_10 
REMARK       I    between atoms: N_10  and  C_47 
REMARK    4  A    between atoms: N_11  and  C_41 
REMARK       I    between atoms: N_11  and  C_45 
REMARK    5  A    between atoms: C_18  and  C_23 
REMARK    6  A    between atoms: C_24  and  C_25 
REMARK    7  A    between atoms: C_25  and  C_26 
REMARK    8  A    between atoms: C_27  and  C_34 
REMARK    9  A    between atoms: C_27  and  C_37 
REMARK   10  A    between atoms: C_31  and  C_32 
REMARK   11  A    between atoms: C_32  and  C_33 
REMARK   12  A    between atoms: C_34  and  C_42 
REMARK   13  A    between atoms: C_37  and  C_45 
REMARK   14  A    between atoms: C_47  and  C_48 
ROOT
HETATM    1  C   UNK N   1      25.473  16.332   5.075  0.00  0.00     0.184 C 
ENDROOT
BRANCH   1   2
HETATM    2  N   UNK N   1      24.334  16.770   5.860  0.00  0.00    -0.345 N 
HETATM    3  C   UNK N   1      23.307  15.930   6.151  0.00  0.00     0.241 C 
HETATM    4  O   UNK N   1      22.310  16.367   6.704  0.00  0.00    -0.271 OA
HETATM    5  H   UNK N   1      24.305  17.698   6.189  0.00  0.00     0.163 HD
BRANCH   3   6
HETATM    6  C   UNK N   1      23.445  14.448   5.894  0.00  0.00     0.181 C 
BRANCH   6   7
HETATM    7  N   UNK N   1      23.747  13.754   7.129  0.00  0.00    -0.342 N 
HETATM    8  C   UNK N   1      22.825  13.410   8.072  0.00  0.00     0.270 C 
HETATM    9  O   UNK N   1      21.635  13.566   7.873  0.00  0.00    -0.266 OA
HETATM   10  H   UNK N   1      24.686  13.515   7.300  0.00  0.00     0.163 HD
BRANCH   8  11
HETATM   11  C   UNK N   1      23.282  12.898   9.371  0.00  0.00     0.116 A 
HETATM   12  N   UNK N   1      22.377  12.409  10.266  0.00  0.00    -0.359 N 
HETATM   13  C   UNK N   1      22.774  11.965  11.487  0.00  0.00     0.105 A 
ATOM     14  HN  UNK N   1      21.389  12.375  10.015  1.00  0.00     0.165 HD
HETATM   15  C   UNK N   1      24.122  12.025  11.838  0.00  0.00     0.104 A 
HETATM   16  N   UNK N   1      25.022  12.516  10.947  0.00  0.00    -0.372 N 
HETATM   17  C   UNK N   1      24.631  12.953   9.723  0.00  0.00     0.122 A 
ATOM     18  HN  UNK N   1      26.009  12.556  11.201  1.00  0.00     0.164 HD
ENDBRANCH   8  11
ENDBRANCH   6   7
BRANCH   6  19
HETATM   19  C   UNK N   1      22.483  13.707   4.932  0.00  0.00     0.018 C 
HETATM   20  C   UNK N   1      21.846  14.497   3.781  0.00  0.00     0.007 C 
HETATM   21  C   UNK N   1      22.761  14.630   2.559  0.00  0.00     0.000 C 
HETATM   22  C   UNK N   1      23.699  13.435   2.359  0.00  0.00     0.000 C 
HETATM   23  C   UNK N   1      23.137  12.164   2.987  0.00  0.00     0.000 C 
HETATM   24  C   UNK N   1      23.005  12.325   4.506  0.00  0.00     0.007 C 
ENDBRANCH   6  19
ENDBRANCH   3   6
ENDBRANCH   1   2
BRANCH   1  25
HETATM   25  C   UNK N   1      26.601  15.607   5.830  0.00  0.00     0.244 C 
HETATM   26  O   UNK N   1      26.483  15.630   7.043  0.00  0.00    -0.271 OA
HETATM   27  N   UNK N   1      27.263  14.537   5.287  0.00  0.00    -0.336 N 
HETATM   28  C   UNK N   1      28.347  14.651   4.323  0.00  0.00     0.183 C 
HETATM   29  C   UNK N   1      26.681  13.207   5.315  0.00  0.00     0.132 C 
HETATM   30  C   UNK N   1      28.416  13.210   3.774  0.00  0.00     0.023 C 
HETATM   31  C   UNK N   1      27.017  12.734   3.912  0.00  0.00     0.010 C 
HETATM   32  C   UNK N   1      28.742  12.829   2.354  0.00  0.00     0.007 C 
HETATM   33  C   UNK N   1      27.128  11.300   3.470  0.00  0.00     0.007 C 
HETATM   34  C   UNK N   1      28.078  11.433   2.253  0.00  0.00     0.001 C 
BRANCH  28  35
HETATM   35  C   UNK N   1      29.619  14.868   5.123  0.00  0.00     0.241 C 
HETATM   36  O   UNK N   1      30.228  13.924   5.602  0.00  0.00    -0.271 OA
HETATM   37  N   UNK N   1      30.049  16.151   5.299  0.00  0.00    -0.347 N 
HETATM   38  H   UNK N   1      29.540  16.848   4.825  0.00  0.00     0.163 HD
BRANCH  37  39
HETATM   39  C   UNK N   1      31.164  16.609   6.097  0.00  0.00     0.164 C 
BRANCH  39  40
HETATM   40  C   UNK N   1      30.814  17.360   7.366  0.00  0.00     0.033 C 
BRANCH  40  41
HETATM   41  C   UNK N   1      29.369  17.771   7.410  0.00  0.00    -0.002 C 
HETATM   42  C   UNK N   1      28.897  17.509   8.819  0.00  0.00     0.005 C 
ENDBRANCH  40  41
ENDBRANCH  39  40
BRANCH  39  43
HETATM   43  C   UNK N   1      32.266  17.247   5.307  0.00  0.00     0.238 C 
HETATM   44  O   UNK N   1      31.970  17.910   4.324  0.00  0.00    -0.285 OA
BRANCH  43  45
HETATM   45  C   UNK N   1      33.696  16.976   5.642  0.00  0.00     0.289 C 
HETATM   46  O   UNK N   1      34.298  17.767   6.350  0.00  0.00    -0.264 OA
HETATM   47  N   UNK N   1      34.341  15.849   5.236  0.00  0.00    -0.350 N 
HETATM   48  H   UNK N   1      35.305  15.782   5.424  0.00  0.00     0.163 HD
BRANCH  47  49
HETATM   49  C   UNK N   1      33.714  14.741   4.549  0.00  0.00     0.085 A 
HETATM   50  C   UNK N   1      33.877  14.949   3.053  0.00  0.00     0.027 A 
HETATM   51  C   UNK N   1      34.751  13.946   3.761  0.00  0.00     0.027 A 
ENDBRANCH  47  49
ENDBRANCH  43  45
ENDBRANCH  39  43
ENDBRANCH  37  39
ENDBRANCH  28  35
ENDBRANCH   1  25
BRANCH   1  52
HETATM   52  C   UNK N   1      25.732  17.255   3.868  0.00  0.00    -0.022 C 
HETATM   53  C   UNK N   1      24.564  18.208   3.691  0.00  0.00     0.017 C 
HETATM   54  C   UNK N   1      26.975  18.089   4.094  0.00  0.00     0.017 C 
HETATM   55  C   UNK N   1      25.827  16.471   2.573  0.00  0.00     0.017 C 
ENDBRANCH   1  52
TORSDOF 14
ENDMDL
MODEL 4
REMARK VINA RESULT:      -7.2      1.801      2.446
REMARK  14 active torsions:
REMARK  status: ('A' for Active; 'I' for Inactive)
REMARK       I    between atoms: N_7  and  C_24 
REMARK       I    between atoms: N_8  and  C_23 
REMARK    1  A    between atoms: C_27  and  N_8 
REMARK    2  A    between atoms: C_25  and  N_9 
REMARK       I    between atoms: N_9  and  C_33 
REMARK    3  A    between atoms: C_32  and  N_10 
REMARK       I    between atoms: N_10  and  C_47 
REMARK    4  A    between atoms: N_11  and  C_41 
REMARK       I    between atoms: N_11  and  C_45 
REMARK    5  A    between atoms: C_18  and  C_23 
REMARK    6  A    between atoms: C_24  and  C_25 
REMARK    7  A    between atoms: C_25  and  C_26 
REMARK    8  A    between atoms: C_27  and  C_34 
REMARK    9  A    between atoms: C_27  and  C_37 
REMARK   10  A    between atoms: C_31  and  C_32 
REMARK   11  A    between atoms: C_32  and  C_33 
REMARK   12  A    between atoms: C_34  and  C_42 
REMARK   13  A    between atoms: C_37  and  C_45 
REMARK   14  A    between atoms: C_47  and  C_48 
ROOT
HETATM    1  C   UNK N   1      23.936  16.159   5.325  0.00  0.00     0.184 C 
ENDROOT
BRANCH   1   2
HETATM    2  N   UNK N   1      23.078  16.867   6.255  0.00  0.00    -0.345 N 
HETATM    3  C   UNK N   1      21.904  16.336   6.685  0.00  0.00     0.241 C 
HETATM    4  O   UNK N   1      21.150  17.012   7.366  0.00  0.00    -0.271 OA
HETATM    5  H   UNK N   1      23.353  17.755   6.582  0.00  0.00     0.163 HD
BRANCH   3   6
HETATM    6  C   UNK N   1      21.588  14.883   6.416  0.00  0.00     0.181 C 
BRANCH   6   7
HETATM    7  N   UNK N   1      22.060  14.060   7.509  0.00  0.00    -0.342 N 
HETATM    8  C   UNK N   1      21.331  13.747   8.618  0.00  0.00     0.270 C 
HETATM    9  O   UNK N   1      20.157  14.055   8.704  0.00  0.00    -0.266 OA
HETATM   10  H   UNK N   1      22.975  13.700   7.448  0.00  0.00     0.163 HD
BRANCH   8  11
HETATM   11  C   UNK N   1      21.991  13.080   9.748  0.00  0.00     0.116 A 
HETATM   12  N   UNK N   1      23.350  12.976   9.776  0.00  0.00    -0.359 N 
HETATM   13  C   UNK N   1      23.979  12.331  10.793  0.00  0.00     0.105 A 
ATOM     14  HN  UNK N   1      23.902  13.388   9.024  1.00  0.00     0.165 HD
HETATM   15  C   UNK N   1      23.225  11.753  11.814  0.00  0.00     0.104 A 
HETATM   16  N   UNK N   1      21.871  11.855  11.782  0.00  0.00    -0.372 N 
HETATM   17  C   UNK N   1      21.239  12.504  10.773  0.00  0.00     0.122 A 
ATOM     18  HN  UNK N   1      21.320  11.436  12.532  1.00  0.00     0.164 HD
ENDBRANCH   8  11
ENDBRANCH   6   7
BRANCH   6  19
HETATM   19  C   UNK N   1      20.232  14.458   5.799  0.00  0.00     0.018 C 
HETATM   20  C   UNK N   1      19.158  15.532   5.579  0.00  0.00     0.007 C 
HETATM   21  C   UNK N   1      19.354  16.325   4.281  0.00  0.00     0.000 C 
HETATM   22  C   UNK N   1      19.993  15.511   3.152  0.00  0.00     0.000 C 
HETATM   23  C   UNK N   1      19.739  14.017   3.319  0.00  0.00     0.000 C 
HETATM   24  C   UNK N   1      20.387  13.499   4.608  0.00  0.00     0.007 C 
ENDBRANCH   6  19
ENDBRANCH   3   6
ENDBRANCH   1   2
BRANCH   1  25
HETATM   25  C   UNK N   1      25.227  15.548   5.897  0.00  0.00     0.244 C 
HETATM   26  O   UNK N   1      25.228  15.432   7.111  0.00  0.00    -0.271 OA
HETATM   27  N   UNK N   1      25.982  14.653   5.184  0.00  0.00    -0.336 N 
HETATM   28  C   UNK N   1      26.937  15.030   4.152  0.00  0.00     0.183 C 
HETATM   29  C   UNK N   1      25.607  13.252   5.110  0.00  0.00     0.132 C 
HETATM   30  C   UNK N   1      27.162  13.679   3.441  0.00  0.00     0.023 C 
HETATM   31  C   UNK N   1      25.868  12.979   3.640  0.00  0.00     0.010 C 
HETATM   32  C   UNK N   1      27.398  13.496   1.965  0.00  0.00     0.007 C 
HETATM   33  C   UNK N   1      26.144  11.630   3.031  0.00  0.00     0.007 C 
HETATM   34  C   UNK N   1      26.938  12.029   1.763  0.00  0.00     0.001 C 
BRANCH  28  35
HETATM   35  C   UNK N   1      28.236  15.363   4.863  0.00  0.00     0.241 C 
HETATM   36  O   UNK N   1      28.880  14.496   5.434  0.00  0.00    -0.271 OA
HETATM   37  N   UNK N   1      28.652  16.663   4.855  0.00  0.00    -0.347 N 
HETATM   38  H   UNK N   1      28.111  17.288   4.318  0.00  0.00     0.163 HD
BRANCH  37  39
HETATM   39  C   UNK N   1      29.790  17.233   5.540  0.00  0.00     0.164 C 
BRANCH  39  40
HETATM   40  C   UNK N   1      31.126  16.565   5.287  0.00  0.00     0.033 C 
BRANCH  40  41
HETATM   41  C   UNK N   1      32.092  17.467   4.572  0.00  0.00    -0.002 C 
HETATM   42  C   UNK N   1      33.354  17.477   5.400  0.00  0.00     0.005 C 
ENDBRANCH  40  41
ENDBRANCH  39  40
BRANCH  39  43
HETATM   43  C   UNK N   1      29.542  17.553   6.983  0.00  0.00     0.238 C 
HETATM   44  O   UNK N   1      30.496  17.581   7.746  0.00  0.00    -0.285 OA
BRANCH  43  45
HETATM   45  C   UNK N   1      28.149  17.709   7.498  0.00  0.00     0.289 C 
HETATM   46  O   UNK N   1      27.690  16.848   8.233  0.00  0.00    -0.264 OA
HETATM   47  N   UNK N   1      27.388  18.803   7.228  0.00  0.00    -0.350 N 
HETATM   48  H   UNK N   1      26.451  18.794   7.532  0.00  0.00     0.163 HD
BRANCH  47  49
HETATM   49  C   UNK N   1      27.853  19.980   6.527  0.00  0.00     0.085 A 
HETATM   50  C   UNK N   1      26.908  20.254   5.369  0.00  0.00     0.027 A 
HETATM   51  C   UNK N   1      26.817  21.097   6.615  0.00  0.00     0.027 A 
ENDBRANCH  47  49
ENDBRANCH  43  45
ENDBRANCH  39  43
ENDBRANCH  37  39
ENDBRANCH  28  35
ENDBRANCH   1  25
BRANCH   1  52
HETATM   52  C   UNK N   1      23.844  16.735   3.899  0.00  0.00    -0.022 C 
HETATM   53  C   UNK N   1      25.145  17.430   3.541  0.00  0.00     0.017 C 
HETATM   54  C   UNK N   1      23.623  15.627   2.891  0.00  0.00     0.017 C 
HETATM   55  C   UNK N   1      22.765  17.796   3.791  0.00  0.00     0.017 C 
ENDBRANCH   1  52
TORSDOF 14
ENDMDL
MODEL 5
REMARK VINA RESULT:      -7.2      1.319      2.145
REMARK  14 active torsions:
REMARK  status: ('A' for Active; 'I' for Inactive)
REMARK       I    between atoms: N_7  and  C_24 
REMARK       I    between atoms: N_8  and  C_23 
REMARK    1  A    between atoms: C_27  and  N_8 
REMARK    2  A    between atoms: C_25  and  N_9 
REMARK       I    between atoms: N_9  and  C_33 
REMARK    3  A    between atoms: C_32  and  N_10 
REMARK       I    between atoms: N_10  and  C_47 
REMARK    4  A    between atoms: N_11  and  C_41 
REMARK       I    between atoms: N_11  and  C_45 
REMARK    5  A    between atoms: C_18  and  C_23 
REMARK    6  A    between atoms: C_24  and  C_25 
REMARK    7  A    between atoms: C_25  and  C_26 
REMARK    8  A    between atoms: C_27  and  C_34 
REMARK    9  A    between atoms: C_27  and  C_37 
REMARK   10  A    between atoms: C_31  and  C_32 
REMARK   11  A    between atoms: C_32  and  C_33 
REMARK   12  A    between atoms: C_34  and  C_42 
REMARK   13  A    between atoms: C_37  and  C_45 
REMARK   14  A    between atoms: C_47  and  C_48 
ROOT
HETATM    1  C   UNK N   1      24.770  16.212   5.087  0.00  0.00     0.184 C 
ENDROOT
BRANCH   1   2
HETATM    2  N   UNK N   1      23.692  16.805   5.856  0.00  0.00    -0.345 N 
HETATM    3  C   UNK N   1      22.705  16.045   6.398  0.00  0.00     0.241 C 
HETATM    4  O   UNK N   1      21.750  16.588   6.929  0.00  0.00    -0.271 OA
HETATM    5  H   UNK N   1      23.675  17.780   5.987  0.00  0.00     0.163 HD
BRANCH   3   6
HETATM    6  C   UNK N   1      22.846  14.541   6.443  0.00  0.00     0.181 C 
BRANCH   6   7
HETATM    7  N   UNK N   1      22.878  14.085   7.816  0.00  0.00    -0.342 N 
HETATM    8  C   UNK N   1      23.930  13.441   8.397  0.00  0.00     0.270 C 
HETATM    9  O   UNK N   1      24.987  13.310   7.809  0.00  0.00    -0.266 OA
HETATM   10  H   UNK N   1      22.082  14.251   8.372  0.00  0.00     0.163 HD
BRANCH   8  11
HETATM   11  C   UNK N   1      23.762  12.845   9.729  0.00  0.00     0.116 A 
HETATM   12  N   UNK N   1      22.511  12.627  10.224  0.00  0.00    -0.359 N 
HETATM   13  C   UNK N   1      22.332  12.112  11.468  0.00  0.00     0.105 A 
ATOM     14  HN  UNK N   1      21.697  12.853   9.651  1.00  0.00     0.165 HD
HETATM   15  C   UNK N   1      23.443  11.817  12.258  0.00  0.00     0.104 A 
HETATM   16  N   UNK N   1      24.689  12.039  11.765  0.00  0.00    -0.372 N 
HETATM   17  C   UNK N   1      24.872  12.546  10.520  0.00  0.00     0.122 A 
ATOM     18  HN  UNK N   1      25.502  11.819  12.341  1.00  0.00     0.164 HD
ENDBRANCH   8  11
ENDBRANCH   6   7
BRANCH   6  19
HETATM   19  C   UNK N   1      22.069  13.633   5.457  0.00  0.00     0.018 C 
HETATM   20  C   UNK N   1      22.863  12.648   4.588  0.00  0.00     0.007 C 
HETATM   21  C   UNK N   1      23.209  11.344   5.316  0.00  0.00     0.000 C 
HETATM   22  C   UNK N   1      22.163  10.920   6.352  0.00  0.00     0.000 C 
HETATM   23  C   UNK N   1      20.785  11.485   6.027  0.00  0.00     0.000 C 
HETATM   24  C   UNK N   1      20.804  13.017   6.076  0.00  0.00     0.007 C 
ENDBRANCH   6  19
ENDBRANCH   3   6
ENDBRANCH   1   2
BRANCH   1  25
HETATM   25  C   UNK N   1      26.174  16.247   5.716  0.00  0.00     0.244 C 
HETATM   26  O   UNK N   1      26.172  16.331   6.933  0.00  0.00    -0.271 OA
HETATM   27  N   UNK N   1      27.243  15.616   5.135  0.00  0.00    -0.336 N 
HETATM   28  C   UNK N   1      28.016  16.169   4.032  0.00  0.00     0.183 C 
HETATM   29  C   UNK N   1      27.442  14.186   5.293  0.00  0.00     0.132 C 
HETATM   30  C   UNK N   1      28.774  14.918   3.538  0.00  0.00     0.023 C 
HETATM   31  C   UNK N   1      27.845  13.811   3.878  0.00  0.00     0.010 C 
HETATM   32  C   UNK N   1      29.119  14.613   2.104  0.00  0.00     0.007 C 
HETATM   33  C   UNK N   1      28.644  12.598   3.484  0.00  0.00     0.007 C 
HETATM   34  C   UNK N   1      29.271  13.072   2.149  0.00  0.00     0.001 C 
BRANCH  28  35
HETATM   35  C   UNK N   1      29.057  17.086   4.649  0.00  0.00     0.241 C 
HETATM   36  O   UNK N   1      28.792  18.247   4.915  0.00  0.00    -0.271 OA
HETATM   37  N   UNK N   1      30.300  16.572   4.883  0.00  0.00    -0.347 N 
HETATM   38  H   UNK N   1      30.413  15.610   4.702  0.00  0.00     0.163 HD
BRANCH  37  39
HETATM   39  C   UNK N   1      31.470  17.271   5.364  0.00  0.00     0.164 C 
BRANCH  39  40
HETATM   40  C   UNK N   1      32.511  17.628   4.323  0.00  0.00     0.033 C 
BRANCH  40  41
HETATM   41  C   UNK N   1      32.312  16.884   3.032  0.00  0.00    -0.002 C 
HETATM   42  C   UNK N   1      33.356  15.795   3.006  0.00  0.00     0.005 C 
ENDBRANCH  40  41
ENDBRANCH  39  40
BRANCH  39  43
HETATM   43  C   UNK N   1      32.052  16.703   6.623  0.00  0.00     0.238 C 
HETATM   44  O   UNK N   1      32.157  15.490   6.721  0.00  0.00    -0.285 OA
BRANCH  43  45
HETATM   45  C   UNK N   1      32.378  17.593   7.778  0.00  0.00     0.289 C 
HETATM   46  O   UNK N   1      33.466  18.146   7.810  0.00  0.00    -0.264 OA
HETATM   47  N   UNK N   1      31.487  17.859   8.770  0.00  0.00    -0.350 N 
HETATM   48  H   UNK N   1      31.804  18.385   9.539  0.00  0.00     0.163 HD
BRANCH  47  49
HETATM   49  C   UNK N   1      30.107  17.426   8.779  0.00  0.00     0.085 A 
HETATM   50  C   UNK N   1      29.373  18.179   9.876  0.00  0.00     0.027 A 
HETATM   51  C   UNK N   1      29.180  18.589   8.438  0.00  0.00     0.027 A 
ENDBRANCH  47  49
ENDBRANCH  43  45
ENDBRANCH  39  43
ENDBRANCH  37  39
ENDBRANCH  28  35
ENDBRANCH   1  25
BRANCH   1  52
HETATM   52  C   UNK N   1      24.530  16.330   3.569  0.00  0.00    -0.022 C 
HETATM   53  C   UNK N   1      25.406  17.428   2.995  0.00  0.00     0.017 C 
HETATM   54  C   UNK N   1      24.898  15.037   2.871  0.00  0.00     0.017 C 
HETATM   55  C   UNK N   1      23.102  16.732   3.257  0.00  0.00     0.017 C 
ENDBRANCH   1  52
TORSDOF 14
ENDMDL
MODEL 6
REMARK VINA RESULT:      -7.1      2.501      8.324
REMARK  14 active torsions:
REMARK  status: ('A' for Active; 'I' for Inactive)
REMARK       I    between atoms: N_7  and  C_24 
REMARK       I    between atoms: N_8  and  C_23 
REMARK    1  A    between atoms: C_27  and  N_8 
REMARK    2  A    between atoms: C_25  and  N_9 
REMARK       I    between atoms: N_9  and  C_33 
REMARK    3  A    between atoms: C_32  and  N_10 
REMARK       I    between atoms: N_10  and  C_47 
REMARK    4  A    between atoms: N_11  and  C_41 
REMARK       I    between atoms: N_11  and  C_45 
REMARK    5  A    between atoms: C_18  and  C_23 
REMARK    6  A    between atoms: C_24  and  C_25 
REMARK    7  A    between atoms: C_25  and  C_26 
REMARK    8  A    between atoms: C_27  and  C_34 
REMARK    9  A    between atoms: C_27  and  C_37 
REMARK   10  A    between atoms: C_31  and  C_32 
REMARK   11  A    between atoms: C_32  and  C_33 
REMARK   12  A    between atoms: C_34  and  C_42 
REMARK   13  A    between atoms: C_37  and  C_45 
REMARK   14  A    between atoms: C_47  and  C_48 
ROOT
HETATM    1  C   UNK N   1      28.135  13.752   3.886  0.00  0.00     0.184 C 
ENDROOT
BRANCH   1   2
HETATM    2  N   UNK N   1      29.008  12.769   4.499  0.00  0.00    -0.345 N 
HETATM    3  C   UNK N   1      30.268  13.088   4.896  0.00  0.00     0.241 C 
HETATM    4  O   UNK N   1      31.016  12.208   5.290  0.00  0.00    -0.271 OA
HETATM    5  H   UNK N   1      28.681  11.850   4.629  0.00  0.00     0.163 HD
BRANCH   3   6
HETATM    6  C   UNK N   1      30.699  14.535   4.956  0.00  0.00     0.181 C 
BRANCH   6   7
HETATM    7  N   UNK N   1      31.635  14.731   6.043  0.00  0.00    -0.342 N 
HETATM    8  C   UNK N   1      31.477  15.637   7.050  0.00  0.00     0.270 C 
HETATM    9  O   UNK N   1      30.448  16.276   7.163  0.00  0.00    -0.266 OA
HETATM   10  H   UNK N   1      32.443  14.170   6.057  0.00  0.00     0.163 HD
BRANCH   8  11
HETATM   11  C   UNK N   1      32.591  15.884   7.975  0.00  0.00     0.116 A 
HETATM   12  N   UNK N   1      33.365  14.846   8.401  0.00  0.00    -0.359 N 
HETATM   13  C   UNK N   1      34.377  15.048   9.285  0.00  0.00     0.105 A 
ATOM     14  HN  UNK N   1      33.183  13.906   8.051  1.00  0.00     0.165 HD
HETATM   15  C   UNK N   1      34.618  16.329   9.777  0.00  0.00     0.104 A 
HETATM   16  N   UNK N   1      33.843  17.362   9.354  0.00  0.00    -0.372 N 
HETATM   17  C   UNK N   1      32.837  17.167   8.466  0.00  0.00     0.122 A 
ATOM     18  HN  UNK N   1      34.022  18.301   9.711  1.00  0.00     0.164 HD
ENDBRANCH   8  11
ENDBRANCH   6   7
BRANCH   6  19
HETATM   19  C   UNK N   1      31.001  15.336   3.665  0.00  0.00     0.018 C 
HETATM   20  C   UNK N   1      30.570  16.807   3.598  0.00  0.00     0.007 C 
HETATM   21  C   UNK N   1      31.566  17.760   4.269  0.00  0.00     0.000 C 
HETATM   22  C   UNK N   1      33.022  17.291   4.182  0.00  0.00     0.000 C 
HETATM   23  C   UNK N   1      33.249  16.373   2.986  0.00  0.00     0.000 C 
HETATM   24  C   UNK N   1      32.419  15.092   3.123  0.00  0.00     0.007 C 
ENDBRANCH   6  19
ENDBRANCH   3   6
ENDBRANCH   1   2
BRANCH   1  25
HETATM   25  C   UNK N   1      26.931  14.227   4.718  0.00  0.00     0.244 C 
HETATM   26  O   UNK N   1      26.565  13.430   5.565  0.00  0.00    -0.271 OA
HETATM   27  N   UNK N   1      26.705  15.555   4.972  0.00  0.00    -0.336 N 
HETATM   28  C   UNK N   1      26.075  16.471   4.031  0.00  0.00     0.183 C 
HETATM   29  C   UNK N   1      27.431  16.248   6.021  0.00  0.00     0.132 C 
HETATM   30  C   UNK N   1      26.449  17.837   4.644  0.00  0.00     0.023 C 
HETATM   31  C   UNK N   1      27.741  17.557   5.318  0.00  0.00     0.010 C 
HETATM   32  C   UNK N   1      26.761  19.089   3.867  0.00  0.00     0.007 C 
HETATM   33  C   UNK N   1      28.035  18.870   5.993  0.00  0.00     0.007 C 
HETATM   34  C   UNK N   1      27.621  19.874   4.888  0.00  0.00     0.001 C 
BRANCH  28  35
HETATM   35  C   UNK N   1      24.576  16.314   4.212  0.00  0.00     0.241 C 
HETATM   36  O   UNK N   1      23.899  15.742   3.372  0.00  0.00    -0.271 OA
HETATM   37  N   UNK N   1      24.011  16.845   5.335  0.00  0.00    -0.347 N 
HETATM   38  H   UNK N   1      24.634  17.231   5.993  0.00  0.00     0.163 HD
BRANCH  37  39
HETATM   39  C   UNK N   1      22.607  16.909   5.674  0.00  0.00     0.164 C 
BRANCH  39  40
HETATM   40  C   UNK N   1      22.003  18.296   5.765  0.00  0.00     0.033 C 
BRANCH  40  41
HETATM   41  C   UNK N   1      21.217  18.661   4.537  0.00  0.00    -0.002 C 
HETATM   42  C   UNK N   1      22.184  19.344   3.602  0.00  0.00     0.005 C 
ENDBRANCH  40  41
ENDBRANCH  39  40
BRANCH  39  43
HETATM   43  C   UNK N   1      22.204  16.005   6.799  0.00  0.00     0.238 C 
HETATM   44  O   UNK N   1      21.459  16.443   7.662  0.00  0.00    -0.285 OA
BRANCH  43  45
HETATM   45  C   UNK N   1      22.800  14.641   6.928  0.00  0.00     0.289 C 
HETATM   46  O   UNK N   1      23.939  14.531   7.353  0.00  0.00    -0.264 OA
HETATM   47  N   UNK N   1      22.102  13.508   6.644  0.00  0.00    -0.350 N 
HETATM   48  H   UNK N   1      22.589  12.653   6.672  0.00  0.00     0.163 HD
BRANCH  47  49
HETATM   49  C   UNK N   1      20.697  13.467   6.306  0.00  0.00     0.085 A 
HETATM   50  C   UNK N   1      20.569  13.321   4.799  0.00  0.00     0.027 A 
HETATM   51  C   UNK N   1      20.337  12.122   5.682  0.00  0.00     0.027 A 
ENDBRANCH  47  49
ENDBRANCH  43  45
ENDBRANCH  39  43
ENDBRANCH  37  39
ENDBRANCH  28  35
ENDBRANCH   1  25
BRANCH   1  52
HETATM   52  C   UNK N   1      28.088  13.608   2.352  0.00  0.00    -0.022 C 
HETATM   53  C   UNK N   1      26.765  12.991   1.936  0.00  0.00     0.017 C 
HETATM   54  C   UNK N   1      28.191  14.964   1.687  0.00  0.00     0.017 C 
HETATM   55  C   UNK N   1      29.163  12.666   1.845  0.00  0.00     0.017 C 
ENDBRANCH   1  52
TORSDOF 14
ENDMDL
MODEL 7
REMARK VINA RESULT:      -6.9      2.922      8.466
REMARK  14 active torsions:
REMARK  status: ('A' for Active; 'I' for Inactive)
REMARK       I    between atoms: N_7  and  C_24 
REMARK       I    between atoms: N_8  and  C_23 
REMARK    1  A    between atoms: C_27  and  N_8 
REMARK    2  A    between atoms: C_25  and  N_9 
REMARK       I    between atoms: N_9  and  C_33 
REMARK    3  A    between atoms: C_32  and  N_10 
REMARK       I    between atoms: N_10  and  C_47 
REMARK    4  A    between atoms: N_11  and  C_41 
REMARK       I    between atoms: N_11  and  C_45 
REMARK    5  A    between atoms: C_18  and  C_23 
REMARK    6  A    between atoms: C_24  and  C_25 
REMARK    7  A    between atoms: C_25  and  C_26 
REMARK    8  A    between atoms: C_27  and  C_34 
REMARK    9  A    between atoms: C_27  and  C_37 
REMARK   10  A    between atoms: C_31  and  C_32 
REMARK   11  A    between atoms: C_32  and  C_33 
REMARK   12  A    between atoms: C_34  and  C_42 
REMARK   13  A    between atoms: C_37  and  C_45 
REMARK   14  A    between atoms: C_47  and  C_48 
ROOT
HETATM    1  C   UNK N   1      26.826  14.746   4.231  0.00  0.00     0.184 C 
ENDROOT
BRANCH   1   2
HETATM    2  N   UNK N   1      26.759  14.826   5.678  0.00  0.00    -0.345 N 
HETATM    3  C   UNK N   1      26.879  16.012   6.330  0.00  0.00     0.241 C 
HETATM    4  O   UNK N   1      26.944  16.025   7.549  0.00  0.00    -0.271 OA
HETATM    5  H   UNK N   1      26.623  14.002   6.199  0.00  0.00     0.163 HD
BRANCH   3   6
HETATM    6  C   UNK N   1      26.819  17.309   5.558  0.00  0.00     0.181 C 
BRANCH   6   7
HETATM    7  N   UNK N   1      25.443  17.722   5.385  0.00  0.00    -0.342 N 
HETATM    8  C   UNK N   1      24.852  17.973   4.182  0.00  0.00     0.270 C 
HETATM    9  O   UNK N   1      25.434  17.745   3.138  0.00  0.00    -0.266 OA
HETATM   10  H   UNK N   1      24.893  17.829   6.194  0.00  0.00     0.163 HD
BRANCH   8  11
HETATM   11  C   UNK N   1      23.517  18.584   4.150  0.00  0.00     0.116 A 
HETATM   12  N   UNK N   1      22.542  18.134   4.990  0.00  0.00    -0.359 N 
HETATM   13  C   UNK N   1      21.290  18.659   4.952  0.00  0.00     0.105 A 
ATOM     14  HN  UNK N   1      22.757  17.392   5.657  1.00  0.00     0.165 HD
HETATM   15  C   UNK N   1      20.991  19.662   4.031  0.00  0.00     0.104 A 
HETATM   16  N   UNK N   1      21.962  20.107   3.191  0.00  0.00    -0.372 N 
HETATM   17  C   UNK N   1      23.216  19.590   3.231  0.00  0.00     0.122 A 
ATOM     18  HN  UNK N   1      21.745  20.844   2.520  1.00  0.00     0.164 HD
ENDBRANCH   8  11
ENDBRANCH   6   7
BRANCH   6  19
HETATM   19  C   UNK N   1      27.828  18.452   5.831  0.00  0.00     0.018 C 
HETATM   20  C   UNK N   1      28.427  19.202   4.633  0.00  0.00     0.007 C 
HETATM   21  C   UNK N   1      27.514  20.310   4.095  0.00  0.00     0.000 C 
HETATM   22  C   UNK N   1      26.648  20.971   5.172  0.00  0.00     0.000 C 
HETATM   23  C   UNK N   1      27.278  20.852   6.556  0.00  0.00     0.000 C 
HETATM   24  C   UNK N   1      27.390  19.382   6.974  0.00  0.00     0.007 C 
ENDBRANCH   6  19
ENDBRANCH   3   6
ENDBRANCH   1   2
BRANCH   1  25
HETATM   25  C   UNK N   1      25.532  14.358   3.495  0.00  0.00     0.244 C 
HETATM   26  O   UNK N   1      25.592  14.480   2.283  0.00  0.00    -0.271 OA
HETATM   27  N   UNK N   1      24.679  13.403   3.985  0.00  0.00    -0.336 N 
HETATM   28  C   UNK N   1      23.695  13.646   5.030  0.00  0.00     0.183 C 
HETATM   29  C   UNK N   1      24.955  11.990   3.797  0.00  0.00     0.132 C 
HETATM   30  C   UNK N   1      23.340  12.204   5.450  0.00  0.00     0.023 C 
HETATM   31  C   UNK N   1      24.593  11.458   5.172  0.00  0.00     0.010 C 
HETATM   32  C   UNK N   1      23.010  11.757   6.850  0.00  0.00     0.007 C 
HETATM   33  C   UNK N   1      24.194  10.042   5.491  0.00  0.00     0.007 C 
HETATM   34  C   UNK N   1      23.357  10.248   6.778  0.00  0.00     0.001 C 
BRANCH  28  35
HETATM   35  C   UNK N   1      22.463  14.209   4.344  0.00  0.00     0.241 C 
HETATM   36  O   UNK N   1      22.374  15.400   4.093  0.00  0.00    -0.271 OA
HETATM   37  N   UNK N   1      21.457  13.342   4.030  0.00  0.00    -0.347 N 
HETATM   38  H   UNK N   1      21.634  12.389   4.206  0.00  0.00     0.163 HD
BRANCH  37  39
HETATM   39  C   UNK N   1      20.161  13.655   3.472  0.00  0.00     0.164 C 
BRANCH  39  40
HETATM   40  C   UNK N   1      20.160  14.517   2.226  0.00  0.00     0.033 C 
BRANCH  40  41
HETATM   41  C   UNK N   1      20.644  13.773   1.013  0.00  0.00    -0.002 C 
HETATM   42  C   UNK N   1      19.524  12.846   0.609  0.00  0.00     0.005 C 
ENDBRANCH  40  41
ENDBRANCH  39  40
BRANCH  39  43
HETATM   43  C   UNK N   1      19.137  14.067   4.486  0.00  0.00     0.238 C 
HETATM   44  O   UNK N   1      18.182  13.330   4.683  0.00  0.00    -0.285 OA
BRANCH  43  45
HETATM   45  C   UNK N   1      19.218  15.403   5.149  0.00  0.00     0.289 C 
HETATM   46  O   UNK N   1      18.656  16.355   4.631  0.00  0.00    -0.264 OA
HETATM   47  N   UNK N   1      19.847  15.592   6.340  0.00  0.00    -0.350 N 
HETATM   48  H   UNK N   1      19.932  16.515   6.670  0.00  0.00     0.163 HD
BRANCH  47  49
HETATM   49  C   UNK N   1      20.401  14.535   7.158  0.00  0.00     0.085 A 
HETATM   50  C   UNK N   1      21.652  15.061   7.840  0.00  0.00     0.027 A 
HETATM   51  C   UNK N   1      20.376  14.931   8.631  0.00  0.00     0.027 A 
ENDBRANCH  47  49
ENDBRANCH  43  45
ENDBRANCH  39  43
ENDBRANCH  37  39
ENDBRANCH  28  35
ENDBRANCH   1  25
BRANCH   1  52
HETATM   52  C   UNK N   1      28.226  14.327   3.739  0.00  0.00    -0.022 C 
HETATM   53  C   UNK N   1      29.121  14.037   4.930  0.00  0.00     0.017 C 
HETATM   54  C   UNK N   1      28.142  13.064   2.909  0.00  0.00     0.017 C 
HETATM   55  C   UNK N   1      28.907  15.443   2.971  0.00  0.00     0.017 C 
ENDBRANCH   1  52
TORSDOF 14
ENDMDL
MODEL 8
REMARK VINA RESULT:      -6.8      1.619      2.059
REMARK  14 active torsions:
REMARK  status: ('A' for Active; 'I' for Inactive)
REMARK       I    between atoms: N_7  and  C_24 
REMARK       I    between atoms: N_8  and  C_23 
REMARK    1  A    between atoms: C_27  and  N_8 
REMARK    2  A    between atoms: C_25  and  N_9 
REMARK       I    between atoms: N_9  and  C_33 
REMARK    3  A    between atoms: C_32  and  N_10 
REMARK       I    between atoms: N_10  and  C_47 
REMARK    4  A    between atoms: N_11  and  C_41 
REMARK       I    between atoms: N_11  and  C_45 
REMARK    5  A    between atoms: C_18  and  C_23 
REMARK    6  A    between atoms: C_24  and  C_25 
REMARK    7  A    between atoms: C_25  and  C_26 
REMARK    8  A    between atoms: C_27  and  C_34 
REMARK    9  A    between atoms: C_27  and  C_37 
REMARK   10  A    between atoms: C_31  and  C_32 
REMARK   11  A    between atoms: C_32  and  C_33 
REMARK   12  A    between atoms: C_34  and  C_42 
REMARK   13  A    between atoms: C_37  and  C_45 
REMARK   14  A    between atoms: C_47  and  C_48 
ROOT
HETATM    1  C   UNK N   1      24.542  14.335   3.503  0.00  0.00     0.184 C 
ENDROOT
BRANCH   1   2
HETATM    2  N   UNK N   1      23.220  14.703   3.973  0.00  0.00    -0.345 N 
HETATM    3  C   UNK N   1      22.484  13.866   4.751  0.00  0.00     0.241 C 
HETATM    4  O   UNK N   1      21.330  14.154   5.021  0.00  0.00    -0.271 OA
HETATM    5  H   UNK N   1      22.846  15.578   3.722  0.00  0.00     0.163 HD
BRANCH   3   6
HETATM    6  C   UNK N   1      23.127  12.646   5.368  0.00  0.00     0.181 C 
BRANCH   6   7
HETATM    7  N   UNK N   1      22.901  12.633   6.798  0.00  0.00    -0.342 N 
HETATM    8  C   UNK N   1      23.885  12.653   7.742  0.00  0.00     0.270 C 
HETATM    9  O   UNK N   1      25.050  12.805   7.429  0.00  0.00    -0.266 OA
HETATM   10  H   UNK N   1      21.968  12.608   7.112  0.00  0.00     0.163 HD
BRANCH   8  11
HETATM   11  C   UNK N   1      23.535  12.426   9.150  0.00  0.00     0.116 A 
HETATM   12  N   UNK N   1      22.235  12.213   9.502  0.00  0.00    -0.359 N 
HETATM   13  C   UNK N   1      21.885  12.039  10.803  0.00  0.00     0.105 A 
ATOM     14  HN  UNK N   1      21.517  12.183   8.779  1.00  0.00     0.165 HD
HETATM   15  C   UNK N   1      22.863  12.094  11.794  0.00  0.00     0.104 A 
HETATM   16  N   UNK N   1      24.157  12.311  11.442  0.00  0.00    -0.372 N 
HETATM   17  C   UNK N   1      24.513  12.478  10.144  0.00  0.00     0.122 A 
ATOM     18  HN  UNK N   1      24.875  12.348  12.167  1.00  0.00     0.164 HD
ENDBRANCH   8  11
ENDBRANCH   6   7
BRANCH   6  19
HETATM   19  C   UNK N   1      23.061  11.265   4.670  0.00  0.00     0.018 C 
HETATM   20  C   UNK N   1      24.376  10.582   4.270  0.00  0.00     0.007 C 
HETATM   21  C   UNK N   1      25.041   9.824   5.424  0.00  0.00     0.000 C 
HETATM   22  C   UNK N   1      24.044   9.237   6.430  0.00  0.00     0.000 C 
HETATM   23  C   UNK N   1      22.681   8.988   5.794  0.00  0.00     0.000 C 
HETATM   24  C   UNK N   1      22.054  10.306   5.327  0.00  0.00     0.007 C 
ENDBRANCH   6  19
ENDBRANCH   3   6
ENDBRANCH   1   2
BRANCH   1  25
HETATM   25  C   UNK N   1      25.737  14.821   4.343  0.00  0.00     0.244 C 
HETATM   26  O   UNK N   1      25.423  15.428   5.353  0.00  0.00    -0.271 OA
HETATM   27  N   UNK N   1      26.928  14.141   4.367  0.00  0.00    -0.336 N 
HETATM   28  C   UNK N   1      27.951  14.249   3.338  0.00  0.00     0.183 C 
HETATM   29  C   UNK N   1      27.097  12.963   5.199  0.00  0.00     0.132 C 
HETATM   30  C   UNK N   1      28.825  13.016   3.651  0.00  0.00     0.023 C 
HETATM   31  C   UNK N   1      27.854  12.061   4.241  0.00  0.00     0.010 C 
HETATM   32  C   UNK N   1      29.530  12.161   2.630  0.00  0.00     0.007 C 
HETATM   33  C   UNK N   1      28.742  10.910   4.632  0.00  0.00     0.007 C 
HETATM   34  C   UNK N   1      29.684  10.828   3.405  0.00  0.00     0.001 C 
BRANCH  28  35
HETATM   35  C   UNK N   1      28.788  15.468   3.683  0.00  0.00     0.241 C 
HETATM   36  O   UNK N   1      29.105  16.275   2.825  0.00  0.00    -0.271 OA
HETATM   37  N   UNK N   1      29.183  15.621   4.981  0.00  0.00    -0.347 N 
HETATM   38  H   UNK N   1      28.830  14.963   5.623  0.00  0.00     0.163 HD
BRANCH  37  39
HETATM   39  C   UNK N   1      30.058  16.636   5.525  0.00  0.00     0.164 C 
BRANCH  39  40
HETATM   40  C   UNK N   1      31.520  16.259   5.654  0.00  0.00     0.033 C 
BRANCH  40  41
HETATM   41  C   UNK N   1      32.420  17.179   4.879  0.00  0.00    -0.002 C 
HETATM   42  C   UNK N   1      33.549  17.550   5.808  0.00  0.00     0.005 C 
ENDBRANCH  40  41
ENDBRANCH  39  40
BRANCH  39  43
HETATM   43  C   UNK N   1      29.510  17.337   6.731  0.00  0.00     0.238 C 
HETATM   44  O   UNK N   1      30.292  17.713   7.591  0.00  0.00    -0.285 OA
BRANCH  43  45
HETATM   45  C   UNK N   1      28.036  17.462   6.933  0.00  0.00     0.289 C 
HETATM   46  O   UNK N   1      27.448  16.591   7.552  0.00  0.00    -0.264 OA
HETATM   47  N   UNK N   1      27.327  18.541   6.502  0.00  0.00    -0.350 N 
HETATM   48  H   UNK N   1      26.348  18.511   6.597  0.00  0.00     0.163 HD
BRANCH  47  49
HETATM   49  C   UNK N   1      27.907  19.729   5.916  0.00  0.00     0.085 A 
HETATM   50  C   UNK N   1      27.039  20.161   4.747  0.00  0.00     0.027 A 
HETATM   51  C   UNK N   1      26.953  20.912   6.051  0.00  0.00     0.027 A 
ENDBRANCH  47  49
ENDBRANCH  43  45
ENDBRANCH  39  43
ENDBRANCH  37  39
ENDBRANCH  28  35
ENDBRANCH   1  25
BRANCH   1  52
HETATM   52  C   UNK N   1      24.595  14.204   1.969  0.00  0.00    -0.022 C 
HETATM   53  C   UNK N   1      23.194  14.320   1.396  0.00  0.00     0.017 C 
HETATM   54  C   UNK N   1      25.429  15.317   1.369  0.00  0.00     0.017 C 
HETATM   55  C   UNK N   1      25.108  12.843   1.540  0.00  0.00     0.017 C 
ENDBRANCH   1  52
TORSDOF 14
ENDMDL
MODEL 9
REMARK VINA RESULT:      -6.8      2.997      7.921
REMARK  14 active torsions:
REMARK  status: ('A' for Active; 'I' for Inactive)
REMARK       I    between atoms: N_7  and  C_24 
REMARK       I    between atoms: N_8  and  C_23 
REMARK    1  A    between atoms: C_27  and  N_8 
REMARK    2  A    between atoms: C_25  and  N_9 
REMARK       I    between atoms: N_9  and  C_33 
REMARK    3  A    between atoms: C_32  and  N_10 
REMARK       I    between atoms: N_10  and  C_47 
REMARK    4  A    between atoms: N_11  and  C_41 
REMARK       I    between atoms: N_11  and  C_45 
REMARK    5  A    between atoms: C_18  and  C_23 
REMARK    6  A    between atoms: C_24  and  C_25 
REMARK    7  A    between atoms: C_25  and  C_26 
REMARK    8  A    between atoms: C_27  and  C_34 
REMARK    9  A    between atoms: C_27  and  C_37 
REMARK   10  A    between atoms: C_31  and  C_32 
REMARK   11  A    between atoms: C_32  and  C_33 
REMARK   12  A    between atoms: C_34  and  C_42 
REMARK   13  A    between atoms: C_37  and  C_45 
REMARK   14  A    between atoms: C_47  and  C_48 
ROOT
HETATM    1  C   UNK N   1      24.139  10.923   4.556  0.00  0.00     0.184 C 
ENDROOT
BRANCH   1   2
HETATM    2  N   UNK N   1      25.583  11.043   4.640  0.00  0.00    -0.345 N 
HETATM    3  C   UNK N   1      26.277  11.864   3.810  0.00  0.00     0.241 C 
HETATM    4  O   UNK N   1      27.498  11.843   3.825  0.00  0.00    -0.271 OA
HETATM    5  H   UNK N   1      26.070  10.516   5.314  0.00  0.00     0.163 HD
BRANCH   3   6
HETATM    6  C   UNK N   1      25.545  12.873   2.957  0.00  0.00     0.181 C 
BRANCH   6   7
HETATM    7  N   UNK N   1      25.885  14.217   3.374  0.00  0.00    -0.342 N 
HETATM    8  C   UNK N   1      26.944  14.933   2.900  0.00  0.00     0.270 C 
HETATM    9  O   UNK N   1      27.624  14.515   1.982  0.00  0.00    -0.266 OA
HETATM   10  H   UNK N   1      25.310  14.645   4.048  0.00  0.00     0.163 HD
BRANCH   8  11
HETATM   11  C   UNK N   1      27.304  16.199   3.551  0.00  0.00     0.116 A 
HETATM   12  N   UNK N   1      26.370  16.884   4.271  0.00  0.00    -0.359 N 
HETATM   13  C   UNK N   1      26.671  18.075   4.850  0.00  0.00     0.105 A 
ATOM     14  HN  UNK N   1      25.434  16.495   4.378  1.00  0.00     0.165 HD
HETATM   15  C   UNK N   1      27.947  18.615   4.693  0.00  0.00     0.104 A 
HETATM   16  N   UNK N   1      28.875  17.935   3.971  0.00  0.00    -0.372 N 
HETATM   17  C   UNK N   1      28.581  16.741   3.398  0.00  0.00     0.122 A 
ATOM     18  HN  UNK N   1      29.810  18.328   3.860  1.00  0.00     0.164 HD
ENDBRANCH   8  11
ENDBRANCH   6   7
BRANCH   6  19
HETATM   19  C   UNK N   1      25.387  12.668   1.430  0.00  0.00     0.018 C 
HETATM   20  C   UNK N   1      25.369  11.236   0.880  0.00  0.00     0.007 C 
HETATM   21  C   UNK N   1      23.994  10.566   0.982  0.00  0.00     0.000 C 
HETATM   22  C   UNK N   1      22.822  11.544   0.857  0.00  0.00     0.000 C 
HETATM   23  C   UNK N   1      23.210  12.794   0.076  0.00  0.00     0.000 C 
HETATM   24  C   UNK N   1      24.308  13.572   0.810  0.00  0.00     0.007 C 
ENDBRANCH   6  19
ENDBRANCH   3   6
ENDBRANCH   1   2
BRANCH   1  25
HETATM   25  C   UNK N   1      23.314  12.147   4.990  0.00  0.00     0.244 C 
HETATM   26  O   UNK N   1      22.330  12.355   4.300  0.00  0.00    -0.271 OA
HETATM   27  N   UNK N   1      23.256  12.554   6.298  0.00  0.00    -0.336 N 
HETATM   28  C   UNK N   1      24.284  13.351   6.951  0.00  0.00     0.183 C 
HETATM   29  C   UNK N   1      22.378  11.893   7.247  0.00  0.00     0.132 C 
HETATM   30  C   UNK N   1      23.918  13.156   8.438  0.00  0.00     0.023 C 
HETATM   31  C   UNK N   1      23.296  11.809   8.452  0.00  0.00     0.010 C 
HETATM   32  C   UNK N   1      24.900  13.064   9.576  0.00  0.00     0.007 C 
HETATM   33  C   UNK N   1      22.855  11.682   9.886  0.00  0.00     0.007 C 
HETATM   34  C   UNK N   1      24.073  12.285  10.629  0.00  0.00     0.001 C 
BRANCH  28  35
HETATM   35  C   UNK N   1      23.983  14.802   6.621  0.00  0.00     0.241 C 
HETATM   36  O   UNK N   1      24.861  15.650   6.659  0.00  0.00    -0.271 OA
HETATM   37  N   UNK N   1      22.698  15.127   6.295  0.00  0.00    -0.347 N 
HETATM   38  H   UNK N   1      22.065  14.376   6.222  0.00  0.00     0.163 HD
BRANCH  37  39
HETATM   39  C   UNK N   1      22.155  16.443   6.043  0.00  0.00     0.164 C 
BRANCH  39  40
HETATM   40  C   UNK N   1      21.084  16.920   7.002  0.00  0.00     0.033 C 
BRANCH  40  41
HETATM   41  C   UNK N   1      20.219  15.797   7.501  0.00  0.00    -0.002 C 
HETATM   42  C   UNK N   1      20.607  15.572   8.942  0.00  0.00     0.005 C 
ENDBRANCH  40  41
ENDBRANCH  39  40
BRANCH  39  43
HETATM   43  C   UNK N   1      21.834  16.711   4.604  0.00  0.00     0.238 C 
HETATM   44  O   UNK N   1      20.965  17.529   4.343  0.00  0.00    -0.285 OA
BRANCH  43  45
HETATM   45  C   UNK N   1      22.475  15.907   3.520  0.00  0.00     0.289 C 
HETATM   46  O   UNK N   1      23.686  15.962   3.379  0.00  0.00    -0.264 OA
HETATM   47  N   UNK N   1      21.767  15.067   2.717  0.00  0.00    -0.350 N 
HETATM   48  H   UNK N   1      22.245  14.637   1.972  0.00  0.00     0.163 HD
BRANCH  47  49
HETATM   49  C   UNK N   1      20.363  14.760   2.877  0.00  0.00     0.085 A 
HETATM   50  C   UNK N   1      19.656  15.039   1.561  0.00  0.00     0.027 A 
HETATM   51  C   UNK N   1      19.958  13.615   1.952  0.00  0.00     0.027 A 
ENDBRANCH  47  49
ENDBRANCH  43  45
ENDBRANCH  39  43
ENDBRANCH  37  39
ENDBRANCH  28  35
ENDBRANCH   1  25
BRANCH   1  52
HETATM   52  C   UNK N   1      23.665   9.473   4.775  0.00  0.00    -0.022 C 
HETATM   53  C   UNK N   1      22.164   9.388   4.570  0.00  0.00     0.017 C 
HETATM   54  C   UNK N   1      24.318   8.544   3.773  0.00  0.00     0.017 C 
HETATM   55  C   UNK N   1      23.917   9.010   6.196  0.00  0.00     0.017 C 
ENDBRANCH   1  52
TORSDOF 14
ENDMDL
