REMARK WARNING: 32 MAX_TORS EXCEEDED!!!
REMARK  36 active torsions:
REMARK  status: ('A' for Active; 'I' for Inactive)
REMARK    1  A    between atoms: C_2  and  C_3 
REMARK    2  A    between atoms: C_3  and  C_4 
REMARK    3  A    between atoms: C_4  and  C_5 
REMARK    4  A    between atoms: C_5  and  C_6 
REMARK    5  A    between atoms: C_6  and  C_7 
REMARK    6  A    between atoms: C_7  and  C_8 
REMARK    7  A    between atoms: C_8  and  C_9 
REMARK    8  A    between atoms: C_9  and  C_10 
REMARK    9  A    between atoms: C_13  and  O_16 
REMARK   10  A    between atoms: O_16  and  C_17 
REMARK   11  A    between atoms: C_17  and  C_18 
REMARK   12  A    between atoms: C_18  and  O_19 
REMARK   13  A    between atoms: O_19  and  C_20 
REMARK   14  A    between atoms: C_20  and  C_21 
REMARK   15  A    between atoms: C_21  and  O_22 
REMARK   16  A    between atoms: O_22  and  C_23 
REMARK   17  A    between atoms: C_23  and  C_24 
REMARK   18  A    between atoms: C_24  and  O_25 
REMARK   19  A    between atoms: O_25  and  C_26 
REMARK   20  A    between atoms: C_26  and  C_27 
REMARK   21  A    between atoms: C_27  and  O_28 
REMARK   22  A    between atoms: O_28  and  C_29 
REMARK   23  A    between atoms: C_29  and  C_30 
REMARK   24  A    between atoms: C_30  and  O_31 
REMARK   25  A    between atoms: O_31  and  C_32 
REMARK   26  A    between atoms: C_32  and  C_33 
REMARK   27  A    between atoms: C_33  and  O_34 
REMARK   28  A    between atoms: O_34  and  C_35 
REMARK   29  A    between atoms: C_35  and  C_36 
REMARK   30  A    between atoms: C_36  and  O_37 
REMARK   31  A    between atoms: O_37  and  C_38 
REMARK   32  A    between atoms: C_38  and  C_39 
REMARK   33  A    between atoms: C_39  and  O_40 
REMARK   34  A    between atoms: O_40  and  C_41 
REMARK   35  A    between atoms: C_41  and  C_42 
REMARK   36  A    between atoms: C_42  and  O_43 
ROOT
HETATM    1  O   UNK N   1       5.484   3.171   0.296  0.00  0.00    -0.387 OA
ENDROOT
BRANCH   1   2
HETATM    2  C   UNK N   1       4.539   2.720  -0.631  0.00  0.00     0.193 C 
BRANCH   2   3
HETATM    3  C   UNK N   1       4.494   1.199  -0.615  0.00  0.00     0.193 C 
BRANCH   3   4
HETATM    4  O   UNK N   1       3.880   0.749   0.560  0.00  0.00    -0.387 OA
BRANCH   4   5
HETATM    5  C   UNK N   1       3.696  -0.629   0.388  0.00  0.00     0.194 C 
BRANCH   5   6
HETATM    6  C   UNK N   1       2.510  -0.923  -0.529  0.00  0.00     0.201 C 
BRANCH   6   7
HETATM    7  O   UNK N   1       1.303  -0.625   0.069  0.00  0.00    -0.349 OA
BRANCH   7   8
HETATM    8  C   UNK N   1       0.689   0.578  -0.043  0.00  0.00     0.068 A 
HETATM    9  C   UNK N   1       1.380   1.722  -0.479  0.00  0.00     0.037 A 
HETATM   10  C   UNK N   1       0.725   2.948  -0.596  0.00  0.00     0.010 A 
HETATM   11  C   UNK N   1      -0.634   3.041  -0.298  0.00  0.00    -0.058 A 
HETATM   12  C   UNK N   1      -1.333   1.902   0.128  0.00  0.00     0.010 A 
HETATM   13  C   UNK N   1      -0.669   0.681   0.271  0.00  0.00     0.037 A 
BRANCH  11  14
HETATM   14  C   UNK N   1      -1.343   4.336  -0.502  0.00  0.00     0.038 C 
BRANCH  14  15
HETATM   15  C   UNK N   1      -2.159   4.719   0.720  0.00  0.00     0.005 C 
BRANCH  15  16
HETATM   16  C   UNK N   1      -3.569   5.101   0.292  0.00  0.00     0.000 C 
BRANCH  16  17
HETATM   17  C   UNK N   1      -4.319   3.931  -0.337  0.00  0.00     0.000 C 
BRANCH  17  18
HETATM   18  C   UNK N   1      -4.674   2.888   0.710  0.00  0.00     0.000 C 
BRANCH  18  19
HETATM   19  C   UNK N   1      -5.797   1.999   0.206  0.00  0.00     0.000 C 
BRANCH  19  20
HETATM   20  C   UNK N   1      -7.105   2.769   0.226  0.00  0.00    -0.000 C 
BRANCH  20  21
HETATM   21  C   UNK N   1      -8.242   1.873  -0.213  0.00  0.00    -0.005 C 
HETATM   22  C   UNK N   1      -9.534   2.663  -0.188  0.00  0.00     0.005 C 
ENDBRANCH  20  21
ENDBRANCH  19  20
ENDBRANCH  18  19
ENDBRANCH  17  18
ENDBRANCH  16  17
ENDBRANCH  15  16
ENDBRANCH  14  15
ENDBRANCH  11  14
ENDBRANCH   7   8
ENDBRANCH   6   7
ENDBRANCH   5   6
ENDBRANCH   4   5
ENDBRANCH   3   4
ENDBRANCH   2   3
ENDBRANCH   1   2
BRANCH   1  23
HETATM   23  C   UNK N   1       6.663   3.389  -0.432  0.00  0.00     0.193 C 
BRANCH  23  24
HETATM   24  C   UNK N   1       7.446   2.092  -0.595  0.00  0.00     0.193 C 
BRANCH  24  25
HETATM   25  O   UNK N   1       7.528   1.431   0.633  0.00  0.00    -0.387 OA
BRANCH  25  26
HETATM   26  C   UNK N   1       8.382   0.352   0.414  0.00  0.00     0.193 C 
BRANCH  26  27
HETATM   27  C   UNK N   1       9.791   0.739   0.806  0.00  0.00     0.193 C 
BRANCH  27  28
HETATM   28  O   UNK N   1      10.528   1.030  -0.342  0.00  0.00    -0.387 OA
BRANCH  28  29
HETATM   29  C   UNK N   1      11.816   1.273   0.129  0.00  0.00     0.193 C 
BRANCH  29  30
HETATM   30  C   UNK N   1      12.635  -0.010   0.102  0.00  0.00     0.193 C 
BRANCH  30  31
HETATM   31  O   UNK N   1      13.875   0.214   0.705  0.00  0.00    -0.387 OA
BRANCH  31  32
HETATM   32  C   UNK N   1      14.756   0.446  -0.354  0.00  0.00     0.193 C 
BRANCH  32  33
HETATM   33  C   UNK N   1      14.912   1.941  -0.574  0.00  0.00     0.193 C 
BRANCH  33  34
HETATM   34  O   UNK N   1      15.802   2.471   0.361  0.00  0.00    -0.387 OA
BRANCH  34  35
HETATM   35  C   UNK N   1      16.749   3.148  -0.409  0.00  0.00     0.193 C 
BRANCH  35  36
HETATM   36  C   UNK N   1      17.959   2.265  -0.655  0.00  0.00     0.193 C 
BRANCH  36  37
HETATM   37  O   UNK N   1      18.737   2.196   0.502  0.00  0.00    -0.387 OA
BRANCH  37  38
HETATM   38  C   UNK N   1      19.554   1.075   0.334  0.00  0.00     0.193 C 
BRANCH  38  39
HETATM   39  C   UNK N   1      20.849   1.482  -0.350  0.00  0.00     0.193 C 
BRANCH  39  40
HETATM   40  O   UNK N   1      21.859   0.572  -0.039  0.00  0.00    -0.387 OA
BRANCH  40  41
HETATM   41  C   UNK N   1      22.858   1.348   0.552  0.00  0.00     0.193 C 
BRANCH  41  42
HETATM   42  C   UNK N   1      24.047   1.450  -0.384  0.00  0.00     0.190 C 
BRANCH  42  43
HETATM   43  O   UNK N   1      24.994   2.317   0.158  0.00  0.00    -0.399 OA
HETATM   44  H   UNK N   1      25.846   2.048   0.535  0.00  0.00     0.209 HD
ENDBRANCH  42  43
ENDBRANCH  41  42
ENDBRANCH  40  41
ENDBRANCH  39  40
ENDBRANCH  38  39
ENDBRANCH  37  38
ENDBRANCH  36  37
ENDBRANCH  35  36
ENDBRANCH  34  35
ENDBRANCH  33  34
ENDBRANCH  32  33
ENDBRANCH  31  32
ENDBRANCH  30  31
ENDBRANCH  29  30
ENDBRANCH  28  29
ENDBRANCH  27  28
ENDBRANCH  26  27
ENDBRANCH  25  26
ENDBRANCH  24  25
ENDBRANCH  23  24
ENDBRANCH   1  23
TORSDOF 36
