MODEL 1
REMARK VINA RESULT:      -7.7      0.000      0.000
REMARK  3 active torsions:
REMARK  status: ('A' for Active; 'I' for Inactive)
REMARK    1  A    between atoms: C_14  and  O_16 
REMARK    2  A    between atoms: C_22  and  C_23 
REMARK    3  A    between atoms: C_23  and  C_24 
ROOT
HETATM    1  C   UNK N   1      32.063  15.009   7.923  0.00  0.00     0.084 C 
HETATM    2  C   UNK N   1      32.343  16.489   7.938  0.00  0.00     0.149 C 
HETATM    3  C   UNK N   1      33.463  17.027   8.743  0.00  0.00     0.053 C 
HETATM    4  C   UNK N   1      34.385  16.212   9.276  0.00  0.00    -0.065 C 
HETATM    5  C   UNK N   1      34.353  14.708   9.012  0.00  0.00     0.019 C 
HETATM    6  C   UNK N   1      32.873  14.273   9.000  0.00  0.00     0.025 C 
HETATM    7  C   UNK N   1      35.368  16.776  10.258  0.00  0.00     0.036 C 
HETATM    8  C   UNK N   1      35.313  16.042  11.606  0.00  0.00     0.013 C 
HETATM    9  C   UNK N   1      34.879  14.563  11.509  0.00  0.00     0.034 C 
HETATM   10  C   UNK N   1      35.159  13.934  10.116  0.00  0.00     0.144 C 
HETATM   11  C   UNK N   1      35.405  13.716  12.707  0.00  0.00     0.007 C 
HETATM   12  C   UNK N   1      35.924  12.312  12.358  0.00  0.00     0.004 C 
HETATM   13  C   UNK N   1      34.921  11.625  11.447  0.00  0.00     0.048 C 
HETATM   14  C   UNK N   1      34.751  12.414  10.118  0.00  0.00     0.160 C 
HETATM   15  C   UNK N   1      34.947  14.413   7.634  0.00  0.00     0.023 C 
HETATM   16  C   UNK N   1      37.287  12.318  11.624  0.00  0.00     0.019 C 
HETATM   17  F   UNK N   1      36.517  14.081   9.860  0.00  0.00    -0.239 F 
HETATM   18  O   UNK N   1      31.614  17.246   7.330  0.00  0.00    -0.293 OA
HETATM   19  C   UNK N   1      36.483  14.206  13.674  0.00  0.00     0.041 C 
HETATM   20  C   UNK N   1      36.928  12.909  14.420  0.00  0.00     0.168 C 
HETATM   21  C   UNK N   1      36.167  11.754  13.776  0.00  0.00     0.159 C 
HETATM   22  O   UNK N   1      34.992  11.663  14.532  0.00  0.00    -0.334 OA
HETATM   23  O   UNK N   1      36.519  12.939  15.751  0.00  0.00    -0.347 OA
HETATM   24  C   UNK N   1      35.326  12.185  15.804  0.00  0.00     0.159 C 
HETATM   25  C   UNK N   1      34.203  13.081  16.287  0.00  0.00     0.078 C 
HETATM   26  C   UNK N   1      35.504  11.043  16.791  0.00  0.00     0.078 C 
ENDROOT
BRANCH  21  27
HETATM   27  C   UNK N   1      36.865  10.401  13.800  0.00  0.00     0.178 C 
HETATM   28  O   UNK N   1      36.284   9.402  13.409  0.00  0.00    -0.293 OA
BRANCH  27  29
HETATM   29  C   UNK N   1      38.266  10.269  14.325  0.00  0.00     0.196 C 
HETATM   30 Cl   UNK N   1      38.432   8.904  15.464  0.00  0.00    -0.122 Cl
ENDBRANCH  27  29
ENDBRANCH  21  27
BRANCH  14  31
HETATM   31  O   UNK N   1      35.339  11.730   9.053  0.00  0.00    -0.392 OA
HETATM   32  H   UNK N   1      36.191  11.271   8.975  0.00  0.00     0.210 HD
ENDBRANCH  14  31
TORSDOF 3
ENDMDL
MODEL 2
REMARK VINA RESULT:      -7.4     18.254     21.978
REMARK  3 active torsions:
REMARK  status: ('A' for Active; 'I' for Inactive)
REMARK    1  A    between atoms: C_14  and  O_16 
REMARK    2  A    between atoms: C_22  and  C_23 
REMARK    3  A    between atoms: C_23  and  C_24 
ROOT
HETATM    1  C   UNK N   1      34.271  22.049  -5.601  0.00  0.00     0.084 C 
HETATM    2  C   UNK N   1      34.399  21.305  -4.297  0.00  0.00     0.149 C 
HETATM    3  C   UNK N   1      33.210  21.091  -3.441  0.00  0.00     0.053 C 
HETATM    4  C   UNK N   1      31.974  21.335  -3.901  0.00  0.00    -0.065 C 
HETATM    5  C   UNK N   1      31.745  21.773  -5.347  0.00  0.00     0.019 C 
HETATM    6  C   UNK N   1      32.897  22.724  -5.730  0.00  0.00     0.025 C 
HETATM    7  C   UNK N   1      30.826  21.314  -2.938  0.00  0.00     0.036 C 
HETATM    8  C   UNK N   1      30.062  22.646  -2.932  0.00  0.00     0.013 C 
HETATM    9  C   UNK N   1      30.103  23.410  -4.273  0.00  0.00     0.034 C 
HETATM   10  C   UNK N   1      30.352  22.486  -5.496  0.00  0.00     0.144 C 
HETATM   11  C   UNK N   1      28.886  24.371  -4.440  0.00  0.00     0.007 C 
HETATM   12  C   UNK N   1      28.253  24.413  -5.840  0.00  0.00     0.004 C 
HETATM   13  C   UNK N   1      29.355  24.547  -6.878  0.00  0.00     0.048 C 
HETATM   14  C   UNK N   1      30.315  23.326  -6.826  0.00  0.00     0.160 C 
HETATM   15  C   UNK N   1      31.806  20.556  -6.271  0.00  0.00     0.023 C 
HETATM   16  C   UNK N   1      27.438  23.146  -6.193  0.00  0.00     0.019 C 
HETATM   17  F   UNK N   1      29.356  21.517  -5.495  0.00  0.00    -0.239 F 
HETATM   18  O   UNK N   1      35.492  20.928  -3.924  0.00  0.00    -0.293 OA
HETATM   19  C   UNK N   1      27.645  24.318  -3.548  0.00  0.00     0.041 C 
HETATM   20  C   UNK N   1      26.595  25.170  -4.327  0.00  0.00     0.168 C 
HETATM   21  C   UNK N   1      27.248  25.568  -5.647  0.00  0.00     0.159 C 
HETATM   22  O   UNK N   1      27.872  26.788  -5.359  0.00  0.00    -0.334 OA
HETATM   23  O   UNK N   1      26.331  26.363  -3.658  0.00  0.00    -0.347 OA
HETATM   24  C   UNK N   1      27.129  27.342  -4.290  0.00  0.00     0.159 C 
HETATM   25  C   UNK N   1      28.084  27.927  -3.269  0.00  0.00     0.078 C 
HETATM   26  C   UNK N   1      26.232  28.451  -4.816  0.00  0.00     0.078 C 
ENDROOT
BRANCH  21  27
HETATM   27  C   UNK N   1      26.303  25.772  -6.823  0.00  0.00     0.178 C 
HETATM   28  O   UNK N   1      25.188  25.277  -6.809  0.00  0.00    -0.293 OA
BRANCH  27  29
HETATM   29  C   UNK N   1      26.733  26.564  -8.025  0.00  0.00     0.196 C 
HETATM   30 Cl   UNK N   1      25.750  26.187  -9.466  0.00  0.00    -0.122 Cl
ENDBRANCH  27  29
ENDBRANCH  21  27
BRANCH  14  31
HETATM   31  O   UNK N   1      30.137  22.504  -7.940  0.00  0.00    -0.392 OA
HETATM   32  H   UNK N   1      29.344  22.271  -8.448  0.00  0.00     0.210 HD
ENDBRANCH  14  31
TORSDOF 3
ENDMDL
MODEL 3
REMARK VINA RESULT:      -7.4      3.408      8.259
REMARK  3 active torsions:
REMARK  status: ('A' for Active; 'I' for Inactive)
REMARK    1  A    between atoms: C_14  and  O_16 
REMARK    2  A    between atoms: C_22  and  C_23 
REMARK    3  A    between atoms: C_23  and  C_24 
ROOT
HETATM    1  C   UNK N   1      35.692  11.462  12.538  0.00  0.00     0.084 C 
HETATM    2  C   UNK N   1      37.193  11.372  12.444  0.00  0.00     0.149 C 
HETATM    3  C   UNK N   1      37.929  12.198  11.461  0.00  0.00     0.053 C 
HETATM    4  C   UNK N   1      37.323  13.202  10.810  0.00  0.00    -0.065 C 
HETATM    5  C   UNK N   1      35.871  13.572  11.111  0.00  0.00     0.019 C 
HETATM    6  C   UNK N   1      35.103  12.259  11.365  0.00  0.00     0.025 C 
HETATM    7  C   UNK N   1      38.041  13.864   9.673  0.00  0.00     0.036 C 
HETATM    8  C   UNK N   1      37.235  13.791   8.368  0.00  0.00     0.013 C 
HETATM    9  C   UNK N   1      35.704  13.746   8.566  0.00  0.00     0.034 C 
HETATM   10  C   UNK N   1      35.243  14.370   9.912  0.00  0.00     0.144 C 
HETATM   11  C   UNK N   1      34.933  14.279   7.321  0.00  0.00     0.007 C 
HETATM   12  C   UNK N   1      33.714  15.167   7.617  0.00  0.00     0.004 C 
HETATM   13  C   UNK N   1      32.867  14.504   8.691  0.00  0.00     0.048 C 
HETATM   14  C   UNK N   1      33.673  14.345  10.010  0.00  0.00     0.160 C 
HETATM   15  C   UNK N   1      35.808  14.415  12.385  0.00  0.00     0.023 C 
HETATM   16  C   UNK N   1      34.084  16.581   8.128  0.00  0.00     0.019 C 
HETATM   17  F   UNK N   1      35.720  15.675   9.949  0.00  0.00    -0.239 F 
HETATM   18  O   UNK N   1      37.793  10.578  13.141  0.00  0.00    -0.293 OA
HETATM   19  C   UNK N   1      35.603  15.054   6.186  0.00  0.00     0.041 C 
HETATM   20  C   UNK N   1      34.404  15.684   5.411  0.00  0.00     0.168 C 
HETATM   21  C   UNK N   1      33.144  15.328   6.192  0.00  0.00     0.159 C 
HETATM   22  O   UNK N   1      32.734  14.111   5.632  0.00  0.00    -0.334 OA
HETATM   23  O   UNK N   1      34.257  15.090   4.160  0.00  0.00    -0.347 OA
HETATM   24  C   UNK N   1      33.242  14.120   4.312  0.00  0.00     0.159 C 
HETATM   25  C   UNK N   1      33.819  12.756   3.990  0.00  0.00     0.078 C 
HETATM   26  C   UNK N   1      32.116  14.421   3.336  0.00  0.00     0.078 C 
ENDROOT
BRANCH  21  27
HETATM   27  C   UNK N   1      31.994  16.320   6.091  0.00  0.00     0.178 C 
HETATM   28  O   UNK N   1      32.165  17.408   5.565  0.00  0.00    -0.293 OA
BRANCH  27  29
HETATM   29  C   UNK N   1      30.642  15.989   6.654  0.00  0.00     0.196 C 
HETATM   30 Cl   UNK N   1      30.164  17.107   7.960  0.00  0.00    -0.122 Cl
ENDBRANCH  27  29
ENDBRANCH  21  27
BRANCH  14  31
HETATM   31  O   UNK N   1      33.212  15.231  10.986  0.00  0.00    -0.392 OA
HETATM   32  H   UNK N   1      32.323  15.573  11.177  0.00  0.00     0.210 HD
ENDBRANCH  14  31
TORSDOF 3
ENDMDL
MODEL 4
REMARK VINA RESULT:      -7.2     21.047     23.323
REMARK  3 active torsions:
REMARK  status: ('A' for Active; 'I' for Inactive)
REMARK    1  A    between atoms: C_14  and  O_16 
REMARK    2  A    between atoms: C_22  and  C_23 
REMARK    3  A    between atoms: C_23  and  C_24 
ROOT
HETATM    1  C   UNK N   1      27.788  21.829 -11.673  0.00  0.00     0.084 C 
HETATM    2  C   UNK N   1      28.579  20.562 -11.473  0.00  0.00     0.149 C 
HETATM    3  C   UNK N   1      28.932  20.112 -10.108  0.00  0.00     0.053 C 
HETATM    4  C   UNK N   1      28.367  20.671  -9.028  0.00  0.00    -0.065 C 
HETATM    5  C   UNK N   1      27.287  21.743  -9.171  0.00  0.00     0.019 C 
HETATM    6  C   UNK N   1      27.675  22.633 -10.370  0.00  0.00     0.025 C 
HETATM    7  C   UNK N   1      28.912  20.338  -7.672  0.00  0.00     0.036 C 
HETATM    8  C   UNK N   1      29.364  21.595  -6.914  0.00  0.00     0.013 C 
HETATM    9  C   UNK N   1      28.589  22.877  -7.287  0.00  0.00     0.034 C 
HETATM   10  C   UNK N   1      27.171  22.592  -7.854  0.00  0.00     0.144 C 
HETATM   11  C   UNK N   1      28.615  23.934  -6.141  0.00  0.00     0.007 C 
HETATM   12  C   UNK N   1      27.295  24.679  -5.887  0.00  0.00     0.004 C 
HETATM   13  C   UNK N   1      26.729  25.152  -7.215  0.00  0.00     0.048 C 
HETATM   14  C   UNK N   1      26.424  23.946  -8.147  0.00  0.00     0.160 C 
HETATM   15  C   UNK N   1      25.943  21.084  -9.483  0.00  0.00     0.023 C 
HETATM   16  C   UNK N   1      26.211  23.810  -5.206  0.00  0.00     0.019 C 
HETATM   17  F   UNK N   1      26.487  21.845  -6.903  0.00  0.00    -0.239 F 
HETATM   18  O   UNK N   1      28.974  19.940 -12.439  0.00  0.00    -0.293 OA
HETATM   19  C   UNK N   1      29.062  23.615  -4.714  0.00  0.00     0.041 C 
HETATM   20  C   UNK N   1      28.554  24.837  -3.886  0.00  0.00     0.168 C 
HETATM   21  C   UNK N   1      27.768  25.720  -4.850  0.00  0.00     0.159 C 
HETATM   22  O   UNK N   1      28.731  26.598  -5.363  0.00  0.00    -0.334 OA
HETATM   23  O   UNK N   1      29.622  25.614  -3.444  0.00  0.00    -0.347 OA
HETATM   24  C   UNK N   1      29.729  26.680  -4.364  0.00  0.00     0.159 C 
HETATM   25  C   UNK N   1      31.095  26.626  -5.018  0.00  0.00     0.078 C 
HETATM   26  C   UNK N   1      29.593  27.997  -3.617  0.00  0.00     0.078 C 
ENDROOT
BRANCH  21  27
HETATM   27  C   UNK N   1      26.642  26.540  -4.235  0.00  0.00     0.178 C 
HETATM   28  O   UNK N   1      26.228  26.276  -3.118  0.00  0.00    -0.293 OA
BRANCH  27  29
HETATM   29  C   UNK N   1      26.010  27.669  -4.997  0.00  0.00     0.196 C 
HETATM   30 Cl   UNK N   1      24.434  27.209  -5.698  0.00  0.00    -0.122 Cl
ENDBRANCH  27  29
ENDBRANCH  21  27
BRANCH  14  31
HETATM   31  O   UNK N   1      25.048  23.748  -8.271  0.00  0.00    -0.392 OA
HETATM   32  H   UNK N   1      24.292  24.216  -7.881  0.00  0.00     0.210 HD
ENDBRANCH  14  31
TORSDOF 3
ENDMDL
MODEL 5
REMARK VINA RESULT:      -7.1      9.211     12.175
REMARK  3 active torsions:
REMARK  status: ('A' for Active; 'I' for Inactive)
REMARK    1  A    between atoms: C_14  and  O_16 
REMARK    2  A    between atoms: C_22  and  C_23 
REMARK    3  A    between atoms: C_23  and  C_24 
ROOT
HETATM    1  C   UNK N   1      24.738  20.693   2.699  0.00  0.00     0.084 C 
HETATM    2  C   UNK N   1      23.333  20.288   3.062  0.00  0.00     0.149 C 
HETATM    3  C   UNK N   1      23.092  19.062   3.856  0.00  0.00     0.053 C 
HETATM    4  C   UNK N   1      24.102  18.424   4.465  0.00  0.00    -0.065 C 
HETATM    5  C   UNK N   1      25.525  18.978   4.420  0.00  0.00     0.019 C 
HETATM    6  C   UNK N   1      25.744  19.576   3.015  0.00  0.00     0.025 C 
HETATM    7  C   UNK N   1      23.846  17.076   5.070  0.00  0.00     0.036 C 
HETATM    8  C   UNK N   1      24.773  16.002   4.484  0.00  0.00     0.013 C 
HETATM    9  C   UNK N   1      26.143  16.533   4.007  0.00  0.00     0.034 C 
HETATM   10  C   UNK N   1      26.571  17.845   4.720  0.00  0.00     0.144 C 
HETATM   11  C   UNK N   1      27.237  15.423   4.007  0.00  0.00     0.007 C 
HETATM   12  C   UNK N   1      28.624  15.849   4.513  0.00  0.00     0.004 C 
HETATM   13  C   UNK N   1      29.009  17.163   3.855  0.00  0.00     0.048 C 
HETATM   14  C   UNK N   1      28.000  18.285   4.228  0.00  0.00     0.160 C 
HETATM   15  C   UNK N   1      25.673  20.104   5.444  0.00  0.00     0.023 C 
HETATM   16  C   UNK N   1      28.688  16.063   6.045  0.00  0.00     0.019 C 
HETATM   17  F   UNK N   1      26.574  17.593   6.086  0.00  0.00    -0.239 F 
HETATM   18  O   UNK N   1      22.394  20.943   2.655  0.00  0.00    -0.293 OA
HETATM   19  C   UNK N   1      27.063  14.071   4.701  0.00  0.00     0.041 C 
HETATM   20  C   UNK N   1      28.512  13.494   4.754  0.00  0.00     0.168 C 
HETATM   21  C   UNK N   1      29.432  14.574   4.192  0.00  0.00     0.159 C 
HETATM   22  O   UNK N   1      29.480  14.294   2.821  0.00  0.00    -0.334 OA
HETATM   23  O   UNK N   1      28.642  12.402   3.900  0.00  0.00    -0.347 OA
HETATM   24  C   UNK N   1      29.222  12.906   2.715  0.00  0.00     0.159 C 
HETATM   25  C   UNK N   1      28.269  12.662   1.563  0.00  0.00     0.078 C 
HETATM   26  C   UNK N   1      30.522  12.166   2.445  0.00  0.00     0.078 C 
ENDROOT
BRANCH  21  27
HETATM   27  C   UNK N   1      30.854  14.586   4.735  0.00  0.00     0.178 C 
HETATM   28  O   UNK N   1      31.149  13.904   5.703  0.00  0.00    -0.293 OA
BRANCH  27  29
HETATM   29  C   UNK N   1      31.909  15.451   4.106  0.00  0.00     0.196 C 
HETATM   30 Cl   UNK N   1      32.372  16.818   5.156  0.00  0.00    -0.122 Cl
ENDBRANCH  27  29
ENDBRANCH  21  27
BRANCH  14  31
HETATM   31  O   UNK N   1      28.578  19.202   5.107  0.00  0.00    -0.392 OA
HETATM   32  H   UNK N   1      28.212  19.686   5.866  0.00  0.00     0.210 HD
ENDBRANCH  14  31
TORSDOF 3
ENDMDL
MODEL 6
REMARK VINA RESULT:      -7.0      4.626      9.709
REMARK  3 active torsions:
REMARK  status: ('A' for Active; 'I' for Inactive)
REMARK    1  A    between atoms: C_14  and  O_16 
REMARK    2  A    between atoms: C_22  and  C_23 
REMARK    3  A    between atoms: C_23  and  C_24 
ROOT
HETATM    1  C   UNK N   1      34.522  14.811  11.007  0.00  0.00     0.084 C 
HETATM    2  C   UNK N   1      35.801  14.252  10.438  0.00  0.00     0.149 C 
HETATM    3  C   UNK N   1      36.042  14.280   8.978  0.00  0.00     0.053 C 
HETATM    4  C   UNK N   1      35.259  15.002   8.162  0.00  0.00    -0.065 C 
HETATM    5  C   UNK N   1      34.137  15.877   8.719  0.00  0.00     0.019 C 
HETATM    6  C   UNK N   1      33.502  15.117   9.901  0.00  0.00     0.025 C 
HETATM    7  C   UNK N   1      35.404  14.828   6.681  0.00  0.00     0.036 C 
HETATM    8  C   UNK N   1      34.081  14.407   6.024  0.00  0.00     0.013 C 
HETATM    9  C   UNK N   1      32.818  14.908   6.756  0.00  0.00     0.034 C 
HETATM   10  C   UNK N   1      33.070  16.183   7.607  0.00  0.00     0.144 C 
HETATM   11  C   UNK N   1      31.588  15.013   5.804  0.00  0.00     0.007 C 
HETATM   12  C   UNK N   1      30.698  16.251   5.992  0.00  0.00     0.004 C 
HETATM   13  C   UNK N   1      30.410  16.434   7.473  0.00  0.00     0.048 C 
HETATM   14  C   UNK N   1      31.726  16.667   8.267  0.00  0.00     0.160 C 
HETATM   15  C   UNK N   1      34.719  17.186   9.253  0.00  0.00     0.023 C 
HETATM   16  C   UNK N   1      31.341  17.563   5.481  0.00  0.00     0.019 C 
HETATM   17  F   UNK N   1      33.582  17.155   6.757  0.00  0.00    -0.239 F 
HETATM   18  O   UNK N   1      36.610  13.728  11.178  0.00  0.00    -0.293 OA
HETATM   19  C   UNK N   1      31.698  14.947   4.280  0.00  0.00     0.041 C 
HETATM   20  C   UNK N   1      30.313  15.473   3.787  0.00  0.00     0.168 C 
HETATM   21  C   UNK N   1      29.541  15.901   5.032  0.00  0.00     0.159 C 
HETATM   22  O   UNK N   1      28.851  14.744   5.414  0.00  0.00    -0.334 OA
HETATM   23  O   UNK N   1      29.569  14.445   3.213  0.00  0.00    -0.347 OA
HETATM   24  C   UNK N   1      28.688  13.998   4.222  0.00  0.00     0.159 C 
HETATM   25  C   UNK N   1      28.972  12.536   4.505  0.00  0.00     0.078 C 
HETATM   26  C   UNK N   1      27.257  14.135   3.729  0.00  0.00     0.078 C 
ENDROOT
BRANCH  21  27
HETATM   27  C   UNK N   1      28.533  17.025   4.837  0.00  0.00     0.178 C 
HETATM   28  O   UNK N   1      28.488  17.634   3.781  0.00  0.00    -0.293 OA
BRANCH  27  29
HETATM   29  C   UNK N   1      27.597  17.417   5.944  0.00  0.00     0.196 C 
HETATM   30 Cl   UNK N   1      27.967  19.037   6.596  0.00  0.00    -0.122 Cl
ENDBRANCH  27  29
ENDBRANCH  21  27
BRANCH  14  31
HETATM   31  O   UNK N   1      31.820  17.992   8.696  0.00  0.00    -0.392 OA
HETATM   32  H   UNK N   1      32.542  18.481   9.123  0.00  0.00     0.210 HD
ENDBRANCH  14  31
TORSDOF 3
ENDMDL
MODEL 7
REMARK VINA RESULT:      -6.9      5.900     10.981
REMARK  3 active torsions:
REMARK  status: ('A' for Active; 'I' for Inactive)
REMARK    1  A    between atoms: C_14  and  O_16 
REMARK    2  A    between atoms: C_22  and  C_23 
REMARK    3  A    between atoms: C_23  and  C_24 
ROOT
HETATM    1  C   UNK N   1      33.638  15.118   9.560  0.00  0.00     0.084 C 
HETATM    2  C   UNK N   1      34.919  14.925   8.792  0.00  0.00     0.149 C 
HETATM    3  C   UNK N   1      34.977  15.244   7.347  0.00  0.00     0.053 C 
HETATM    4  C   UNK N   1      33.987  15.923   6.749  0.00  0.00    -0.065 C 
HETATM    5  C   UNK N   1      32.800  16.453   7.552  0.00  0.00     0.019 C 
HETATM    6  C   UNK N   1      32.456  15.396   8.621  0.00  0.00     0.025 C 
HETATM    7  C   UNK N   1      33.985  16.030   5.254  0.00  0.00     0.036 C 
HETATM    8  C   UNK N   1      32.691  15.471   4.644  0.00  0.00     0.013 C 
HETATM    9  C   UNK N   1      31.453  15.584   5.561  0.00  0.00     0.034 C 
HETATM   10  C   UNK N   1      31.571  16.724   6.610  0.00  0.00     0.144 C 
HETATM   11  C   UNK N   1      30.121  15.601   4.752  0.00  0.00     0.007 C 
HETATM   12  C   UNK N   1      29.052  16.590   5.242  0.00  0.00     0.004 C 
HETATM   13  C   UNK N   1      28.913  16.463   6.750  0.00  0.00     0.048 C 
HETATM   14  C   UNK N   1      30.250  16.816   7.459  0.00  0.00     0.160 C 
HETATM   15  C   UNK N   1      33.197  17.744   8.269  0.00  0.00     0.023 C 
HETATM   16  C   UNK N   1      29.384  18.069   4.932  0.00  0.00     0.019 C 
HETATM   17  F   UNK N   1      31.797  17.906   5.916  0.00  0.00    -0.239 F 
HETATM   18  O   UNK N   1      35.891  14.456   9.350  0.00  0.00    -0.293 OA
HETATM   19  C   UNK N   1      30.059  15.813   3.239  0.00  0.00     0.041 C 
HETATM   20  C   UNK N   1      28.555  16.130   2.971  0.00  0.00     0.168 C 
HETATM   21  C   UNK N   1      27.872  16.184   4.334  0.00  0.00     0.159 C 
HETATM   22  O   UNK N   1      27.450  14.866   4.551  0.00  0.00    -0.334 OA
HETATM   23  O   UNK N   1      27.944  15.086   2.281  0.00  0.00    -0.347 OA
HETATM   24  C   UNK N   1      27.284  14.312   3.259  0.00  0.00     0.159 C 
HETATM   25  C   UNK N   1      27.856  12.909   3.240  0.00  0.00     0.078 C 
HETATM   26  C   UNK N   1      25.803  14.244   2.923  0.00  0.00     0.078 C 
ENDROOT
BRANCH  21  27
HETATM   27  C   UNK N   1      26.662  17.102   4.438  0.00  0.00     0.178 C 
HETATM   28  O   UNK N   1      25.986  17.116   5.454  0.00  0.00    -0.293 OA
BRANCH  27  29
HETATM   29  C   UNK N   1      26.269  17.987   3.290  0.00  0.00     0.196 C 
HETATM   30 Cl   UNK N   1      26.525  19.716   3.653  0.00  0.00    -0.122 Cl
ENDBRANCH  27  29
ENDBRANCH  21  27
BRANCH  14  31
HETATM   31  O   UNK N   1      30.155  18.043   8.118  0.00  0.00    -0.392 OA
HETATM   32  H   UNK N   1      29.962  18.264   9.044  0.00  0.00     0.210 HD
ENDBRANCH  14  31
TORSDOF 3
ENDMDL
MODEL 8
REMARK VINA RESULT:      -6.9      7.158     10.666
REMARK  3 active torsions:
REMARK  status: ('A' for Active; 'I' for Inactive)
REMARK    1  A    between atoms: C_14  and  O_16 
REMARK    2  A    between atoms: C_22  and  C_23 
REMARK    3  A    between atoms: C_23  and  C_24 
ROOT
HETATM    1  C   UNK N   1      23.269  16.441   5.524  0.00  0.00     0.084 C 
HETATM    2  C   UNK N   1      22.956  17.860   5.125  0.00  0.00     0.149 C 
HETATM    3  C   UNK N   1      24.010  18.719   4.538  0.00  0.00     0.053 C 
HETATM    4  C   UNK N   1      25.178  18.200   4.132  0.00  0.00    -0.065 C 
HETATM    5  C   UNK N   1      25.434  16.695   4.195  0.00  0.00     0.019 C 
HETATM    6  C   UNK N   1      24.780  16.168   5.488  0.00  0.00     0.025 C 
HETATM    7  C   UNK N   1      26.289  19.130   3.751  0.00  0.00     0.036 C 
HETATM    8  C   UNK N   1      27.554  18.882   4.587  0.00  0.00     0.013 C 
HETATM    9  C   UNK N   1      27.720  17.426   5.073  0.00  0.00     0.034 C 
HETATM   10  C   UNK N   1      26.977  16.394   4.181  0.00  0.00     0.144 C 
HETATM   11  C   UNK N   1      29.211  17.066   5.353  0.00  0.00     0.007 C 
HETATM   12  C   UNK N   1      29.661  15.671   4.894  0.00  0.00     0.004 C 
HETATM   13  C   UNK N   1      28.634  14.645   5.343  0.00  0.00     0.048 C 
HETATM   14  C   UNK N   1      27.248  14.934   4.702  0.00  0.00     0.160 C 
HETATM   15  C   UNK N   1      24.762  16.006   3.006  0.00  0.00     0.023 C 
HETATM   16  C   UNK N   1      29.806  15.537   3.359  0.00  0.00     0.019 C 
HETATM   17  F   UNK N   1      27.448  16.552   2.883  0.00  0.00    -0.239 F 
HETATM   18  O   UNK N   1      21.850  18.315   5.336  0.00  0.00    -0.293 OA
HETATM   19  C   UNK N   1      30.385  17.931   4.892  0.00  0.00     0.041 C 
HETATM   20  C   UNK N   1      31.621  16.992   5.056  0.00  0.00     0.168 C 
HETATM   21  C   UNK N   1      31.082  15.634   5.494  0.00  0.00     0.159 C 
HETATM   22  O   UNK N   1      31.082  15.708   6.893  0.00  0.00    -0.334 OA
HETATM   23  O   UNK N   1      32.440  17.429   6.094  0.00  0.00    -0.347 OA
HETATM   24  C   UNK N   1      32.091  16.646   7.216  0.00  0.00     0.159 C 
HETATM   25  C   UNK N   1      31.589  17.563   8.313  0.00  0.00     0.078 C 
HETATM   26  C   UNK N   1      33.326  15.913   7.713  0.00  0.00     0.078 C 
ENDROOT
BRANCH  21  27
HETATM   27  C   UNK N   1      31.904  14.423   5.074  0.00  0.00     0.178 C 
HETATM   28  O   UNK N   1      31.611  13.310   5.479  0.00  0.00    -0.293 OA
BRANCH  27  29
HETATM   29  C   UNK N   1      33.098  14.580   4.177  0.00  0.00     0.196 C 
HETATM   30 Cl   UNK N   1      32.853  13.804   2.588  0.00  0.00    -0.122 Cl
ENDBRANCH  27  29
ENDBRANCH  21  27
BRANCH  14  31
HETATM   31  O   UNK N   1      26.942  13.984   3.726  0.00  0.00    -0.392 OA
HETATM   32  H   UNK N   1      26.411  14.040   2.915  0.00  0.00     0.210 HD
ENDBRANCH  14  31
TORSDOF 3
ENDMDL
MODEL 9
REMARK VINA RESULT:      -6.6      4.235      7.042
REMARK  3 active torsions:
REMARK  status: ('A' for Active; 'I' for Inactive)
REMARK    1  A    between atoms: C_14  and  O_16 
REMARK    2  A    between atoms: C_22  and  C_23 
REMARK    3  A    between atoms: C_23  and  C_24 
ROOT
HETATM    1  C   UNK N   1      35.001  11.309  12.424  0.00  0.00     0.084 C 
HETATM    2  C   UNK N   1      35.066  12.791  12.687  0.00  0.00     0.149 C 
HETATM    3  C   UNK N   1      35.364  13.294  14.048  0.00  0.00     0.053 C 
HETATM    4  C   UNK N   1      35.811  12.470  15.006  0.00  0.00    -0.065 C 
HETATM    5  C   UNK N   1      36.097  10.998  14.710  0.00  0.00     0.019 C 
HETATM    6  C   UNK N   1      35.010  10.505  13.732  0.00  0.00     0.025 C 
HETATM    7  C   UNK N   1      35.890  12.975  16.415  0.00  0.00     0.036 C 
HETATM    8  C   UNK N   1      35.063  12.111  17.379  0.00  0.00     0.013 C 
HETATM    9  C   UNK N   1      34.931  10.632  16.954  0.00  0.00     0.034 C 
HETATM   10  C   UNK N   1      36.089  10.154  16.035  0.00  0.00     0.144 C 
HETATM   11  C   UNK N   1      34.656   9.693  18.169  0.00  0.00     0.007 C 
HETATM   12  C   UNK N   1      35.409   8.354  18.165  0.00  0.00     0.004 C 
HETATM   13  C   UNK N   1      35.283   7.718  16.790  0.00  0.00     0.048 C 
HETATM   14  C   UNK N   1      35.919   8.626  15.701  0.00  0.00     0.160 C 
HETATM   15  C   UNK N   1      37.454  10.865  14.018  0.00  0.00     0.023 C 
HETATM   16  C   UNK N   1      36.920   8.488  18.474  0.00  0.00     0.019 C 
HETATM   17  F   UNK N   1      37.280  10.383  16.713  0.00  0.00    -0.239 F 
HETATM   18  O   UNK N   1      34.819  13.573  11.791  0.00  0.00    -0.293 OA
HETATM   19  C   UNK N   1      34.825  10.131  19.624  0.00  0.00     0.041 C 
HETATM   20  C   UNK N   1      34.816   8.787  20.417  0.00  0.00     0.168 C 
HETATM   21  C   UNK N   1      34.750   7.670  19.381  0.00  0.00     0.159 C 
HETATM   22  O   UNK N   1      33.377   7.456  19.204  0.00  0.00    -0.334 OA
HETATM   23  O   UNK N   1      33.656   8.669  21.178  0.00  0.00    -0.347 OA
HETATM   24  C   UNK N   1      32.778   7.864  20.420  0.00  0.00     0.159 C 
HETATM   25  C   UNK N   1      31.525   8.660  20.116  0.00  0.00     0.078 C 
HETATM   26  C   UNK N   1      32.398   6.639  21.235  0.00  0.00     0.078 C 
ENDROOT
BRANCH  21  27
HETATM   27  C   UNK N   1      35.399   6.352  19.780  0.00  0.00     0.178 C 
HETATM   28  O   UNK N   1      36.113   6.292  20.768  0.00  0.00    -0.293 OA
BRANCH  27  29
HETATM   29  C   UNK N   1      35.192   5.113  18.956  0.00  0.00     0.196 C 
HETATM   30 Cl   UNK N   1      36.696   4.574  18.160  0.00  0.00    -0.122 Cl
ENDBRANCH  27  29
ENDBRANCH  21  27
BRANCH  14  31
HETATM   31  O   UNK N   1      37.111   8.075  15.227  0.00  0.00    -0.392 OA
HETATM   32  H   UNK N   1      37.593   8.203  14.394  0.00  0.00     0.210 HD
ENDBRANCH  14  31
TORSDOF 3
ENDMDL
