MODEL 1
REMARK VINA RESULT:      -5.3      0.000      0.000
REMARK WARNING: 32 MAX_TORS EXCEEDED!!!
REMARK  36 active torsions:
REMARK  status: ('A' for Active; 'I' for Inactive)
REMARK    1  A    between atoms: C_2  and  C_3 
REMARK    2  A    between atoms: C_3  and  C_4 
REMARK    3  A    between atoms: C_4  and  C_5 
REMARK    4  A    between atoms: C_5  and  C_6 
REMARK    5  A    between atoms: C_6  and  C_7 
REMARK    6  A    between atoms: C_7  and  C_8 
REMARK    7  A    between atoms: C_8  and  C_9 
REMARK    8  A    between atoms: C_9  and  C_10 
REMARK    9  A    between atoms: C_13  and  O_16 
REMARK   10  A    between atoms: O_16  and  C_17 
REMARK   11  A    between atoms: C_17  and  C_18 
REMARK   12  A    between atoms: C_18  and  O_19 
REMARK   13  A    between atoms: O_19  and  C_20 
REMARK   14  A    between atoms: C_20  and  C_21 
REMARK   15  A    between atoms: C_21  and  O_22 
REMARK   16  A    between atoms: O_22  and  C_23 
REMARK   17  A    between atoms: C_23  and  C_24 
REMARK   18  A    between atoms: C_24  and  O_25 
REMARK   19  A    between atoms: O_25  and  C_26 
REMARK   20  A    between atoms: C_26  and  C_27 
REMARK   21  A    between atoms: C_27  and  O_28 
REMARK   22  A    between atoms: O_28  and  C_29 
REMARK   23  A    between atoms: C_29  and  C_30 
REMARK   24  A    between atoms: C_30  and  O_31 
REMARK   25  A    between atoms: O_31  and  C_32 
REMARK   26  A    between atoms: C_32  and  C_33 
REMARK   27  A    between atoms: C_33  and  O_34 
REMARK   28  A    between atoms: O_34  and  C_35 
REMARK   29  A    between atoms: C_35  and  C_36 
REMARK   30  A    between atoms: C_36  and  O_37 
REMARK   31  A    between atoms: O_37  and  C_38 
REMARK   32  A    between atoms: C_38  and  C_39 
REMARK   33  A    between atoms: C_39  and  O_40 
REMARK   34  A    between atoms: O_40  and  C_41 
REMARK   35  A    between atoms: C_41  and  C_42 
REMARK   36  A    between atoms: C_42  and  O_43 
ROOT
HETATM    1  O   UNK N   1      36.721  14.382   9.668  0.00  0.00    -0.387 OA
ENDROOT
BRANCH   1   2
HETATM    2  C   UNK N   1      36.317  13.044   9.613  0.00  0.00     0.193 C 
BRANCH   2   3
HETATM    3  C   UNK N   1      36.300  12.457  11.017  0.00  0.00     0.193 C 
BRANCH   3   4
HETATM    4  O   UNK N   1      37.265  13.088  11.812  0.00  0.00    -0.387 OA
BRANCH   4   5
HETATM    5  C   UNK N   1      36.624  13.382  13.023  0.00  0.00     0.194 C 
BRANCH   5   6
HETATM    6  C   UNK N   1      35.156  12.962  12.993  0.00  0.00     0.201 C 
BRANCH   6   7
HETATM    7  O   UNK N   1      34.533  13.160  14.208  0.00  0.00    -0.349 OA
BRANCH   7   8
HETATM    8  C   UNK N   1      34.688  12.335  15.272  0.00  0.00     0.068 A 
HETATM    9  C   UNK N   1      34.476  10.949  15.169  0.00  0.00     0.037 A 
HETATM   10  C   UNK N   1      34.651  10.118  16.275  0.00  0.00     0.010 A 
HETATM   11  C   UNK N   1      35.060  10.659  17.493  0.00  0.00    -0.058 A 
HETATM   12  C   UNK N   1      35.283  12.039  17.602  0.00  0.00     0.010 A 
HETATM   13  C   UNK N   1      35.081  12.874  16.500  0.00  0.00     0.037 A 
BRANCH  11  14
HETATM   14  C   UNK N   1      35.321   9.753  18.648  0.00  0.00     0.038 C 
BRANCH  14  15
HETATM   15  C   UNK N   1      35.587  10.540  19.919  0.00  0.00     0.005 C 
BRANCH  15  16
HETATM   16  C   UNK N   1      34.310  10.626  20.742  0.00  0.00     0.000 C 
BRANCH  16  17
HETATM   17  C   UNK N   1      33.470   9.356  20.641  0.00  0.00     0.000 C 
BRANCH  17  18
HETATM   18  C   UNK N   1      32.325   9.382  21.640  0.00  0.00     0.000 C 
BRANCH  18  19
HETATM   19  C   UNK N   1      32.755  10.084  22.915  0.00  0.00     0.000 C 
BRANCH  19  20
HETATM   20  C   UNK N   1      32.085   9.428  24.109  0.00  0.00    -0.000 C 
BRANCH  20  21
HETATM   21  C   UNK N   1      31.964  10.419  25.246  0.00  0.00    -0.005 C 
HETATM   22  C   UNK N   1      33.349  10.865  25.664  0.00  0.00     0.005 C 
ENDBRANCH  20  21
ENDBRANCH  19  20
ENDBRANCH  18  19
ENDBRANCH  17  18
ENDBRANCH  16  17
ENDBRANCH  15  16
ENDBRANCH  14  15
ENDBRANCH  11  14
ENDBRANCH   7   8
ENDBRANCH   6   7
ENDBRANCH   5   6
ENDBRANCH   4   5
ENDBRANCH   3   4
ENDBRANCH   2   3
ENDBRANCH   1   2
BRANCH   1  23
HETATM   23  C   UNK N   1      35.550  15.143   9.534  0.00  0.00     0.193 C 
BRANCH  23  24
HETATM   24  C   UNK N   1      35.592  16.366  10.442  0.00  0.00     0.193 C 
BRANCH  24  25
HETATM   25  O   UNK N   1      34.875  17.413   9.858  0.00  0.00    -0.387 OA
BRANCH  25  26
HETATM   26  C   UNK N   1      33.823  16.805   9.178  0.00  0.00     0.193 C 
BRANCH  26  27
HETATM   27  C   UNK N   1      33.171  17.812   8.256  0.00  0.00     0.193 C 
BRANCH  27  28
HETATM   28  O   UNK N   1      32.572  17.144   7.189  0.00  0.00    -0.387 OA
BRANCH  28  29
HETATM   29  C   UNK N   1      31.212  17.404   7.340  0.00  0.00     0.193 C 
BRANCH  29  30
HETATM   30  C   UNK N   1      30.447  16.931   6.112  0.00  0.00     0.193 C 
BRANCH  30  31
HETATM   31  O   UNK N   1      29.249  17.640   6.005  0.00  0.00    -0.387 OA
BRANCH  31  32
HETATM   32  C   UNK N   1      28.256  16.733   6.381  0.00  0.00     0.193 C 
BRANCH  32  33
HETATM   33  C   UNK N   1      27.018  16.942   5.526  0.00  0.00     0.193 C 
BRANCH  33  34
HETATM   34  O   UNK N   1      26.961  18.264   5.083  0.00  0.00    -0.387 OA
BRANCH  34  35
HETATM   35  C   UNK N   1      25.599  18.509   4.901  0.00  0.00     0.193 C 
BRANCH  35  36
HETATM   36  C   UNK N   1      24.951  17.357   4.155  0.00  0.00     0.193 C 
BRANCH  36  37
HETATM   37  O   UNK N   1      23.887  17.831   3.385  0.00  0.00    -0.387 OA
BRANCH  37  38
HETATM   38  C   UNK N   1      23.701  19.157   3.785  0.00  0.00     0.193 C 
BRANCH  38  39
HETATM   39  C   UNK N   1      22.293  19.607   3.429  0.00  0.00     0.193 C 
BRANCH  39  40
HETATM   40  O   UNK N   1      22.334  20.859   2.816  0.00  0.00    -0.387 OA
BRANCH  40  41
HETATM   41  C   UNK N   1      21.040  21.049   2.327  0.00  0.00     0.193 C 
BRANCH  41  42
HETATM   42  C   UNK N   1      20.720  19.982   1.298  0.00  0.00     0.190 C 
BRANCH  42  43
HETATM   43  O   UNK N   1      20.712  20.549   0.025  0.00  0.00    -0.399 OA
HETATM   44  H   UNK N   1      20.356  20.127  -0.772  0.00  0.00     0.209 HD
ENDBRANCH  42  43
ENDBRANCH  41  42
ENDBRANCH  40  41
ENDBRANCH  39  40
ENDBRANCH  38  39
ENDBRANCH  37  38
ENDBRANCH  36  37
ENDBRANCH  35  36
ENDBRANCH  34  35
ENDBRANCH  33  34
ENDBRANCH  32  33
ENDBRANCH  31  32
ENDBRANCH  30  31
ENDBRANCH  29  30
ENDBRANCH  28  29
ENDBRANCH  27  28
ENDBRANCH  26  27
ENDBRANCH  25  26
ENDBRANCH  24  25
ENDBRANCH  23  24
ENDBRANCH   1  23
TORSDOF 36
ENDMDL
MODEL 2
REMARK VINA RESULT:      -5.2      3.145      4.919
REMARK WARNING: 32 MAX_TORS EXCEEDED!!!
REMARK  36 active torsions:
REMARK  status: ('A' for Active; 'I' for Inactive)
REMARK    1  A    between atoms: C_2  and  C_3 
REMARK    2  A    between atoms: C_3  and  C_4 
REMARK    3  A    between atoms: C_4  and  C_5 
REMARK    4  A    between atoms: C_5  and  C_6 
REMARK    5  A    between atoms: C_6  and  C_7 
REMARK    6  A    between atoms: C_7  and  C_8 
REMARK    7  A    between atoms: C_8  and  C_9 
REMARK    8  A    between atoms: C_9  and  C_10 
REMARK    9  A    between atoms: C_13  and  O_16 
REMARK   10  A    between atoms: O_16  and  C_17 
REMARK   11  A    between atoms: C_17  and  C_18 
REMARK   12  A    between atoms: C_18  and  O_19 
REMARK   13  A    between atoms: O_19  and  C_20 
REMARK   14  A    between atoms: C_20  and  C_21 
REMARK   15  A    between atoms: C_21  and  O_22 
REMARK   16  A    between atoms: O_22  and  C_23 
REMARK   17  A    between atoms: C_23  and  C_24 
REMARK   18  A    between atoms: C_24  and  O_25 
REMARK   19  A    between atoms: O_25  and  C_26 
REMARK   20  A    between atoms: C_26  and  C_27 
REMARK   21  A    between atoms: C_27  and  O_28 
REMARK   22  A    between atoms: O_28  and  C_29 
REMARK   23  A    between atoms: C_29  and  C_30 
REMARK   24  A    between atoms: C_30  and  O_31 
REMARK   25  A    between atoms: O_31  and  C_32 
REMARK   26  A    between atoms: C_32  and  C_33 
REMARK   27  A    between atoms: C_33  and  O_34 
REMARK   28  A    between atoms: O_34  and  C_35 
REMARK   29  A    between atoms: C_35  and  C_36 
REMARK   30  A    between atoms: C_36  and  O_37 
REMARK   31  A    between atoms: O_37  and  C_38 
REMARK   32  A    between atoms: C_38  and  C_39 
REMARK   33  A    between atoms: C_39  and  O_40 
REMARK   34  A    between atoms: O_40  and  C_41 
REMARK   35  A    between atoms: C_41  and  C_42 
REMARK   36  A    between atoms: C_42  and  O_43 
ROOT
HETATM    1  O   UNK N   1      34.337  14.045   8.292  0.00  0.00    -0.387 OA
ENDROOT
BRANCH   1   2
HETATM    2  C   UNK N   1      34.598  14.071   9.666  0.00  0.00     0.193 C 
BRANCH   2   3
HETATM    3  C   UNK N   1      35.743  15.032   9.950  0.00  0.00     0.193 C 
BRANCH   3   4
HETATM    4  O   UNK N   1      36.435  14.629  11.098  0.00  0.00    -0.387 OA
BRANCH   4   5
HETATM    5  C   UNK N   1      35.451  14.360  12.059  0.00  0.00     0.194 C 
BRANCH   5   6
HETATM    6  C   UNK N   1      36.051  13.717  13.308  0.00  0.00     0.201 C 
BRANCH   6   7
HETATM    7  O   UNK N   1      35.143  13.642  14.343  0.00  0.00    -0.349 OA
BRANCH   7   8
HETATM    8  C   UNK N   1      35.299  12.832  15.418  0.00  0.00     0.068 A 
HETATM    9  C   UNK N   1      35.830  11.536  15.296  0.00  0.00     0.037 A 
HETATM   10  C   UNK N   1      35.990  10.723  16.418  0.00  0.00     0.010 A 
HETATM   11  C   UNK N   1      35.640  11.203  17.679  0.00  0.00    -0.058 A 
HETATM   12  C   UNK N   1      35.119  12.499  17.811  0.00  0.00     0.010 A 
HETATM   13  C   UNK N   1      34.933  13.301  16.683  0.00  0.00     0.037 A 
BRANCH  11  14
HETATM   14  C   UNK N   1      35.889  10.357  18.881  0.00  0.00     0.038 C 
BRANCH  14  15
HETATM   15  C   UNK N   1      34.587   9.880  19.501  0.00  0.00     0.005 C 
BRANCH  15  16
HETATM   16  C   UNK N   1      34.489  10.385  20.934  0.00  0.00     0.000 C 
BRANCH  16  17
HETATM   17  C   UNK N   1      33.149  10.043  21.576  0.00  0.00     0.000 C 
BRANCH  17  18
HETATM   18  C   UNK N   1      32.537   8.809  20.934  0.00  0.00     0.000 C 
BRANCH  18  19
HETATM   19  C   UNK N   1      31.757   8.013  21.964  0.00  0.00     0.000 C 
BRANCH  19  20
HETATM   20  C   UNK N   1      31.124   6.803  21.301  0.00  0.00    -0.000 C 
BRANCH  20  21
HETATM   21  C   UNK N   1      31.114   6.980  19.799  0.00  0.00    -0.005 C 
HETATM   22  C   UNK N   1      31.550   5.685  19.144  0.00  0.00     0.005 C 
ENDBRANCH  20  21
ENDBRANCH  19  20
ENDBRANCH  18  19
ENDBRANCH  17  18
ENDBRANCH  16  17
ENDBRANCH  15  16
ENDBRANCH  14  15
ENDBRANCH  11  14
ENDBRANCH   7   8
ENDBRANCH   6   7
ENDBRANCH   5   6
ENDBRANCH   4   5
ENDBRANCH   3   4
ENDBRANCH   2   3
ENDBRANCH   1   2
BRANCH   1  23
HETATM   23  C   UNK N   1      35.510  14.498   7.670  0.00  0.00     0.193 C 
BRANCH  23  24
HETATM   24  C   UNK N   1      35.181  15.381   6.472  0.00  0.00     0.193 C 
BRANCH  24  25
HETATM   25  O   UNK N   1      34.884  16.675   6.906  0.00  0.00    -0.387 OA
BRANCH  25  26
HETATM   26  C   UNK N   1      33.753  17.054   6.186  0.00  0.00     0.193 C 
BRANCH  26  27
HETATM   27  C   UNK N   1      32.679  17.517   7.146  0.00  0.00     0.193 C 
BRANCH  27  28
HETATM   28  O   UNK N   1      32.104  16.409   7.768  0.00  0.00    -0.387 OA
BRANCH  28  29
HETATM   29  C   UNK N   1      31.166  16.954   8.642  0.00  0.00     0.193 C 
BRANCH  29  30
HETATM   30  C   UNK N   1      29.933  17.406   7.872  0.00  0.00     0.193 C 
BRANCH  30  31
HETATM   31  O   UNK N   1      29.561  18.685   8.293  0.00  0.00    -0.387 OA
BRANCH  31  32
HETATM   32  C   UNK N   1      28.172  18.726   8.144  0.00  0.00     0.193 C 
BRANCH  32  33
HETATM   33  C   UNK N   1      27.803  19.702   7.040  0.00  0.00     0.193 C 
BRANCH  33  34
HETATM   34  O   UNK N   1      27.046  19.055   6.063  0.00  0.00    -0.387 OA
BRANCH  34  35
HETATM   35  C   UNK N   1      27.726  19.312   4.872  0.00  0.00     0.193 C 
BRANCH  35  36
HETATM   36  C   UNK N   1      28.570  18.114   4.476  0.00  0.00     0.193 C 
BRANCH  36  37
HETATM   37  O   UNK N   1      27.931  16.936   4.868  0.00  0.00    -0.387 OA
BRANCH  37  38
HETATM   38  C   UNK N   1      28.862  15.917   4.648  0.00  0.00     0.193 C 
BRANCH  38  39
HETATM   39  C   UNK N   1      30.072  16.477   3.917  0.00  0.00     0.193 C 
BRANCH  39  40
HETATM   40  O   UNK N   1      31.214  15.756   4.262  0.00  0.00    -0.387 OA
BRANCH  40  41
HETATM   41  C   UNK N   1      30.726  14.611   4.895  0.00  0.00     0.193 C 
BRANCH  41  42
HETATM   42  C   UNK N   1      31.882  13.800   5.448  0.00  0.00     0.190 C 
BRANCH  42  43
HETATM   43  O   UNK N   1      31.858  13.845   6.841  0.00  0.00    -0.399 OA
HETATM   44  H   UNK N   1      31.357  14.484   7.371  0.00  0.00     0.209 HD
ENDBRANCH  42  43
ENDBRANCH  41  42
ENDBRANCH  40  41
ENDBRANCH  39  40
ENDBRANCH  38  39
ENDBRANCH  37  38
ENDBRANCH  36  37
ENDBRANCH  35  36
ENDBRANCH  34  35
ENDBRANCH  33  34
ENDBRANCH  32  33
ENDBRANCH  31  32
ENDBRANCH  30  31
ENDBRANCH  29  30
ENDBRANCH  28  29
ENDBRANCH  27  28
ENDBRANCH  26  27
ENDBRANCH  25  26
ENDBRANCH  24  25
ENDBRANCH  23  24
ENDBRANCH   1  23
TORSDOF 36
ENDMDL
MODEL 3
REMARK VINA RESULT:      -5.1      8.955     14.200
REMARK WARNING: 32 MAX_TORS EXCEEDED!!!
REMARK  36 active torsions:
REMARK  status: ('A' for Active; 'I' for Inactive)
REMARK    1  A    between atoms: C_2  and  C_3 
REMARK    2  A    between atoms: C_3  and  C_4 
REMARK    3  A    between atoms: C_4  and  C_5 
REMARK    4  A    between atoms: C_5  and  C_6 
REMARK    5  A    between atoms: C_6  and  C_7 
REMARK    6  A    between atoms: C_7  and  C_8 
REMARK    7  A    between atoms: C_8  and  C_9 
REMARK    8  A    between atoms: C_9  and  C_10 
REMARK    9  A    between atoms: C_13  and  O_16 
REMARK   10  A    between atoms: O_16  and  C_17 
REMARK   11  A    between atoms: C_17  and  C_18 
REMARK   12  A    between atoms: C_18  and  O_19 
REMARK   13  A    between atoms: O_19  and  C_20 
REMARK   14  A    between atoms: C_20  and  C_21 
REMARK   15  A    between atoms: C_21  and  O_22 
REMARK   16  A    between atoms: O_22  and  C_23 
REMARK   17  A    between atoms: C_23  and  C_24 
REMARK   18  A    between atoms: C_24  and  O_25 
REMARK   19  A    between atoms: O_25  and  C_26 
REMARK   20  A    between atoms: C_26  and  C_27 
REMARK   21  A    between atoms: C_27  and  O_28 
REMARK   22  A    between atoms: O_28  and  C_29 
REMARK   23  A    between atoms: C_29  and  C_30 
REMARK   24  A    between atoms: C_30  and  O_31 
REMARK   25  A    between atoms: O_31  and  C_32 
REMARK   26  A    between atoms: C_32  and  C_33 
REMARK   27  A    between atoms: C_33  and  O_34 
REMARK   28  A    between atoms: O_34  and  C_35 
REMARK   29  A    between atoms: C_35  and  C_36 
REMARK   30  A    between atoms: C_36  and  O_37 
REMARK   31  A    between atoms: O_37  and  C_38 
REMARK   32  A    between atoms: C_38  and  C_39 
REMARK   33  A    between atoms: C_39  and  O_40 
REMARK   34  A    between atoms: O_40  and  C_41 
REMARK   35  A    between atoms: C_41  and  C_42 
REMARK   36  A    between atoms: C_42  and  O_43 
ROOT
HETATM    1  O   UNK N   1      21.695  17.135   5.821  0.00  0.00    -0.387 OA
ENDROOT
BRANCH   1   2
HETATM    2  C   UNK N   1      22.447  18.193   5.301  0.00  0.00     0.193 C 
BRANCH   2   3
HETATM    3  C   UNK N   1      21.954  18.530   3.901  0.00  0.00     0.193 C 
BRANCH   3   4
HETATM    4  O   UNK N   1      21.814  19.916   3.762  0.00  0.00    -0.387 OA
BRANCH   4   5
HETATM    5  C   UNK N   1      22.464  20.244   2.565  0.00  0.00     0.194 C 
BRANCH   5   6
HETATM    6  C   UNK N   1      23.809  20.920   2.828  0.00  0.00     0.201 C 
BRANCH   6   7
HETATM    7  O   UNK N   1      24.872  20.076   2.585  0.00  0.00    -0.349 OA
BRANCH   7   8
HETATM    8  C   UNK N   1      25.731  19.658   3.546  0.00  0.00     0.068 A 
HETATM    9  C   UNK N   1      25.906  18.294   3.838  0.00  0.00     0.037 A 
HETATM   10  C   UNK N   1      26.803  17.887   4.826  0.00  0.00     0.010 A 
HETATM   11  C   UNK N   1      27.552  18.837   5.519  0.00  0.00    -0.058 A 
HETATM   12  C   UNK N   1      27.391  20.199   5.226  0.00  0.00     0.010 A 
HETATM   13  C   UNK N   1      26.472  20.607   4.256  0.00  0.00     0.037 A 
BRANCH  11  14
HETATM   14  C   UNK N   1      28.565  18.388   6.515  0.00  0.00     0.038 C 
BRANCH  14  15
HETATM   15  C   UNK N   1      28.254  18.924   7.902  0.00  0.00     0.005 C 
BRANCH  15  16
HETATM   16  C   UNK N   1      28.902  18.031   8.951  0.00  0.00     0.000 C 
BRANCH  16  17
HETATM   17  C   UNK N   1      30.419  18.186   8.984  0.00  0.00     0.000 C 
BRANCH  17  18
HETATM   18  C   UNK N   1      31.106  16.851   8.746  0.00  0.00     0.000 C 
BRANCH  18  19
HETATM   19  C   UNK N   1      31.649  16.785   7.330  0.00  0.00     0.000 C 
BRANCH  19  20
HETATM   20  C   UNK N   1      33.123  16.423   7.365  0.00  0.00    -0.000 C 
BRANCH  20  21
HETATM   21  C   UNK N   1      33.960  17.609   6.942  0.00  0.00    -0.005 C 
HETATM   22  C   UNK N   1      34.470  18.322   8.177  0.00  0.00     0.005 C 
ENDBRANCH  20  21
ENDBRANCH  19  20
ENDBRANCH  18  19
ENDBRANCH  17  18
ENDBRANCH  16  17
ENDBRANCH  15  16
ENDBRANCH  14  15
ENDBRANCH  11  14
ENDBRANCH   7   8
ENDBRANCH   6   7
ENDBRANCH   5   6
ENDBRANCH   4   5
ENDBRANCH   3   4
ENDBRANCH   2   3
ENDBRANCH   1   2
BRANCH   1  23
HETATM   23  C   UNK N   1      20.746  17.720   6.673  0.00  0.00     0.193 C 
BRANCH  23  24
HETATM   24  C   UNK N   1      19.907  16.651   7.363  0.00  0.00     0.193 C 
BRANCH  24  25
HETATM   25  O   UNK N   1      20.743  15.745   8.020  0.00  0.00    -0.387 OA
BRANCH  25  26
HETATM   26  C   UNK N   1      20.022  15.321   9.135  0.00  0.00     0.193 C 
BRANCH  26  27
HETATM   27  C   UNK N   1      20.650  14.061   9.690  0.00  0.00     0.193 C 
BRANCH  27  28
HETATM   28  O   UNK N   1      21.682  13.647   8.846  0.00  0.00    -0.387 OA
BRANCH  28  29
HETATM   29  C   UNK N   1      21.359  12.330   8.529  0.00  0.00     0.193 C 
BRANCH  29  30
HETATM   30  C   UNK N   1      21.333  12.147   7.018  0.00  0.00     0.193 C 
BRANCH  30  31
HETATM   31  O   UNK N   1      20.316  12.932   6.469  0.00  0.00    -0.387 OA
BRANCH  31  32
HETATM   32  C   UNK N   1      20.784  13.297   5.204  0.00  0.00     0.193 C 
BRANCH  32  33
HETATM   33  C   UNK N   1      22.300  13.206   5.171  0.00  0.00     0.193 C 
BRANCH  33  34
HETATM   34  O   UNK N   1      22.832  14.323   4.527  0.00  0.00    -0.387 OA
BRANCH  34  35
HETATM   35  C   UNK N   1      24.068  13.889   4.046  0.00  0.00     0.193 C 
BRANCH  35  36
HETATM   36  C   UNK N   1      25.120  13.980   5.136  0.00  0.00     0.193 C 
BRANCH  36  37
HETATM   37  O   UNK N   1      25.069  15.238   5.739  0.00  0.00    -0.387 OA
BRANCH  37  38
HETATM   38  C   UNK N   1      25.558  15.049   7.034  0.00  0.00     0.193 C 
BRANCH  38  39
HETATM   39  C   UNK N   1      25.278  13.625   7.486  0.00  0.00     0.193 C 
BRANCH  39  40
HETATM   40  O   UNK N   1      24.522  13.636   8.658  0.00  0.00    -0.387 OA
BRANCH  40  41
HETATM   41  C   UNK N   1      25.279  12.896   9.568  0.00  0.00     0.193 C 
BRANCH  41  42
HETATM   42  C   UNK N   1      24.381  12.368  10.670  0.00  0.00     0.190 C 
BRANCH  42  43
HETATM   43  O   UNK N   1      25.076  12.367  11.878  0.00  0.00    -0.399 OA
HETATM   44  H   UNK N   1      25.205  13.141  12.448  0.00  0.00     0.209 HD
ENDBRANCH  42  43
ENDBRANCH  41  42
ENDBRANCH  40  41
ENDBRANCH  39  40
ENDBRANCH  38  39
ENDBRANCH  37  38
ENDBRANCH  36  37
ENDBRANCH  35  36
ENDBRANCH  34  35
ENDBRANCH  33  34
ENDBRANCH  32  33
ENDBRANCH  31  32
ENDBRANCH  30  31
ENDBRANCH  29  30
ENDBRANCH  28  29
ENDBRANCH  27  28
ENDBRANCH  26  27
ENDBRANCH  25  26
ENDBRANCH  24  25
ENDBRANCH  23  24
ENDBRANCH   1  23
TORSDOF 36
ENDMDL
MODEL 4
REMARK VINA RESULT:      -5.0      3.836      5.993
REMARK WARNING: 32 MAX_TORS EXCEEDED!!!
REMARK  36 active torsions:
REMARK  status: ('A' for Active; 'I' for Inactive)
REMARK    1  A    between atoms: C_2  and  C_3 
REMARK    2  A    between atoms: C_3  and  C_4 
REMARK    3  A    between atoms: C_4  and  C_5 
REMARK    4  A    between atoms: C_5  and  C_6 
REMARK    5  A    between atoms: C_6  and  C_7 
REMARK    6  A    between atoms: C_7  and  C_8 
REMARK    7  A    between atoms: C_8  and  C_9 
REMARK    8  A    between atoms: C_9  and  C_10 
REMARK    9  A    between atoms: C_13  and  O_16 
REMARK   10  A    between atoms: O_16  and  C_17 
REMARK   11  A    between atoms: C_17  and  C_18 
REMARK   12  A    between atoms: C_18  and  O_19 
REMARK   13  A    between atoms: O_19  and  C_20 
REMARK   14  A    between atoms: C_20  and  C_21 
REMARK   15  A    between atoms: C_21  and  O_22 
REMARK   16  A    between atoms: O_22  and  C_23 
REMARK   17  A    between atoms: C_23  and  C_24 
REMARK   18  A    between atoms: C_24  and  O_25 
REMARK   19  A    between atoms: O_25  and  C_26 
REMARK   20  A    between atoms: C_26  and  C_27 
REMARK   21  A    between atoms: C_27  and  O_28 
REMARK   22  A    between atoms: O_28  and  C_29 
REMARK   23  A    between atoms: C_29  and  C_30 
REMARK   24  A    between atoms: C_30  and  O_31 
REMARK   25  A    between atoms: O_31  and  C_32 
REMARK   26  A    between atoms: C_32  and  C_33 
REMARK   27  A    between atoms: C_33  and  O_34 
REMARK   28  A    between atoms: O_34  and  C_35 
REMARK   29  A    between atoms: C_35  and  C_36 
REMARK   30  A    between atoms: C_36  and  O_37 
REMARK   31  A    between atoms: O_37  and  C_38 
REMARK   32  A    between atoms: C_38  and  C_39 
REMARK   33  A    between atoms: C_39  and  O_40 
REMARK   34  A    between atoms: O_40  and  C_41 
REMARK   35  A    between atoms: C_41  and  C_42 
REMARK   36  A    between atoms: C_42  and  O_43 
ROOT
HETATM    1  O   UNK N   1      35.294  17.857   9.423  0.00  0.00    -0.387 OA
ENDROOT
BRANCH   1   2
HETATM    2  C   UNK N   1      34.367  16.814   9.518  0.00  0.00     0.193 C 
BRANCH   2   3
HETATM    3  C   UNK N   1      35.085  15.525   9.889  0.00  0.00     0.193 C 
BRANCH   3   4
HETATM    4  O   UNK N   1      36.413  15.798  10.239  0.00  0.00    -0.387 OA
BRANCH   4   5
HETATM    5  C   UNK N   1      37.115  14.605  10.025  0.00  0.00     0.194 C 
BRANCH   5   6
HETATM    6  C   UNK N   1      36.179  13.477   9.595  0.00  0.00     0.201 C 
BRANCH   6   7
HETATM    7  O   UNK N   1      36.691  12.232   9.897  0.00  0.00    -0.349 OA
BRANCH   7   8
HETATM    8  C   UNK N   1      36.358  11.537  11.012  0.00  0.00     0.068 A 
HETATM    9  C   UNK N   1      35.041  11.108  11.250  0.00  0.00     0.037 A 
HETATM   10  C   UNK N   1      34.724  10.385  12.400  0.00  0.00     0.010 A 
HETATM   11  C   UNK N   1      35.725  10.065  13.317  0.00  0.00    -0.058 A 
HETATM   12  C   UNK N   1      37.043  10.480  13.082  0.00  0.00     0.010 A 
HETATM   13  C   UNK N   1      37.354  11.228  11.943  0.00  0.00     0.037 A 
BRANCH  11  14
HETATM   14  C   UNK N   1      35.392   9.225  14.503  0.00  0.00     0.038 C 
BRANCH  14  15
HETATM   15  C   UNK N   1      34.571  10.000  15.518  0.00  0.00     0.005 C 
BRANCH  15  16
HETATM   16  C   UNK N   1      35.223   9.894  16.889  0.00  0.00     0.000 C 
BRANCH  16  17
HETATM   17  C   UNK N   1      36.035  11.136  17.240  0.00  0.00     0.000 C 
BRANCH  17  18
HETATM   18  C   UNK N   1      35.124  12.288  17.633  0.00  0.00     0.000 C 
BRANCH  18  19
HETATM   19  C   UNK N   1      35.545  13.558  16.916  0.00  0.00     0.000 C 
BRANCH  19  20
HETATM   20  C   UNK N   1      36.299  13.203  15.648  0.00  0.00    -0.000 C 
BRANCH  20  21
HETATM   21  C   UNK N   1      35.439  13.486  14.436  0.00  0.00    -0.005 C 
HETATM   22  C   UNK N   1      36.205  14.379  13.482  0.00  0.00     0.005 C 
ENDBRANCH  20  21
ENDBRANCH  19  20
ENDBRANCH  18  19
ENDBRANCH  17  18
ENDBRANCH  16  17
ENDBRANCH  15  16
ENDBRANCH  14  15
ENDBRANCH  11  14
ENDBRANCH   7   8
ENDBRANCH   6   7
ENDBRANCH   5   6
ENDBRANCH   4   5
ENDBRANCH   3   4
ENDBRANCH   2   3
ENDBRANCH   1   2
BRANCH   1  23
HETATM   23  C   UNK N   1      34.889  18.632   8.326  0.00  0.00     0.193 C 
BRANCH  23  24
HETATM   24  C   UNK N   1      33.730  17.968   7.592  0.00  0.00     0.193 C 
BRANCH  24  25
HETATM   25  O   UNK N   1      34.030  17.860   6.232  0.00  0.00    -0.387 OA
BRANCH  25  26
HETATM   26  C   UNK N   1      33.004  17.090   5.689  0.00  0.00     0.193 C 
BRANCH  26  27
HETATM   27  C   UNK N   1      32.508  17.741   4.416  0.00  0.00     0.193 C 
BRANCH  27  28
HETATM   28  O   UNK N   1      31.708  16.838   3.716  0.00  0.00    -0.387 OA
BRANCH  28  29
HETATM   29  C   UNK N   1      31.030  16.136   4.710  0.00  0.00     0.193 C 
BRANCH  29  30
HETATM   30  C   UNK N   1      29.682  16.788   4.986  0.00  0.00     0.193 C 
BRANCH  30  31
HETATM   31  O   UNK N   1      28.699  16.178   4.204  0.00  0.00    -0.387 OA
BRANCH  31  32
HETATM   32  C   UNK N   1      27.504  16.801   4.574  0.00  0.00     0.193 C 
BRANCH  32  33
HETATM   33  C   UNK N   1      26.385  16.357   3.647  0.00  0.00     0.193 C 
BRANCH  33  34
HETATM   34  O   UNK N   1      25.165  16.386   4.323  0.00  0.00    -0.387 OA
BRANCH  34  35
HETATM   35  C   UNK N   1      25.129  15.179   5.022  0.00  0.00     0.193 C 
BRANCH  35  36
HETATM   36  C   UNK N   1      24.363  15.344   6.323  0.00  0.00     0.193 C 
BRANCH  36  37
HETATM   37  O   UNK N   1      23.802  14.122   6.699  0.00  0.00    -0.387 OA
BRANCH  37  38
HETATM   38  C   UNK N   1      24.475  13.748   7.866  0.00  0.00     0.193 C 
BRANCH  38  39
HETATM   39  C   UNK N   1      23.625  12.767   8.656  0.00  0.00     0.193 C 
BRANCH  39  40
HETATM   40  O   UNK N   1      23.141  13.379   9.812  0.00  0.00    -0.387 OA
BRANCH  40  41
HETATM   41  C   UNK N   1      21.858  12.852   9.975  0.00  0.00     0.193 C 
BRANCH  41  42
HETATM   42  C   UNK N   1      20.831  13.960   9.846  0.00  0.00     0.190 C 
BRANCH  42  43
HETATM   43  O   UNK N   1      20.207  13.875   8.602  0.00  0.00    -0.399 OA
HETATM   44  H   UNK N   1      20.077  14.616   7.991  0.00  0.00     0.209 HD
ENDBRANCH  42  43
ENDBRANCH  41  42
ENDBRANCH  40  41
ENDBRANCH  39  40
ENDBRANCH  38  39
ENDBRANCH  37  38
ENDBRANCH  36  37
ENDBRANCH  35  36
ENDBRANCH  34  35
ENDBRANCH  33  34
ENDBRANCH  32  33
ENDBRANCH  31  32
ENDBRANCH  30  31
ENDBRANCH  29  30
ENDBRANCH  28  29
ENDBRANCH  27  28
ENDBRANCH  26  27
ENDBRANCH  25  26
ENDBRANCH  24  25
ENDBRANCH  23  24
ENDBRANCH   1  23
TORSDOF 36
ENDMDL
MODEL 5
REMARK VINA RESULT:      -5.0      8.845     12.304
REMARK WARNING: 32 MAX_TORS EXCEEDED!!!
REMARK  36 active torsions:
REMARK  status: ('A' for Active; 'I' for Inactive)
REMARK    1  A    between atoms: C_2  and  C_3 
REMARK    2  A    between atoms: C_3  and  C_4 
REMARK    3  A    between atoms: C_4  and  C_5 
REMARK    4  A    between atoms: C_5  and  C_6 
REMARK    5  A    between atoms: C_6  and  C_7 
REMARK    6  A    between atoms: C_7  and  C_8 
REMARK    7  A    between atoms: C_8  and  C_9 
REMARK    8  A    between atoms: C_9  and  C_10 
REMARK    9  A    between atoms: C_13  and  O_16 
REMARK   10  A    between atoms: O_16  and  C_17 
REMARK   11  A    between atoms: C_17  and  C_18 
REMARK   12  A    between atoms: C_18  and  O_19 
REMARK   13  A    between atoms: O_19  and  C_20 
REMARK   14  A    between atoms: C_20  and  C_21 
REMARK   15  A    between atoms: C_21  and  O_22 
REMARK   16  A    between atoms: O_22  and  C_23 
REMARK   17  A    between atoms: C_23  and  C_24 
REMARK   18  A    between atoms: C_24  and  O_25 
REMARK   19  A    between atoms: O_25  and  C_26 
REMARK   20  A    between atoms: C_26  and  C_27 
REMARK   21  A    between atoms: C_27  and  O_28 
REMARK   22  A    between atoms: O_28  and  C_29 
REMARK   23  A    between atoms: C_29  and  C_30 
REMARK   24  A    between atoms: C_30  and  O_31 
REMARK   25  A    between atoms: O_31  and  C_32 
REMARK   26  A    between atoms: C_32  and  C_33 
REMARK   27  A    between atoms: C_33  and  O_34 
REMARK   28  A    between atoms: O_34  and  C_35 
REMARK   29  A    between atoms: C_35  and  C_36 
REMARK   30  A    between atoms: C_36  and  O_37 
REMARK   31  A    between atoms: O_37  and  C_38 
REMARK   32  A    between atoms: C_38  and  C_39 
REMARK   33  A    between atoms: C_39  and  O_40 
REMARK   34  A    between atoms: O_40  and  C_41 
REMARK   35  A    between atoms: C_41  and  C_42 
REMARK   36  A    between atoms: C_42  and  O_43 
ROOT
HETATM    1  O   UNK N   1      23.899  13.749   3.880  0.00  0.00    -0.387 OA
ENDROOT
BRANCH   1   2
HETATM    2  C   UNK N   1      24.170  14.458   2.705  0.00  0.00     0.193 C 
BRANCH   2   3
HETATM    3  C   UNK N   1      25.556  14.090   2.195  0.00  0.00     0.193 C 
BRANCH   3   4
HETATM    4  O   UNK N   1      26.376  13.709   3.265  0.00  0.00    -0.387 OA
BRANCH   4   5
HETATM    5  C   UNK N   1      27.691  13.875   2.812  0.00  0.00     0.194 C 
BRANCH   5   6
HETATM    6  C   UNK N   1      27.980  15.334   2.462  0.00  0.00     0.201 C 
BRANCH   6   7
HETATM    7  O   UNK N   1      29.248  15.720   2.846  0.00  0.00    -0.349 OA
BRANCH   7   8
HETATM    8  C   UNK N   1      29.589  16.001   4.128  0.00  0.00     0.068 A 
HETATM    9  C   UNK N   1      29.272  17.234   4.723  0.00  0.00     0.037 A 
HETATM   10  C   UNK N   1      29.625  17.497   6.046  0.00  0.00     0.010 A 
HETATM   11  C   UNK N   1      30.280  16.523   6.798  0.00  0.00    -0.058 A 
HETATM   12  C   UNK N   1      30.590  15.285   6.214  0.00  0.00     0.010 A 
HETATM   13  C   UNK N   1      30.261  15.034   4.880  0.00  0.00     0.037 A 
BRANCH  11  14
HETATM   14  C   UNK N   1      30.582  16.783   8.234  0.00  0.00     0.038 C 
BRANCH  14  15
HETATM   15  C   UNK N   1      31.265  18.126   8.422  0.00  0.00     0.005 C 
BRANCH  15  16
HETATM   16  C   UNK N   1      32.752  17.987   8.125  0.00  0.00     0.000 C 
BRANCH  16  17
HETATM   17  C   UNK N   1      33.332  16.688   8.677  0.00  0.00     0.000 C 
BRANCH  17  18
HETATM   18  C   UNK N   1      34.247  16.027   7.659  0.00  0.00     0.000 C 
BRANCH  18  19
HETATM   19  C   UNK N   1      34.164  16.753   6.328  0.00  0.00     0.000 C 
BRANCH  19  20
HETATM   20  C   UNK N   1      34.175  15.744   5.195  0.00  0.00    -0.000 C 
BRANCH  20  21
HETATM   21  C   UNK N   1      33.411  16.288   4.008  0.00  0.00    -0.005 C 
HETATM   22  C   UNK N   1      32.902  17.675   4.339  0.00  0.00     0.005 C 
ENDBRANCH  20  21
ENDBRANCH  19  20
ENDBRANCH  18  19
ENDBRANCH  17  18
ENDBRANCH  16  17
ENDBRANCH  15  16
ENDBRANCH  14  15
ENDBRANCH  11  14
ENDBRANCH   7   8
ENDBRANCH   6   7
ENDBRANCH   5   6
ENDBRANCH   4   5
ENDBRANCH   3   4
ENDBRANCH   2   3
ENDBRANCH   1   2
BRANCH   1  23
HETATM   23  C   UNK N   1      23.385  14.688   4.786  0.00  0.00     0.193 C 
BRANCH  23  24
HETATM   24  C   UNK N   1      23.666  16.109   4.310  0.00  0.00     0.193 C 
BRANCH  24  25
HETATM   25  O   UNK N   1      23.515  17.002   5.373  0.00  0.00    -0.387 OA
BRANCH  25  26
HETATM   26  C   UNK N   1      24.425  18.028   5.124  0.00  0.00     0.193 C 
BRANCH  26  27
HETATM   27  C   UNK N   1      25.470  17.544   4.142  0.00  0.00     0.193 C 
BRANCH  27  28
HETATM   28  O   UNK N   1      26.084  18.643   3.541  0.00  0.00    -0.387 OA
BRANCH  28  29
HETATM   29  C   UNK N   1      25.213  19.701   3.788  0.00  0.00     0.193 C 
BRANCH  29  30
HETATM   30  C   UNK N   1      25.284  20.714   2.653  0.00  0.00     0.193 C 
BRANCH  30  31
HETATM   31  O   UNK N   1      24.073  20.720   1.956  0.00  0.00    -0.387 OA
BRANCH  31  32
HETATM   32  C   UNK N   1      23.111  20.344   2.896  0.00  0.00     0.193 C 
BRANCH  32  33
HETATM   33  C   UNK N   1      21.767  20.945   2.524  0.00  0.00     0.193 C 
BRANCH  33  34
HETATM   34  O   UNK N   1      20.989  19.998   1.856  0.00  0.00    -0.387 OA
BRANCH  34  35
HETATM   35  C   UNK N   1      19.927  19.747   2.726  0.00  0.00     0.193 C 
BRANCH  35  36
HETATM   36  C   UNK N   1      19.519  18.287   2.654  0.00  0.00     0.193 C 
BRANCH  36  37
HETATM   37  O   UNK N   1      20.651  17.475   2.742  0.00  0.00    -0.387 OA
BRANCH  37  38
HETATM   38  C   UNK N   1      20.227  16.315   3.396  0.00  0.00     0.193 C 
BRANCH  38  39
HETATM   39  C   UNK N   1      20.407  15.115   2.481  0.00  0.00     0.193 C 
BRANCH  39  40
HETATM   40  O   UNK N   1      19.537  14.093   2.859  0.00  0.00    -0.387 OA
BRANCH  40  41
HETATM   41  C   UNK N   1      19.205  14.388   4.182  0.00  0.00     0.193 C 
BRANCH  41  42
HETATM   42  C   UNK N   1      19.644  13.251   5.085  0.00  0.00     0.190 C 
BRANCH  42  43
HETATM   43  O   UNK N   1      19.968  13.753   6.344  0.00  0.00    -0.399 OA
HETATM   44  H   UNK N   1      20.398  14.606   6.511  0.00  0.00     0.209 HD
ENDBRANCH  42  43
ENDBRANCH  41  42
ENDBRANCH  40  41
ENDBRANCH  39  40
ENDBRANCH  38  39
ENDBRANCH  37  38
ENDBRANCH  36  37
ENDBRANCH  35  36
ENDBRANCH  34  35
ENDBRANCH  33  34
ENDBRANCH  32  33
ENDBRANCH  31  32
ENDBRANCH  30  31
ENDBRANCH  29  30
ENDBRANCH  28  29
ENDBRANCH  27  28
ENDBRANCH  26  27
ENDBRANCH  25  26
ENDBRANCH  24  25
ENDBRANCH  23  24
ENDBRANCH   1  23
TORSDOF 36
ENDMDL
MODEL 6
REMARK VINA RESULT:      -5.0      9.377     12.835
REMARK WARNING: 32 MAX_TORS EXCEEDED!!!
REMARK  36 active torsions:
REMARK  status: ('A' for Active; 'I' for Inactive)
REMARK    1  A    between atoms: C_2  and  C_3 
REMARK    2  A    between atoms: C_3  and  C_4 
REMARK    3  A    between atoms: C_4  and  C_5 
REMARK    4  A    between atoms: C_5  and  C_6 
REMARK    5  A    between atoms: C_6  and  C_7 
REMARK    6  A    between atoms: C_7  and  C_8 
REMARK    7  A    between atoms: C_8  and  C_9 
REMARK    8  A    between atoms: C_9  and  C_10 
REMARK    9  A    between atoms: C_13  and  O_16 
REMARK   10  A    between atoms: O_16  and  C_17 
REMARK   11  A    between atoms: C_17  and  C_18 
REMARK   12  A    between atoms: C_18  and  O_19 
REMARK   13  A    between atoms: O_19  and  C_20 
REMARK   14  A    between atoms: C_20  and  C_21 
REMARK   15  A    between atoms: C_21  and  O_22 
REMARK   16  A    between atoms: O_22  and  C_23 
REMARK   17  A    between atoms: C_23  and  C_24 
REMARK   18  A    between atoms: C_24  and  O_25 
REMARK   19  A    between atoms: O_25  and  C_26 
REMARK   20  A    between atoms: C_26  and  C_27 
REMARK   21  A    between atoms: C_27  and  O_28 
REMARK   22  A    between atoms: O_28  and  C_29 
REMARK   23  A    between atoms: C_29  and  C_30 
REMARK   24  A    between atoms: C_30  and  O_31 
REMARK   25  A    between atoms: O_31  and  C_32 
REMARK   26  A    between atoms: C_32  and  C_33 
REMARK   27  A    between atoms: C_33  and  O_34 
REMARK   28  A    between atoms: O_34  and  C_35 
REMARK   29  A    between atoms: C_35  and  C_36 
REMARK   30  A    between atoms: C_36  and  O_37 
REMARK   31  A    between atoms: O_37  and  C_38 
REMARK   32  A    between atoms: C_38  and  C_39 
REMARK   33  A    between atoms: C_39  and  O_40 
REMARK   34  A    between atoms: O_40  and  C_41 
REMARK   35  A    between atoms: C_41  and  C_42 
REMARK   36  A    between atoms: C_42  and  O_43 
ROOT
HETATM    1  O   UNK N   1      29.873  17.250   6.692  0.00  0.00    -0.387 OA
ENDROOT
BRANCH   1   2
HETATM    2  C   UNK N   1      30.883  16.696   7.485  0.00  0.00     0.193 C 
BRANCH   2   3
HETATM    3  C   UNK N   1      32.242  17.050   6.900  0.00  0.00     0.193 C 
BRANCH   3   4
HETATM    4  O   UNK N   1      32.102  17.454   5.567  0.00  0.00    -0.387 OA
BRANCH   4   5
HETATM    5  C   UNK N   1      32.764  16.483   4.805  0.00  0.00     0.194 C 
BRANCH   5   6
HETATM    6  C   UNK N   1      32.376  16.571   3.330  0.00  0.00     0.201 C 
BRANCH   6   7
HETATM    7  O   UNK N   1      31.486  15.582   2.966  0.00  0.00    -0.349 OA
BRANCH   7   8
HETATM    8  C   UNK N   1      30.216  15.508   3.435  0.00  0.00     0.068 A 
HETATM    9  C   UNK N   1      29.800  14.461   4.275  0.00  0.00     0.037 A 
HETATM   10  C   UNK N   1      28.491  14.410   4.754  0.00  0.00     0.010 A 
HETATM   11  C   UNK N   1      27.587  15.417   4.415  0.00  0.00    -0.058 A 
HETATM   12  C   UNK N   1      27.998  16.471   3.585  0.00  0.00     0.010 A 
HETATM   13  C   UNK N   1      29.302  16.505   3.084  0.00  0.00     0.037 A 
BRANCH  11  14
HETATM   14  C   UNK N   1      26.214  15.397   4.995  0.00  0.00     0.038 C 
BRANCH  14  15
HETATM   15  C   UNK N   1      26.041  14.243   5.967  0.00  0.00     0.005 C 
BRANCH  15  16
HETATM   16  C   UNK N   1      24.714  13.547   5.700  0.00  0.00     0.000 C 
BRANCH  16  17
HETATM   17  C   UNK N   1      24.270  13.686   4.247  0.00  0.00     0.000 C 
BRANCH  17  18
HETATM   18  C   UNK N   1      24.856  12.574   3.392  0.00  0.00     0.000 C 
BRANCH  18  19
HETATM   19  C   UNK N   1      25.275  13.119   2.038  0.00  0.00     0.000 C 
BRANCH  19  20
HETATM   20  C   UNK N   1      24.414  12.500   0.951  0.00  0.00    -0.000 C 
BRANCH  20  21
HETATM   21  C   UNK N   1      23.703  13.584   0.171  0.00  0.00    -0.005 C 
HETATM   22  C   UNK N   1      22.372  13.877   0.831  0.00  0.00     0.005 C 
ENDBRANCH  20  21
ENDBRANCH  19  20
ENDBRANCH  18  19
ENDBRANCH  17  18
ENDBRANCH  16  17
ENDBRANCH  15  16
ENDBRANCH  14  15
ENDBRANCH  11  14
ENDBRANCH   7   8
ENDBRANCH   6   7
ENDBRANCH   5   6
ENDBRANCH   4   5
ENDBRANCH   3   4
ENDBRANCH   2   3
ENDBRANCH   1   2
BRANCH   1  23
HETATM   23  C   UNK N   1      28.765  17.412   7.537  0.00  0.00     0.193 C 
BRANCH  23  24
HETATM   24  C   UNK N   1      28.171  18.807   7.390  0.00  0.00     0.193 C 
BRANCH  24  25
HETATM   25  O   UNK N   1      27.934  19.081   6.041  0.00  0.00    -0.387 OA
BRANCH  25  26
HETATM   26  C   UNK N   1      27.196  20.262   6.029  0.00  0.00     0.193 C 
BRANCH  26  27
HETATM   27  C   UNK N   1      26.272  20.265   4.831  0.00  0.00     0.193 C 
BRANCH  27  28
HETATM   28  O   UNK N   1      25.669  19.014   4.707  0.00  0.00    -0.387 OA
BRANCH  28  29
HETATM   29  C   UNK N   1      24.540  19.251   3.927  0.00  0.00     0.193 C 
BRANCH  29  30
HETATM   30  C   UNK N   1      24.790  20.424   2.988  0.00  0.00     0.193 C 
BRANCH  30  31
HETATM   31  O   UNK N   1      23.596  20.776   2.352  0.00  0.00    -0.387 OA
BRANCH  31  32
HETATM   32  C   UNK N   1      22.597  20.108   3.063  0.00  0.00     0.193 C 
BRANCH  32  33
HETATM   33  C   UNK N   1      21.231  20.579   2.594  0.00  0.00     0.193 C 
BRANCH  33  34
HETATM   34  O   UNK N   1      20.800  19.799   1.520  0.00  0.00    -0.387 OA
BRANCH  34  35
HETATM   35  C   UNK N   1      20.020  18.802   2.109  0.00  0.00     0.193 C 
BRANCH  35  36
HETATM   36  C   UNK N   1      20.134  17.508   1.322  0.00  0.00     0.193 C 
BRANCH  36  37
HETATM   37  O   UNK N   1      19.887  16.421   2.162  0.00  0.00    -0.387 OA
BRANCH  37  38
HETATM   38  C   UNK N   1      20.339  16.815   3.424  0.00  0.00     0.193 C 
BRANCH  38  39
HETATM   39  C   UNK N   1      21.689  16.175   3.707  0.00  0.00     0.193 C 
BRANCH  39  40
HETATM   40  O   UNK N   1      22.053  16.400   5.035  0.00  0.00    -0.387 OA
BRANCH  40  41
HETATM   41  C   UNK N   1      21.299  17.509   5.421  0.00  0.00     0.193 C 
BRANCH  41  42
HETATM   42  C   UNK N   1      21.275  17.610   6.934  0.00  0.00     0.190 C 
BRANCH  42  43
HETATM   43  O   UNK N   1      20.689  18.817   7.312  0.00  0.00    -0.399 OA
HETATM   44  H   UNK N   1      19.738  18.960   7.436  0.00  0.00     0.209 HD
ENDBRANCH  42  43
ENDBRANCH  41  42
ENDBRANCH  40  41
ENDBRANCH  39  40
ENDBRANCH  38  39
ENDBRANCH  37  38
ENDBRANCH  36  37
ENDBRANCH  35  36
ENDBRANCH  34  35
ENDBRANCH  33  34
ENDBRANCH  32  33
ENDBRANCH  31  32
ENDBRANCH  30  31
ENDBRANCH  29  30
ENDBRANCH  28  29
ENDBRANCH  27  28
ENDBRANCH  26  27
ENDBRANCH  25  26
ENDBRANCH  24  25
ENDBRANCH  23  24
ENDBRANCH   1  23
TORSDOF 36
ENDMDL
MODEL 7
REMARK VINA RESULT:      -5.0      3.879     15.245
REMARK WARNING: 32 MAX_TORS EXCEEDED!!!
REMARK  36 active torsions:
REMARK  status: ('A' for Active; 'I' for Inactive)
REMARK    1  A    between atoms: C_2  and  C_3 
REMARK    2  A    between atoms: C_3  and  C_4 
REMARK    3  A    between atoms: C_4  and  C_5 
REMARK    4  A    between atoms: C_5  and  C_6 
REMARK    5  A    between atoms: C_6  and  C_7 
REMARK    6  A    between atoms: C_7  and  C_8 
REMARK    7  A    between atoms: C_8  and  C_9 
REMARK    8  A    between atoms: C_9  and  C_10 
REMARK    9  A    between atoms: C_13  and  O_16 
REMARK   10  A    between atoms: O_16  and  C_17 
REMARK   11  A    between atoms: C_17  and  C_18 
REMARK   12  A    between atoms: C_18  and  O_19 
REMARK   13  A    between atoms: O_19  and  C_20 
REMARK   14  A    between atoms: C_20  and  C_21 
REMARK   15  A    between atoms: C_21  and  O_22 
REMARK   16  A    between atoms: O_22  and  C_23 
REMARK   17  A    between atoms: C_23  and  C_24 
REMARK   18  A    between atoms: C_24  and  O_25 
REMARK   19  A    between atoms: O_25  and  C_26 
REMARK   20  A    between atoms: C_26  and  C_27 
REMARK   21  A    between atoms: C_27  and  O_28 
REMARK   22  A    between atoms: O_28  and  C_29 
REMARK   23  A    between atoms: C_29  and  C_30 
REMARK   24  A    between atoms: C_30  and  O_31 
REMARK   25  A    between atoms: O_31  and  C_32 
REMARK   26  A    between atoms: C_32  and  C_33 
REMARK   27  A    between atoms: C_33  and  O_34 
REMARK   28  A    between atoms: O_34  and  C_35 
REMARK   29  A    between atoms: C_35  and  C_36 
REMARK   30  A    between atoms: C_36  and  O_37 
REMARK   31  A    between atoms: O_37  and  C_38 
REMARK   32  A    between atoms: C_38  and  C_39 
REMARK   33  A    between atoms: C_39  and  O_40 
REMARK   34  A    between atoms: O_40  and  C_41 
REMARK   35  A    between atoms: C_41  and  C_42 
REMARK   36  A    between atoms: C_42  and  O_43 
ROOT
HETATM    1  O   UNK N   1      31.555  16.153   4.408  0.00  0.00    -0.387 OA
ENDROOT
BRANCH   1   2
HETATM    2  C   UNK N   1      31.774  17.328   5.135  0.00  0.00     0.193 C 
BRANCH   2   3
HETATM    3  C   UNK N   1      32.311  16.981   6.516  0.00  0.00     0.193 C 
BRANCH   3   4
HETATM    4  O   UNK N   1      31.266  16.562   7.347  0.00  0.00    -0.387 OA
BRANCH   4   5
HETATM    5  C   UNK N   1      31.330  17.383   8.480  0.00  0.00     0.194 C 
BRANCH   5   6
HETATM    6  C   UNK N   1      30.090  18.269   8.598  0.00  0.00     0.201 C 
BRANCH   6   7
HETATM    7  O   UNK N   1      29.020  17.764   7.888  0.00  0.00    -0.349 OA
BRANCH   7   8
HETATM    8  C   UNK N   1      28.413  18.429   6.875  0.00  0.00     0.068 A 
HETATM    9  C   UNK N   1      27.784  19.670   7.079  0.00  0.00     0.037 A 
HETATM   10  C   UNK N   1      27.174  20.341   6.020  0.00  0.00     0.010 A 
HETATM   11  C   UNK N   1      27.202  19.790   4.739  0.00  0.00    -0.058 A 
HETATM   12  C   UNK N   1      27.836  18.557   4.526  0.00  0.00     0.010 A 
HETATM   13  C   UNK N   1      28.423  17.873   5.593  0.00  0.00     0.037 A 
BRANCH  11  14
HETATM   14  C   UNK N   1      26.617  20.551   3.600  0.00  0.00     0.038 C 
BRANCH  14  15
HETATM   15  C   UNK N   1      25.551  19.742   2.881  0.00  0.00     0.005 C 
BRANCH  15  16
HETATM   16  C   UNK N   1      24.177  20.122   3.414  0.00  0.00     0.000 C 
BRANCH  16  17
HETATM   17  C   UNK N   1      23.483  18.954   4.108  0.00  0.00     0.000 C 
BRANCH  17  18
HETATM   18  C   UNK N   1      24.307  17.683   3.986  0.00  0.00     0.000 C 
BRANCH  18  19
HETATM   19  C   UNK N   1      24.050  16.774   5.175  0.00  0.00     0.000 C 
BRANCH  19  20
HETATM   20  C   UNK N   1      25.036  15.620   5.158  0.00  0.00    -0.000 C 
BRANCH  20  21
HETATM   21  C   UNK N   1      25.831  15.598   6.445  0.00  0.00    -0.005 C 
HETATM   22  C   UNK N   1      25.561  14.297   7.172  0.00  0.00     0.005 C 
ENDBRANCH  20  21
ENDBRANCH  19  20
ENDBRANCH  18  19
ENDBRANCH  17  18
ENDBRANCH  16  17
ENDBRANCH  15  16
ENDBRANCH  14  15
ENDBRANCH  11  14
ENDBRANCH   7   8
ENDBRANCH   6   7
ENDBRANCH   5   6
ENDBRANCH   4   5
ENDBRANCH   3   4
ENDBRANCH   2   3
ENDBRANCH   1   2
BRANCH   1  23
HETATM   23  C   UNK N   1      32.028  16.408   3.113  0.00  0.00     0.193 C 
BRANCH  23  24
HETATM   24  C   UNK N   1      33.414  15.806   2.914  0.00  0.00     0.193 C 
BRANCH  24  25
HETATM   25  O   UNK N   1      33.428  14.488   3.379  0.00  0.00    -0.387 OA
BRANCH  25  26
HETATM   26  C   UNK N   1      34.662  14.333   4.007  0.00  0.00     0.193 C 
BRANCH  26  27
HETATM   27  C   UNK N   1      34.446  14.082   5.483  0.00  0.00     0.193 C 
BRANCH  27  28
HETATM   28  O   UNK N   1      35.169  15.018   6.223  0.00  0.00    -0.387 OA
BRANCH  28  29
HETATM   29  C   UNK N   1      36.007  14.249   7.026  0.00  0.00     0.193 C 
BRANCH  29  30
HETATM   30  C   UNK N   1      35.722  14.523   8.496  0.00  0.00     0.193 C 
BRANCH  30  31
HETATM   31  O   UNK N   1      34.959  15.687   8.615  0.00  0.00    -0.387 OA
BRANCH  31  32
HETATM   32  C   UNK N   1      34.676  15.797   9.979  0.00  0.00     0.193 C 
BRANCH  32  33
HETATM   33  C   UNK N   1      34.404  14.420  10.559  0.00  0.00     0.193 C 
BRANCH  33  34
HETATM   34  O   UNK N   1      34.467  14.469  11.953  0.00  0.00    -0.387 OA
BRANCH  34  35
HETATM   35  C   UNK N   1      35.449  13.535  12.286  0.00  0.00     0.193 C 
BRANCH  35  36
HETATM   36  C   UNK N   1      35.314  13.122  13.741  0.00  0.00     0.193 C 
BRANCH  36  37
HETATM   37  O   UNK N   1      34.231  12.253  13.887  0.00  0.00    -0.387 OA
BRANCH  37  38
HETATM   38  C   UNK N   1      34.470  11.559  15.076  0.00  0.00     0.193 C 
BRANCH  38  39
HETATM   39  C   UNK N   1      35.668  12.163  15.791  0.00  0.00     0.193 C 
BRANCH  39  40
HETATM   40  O   UNK N   1      35.566  11.940  17.164  0.00  0.00    -0.387 OA
BRANCH  40  41
HETATM   41  C   UNK N   1      34.979  13.104  17.663  0.00  0.00     0.193 C 
BRANCH  41  42
HETATM   42  C   UNK N   1      35.263  13.223  19.148  0.00  0.00     0.190 C 
BRANCH  42  43
HETATM   43  O   UNK N   1      35.305  11.952  19.718  0.00  0.00    -0.399 OA
HETATM   44  H   UNK N   1      35.000  11.138  19.290  0.00  0.00     0.209 HD
ENDBRANCH  42  43
ENDBRANCH  41  42
ENDBRANCH  40  41
ENDBRANCH  39  40
ENDBRANCH  38  39
ENDBRANCH  37  38
ENDBRANCH  36  37
ENDBRANCH  35  36
ENDBRANCH  34  35
ENDBRANCH  33  34
ENDBRANCH  32  33
ENDBRANCH  31  32
ENDBRANCH  30  31
ENDBRANCH  29  30
ENDBRANCH  28  29
ENDBRANCH  27  28
ENDBRANCH  26  27
ENDBRANCH  25  26
ENDBRANCH  24  25
ENDBRANCH  23  24
ENDBRANCH   1  23
TORSDOF 36
ENDMDL
MODEL 8
REMARK VINA RESULT:      -5.0      6.789     15.088
REMARK WARNING: 32 MAX_TORS EXCEEDED!!!
REMARK  36 active torsions:
REMARK  status: ('A' for Active; 'I' for Inactive)
REMARK    1  A    between atoms: C_2  and  C_3 
REMARK    2  A    between atoms: C_3  and  C_4 
REMARK    3  A    between atoms: C_4  and  C_5 
REMARK    4  A    between atoms: C_5  and  C_6 
REMARK    5  A    between atoms: C_6  and  C_7 
REMARK    6  A    between atoms: C_7  and  C_8 
REMARK    7  A    between atoms: C_8  and  C_9 
REMARK    8  A    between atoms: C_9  and  C_10 
REMARK    9  A    between atoms: C_13  and  O_16 
REMARK   10  A    between atoms: O_16  and  C_17 
REMARK   11  A    between atoms: C_17  and  C_18 
REMARK   12  A    between atoms: C_18  and  O_19 
REMARK   13  A    between atoms: O_19  and  C_20 
REMARK   14  A    between atoms: C_20  and  C_21 
REMARK   15  A    between atoms: C_21  and  O_22 
REMARK   16  A    between atoms: O_22  and  C_23 
REMARK   17  A    between atoms: C_23  and  C_24 
REMARK   18  A    between atoms: C_24  and  O_25 
REMARK   19  A    between atoms: O_25  and  C_26 
REMARK   20  A    between atoms: C_26  and  C_27 
REMARK   21  A    between atoms: C_27  and  O_28 
REMARK   22  A    between atoms: O_28  and  C_29 
REMARK   23  A    between atoms: C_29  and  C_30 
REMARK   24  A    between atoms: C_30  and  O_31 
REMARK   25  A    between atoms: O_31  and  C_32 
REMARK   26  A    between atoms: C_32  and  C_33 
REMARK   27  A    between atoms: C_33  and  O_34 
REMARK   28  A    between atoms: O_34  and  C_35 
REMARK   29  A    between atoms: C_35  and  C_36 
REMARK   30  A    between atoms: C_36  and  O_37 
REMARK   31  A    between atoms: O_37  and  C_38 
REMARK   32  A    between atoms: C_38  and  C_39 
REMARK   33  A    between atoms: C_39  and  O_40 
REMARK   34  A    between atoms: O_40  and  C_41 
REMARK   35  A    between atoms: C_41  and  C_42 
REMARK   36  A    between atoms: C_42  and  O_43 
ROOT
HETATM    1  O   UNK N   1      23.010  14.156   1.909  0.00  0.00    -0.387 OA
ENDROOT
BRANCH   1   2
HETATM    2  C   UNK N   1      21.917  14.980   1.626  0.00  0.00     0.193 C 
BRANCH   2   3
HETATM    3  C   UNK N   1      21.684  15.936   2.787  0.00  0.00     0.193 C 
BRANCH   3   4
HETATM    4  O   UNK N   1      20.362  16.397   2.773  0.00  0.00    -0.387 OA
BRANCH   4   5
HETATM    5  C   UNK N   1      20.285  17.359   3.788  0.00  0.00     0.194 C 
BRANCH   5   6
HETATM    6  C   UNK N   1      21.674  17.775   4.269  0.00  0.00     0.201 C 
BRANCH   6   7
HETATM    7  O   UNK N   1      21.690  18.076   5.615  0.00  0.00    -0.349 OA
BRANCH   7   8
HETATM    8  C   UNK N   1      21.439  17.167   6.588  0.00  0.00     0.068 A 
HETATM    9  C   UNK N   1      20.496  17.412   7.602  0.00  0.00     0.037 A 
HETATM   10  C   UNK N   1      20.246  16.458   8.588  0.00  0.00     0.010 A 
HETATM   11  C   UNK N   1      20.922  15.239   8.562  0.00  0.00    -0.058 A 
HETATM   12  C   UNK N   1      21.857  14.982   7.549  0.00  0.00     0.010 A 
HETATM   13  C   UNK N   1      22.126  15.950   6.577  0.00  0.00     0.037 A 
BRANCH  11  14
HETATM   14  C   UNK N   1      20.591  14.195   9.573  0.00  0.00     0.038 C 
BRANCH  14  15
HETATM   15  C   UNK N   1      21.847  13.585  10.170  0.00  0.00     0.005 C 
BRANCH  15  16
HETATM   16  C   UNK N   1      21.812  12.073   9.995  0.00  0.00     0.000 C 
BRANCH  16  17
HETATM   17  C   UNK N   1      23.209  11.472   9.882  0.00  0.00     0.000 C 
BRANCH  17  18
HETATM   18  C   UNK N   1      23.633  11.355   8.427  0.00  0.00     0.000 C 
BRANCH  18  19
HETATM   19  C   UNK N   1      24.523  12.524   8.044  0.00  0.00     0.000 C 
BRANCH  19  20
HETATM   20  C   UNK N   1      24.653  12.593   6.533  0.00  0.00    -0.000 C 
BRANCH  20  21
HETATM   21  C   UNK N   1      25.251  13.920   6.123  0.00  0.00    -0.005 C 
HETATM   22  C   UNK N   1      25.570  14.726   7.365  0.00  0.00     0.005 C 
ENDBRANCH  20  21
ENDBRANCH  19  20
ENDBRANCH  18  19
ENDBRANCH  17  18
ENDBRANCH  16  17
ENDBRANCH  15  16
ENDBRANCH  14  15
ENDBRANCH  11  14
ENDBRANCH   7   8
ENDBRANCH   6   7
ENDBRANCH   5   6
ENDBRANCH   4   5
ENDBRANCH   3   4
ENDBRANCH   2   3
ENDBRANCH   1   2
BRANCH   1  23
HETATM   23  C   UNK N   1      23.951  14.972   2.554  0.00  0.00     0.193 C 
BRANCH  23  24
HETATM   24  C   UNK N   1      25.314  14.864   1.882  0.00  0.00     0.193 C 
BRANCH  24  25
HETATM   25  O   UNK N   1      26.059  16.018   2.134  0.00  0.00    -0.387 OA
BRANCH  25  26
HETATM   26  C   UNK N   1      26.802  15.735   3.278  0.00  0.00     0.193 C 
BRANCH  26  27
HETATM   27  C   UNK N   1      28.248  15.511   2.896  0.00  0.00     0.193 C 
BRANCH  27  28
HETATM   28  O   UNK N   1      28.938  16.721   2.964  0.00  0.00    -0.387 OA
BRANCH  28  29
HETATM   29  C   UNK N   1      28.738  17.158   4.271  0.00  0.00     0.193 C 
BRANCH  29  30
HETATM   30  C   UNK N   1      30.077  17.389   4.958  0.00  0.00     0.193 C 
BRANCH  30  31
HETATM   31  O   UNK N   1      29.896  17.402   6.343  0.00  0.00    -0.387 OA
BRANCH  31  32
HETATM   32  C   UNK N   1      31.146  17.078   6.874  0.00  0.00     0.193 C 
BRANCH  32  33
HETATM   33  C   UNK N   1      31.274  17.653   8.275  0.00  0.00     0.193 C 
BRANCH  33  34
HETATM   34  O   UNK N   1      32.525  18.250   8.434  0.00  0.00    -0.387 OA
BRANCH  34  35
HETATM   35  C   UNK N   1      33.331  17.621   7.483  0.00  0.00     0.193 C 
BRANCH  35  36
HETATM   36  C   UNK N   1      34.560  17.025   8.144  0.00  0.00     0.193 C 
BRANCH  36  37
HETATM   37  O   UNK N   1      34.747  17.600   9.402  0.00  0.00    -0.387 OA
BRANCH  37  38
HETATM   38  C   UNK N   1      34.907  16.526  10.281  0.00  0.00     0.193 C 
BRANCH  38  39
HETATM   39  C   UNK N   1      35.429  15.316   9.524  0.00  0.00     0.193 C 
BRANCH  39  40
HETATM   40  O   UNK N   1      36.734  15.029   9.925  0.00  0.00    -0.387 OA
BRANCH  40  41
HETATM   41  C   UNK N   1      36.844  13.644   9.787  0.00  0.00     0.193 C 
BRANCH  41  42
HETATM   42  C   UNK N   1      37.967  13.130  10.667  0.00  0.00     0.190 C 
BRANCH  42  43
HETATM   43  O   UNK N   1      37.659  13.373  12.005  0.00  0.00    -0.399 OA
HETATM   44  H   UNK N   1      36.976  12.909  12.513  0.00  0.00     0.209 HD
ENDBRANCH  42  43
ENDBRANCH  41  42
ENDBRANCH  40  41
ENDBRANCH  39  40
ENDBRANCH  38  39
ENDBRANCH  37  38
ENDBRANCH  36  37
ENDBRANCH  35  36
ENDBRANCH  34  35
ENDBRANCH  33  34
ENDBRANCH  32  33
ENDBRANCH  31  32
ENDBRANCH  30  31
ENDBRANCH  29  30
ENDBRANCH  28  29
ENDBRANCH  27  28
ENDBRANCH  26  27
ENDBRANCH  25  26
ENDBRANCH  24  25
ENDBRANCH  23  24
ENDBRANCH   1  23
TORSDOF 36
ENDMDL
MODEL 9
REMARK VINA RESULT:      -5.0      8.950     12.025
REMARK WARNING: 32 MAX_TORS EXCEEDED!!!
REMARK  36 active torsions:
REMARK  status: ('A' for Active; 'I' for Inactive)
REMARK    1  A    between atoms: C_2  and  C_3 
REMARK    2  A    between atoms: C_3  and  C_4 
REMARK    3  A    between atoms: C_4  and  C_5 
REMARK    4  A    between atoms: C_5  and  C_6 
REMARK    5  A    between atoms: C_6  and  C_7 
REMARK    6  A    between atoms: C_7  and  C_8 
REMARK    7  A    between atoms: C_8  and  C_9 
REMARK    8  A    between atoms: C_9  and  C_10 
REMARK    9  A    between atoms: C_13  and  O_16 
REMARK   10  A    between atoms: O_16  and  C_17 
REMARK   11  A    between atoms: C_17  and  C_18 
REMARK   12  A    between atoms: C_18  and  O_19 
REMARK   13  A    between atoms: O_19  and  C_20 
REMARK   14  A    between atoms: C_20  and  C_21 
REMARK   15  A    between atoms: C_21  and  O_22 
REMARK   16  A    between atoms: O_22  and  C_23 
REMARK   17  A    between atoms: C_23  and  C_24 
REMARK   18  A    between atoms: C_24  and  O_25 
REMARK   19  A    between atoms: O_25  and  C_26 
REMARK   20  A    between atoms: C_26  and  C_27 
REMARK   21  A    between atoms: C_27  and  O_28 
REMARK   22  A    between atoms: O_28  and  C_29 
REMARK   23  A    between atoms: C_29  and  C_30 
REMARK   24  A    between atoms: C_30  and  O_31 
REMARK   25  A    between atoms: O_31  and  C_32 
REMARK   26  A    between atoms: C_32  and  C_33 
REMARK   27  A    between atoms: C_33  and  O_34 
REMARK   28  A    between atoms: O_34  and  C_35 
REMARK   29  A    between atoms: C_35  and  C_36 
REMARK   30  A    between atoms: C_36  and  O_37 
REMARK   31  A    between atoms: O_37  and  C_38 
REMARK   32  A    between atoms: C_38  and  C_39 
REMARK   33  A    between atoms: C_39  and  O_40 
REMARK   34  A    between atoms: O_40  and  C_41 
REMARK   35  A    between atoms: C_41  and  C_42 
REMARK   36  A    between atoms: C_42  and  O_43 
ROOT
HETATM    1  O   UNK N   1      25.500  12.049   1.896  0.00  0.00    -0.387 OA
ENDROOT
BRANCH   1   2
HETATM    2  C   UNK N   1      26.794  12.539   1.694  0.00  0.00     0.193 C 
BRANCH   2   3
HETATM    3  C   UNK N   1      27.594  12.413   2.982  0.00  0.00     0.193 C 
BRANCH   3   4
HETATM    4  O   UNK N   1      28.749  13.201   2.909  0.00  0.00    -0.387 OA
BRANCH   4   5
HETATM    5  C   UNK N   1      28.439  14.248   2.030  0.00  0.00     0.194 C 
BRANCH   5   6
HETATM    6  C   UNK N   1      28.701  15.609   2.671  0.00  0.00     0.201 C 
BRANCH   6   7
HETATM    7  O   UNK N   1      29.989  16.051   2.447  0.00  0.00    -0.349 OA
BRANCH   7   8
HETATM    8  C   UNK N   1      30.918  16.178   3.426  0.00  0.00     0.068 A 
HETATM    9  C   UNK N   1      30.997  15.264   4.492  0.00  0.00     0.037 A 
HETATM   10  C   UNK N   1      31.968  15.410   5.483  0.00  0.00     0.010 A 
HETATM   11  C   UNK N   1      32.884  16.458   5.411  0.00  0.00    -0.058 A 
HETATM   12  C   UNK N   1      32.817  17.368   4.346  0.00  0.00     0.010 A 
HETATM   13  C   UNK N   1      31.827  17.237   3.368  0.00  0.00     0.037 A 
BRANCH  11  14
HETATM   14  C   UNK N   1      33.966  16.559   6.431  0.00  0.00     0.038 C 
BRANCH  14  15
HETATM   15  C   UNK N   1      34.005  17.940   7.062  0.00  0.00     0.005 C 
BRANCH  15  16
HETATM   16  C   UNK N   1      32.838  18.092   8.028  0.00  0.00     0.000 C 
BRANCH  16  17
HETATM   17  C   UNK N   1      32.525  16.793   8.764  0.00  0.00     0.000 C 
BRANCH  17  18
HETATM   18  C   UNK N   1      31.025  16.612   8.930  0.00  0.00     0.000 C 
BRANCH  18  19
HETATM   19  C   UNK N   1      30.277  17.506   7.957  0.00  0.00     0.000 C 
BRANCH  19  20
HETATM   20  C   UNK N   1      28.783  17.380   8.194  0.00  0.00    -0.000 C 
BRANCH  20  21
HETATM   21  C   UNK N   1      28.047  17.365   6.873  0.00  0.00    -0.005 C 
HETATM   22  C   UNK N   1      28.903  18.038   5.820  0.00  0.00     0.005 C 
ENDBRANCH  20  21
ENDBRANCH  19  20
ENDBRANCH  18  19
ENDBRANCH  17  18
ENDBRANCH  16  17
ENDBRANCH  15  16
ENDBRANCH  14  15
ENDBRANCH  11  14
ENDBRANCH   7   8
ENDBRANCH   6   7
ENDBRANCH   5   6
ENDBRANCH   4   5
ENDBRANCH   3   4
ENDBRANCH   2   3
ENDBRANCH   1   2
BRANCH   1  23
HETATM   23  C   UNK N   1      24.701  13.171   2.160  0.00  0.00     0.193 C 
BRANCH  23  24
HETATM   24  C   UNK N   1      23.960  13.010   3.482  0.00  0.00     0.193 C 
BRANCH  24  25
HETATM   25  O   UNK N   1      23.747  14.263   4.061  0.00  0.00    -0.387 OA
BRANCH  25  26
HETATM   26  C   UNK N   1      24.969  14.926   3.966  0.00  0.00     0.193 C 
BRANCH  26  27
HETATM   27  C   UNK N   1      25.712  14.799   5.277  0.00  0.00     0.193 C 
BRANCH  27  28
HETATM   28  O   UNK N   1      24.842  15.075   6.332  0.00  0.00    -0.387 OA
BRANCH  28  29
HETATM   29  C   UNK N   1      25.537  14.665   7.467  0.00  0.00     0.193 C 
BRANCH  29  30
HETATM   30  C   UNK N   1      24.862  13.449   8.085  0.00  0.00     0.193 C 
BRANCH  30  31
HETATM   31  O   UNK N   1      25.085  13.440   9.463  0.00  0.00    -0.387 OA
BRANCH  31  32
HETATM   32  C   UNK N   1      24.647  12.185   9.893  0.00  0.00     0.193 C 
BRANCH  32  33
HETATM   33  C   UNK N   1      23.133  12.108   9.792  0.00  0.00     0.193 C 
BRANCH  33  34
HETATM   34  O   UNK N   1      22.549  13.061  10.627  0.00  0.00    -0.387 OA
BRANCH  34  35
HETATM   35  C   UNK N   1      21.243  13.185  10.149  0.00  0.00     0.193 C 
BRANCH  35  36
HETATM   36  C   UNK N   1      21.072  14.503   9.415  0.00  0.00     0.193 C 
BRANCH  36  37
HETATM   37  O   UNK N   1      19.869  14.497   8.708  0.00  0.00    -0.387 OA
BRANCH  37  38
HETATM   38  C   UNK N   1      20.020  15.463   7.709  0.00  0.00     0.193 C 
BRANCH  38  39
HETATM   39  C   UNK N   1      21.496  15.650   7.396  0.00  0.00     0.193 C 
BRANCH  39  40
HETATM   40  O   UNK N   1      21.649  16.174   6.113  0.00  0.00    -0.387 OA
BRANCH  40  41
HETATM   41  C   UNK N   1      20.446  15.876   5.469  0.00  0.00     0.193 C 
BRANCH  41  42
HETATM   42  C   UNK N   1      20.381  16.610   4.143  0.00  0.00     0.190 C 
BRANCH  42  43
HETATM   43  O   UNK N   1      19.059  16.952   3.865  0.00  0.00    -0.399 OA
HETATM   44  H   UNK N   1      18.567  16.682   3.074  0.00  0.00     0.209 HD
ENDBRANCH  42  43
ENDBRANCH  41  42
ENDBRANCH  40  41
ENDBRANCH  39  40
ENDBRANCH  38  39
ENDBRANCH  37  38
ENDBRANCH  36  37
ENDBRANCH  35  36
ENDBRANCH  34  35
ENDBRANCH  33  34
ENDBRANCH  32  33
ENDBRANCH  31  32
ENDBRANCH  30  31
ENDBRANCH  29  30
ENDBRANCH  28  29
ENDBRANCH  27  28
ENDBRANCH  26  27
ENDBRANCH  25  26
ENDBRANCH  24  25
ENDBRANCH  23  24
ENDBRANCH   1  23
TORSDOF 36
ENDMDL
