MODEL 1
REMARK VINA RESULT:      -8.1      0.000      0.000
REMARK  5 active torsions:
REMARK  status: ('A' for Active; 'I' for Inactive)
REMARK    1  A    between atoms: N_4  and  C_14 
REMARK    2  A    between atoms: N_5  and  C_23 
REMARK    3  A    between atoms: N_6  and  C_16 
REMARK    4  A    between atoms: C_8  and  C_13 
REMARK    5  A    between atoms: C_14  and  C_16 
ROOT
HETATM    1 Cl   UNK N   1      29.680  18.743  10.179  0.00  0.00    -0.084 Cl
HETATM    2  N   UNK N   1      30.467  16.739   4.719  0.00  0.00    -0.321 N 
HETATM    3  C   UNK N   1      28.546  17.810   5.138  0.00  0.00    -0.025 A 
HETATM    4  C   UNK N   1      29.296  17.808   6.293  0.00  0.00     0.001 A 
HETATM    5  C   UNK N   1      29.295  17.144   4.179  0.00  0.00     0.106 A 
HETATM    6  C   UNK N   1      30.465  17.144   6.012  0.00  0.00     0.050 A 
HETATM    7  C   UNK N   1      29.016  18.313   7.561  0.00  0.00     0.038 A 
HETATM    8  C   UNK N   1      31.440  16.945   6.991  0.00  0.00     0.032 A 
HETATM    9  C   UNK N   1      29.981  18.130   8.566  0.00  0.00     0.035 A 
HETATM   10  C   UNK N   1      31.187  17.449   8.283  0.00  0.00     0.026 A 
ENDROOT
BRANCH   3  11
HETATM   11  C   UNK N   1      27.159  18.339   4.937  0.00  0.00     0.024 C 
HETATM   12  C   UNK N   1      27.130  19.788   4.459  0.00  0.00     0.039 C 
HETATM   13  C   UNK N   1      25.670  20.230   4.288  0.00  0.00     0.273 C 
HETATM   14  N   UNK N   1      24.949  19.345   3.363  0.00  0.00     0.090 N 
HETATM   15  C   UNK N   1      24.966  17.979   3.893  0.00  0.00     0.273 C 
HETATM   16  C   UNK N   1      26.387  17.470   3.951  0.00  0.00     0.039 C 
BRANCH  14  17
HETATM   17  C   UNK N   1      23.571  19.830   3.313  0.00  0.00     0.292 C 
BRANCH  17  18
HETATM   18  C   UNK N   1      22.602  18.961   4.122  0.00  0.00     0.158 C 
BRANCH  18  19
HETATM   19  N   UNK N   1      21.388  18.712   3.386  0.00  0.00    -0.331 N 
HETATM   20  C   UNK N   1      21.119  17.517   2.628  0.00  0.00     0.147 A 
HETATM   21  C   UNK N   1      19.703  17.796   2.045  0.00  0.00     0.144 A 
HETATM   22  N   UNK N   1      19.380  19.120   2.531  0.00  0.00    -0.341 N 
HETATM   23  C   UNK N   1      20.379  19.571   3.281  0.00  0.00     0.318 A 
HETATM   24  H   UNK N   1      18.549  19.611   2.336  0.00  0.00     0.164 HD
HETATM   25  O   UNK N   1      20.371  20.676   3.806  0.00  0.00    -0.247 OA
ENDBRANCH  18  19
ENDBRANCH  17  18
ENDBRANCH  14  17
ENDBRANCH   3  11
BRANCH   2  26
HETATM   26  C   UNK N   1      31.446  15.988   3.971  0.00  0.00     0.039 A 
HETATM   27  C   UNK N   1      31.284  14.597   3.834  0.00  0.00     0.033 A 
HETATM   28  C   UNK N   1      32.219  13.833   3.140  0.00  0.00     0.044 A 
HETATM   29  C   UNK N   1      33.334  14.450   2.575  0.00  0.00     0.116 A 
HETATM   30  F   UNK N   1      34.244  13.704   1.904  0.00  0.00    -0.206 F 
HETATM   31  C   UNK N   1      33.510  15.833   2.701  0.00  0.00     0.044 A 
HETATM   32  C   UNK N   1      32.569  16.602   3.398  0.00  0.00     0.033 A 
ENDBRANCH   2  26
TORSDOF 5
ENDMDL
MODEL 2
REMARK VINA RESULT:      -7.9      4.627      9.424
REMARK  5 active torsions:
REMARK  status: ('A' for Active; 'I' for Inactive)
REMARK    1  A    between atoms: N_4  and  C_14 
REMARK    2  A    between atoms: N_5  and  C_23 
REMARK    3  A    between atoms: N_6  and  C_16 
REMARK    4  A    between atoms: C_8  and  C_13 
REMARK    5  A    between atoms: C_14  and  C_16 
ROOT
HETATM    1 Cl   UNK N   1      27.015  21.819   6.063  0.00  0.00    -0.084 Cl
HETATM    2  N   UNK N   1      26.330  16.467   3.753  0.00  0.00    -0.321 N 
HETATM    3  C   UNK N   1      28.234  16.855   4.866  0.00  0.00    -0.025 A 
HETATM    4  C   UNK N   1      27.467  17.997   4.920  0.00  0.00     0.001 A 
HETATM    5  C   UNK N   1      27.506  15.923   4.141  0.00  0.00     0.106 A 
HETATM    6  C   UNK N   1      26.309  17.735   4.229  0.00  0.00     0.050 A 
HETATM    7  C   UNK N   1      27.722  19.239   5.496  0.00  0.00     0.038 A 
HETATM    8  C   UNK N   1      25.320  18.710   4.074  0.00  0.00     0.032 A 
HETATM    9  C   UNK N   1      26.743  20.238   5.359  0.00  0.00     0.035 A 
HETATM   10  C   UNK N   1      25.549  19.975   4.651  0.00  0.00     0.026 A 
ENDROOT
BRANCH   3  11
HETATM   11  C   UNK N   1      29.619  16.645   5.397  0.00  0.00     0.024 C 
HETATM   12  C   UNK N   1      30.002  15.172   5.517  0.00  0.00     0.039 C 
HETATM   13  C   UNK N   1      31.430  15.070   6.071  0.00  0.00     0.273 C 
HETATM   14  N   UNK N   1      32.383  15.805   5.229  0.00  0.00     0.090 N 
HETATM   15  C   UNK N   1      31.998  17.218   5.188  0.00  0.00     0.273 C 
HETATM   16  C   UNK N   1      30.646  17.361   4.527  0.00  0.00     0.039 C 
BRANCH  14  17
HETATM   17  C   UNK N   1      33.690  15.677   5.871  0.00  0.00     0.292 C 
BRANCH  17  18
HETATM   18  C   UNK N   1      34.193  16.993   6.473  0.00  0.00     0.158 C 
BRANCH  18  19
HETATM   19  N   UNK N   1      34.441  16.859   7.885  0.00  0.00    -0.331 N 
HETATM   20  C   UNK N   1      34.308  15.632   8.629  0.00  0.00     0.147 A 
HETATM   21  C   UNK N   1      34.674  16.070  10.076  0.00  0.00     0.144 A 
HETATM   22  N   UNK N   1      34.937  17.488   9.956  0.00  0.00    -0.341 N 
HETATM   23  C   UNK N   1      34.785  17.859   8.690  0.00  0.00     0.318 A 
HETATM   24  H   UNK N   1      35.188  18.085  10.697  0.00  0.00     0.164 HD
HETATM   25  O   UNK N   1      34.933  19.013   8.312  0.00  0.00    -0.247 OA
ENDBRANCH  18  19
ENDBRANCH  17  18
ENDBRANCH  14  17
ENDBRANCH   3  11
BRANCH   2  26
HETATM   26  C   UNK N   1      25.371  15.747   2.952  0.00  0.00     0.039 A 
HETATM   27  C   UNK N   1      25.745  15.300   1.672  0.00  0.00     0.033 A 
HETATM   28  C   UNK N   1      24.840  14.622   0.859  0.00  0.00     0.044 A 
HETATM   29  C   UNK N   1      23.543  14.385   1.313  0.00  0.00     0.116 A 
HETATM   30  F   UNK N   1      22.664  13.730   0.518  0.00  0.00    -0.206 F 
HETATM   31  C   UNK N   1      23.155  14.823   2.585  0.00  0.00     0.044 A 
HETATM   32  C   UNK N   1      24.065  15.503   3.405  0.00  0.00     0.033 A 
ENDBRANCH   2  26
TORSDOF 5
ENDMDL
MODEL 3
REMARK VINA RESULT:      -7.8      9.302     13.046
REMARK  5 active torsions:
REMARK  status: ('A' for Active; 'I' for Inactive)
REMARK    1  A    between atoms: N_4  and  C_14 
REMARK    2  A    between atoms: N_5  and  C_23 
REMARK    3  A    between atoms: N_6  and  C_16 
REMARK    4  A    between atoms: C_8  and  C_13 
REMARK    5  A    between atoms: C_14  and  C_16 
ROOT
HETATM    1 Cl   UNK N   1      38.757   8.957  10.997  0.00  0.00    -0.084 Cl
HETATM    2  N   UNK N   1      35.978  12.424  14.833  0.00  0.00    -0.321 N 
HETATM    3  C   UNK N   1      36.070  13.130  12.710  0.00  0.00    -0.025 A 
HETATM    4  C   UNK N   1      36.701  11.908  12.782  0.00  0.00     0.001 A 
HETATM    5  C   UNK N   1      35.631  13.424  13.992  0.00  0.00     0.106 A 
HETATM    6  C   UNK N   1      36.635  11.499  14.092  0.00  0.00     0.050 A 
HETATM    7  C   UNK N   1      37.345  11.157  11.802  0.00  0.00     0.038 A 
HETATM    8  C   UNK N   1      37.211  10.296  14.506  0.00  0.00     0.032 A 
HETATM    9  C   UNK N   1      37.932   9.940  12.190  0.00  0.00     0.035 A 
HETATM   10  C   UNK N   1      37.866   9.512  13.535  0.00  0.00     0.026 A 
ENDROOT
BRANCH   3  11
HETATM   11  C   UNK N   1      35.938  14.034  11.523  0.00  0.00     0.024 C 
HETATM   12  C   UNK N   1      34.886  13.563  10.521  0.00  0.00     0.039 C 
HETATM   13  C   UNK N   1      34.834  14.552   9.349  0.00  0.00     0.273 C 
HETATM   14  N   UNK N   1      34.558  15.918   9.814  0.00  0.00     0.090 N 
HETATM   15  C   UNK N   1      35.621  16.336  10.732  0.00  0.00     0.273 C 
HETATM   16  C   UNK N   1      35.612  15.457  11.960  0.00  0.00     0.039 C 
BRANCH  14  17
HETATM   17  C   UNK N   1      34.576  16.773   8.628  0.00  0.00     0.292 C 
BRANCH  17  18
HETATM   18  C   UNK N   1      33.359  17.698   8.539  0.00  0.00     0.158 C 
BRANCH  18  19
HETATM   19  N   UNK N   1      32.556  17.392   7.383  0.00  0.00    -0.331 N 
HETATM   20  C   UNK N   1      31.210  16.880   7.430  0.00  0.00     0.147 A 
HETATM   21  C   UNK N   1      30.852  16.724   5.924  0.00  0.00     0.144 A 
HETATM   22  N   UNK N   1      32.053  17.143   5.235  0.00  0.00    -0.341 N 
HETATM   23  C   UNK N   1      32.969  17.506   6.124  0.00  0.00     0.318 A 
HETATM   24  H   UNK N   1      32.173  17.157   4.258  0.00  0.00     0.164 HD
HETATM   25  O   UNK N   1      34.087  17.890   5.810  0.00  0.00    -0.247 OA
ENDBRANCH  18  19
ENDBRANCH  17  18
ENDBRANCH  14  17
ENDBRANCH   3  11
BRANCH   2  26
HETATM   26  C   UNK N   1      35.686  12.461  16.244  0.00  0.00     0.039 A 
HETATM   27  C   UNK N   1      35.540  13.707  16.881  0.00  0.00     0.033 A 
HETATM   28  C   UNK N   1      35.280  13.785  18.248  0.00  0.00     0.044 A 
HETATM   29  C   UNK N   1      35.166  12.617  19.000  0.00  0.00     0.116 A 
HETATM   30  F   UNK N   1      34.918  12.696  20.328  0.00  0.00    -0.206 F 
HETATM   31  C   UNK N   1      35.308  11.369  18.381  0.00  0.00     0.044 A 
HETATM   32  C   UNK N   1      35.567  11.288  17.006  0.00  0.00     0.033 A 
ENDBRANCH   2  26
TORSDOF 5
ENDMDL
MODEL 4
REMARK VINA RESULT:      -7.8      7.148     10.091
REMARK  5 active torsions:
REMARK  status: ('A' for Active; 'I' for Inactive)
REMARK    1  A    between atoms: N_4  and  C_14 
REMARK    2  A    between atoms: N_5  and  C_23 
REMARK    3  A    between atoms: N_6  and  C_16 
REMARK    4  A    between atoms: C_8  and  C_13 
REMARK    5  A    between atoms: C_14  and  C_16 
ROOT
HETATM    1 Cl   UNK N   1      39.203  12.893   7.464  0.00  0.00    -0.084 Cl
HETATM    2  N   UNK N   1      35.695  13.741  12.093  0.00  0.00    -0.321 N 
HETATM    3  C   UNK N   1      34.949  14.464  10.109  0.00  0.00    -0.025 A 
HETATM    4  C   UNK N   1      36.180  13.880   9.915  0.00  0.00     0.001 A 
HETATM    5  C   UNK N   1      34.672  14.363  11.464  0.00  0.00     0.106 A 
HETATM    6  C   UNK N   1      36.618  13.449  11.144  0.00  0.00     0.050 A 
HETATM    7  C   UNK N   1      36.946  13.729   8.761  0.00  0.00     0.038 A 
HETATM    8  C   UNK N   1      37.860  12.829  11.296  0.00  0.00     0.032 A 
HETATM    9  C   UNK N   1      38.199  13.106   8.883  0.00  0.00     0.035 A 
HETATM   10  C   UNK N   1      38.655  12.658  10.144  0.00  0.00     0.026 A 
ENDROOT
BRANCH   3  11
HETATM   11  C   UNK N   1      34.086  15.159   9.100  0.00  0.00     0.024 C 
HETATM   12  C   UNK N   1      32.637  14.678   9.114  0.00  0.00     0.039 C 
HETATM   13  C   UNK N   1      31.845  15.447   8.047  0.00  0.00     0.273 C 
HETATM   14  N   UNK N   1      31.931  16.897   8.260  0.00  0.00     0.090 N 
HETATM   15  C   UNK N   1      33.335  17.311   8.188  0.00  0.00     0.273 C 
HETATM   16  C   UNK N   1      34.116  16.668   9.310  0.00  0.00     0.039 C 
BRANCH  14  17
HETATM   17  C   UNK N   1      31.185  17.523   7.169  0.00  0.00     0.292 C 
BRANCH  17  18
HETATM   18  C   UNK N   1      29.765  16.968   7.020  0.00  0.00     0.158 C 
BRANCH  18  19
HETATM   19  N   UNK N   1      28.799  18.030   6.908  0.00  0.00    -0.331 N 
HETATM   20  C   UNK N   1      28.349  18.602   5.664  0.00  0.00     0.147 A 
HETATM   21  C   UNK N   1      27.347  19.695   6.136  0.00  0.00     0.144 A 
HETATM   22  N   UNK N   1      27.389  19.609   7.579  0.00  0.00    -0.341 N 
HETATM   23  C   UNK N   1      28.230  18.646   7.939  0.00  0.00     0.318 A 
HETATM   24  H   UNK N   1      26.875  20.175   8.198  0.00  0.00     0.164 HD
HETATM   25  O   UNK N   1      28.466  18.372   9.108  0.00  0.00    -0.247 OA
ENDBRANCH  18  19
ENDBRANCH  17  18
ENDBRANCH  14  17
ENDBRANCH   3  11
BRANCH   2  26
HETATM   26  C   UNK N   1      35.710  13.520  13.517  0.00  0.00     0.039 A 
HETATM   27  C   UNK N   1      34.825  12.579  14.074  0.00  0.00     0.033 A 
HETATM   28  C   UNK N   1      34.791  12.353  15.448  0.00  0.00     0.044 A 
HETATM   29  C   UNK N   1      35.643  13.069  16.288  0.00  0.00     0.116 A 
HETATM   30  F   UNK N   1      35.605  12.851  17.624  0.00  0.00    -0.206 F 
HETATM   31  C   UNK N   1      36.530  14.009  15.751  0.00  0.00     0.044 A 
HETATM   32  C   UNK N   1      36.566  14.235  14.368  0.00  0.00     0.033 A 
ENDBRANCH   2  26
TORSDOF 5
ENDMDL
MODEL 5
REMARK VINA RESULT:      -7.8      5.085     10.151
REMARK  5 active torsions:
REMARK  status: ('A' for Active; 'I' for Inactive)
REMARK    1  A    between atoms: N_4  and  C_14 
REMARK    2  A    between atoms: N_5  and  C_23 
REMARK    3  A    between atoms: N_6  and  C_16 
REMARK    4  A    between atoms: C_8  and  C_13 
REMARK    5  A    between atoms: C_14  and  C_16 
ROOT
HETATM    1 Cl   UNK N   1      30.204  12.545   2.168  0.00  0.00    -0.084 Cl
HETATM    2  N   UNK N   1      28.031  17.629   4.138  0.00  0.00    -0.321 N 
HETATM    3  C   UNK N   1      29.936  16.911   5.072  0.00  0.00    -0.025 A 
HETATM    4  C   UNK N   1      29.562  16.001   4.108  0.00  0.00     0.001 A 
HETATM    5  C   UNK N   1      28.973  17.909   5.068  0.00  0.00     0.106 A 
HETATM    6  C   UNK N   1      28.392  16.461   3.555  0.00  0.00     0.050 A 
HETATM    7  C   UNK N   1      30.149  14.802   3.711  0.00  0.00     0.038 A 
HETATM    8  C   UNK N   1      27.732  15.744   2.554  0.00  0.00     0.032 A 
HETATM    9  C   UNK N   1      29.509  14.061   2.704  0.00  0.00     0.035 A 
HETATM   10  C   UNK N   1      28.305  14.529   2.128  0.00  0.00     0.026 A 
ENDROOT
BRANCH   3  11
HETATM   11  C   UNK N   1      31.096  16.834   6.016  0.00  0.00     0.024 C 
HETATM   12  C   UNK N   1      32.397  17.362   5.416  0.00  0.00     0.039 C 
HETATM   13  C   UNK N   1      33.516  17.234   6.459  0.00  0.00     0.273 C 
HETATM   14  N   UNK N   1      33.172  17.941   7.700  0.00  0.00     0.090 N 
HETATM   15  C   UNK N   1      31.946  17.363   8.258  0.00  0.00     0.273 C 
HETATM   16  C   UNK N   1      30.795  17.589   7.305  0.00  0.00     0.039 C 
BRANCH  14  17
HETATM   17  C   UNK N   1      34.280  17.715   8.628  0.00  0.00     0.292 C 
BRANCH  17  18
HETATM   18  C   UNK N   1      34.885  16.313   8.508  0.00  0.00     0.158 C 
BRANCH  18  19
HETATM   19  N   UNK N   1      34.925  15.652   9.787  0.00  0.00    -0.331 N 
HETATM   20  C   UNK N   1      35.929  15.876  10.796  0.00  0.00     0.147 A 
HETATM   21  C   UNK N   1      35.494  14.903  11.930  0.00  0.00     0.144 A 
HETATM   22  N   UNK N   1      34.322  14.245  11.395  0.00  0.00    -0.341 N 
HETATM   23  C   UNK N   1      34.063  14.720  10.183  0.00  0.00     0.318 A 
HETATM   24  H   UNK N   1      33.799  13.551  11.858  0.00  0.00     0.164 HD
HETATM   25  O   UNK N   1      33.132  14.323   9.497  0.00  0.00    -0.247 OA
ENDBRANCH  18  19
ENDBRANCH  17  18
ENDBRANCH  14  17
ENDBRANCH   3  11
BRANCH   2  26
HETATM   26  C   UNK N   1      26.880  18.470   3.924  0.00  0.00     0.039 A 
HETATM   27  C   UNK N   1      25.594  17.938   4.129  0.00  0.00     0.033 A 
HETATM   28  C   UNK N   1      24.457  18.711   3.909  0.00  0.00     0.044 A 
HETATM   29  C   UNK N   1      24.588  20.030   3.477  0.00  0.00     0.116 A 
HETATM   30  F   UNK N   1      23.480  20.778   3.260  0.00  0.00    -0.206 F 
HETATM   31  C   UNK N   1      25.861  20.576   3.269  0.00  0.00     0.044 A 
HETATM   32  C   UNK N   1      27.006  19.799   3.491  0.00  0.00     0.033 A 
ENDBRANCH   2  26
TORSDOF 5
ENDMDL
MODEL 6
REMARK VINA RESULT:      -7.7      4.852      9.858
REMARK  5 active torsions:
REMARK  status: ('A' for Active; 'I' for Inactive)
REMARK    1  A    between atoms: N_4  and  C_14 
REMARK    2  A    between atoms: N_5  and  C_23 
REMARK    3  A    between atoms: N_6  and  C_16 
REMARK    4  A    between atoms: C_8  and  C_13 
REMARK    5  A    between atoms: C_14  and  C_16 
ROOT
HETATM    1 Cl   UNK N   1      24.715  12.873   8.414  0.00  0.00    -0.084 Cl
HETATM    2  N   UNK N   1      25.026  17.404   4.696  0.00  0.00    -0.321 N 
HETATM    3  C   UNK N   1      26.958  16.425   5.265  0.00  0.00    -0.025 A 
HETATM    4  C   UNK N   1      25.936  15.755   5.900  0.00  0.00     0.001 A 
HETATM    5  C   UNK N   1      26.367  17.438   4.525  0.00  0.00     0.106 A 
HETATM    6  C   UNK N   1      24.765  16.375   5.539  0.00  0.00     0.050 A 
HETATM    7  C   UNK N   1      25.963  14.678   6.782  0.00  0.00     0.038 A 
HETATM    8  C   UNK N   1      23.533  15.948   6.039  0.00  0.00     0.032 A 
HETATM    9  C   UNK N   1      24.738  14.224   7.299  0.00  0.00     0.035 A 
HETATM   10  C   UNK N   1      23.528  14.856   6.931  0.00  0.00     0.026 A 
ENDROOT
BRANCH   3  11
HETATM   11  C   UNK N   1      28.433  16.193   5.389  0.00  0.00     0.024 C 
HETATM   12  C   UNK N   1      29.221  16.667   4.171  0.00  0.00     0.039 C 
HETATM   13  C   UNK N   1      30.712  16.381   4.398  0.00  0.00     0.273 C 
HETATM   14  N   UNK N   1      31.196  17.015   5.631  0.00  0.00     0.090 N 
HETATM   15  C   UNK N   1      30.441  16.488   6.770  0.00  0.00     0.273 C 
HETATM   16  C   UNK N   1      28.985  16.869   6.638  0.00  0.00     0.039 C 
BRANCH  14  17
HETATM   17  C   UNK N   1      32.603  16.640   5.767  0.00  0.00     0.292 C 
BRANCH  17  18
HETATM   18  C   UNK N   1      33.447  17.720   6.451  0.00  0.00     0.158 C 
BRANCH  18  19
HETATM   19  N   UNK N   1      33.948  17.263   7.722  0.00  0.00    -0.331 N 
HETATM   20  C   UNK N   1      33.709  15.954   8.275  0.00  0.00     0.147 A 
HETATM   21  C   UNK N   1      34.454  16.021   9.640  0.00  0.00     0.144 A 
HETATM   22  N   UNK N   1      34.987  17.366   9.681  0.00  0.00    -0.341 N 
HETATM   23  C   UNK N   1      34.661  18.004   8.564  0.00  0.00     0.318 A 
HETATM   24  H   UNK N   1      35.511  17.747  10.422  0.00  0.00     0.164 HD
HETATM   25  O   UNK N   1      34.974  19.167   8.346  0.00  0.00    -0.247 OA
ENDBRANCH  18  19
ENDBRANCH  17  18
ENDBRANCH  14  17
ENDBRANCH   3  11
BRANCH   2  26
HETATM   26  C   UNK N   1      24.141  18.359   4.076  0.00  0.00     0.039 A 
HETATM   27  C   UNK N   1      24.669  19.572   3.598  0.00  0.00     0.033 A 
HETATM   28  C   UNK N   1      23.844  20.530   3.014  0.00  0.00     0.044 A 
HETATM   29  C   UNK N   1      22.475  20.291   2.904  0.00  0.00     0.116 A 
HETATM   30  F   UNK N   1      21.674  21.226   2.340  0.00  0.00    -0.206 F 
HETATM   31  C   UNK N   1      21.933  19.088   3.374  0.00  0.00     0.044 A 
HETATM   32  C   UNK N   1      22.763  18.123   3.959  0.00  0.00     0.033 A 
ENDBRANCH   2  26
TORSDOF 5
ENDMDL
MODEL 7
REMARK VINA RESULT:      -7.7     11.269     15.234
REMARK  5 active torsions:
REMARK  status: ('A' for Active; 'I' for Inactive)
REMARK    1  A    between atoms: N_4  and  C_14 
REMARK    2  A    between atoms: N_5  and  C_23 
REMARK    3  A    between atoms: N_6  and  C_16 
REMARK    4  A    between atoms: C_8  and  C_13 
REMARK    5  A    between atoms: C_14  and  C_16 
ROOT
HETATM    1 Cl   UNK N   1      40.088   7.807  13.293  0.00  0.00    -0.084 Cl
HETATM    2  N   UNK N   1      36.112  10.640  16.552  0.00  0.00    -0.321 N 
HETATM    3  C   UNK N   1      36.738  11.619  14.638  0.00  0.00    -0.025 A 
HETATM    4  C   UNK N   1      37.410  10.422  14.746  0.00  0.00     0.001 A 
HETATM    5  C   UNK N   1      35.940  11.727  15.767  0.00  0.00     0.106 A 
HETATM    6  C   UNK N   1      37.014   9.844  15.927  0.00  0.00     0.050 A 
HETATM    7  C   UNK N   1      38.354   9.829  13.910  0.00  0.00     0.038 A 
HETATM    8  C   UNK N   1      37.538   8.620  16.348  0.00  0.00     0.032 A 
HETATM    9  C   UNK N   1      38.897   8.595  14.307  0.00  0.00     0.035 A 
HETATM   10  C   UNK N   1      38.491   7.993  15.520  0.00  0.00     0.026 A 
ENDROOT
BRANCH   3  11
HETATM   11  C   UNK N   1      36.875  12.664  13.573  0.00  0.00     0.024 C 
HETATM   12  C   UNK N   1      36.450  12.175  12.191  0.00  0.00     0.039 C 
HETATM   13  C   UNK N   1      36.632  13.315  11.180  0.00  0.00     0.273 C 
HETATM   14  N   UNK N   1      35.878  14.510  11.581  0.00  0.00     0.090 N 
HETATM   15  C   UNK N   1      36.359  14.964  12.888  0.00  0.00     0.273 C 
HETATM   16  C   UNK N   1      36.074  13.910  13.932  0.00  0.00     0.039 C 
BRANCH  14  17
HETATM   17  C   UNK N   1      36.160  15.536  10.578  0.00  0.00     0.292 C 
BRANCH  17  18
HETATM   18  C   UNK N   1      35.177  16.710  10.630  0.00  0.00     0.158 C 
BRANCH  18  19
HETATM   19  N   UNK N   1      34.544  16.917   9.353  0.00  0.00    -0.331 N 
HETATM   20  C   UNK N   1      33.674  15.967   8.705  0.00  0.00     0.147 A 
HETATM   21  C   UNK N   1      33.306  16.694   7.379  0.00  0.00     0.144 A 
HETATM   22  N   UNK N   1      34.040  17.939   7.448  0.00  0.00    -0.341 N 
HETATM   23  C   UNK N   1      34.713  17.992   8.591  0.00  0.00     0.318 A 
HETATM   24  H   UNK N   1      34.039  18.639   6.755  0.00  0.00     0.164 HD
HETATM   25  O   UNK N   1      35.431  18.934   8.897  0.00  0.00    -0.247 OA
ENDBRANCH  18  19
ENDBRANCH  17  18
ENDBRANCH  14  17
ENDBRANCH   3  11
BRANCH   2  26
HETATM   26  C   UNK N   1      35.438  10.482  17.817  0.00  0.00     0.039 A 
HETATM   27  C   UNK N   1      35.661  11.427  18.835  0.00  0.00     0.033 A 
HETATM   28  C   UNK N   1      35.047  11.297  20.078  0.00  0.00     0.044 A 
HETATM   29  C   UNK N   1      34.202  10.216  20.324  0.00  0.00     0.116 A 
HETATM   30  F   UNK N   1      33.610  10.091  21.535  0.00  0.00    -0.206 F 
HETATM   31  C   UNK N   1      33.969   9.267  19.322  0.00  0.00     0.044 A 
HETATM   32  C   UNK N   1      34.584   9.398  18.070  0.00  0.00     0.033 A 
ENDBRANCH   2  26
TORSDOF 5
ENDMDL
MODEL 8
REMARK VINA RESULT:      -7.7     11.098     14.984
REMARK  5 active torsions:
REMARK  status: ('A' for Active; 'I' for Inactive)
REMARK    1  A    between atoms: N_4  and  C_14 
REMARK    2  A    between atoms: N_5  and  C_23 
REMARK    3  A    between atoms: N_6  and  C_16 
REMARK    4  A    between atoms: C_8  and  C_13 
REMARK    5  A    between atoms: C_14  and  C_16 
ROOT
HETATM    1 Cl   UNK N   1      35.677  16.013  18.443  0.00  0.00    -0.084 Cl
HETATM    2  N   UNK N   1      35.085  10.377  16.912  0.00  0.00    -0.321 N 
HETATM    3  C   UNK N   1      35.308  11.862  15.250  0.00  0.00    -0.025 A 
HETATM    4  C   UNK N   1      35.370  12.544  16.444  0.00  0.00     0.001 A 
HETATM    5  C   UNK N   1      35.134  10.523  15.569  0.00  0.00     0.106 A 
HETATM    6  C   UNK N   1      35.227  11.615  17.446  0.00  0.00     0.050 A 
HETATM    7  C   UNK N   1      35.509  13.904  16.709  0.00  0.00     0.038 A 
HETATM    8  C   UNK N   1      35.219  11.992  18.791  0.00  0.00     0.032 A 
HETATM    9  C   UNK N   1      35.507  14.313  18.054  0.00  0.00     0.035 A 
HETATM   10  C   UNK N   1      35.362  13.362  19.090  0.00  0.00     0.026 A 
ENDROOT
BRANCH   3  11
HETATM   11  C   UNK N   1      35.334  12.423  13.862  0.00  0.00     0.024 C 
HETATM   12  C   UNK N   1      36.702  12.968  13.458  0.00  0.00     0.039 C 
HETATM   13  C   UNK N   1      36.618  13.519  12.027  0.00  0.00     0.273 C 
HETATM   14  N   UNK N   1      36.150  12.493  11.086  0.00  0.00     0.090 N 
HETATM   15  C   UNK N   1      34.817  12.041  11.492  0.00  0.00     0.273 C 
HETATM   16  C   UNK N   1      34.892  11.375  12.846  0.00  0.00     0.039 C 
BRANCH  14  17
HETATM   17  C   UNK N   1      36.066  13.137   9.776  0.00  0.00     0.292 C 
BRANCH  17  18
HETATM   18  C   UNK N   1      36.334  14.644   9.832  0.00  0.00     0.158 C 
BRANCH  18  19
HETATM   19  N   UNK N   1      35.144  15.396   9.529  0.00  0.00    -0.331 N 
HETATM   20  C   UNK N   1      34.028  14.895   8.767  0.00  0.00     0.147 A 
HETATM   21  C   UNK N   1      33.061  16.114   8.739  0.00  0.00     0.144 A 
HETATM   22  N   UNK N   1      33.775  17.143   9.464  0.00  0.00    -0.341 N 
HETATM   23  C   UNK N   1      34.941  16.662   9.879  0.00  0.00     0.318 A 
HETATM   24  H   UNK N   1      33.447  18.057   9.624  0.00  0.00     0.164 HD
HETATM   25  O   UNK N   1      35.751  17.331  10.505  0.00  0.00    -0.247 OA
ENDBRANCH  18  19
ENDBRANCH  17  18
ENDBRANCH  14  17
ENDBRANCH   3  11
BRANCH   2  26
HETATM   26  C   UNK N   1      34.877   9.099  17.546  0.00  0.00     0.039 A 
HETATM   27  C   UNK N   1      35.544   7.968  17.042  0.00  0.00     0.033 A 
HETATM   28  C   UNK N   1      35.352   6.711  17.611  0.00  0.00     0.044 A 
HETATM   29  C   UNK N   1      34.486   6.567  18.694  0.00  0.00     0.116 A 
HETATM   30  F   UNK N   1      34.297   5.343  19.243  0.00  0.00    -0.206 F 
HETATM   31  C   UNK N   1      33.815   7.682  19.209  0.00  0.00     0.044 A 
HETATM   32  C   UNK N   1      34.009   8.947  18.638  0.00  0.00     0.033 A 
ENDBRANCH   2  26
TORSDOF 5
ENDMDL
MODEL 9
REMARK VINA RESULT:      -7.6      9.019     12.906
REMARK  5 active torsions:
REMARK  status: ('A' for Active; 'I' for Inactive)
REMARK    1  A    between atoms: N_4  and  C_14 
REMARK    2  A    between atoms: N_5  and  C_23 
REMARK    3  A    between atoms: N_6  and  C_16 
REMARK    4  A    between atoms: C_8  and  C_13 
REMARK    5  A    between atoms: C_14  and  C_16 
ROOT
HETATM    1 Cl   UNK N   1      38.644   8.083  11.878  0.00  0.00    -0.084 Cl
HETATM    2  N   UNK N   1      36.523  13.168  13.901  0.00  0.00    -0.321 N 
HETATM    3  C   UNK N   1      36.245  12.750  11.718  0.00  0.00    -0.025 A 
HETATM    4  C   UNK N   1      36.891  11.672  12.281  0.00  0.00     0.001 A 
HETATM    5  C   UNK N   1      36.027  13.660  12.743  0.00  0.00     0.106 A 
HETATM    6  C   UNK N   1      37.053  11.954  13.616  0.00  0.00     0.050 A 
HETATM    7  C   UNK N   1      37.367  10.496  11.709  0.00  0.00     0.038 A 
HETATM    8  C   UNK N   1      37.704  11.063  14.472  0.00  0.00     0.032 A 
HETATM    9  C   UNK N   1      38.024   9.579  12.547  0.00  0.00     0.035 A 
HETATM   10  C   UNK N   1      38.192   9.861  13.922  0.00  0.00     0.026 A 
ENDROOT
BRANCH   3  11
HETATM   11  C   UNK N   1      35.904  12.974  10.277  0.00  0.00     0.024 C 
HETATM   12  C   UNK N   1      34.401  13.030  10.016  0.00  0.00     0.039 C 
HETATM   13  C   UNK N   1      34.162  13.258   8.517  0.00  0.00     0.273 C 
HETATM   14  N   UNK N   1      34.834  14.478   8.048  0.00  0.00     0.090 N 
HETATM   15  C   UNK N   1      36.276  14.350   8.278  0.00  0.00     0.273 C 
HETATM   16  C   UNK N   1      36.551  14.254   9.760  0.00  0.00     0.039 C 
BRANCH  14  17
HETATM   17  C   UNK N   1      34.578  14.568   6.612  0.00  0.00     0.292 C 
BRANCH  17  18
HETATM   18  C   UNK N   1      34.402  16.010   6.125  0.00  0.00     0.158 C 
BRANCH  18  19
HETATM   19  N   UNK N   1      33.453  16.723   6.941  0.00  0.00    -0.331 N 
HETATM   20  C   UNK N   1      32.078  16.335   7.130  0.00  0.00     0.147 A 
HETATM   21  C   UNK N   1      31.536  17.452   8.069  0.00  0.00     0.144 A 
HETATM   22  N   UNK N   1      32.670  18.330   8.257  0.00  0.00    -0.341 N 
HETATM   23  C   UNK N   1      33.714  17.853   7.591  0.00  0.00     0.318 A 
HETATM   24  H   UNK N   1      32.668  19.155   8.795  0.00  0.00     0.164 HD
HETATM   25  O   UNK N   1      34.802  18.413   7.567  0.00  0.00    -0.247 OA
ENDBRANCH  18  19
ENDBRANCH  17  18
ENDBRANCH  14  17
ENDBRANCH   3  11
BRANCH   2  26
HETATM   26  C   UNK N   1      36.474  13.905  15.139  0.00  0.00     0.039 A 
HETATM   27  C   UNK N   1      37.257  15.065  15.278  0.00  0.00     0.033 A 
HETATM   28  C   UNK N   1      37.255  15.792  16.466  0.00  0.00     0.044 A 
HETATM   29  C   UNK N   1      36.471  15.365  17.538  0.00  0.00     0.116 A 
HETATM   30  F   UNK N   1      36.476  16.071  18.693  0.00  0.00    -0.206 F 
HETATM   31  C   UNK N   1      35.686  14.213  17.416  0.00  0.00     0.044 A 
HETATM   32  C   UNK N   1      35.685  13.483  16.220  0.00  0.00     0.033 A 
ENDBRANCH   2  26
TORSDOF 5
ENDMDL
