MODEL 1
REMARK VINA RESULT:      -9.7      0.000      0.000
REMARK  26 active torsions:
REMARK  status: ('A' for Active; 'I' for Inactive)
REMARK    1  A    between atoms: C_1  and  O_13 
REMARK    2  A    between atoms: C_4  and  O_74 
REMARK    3  A    between atoms: C_5  and  O_73 
REMARK    4  A    between atoms: C_7  and  O_65 
REMARK    5  A    between atoms: C_10  and  O_75 
REMARK    6  A    between atoms: C_11  and  O_13 
REMARK    7  A    between atoms: C_14  and  O_56 
REMARK    8  A    between atoms: C_17  and  O_69 
REMARK    9  A    between atoms: C_18  and  O_65 
REMARK   10  A    between atoms: C_20  and  O_48 
REMARK   11  A    between atoms: C_23  and  O_68 
REMARK   12  A    between atoms: C_24  and  O_66 
REMARK   13  A    between atoms: C_27  and  O_49 
REMARK   14  A    between atoms: C_28  and  O_48 
REMARK   15  A    between atoms: C_30  and  O_34 
REMARK   16  A    between atoms: C_33  and  O_34 
REMARK   17  A    between atoms: C_35  and  O_60 
REMARK   18  A    between atoms: C_39  and  O_59 
REMARK   19  A    between atoms: C_44  and  O_56 
REMARK   20  A    between atoms: C_45  and  C_52 
REMARK   21  A    between atoms: C_51  and  C_52 
REMARK   22  A    between atoms: C_51  and  C_55 
REMARK   23  A    between atoms: C_52  and  O_57 
REMARK   24  A    between atoms: C_54  and  O_53 
REMARK   25  A    between atoms: C_54  and  C_55 
REMARK   26  A    between atoms: C_55  and  O_61 
ROOT
HETATM    1  C   UNK N   1      26.755  18.876   4.707  0.00  0.00     0.006 A 
HETATM    2  C   UNK N   1      25.846  17.843   4.936  0.00  0.00     0.081 A 
HETATM    3  C   UNK N   1      28.096  18.614   4.557  0.00  0.00     0.088 A 
HETATM    4  C   UNK N   1      28.570  17.295   4.576  0.00  0.00     0.042 A 
HETATM    5  C   UNK N   1      27.683  16.227   4.892  0.00  0.00    -0.017 A 
HETATM    6  C   UNK N   1      26.309  16.510   5.077  0.00  0.00     0.050 A 
HETATM    7  C   UNK N   1      29.893  17.018   4.242  0.00  0.00     0.094 A 
HETATM    8  C   UNK N   1      30.384  15.724   4.267  0.00  0.00     0.053 A 
HETATM    9  C   UNK N   1      29.554  14.651   4.678  0.00  0.00    -0.040 A 
HETATM   10  C   UNK N   1      28.193  14.910   4.967  0.00  0.00     0.020 A 
HETATM   11  C   UNK N   1      31.782  15.471   3.891  0.00  0.00     0.192 C 
HETATM   12  C   UNK N   1      32.406  14.237   4.380  0.00  0.00     0.206 C 
HETATM   13  C   UNK N   1      31.509  13.021   4.094  0.00  0.00     0.063 C 
HETATM   14  C   UNK N   1      30.117  13.229   4.771  0.00  0.00     0.050 C 
HETATM   15  O   UNK N   1      32.440  16.268   3.234  0.00  0.00    -0.289 OA
HETATM   16  C   UNK N   1      26.278  20.281   4.571  0.00  0.00     0.054 C 
ENDROOT
BRANCH  12  17
HETATM   17  O   UNK N   1      33.399  14.303   5.416  0.00  0.00    -0.348 OA
BRANCH  17  18
HETATM   18  C   UNK N   1      33.024  15.081   6.560  0.00  0.00     0.263 C 
HETATM   19  O   UNK N   1      33.929  16.109   6.873  0.00  0.00    -0.354 OA
HETATM   20  C   UNK N   1      33.181  17.107   7.527  0.00  0.00     0.151 C 
HETATM   21  C   UNK N   1      32.469  16.541   8.763  0.00  0.00     0.176 C 
HETATM   22  C   UNK N   1      34.099  18.234   7.942  0.00  0.00     0.042 C 
HETATM   23  C   UNK N   1      33.030  15.147   9.122  0.00  0.00     0.160 C 
HETATM   24  C   UNK N   1      32.929  14.231   7.853  0.00  0.00     0.095 C 
BRANCH  21  25
HETATM   25  O   UNK N   1      31.105  16.434   8.492  0.00  0.00    -0.390 OA
HETATM   26  H   UNK N   1      30.141  16.538   8.450  0.00  0.00     0.210 HD
ENDBRANCH  21  25
BRANCH  23  27
HETATM   27  O   UNK N   1      34.383  15.215   9.564  0.00  0.00    -0.353 OA
BRANCH  27  28
HETATM   28  C   UNK N   1      35.160  14.062   9.230  0.00  0.00     0.263 C 
HETATM   29  O   UNK N   1      36.164  14.394   8.273  0.00  0.00    -0.354 OA
HETATM   30  C   UNK N   1      37.297  13.556   8.364  0.00  0.00     0.151 C 
HETATM   31  C   UNK N   1      38.015  13.715   9.709  0.00  0.00     0.176 C 
HETATM   32  C   UNK N   1      38.249  13.822   7.210  0.00  0.00     0.042 C 
HETATM   33  C   UNK N   1      37.001  13.603  10.853  0.00  0.00     0.160 C 
HETATM   34  C   UNK N   1      35.600  13.175  10.426  0.00  0.00     0.095 C 
BRANCH  31  35
HETATM   35  O   UNK N   1      38.697  14.931   9.805  0.00  0.00    -0.390 OA
HETATM   36  H   UNK N   1      39.296  15.185  10.523  0.00  0.00     0.210 HD
ENDBRANCH  31  35
BRANCH  33  37
HETATM   37  O   UNK N   1      37.447  13.031  12.065  0.00  0.00    -0.353 OA
BRANCH  37  38
HETATM   38  C   UNK N   1      36.439  12.964  13.058  0.00  0.00     0.263 C 
HETATM   39  O   UNK N   1      36.365  14.132  13.869  0.00  0.00    -0.354 OA
HETATM   40  C   UNK N   1      36.793  13.805  15.167  0.00  0.00     0.152 C 
HETATM   41  C   UNK N   1      35.795  12.878  15.882  0.00  0.00     0.180 C 
HETATM   42  C   UNK N   1      37.187  15.030  15.970  0.00  0.00     0.042 C 
HETATM   43  C   UNK N   1      35.195  11.843  14.904  0.00  0.00     0.087 C 
HETATM   44  C   UNK N   1      36.169  11.597  13.750  0.00  0.00     0.101 C 
HETATM   45  C   UNK N   1      34.923  10.550  15.645  0.00  0.00     0.049 C 
BRANCH  41  46
HETATM   46  O   UNK N   1      34.778  13.598  16.520  0.00  0.00    -0.390 OA
HETATM   47  H   UNK N   1      33.854  13.573  16.226  0.00  0.00     0.210 HD
ENDBRANCH  41  46
BRANCH  43  48
HETATM   48  O   UNK N   1      33.992  12.314  14.367  0.00  0.00    -0.387 OA
HETATM   49  H   UNK N   1      33.652  12.929  13.698  0.00  0.00     0.210 HD
ENDBRANCH  43  48
ENDBRANCH  37  38
ENDBRANCH  33  37
ENDBRANCH  27  28
ENDBRANCH  23  27
ENDBRANCH  17  18
ENDBRANCH  12  17
BRANCH  13  50
HETATM   50  C   UNK N   1      31.297  13.001   2.554  0.00  0.00     0.200 C 
BRANCH  50  51
HETATM   51  C   UNK N   1      32.526  12.678   1.740  0.00  0.00     0.186 C 
HETATM   52  O   UNK N   1      32.447  12.685   0.520  0.00  0.00    -0.292 OA
BRANCH  51  53
HETATM   53  C   UNK N   1      33.828  12.333   2.396  0.00  0.00     0.218 C 
BRANCH  53  54
HETATM   54  C   UNK N   1      34.952  13.271   1.950  0.00  0.00     0.150 C 
HETATM   55  C   UNK N   1      35.972  13.436   3.059  0.00  0.00     0.042 C 
BRANCH  54  56
HETATM   56  O   UNK N   1      34.439  14.528   1.631  0.00  0.00    -0.393 OA
HETATM   57  H   UNK N   1      34.233  14.885   0.753  0.00  0.00     0.210 HD
ENDBRANCH  54  56
ENDBRANCH  53  54
BRANCH  53  58
HETATM   58  O   UNK N   1      34.159  11.016   2.063  0.00  0.00    -0.385 OA
HETATM   59  H   UNK N   1      33.568  10.308   1.767  0.00  0.00     0.210 HD
ENDBRANCH  53  58
ENDBRANCH  51  53
ENDBRANCH  50  51
BRANCH  50  60
HETATM   60  O   UNK N   1      30.198  12.240   2.152  0.00  0.00    -0.383 OA
HETATM   61  C   UNK N   1      29.406  13.135   1.424  0.00  0.00     0.202 C 
ENDBRANCH  50  60
ENDBRANCH  13  50
BRANCH   7  62
HETATM   62  O   UNK N   1      30.716  18.020   3.862  0.00  0.00    -0.359 OA
HETATM   63  H   UNK N   1      31.596  18.307   3.720  0.00  0.00     0.217 HD
ENDBRANCH   7  62
BRANCH   3  64
HETATM   64  O   UNK N   1      28.936  19.654   4.359  0.00  0.00    -0.359 OA
HETATM   65  H   UNK N   1      29.015  20.453   3.877  0.00  0.00     0.217 HD
ENDBRANCH   3  64
BRANCH   2  66
HETATM   66  O   UNK N   1      24.538  18.185   4.945  0.00  0.00    -0.320 OA
BRANCH  66  67
HETATM   67  C   UNK N   1      23.557  17.845   4.047  0.00  0.00     0.269 C 
HETATM   68  C   UNK N   1      22.937  16.458   4.324  0.00  0.00     0.096 C 
HETATM   69  C   UNK N   1      21.998  16.454   5.533  0.00  0.00     0.160 C 
HETATM   70  C   UNK N   1      21.247  17.789   5.709  0.00  0.00     0.176 C 
HETATM   71  C   UNK N   1      21.319  18.655   4.447  0.00  0.00     0.151 C 
HETATM   72  O   UNK N   1      22.635  18.937   3.985  0.00  0.00    -0.353 OA
HETATM   73  C   UNK N   1      20.459  18.114   3.321  0.00  0.00     0.042 C 
BRANCH  69  74
HETATM   74  O   UNK N   1      22.668  16.061   6.707  0.00  0.00    -0.353 OA
BRANCH  74  75
HETATM   75  C   UNK N   1      21.908  15.089   7.394  0.00  0.00     0.263 C 
HETATM   76  O   UNK N   1      22.484  13.787   7.404  0.00  0.00    -0.354 OA
HETATM   77  C   UNK N   1      23.150  13.625   8.633  0.00  0.00     0.151 C 
HETATM   78  C   UNK N   1      22.160  13.487   9.805  0.00  0.00     0.175 C 
HETATM   79  C   UNK N   1      24.212  12.544   8.571  0.00  0.00     0.042 C 
HETATM   80  C   UNK N   1      20.894  14.333   9.551  0.00  0.00     0.154 C 
HETATM   81  C   UNK N   1      21.269  15.566   8.722  0.00  0.00     0.095 C 
BRANCH  78  82
HETATM   82  O   UNK N   1      21.816  12.154  10.049  0.00  0.00    -0.390 OA
HETATM   83  H   UNK N   1      22.253  11.626  10.735  0.00  0.00     0.210 HD
ENDBRANCH  78  82
BRANCH  80  84
HETATM   84  O   UNK N   1      19.938  13.589   8.849  0.00  0.00    -0.393 OA
HETATM   85  H   UNK N   1      19.743  13.281   7.951  0.00  0.00     0.210 HD
ENDBRANCH  80  84
ENDBRANCH  74  75
ENDBRANCH  69  74
BRANCH  70  86
HETATM   86  O   UNK N   1      21.706  18.513   6.809  0.00  0.00    -0.390 OA
HETATM   87  H   UNK N   1      22.173  18.800   7.609  0.00  0.00     0.210 HD
ENDBRANCH  70  86
ENDBRANCH  66  67
ENDBRANCH   2  66
TORSDOF 26
ENDMDL
MODEL 2
REMARK VINA RESULT:      -9.6      1.673      3.613
REMARK  26 active torsions:
REMARK  status: ('A' for Active; 'I' for Inactive)
REMARK    1  A    between atoms: C_1  and  O_13 
REMARK    2  A    between atoms: C_4  and  O_74 
REMARK    3  A    between atoms: C_5  and  O_73 
REMARK    4  A    between atoms: C_7  and  O_65 
REMARK    5  A    between atoms: C_10  and  O_75 
REMARK    6  A    between atoms: C_11  and  O_13 
REMARK    7  A    between atoms: C_14  and  O_56 
REMARK    8  A    between atoms: C_17  and  O_69 
REMARK    9  A    between atoms: C_18  and  O_65 
REMARK   10  A    between atoms: C_20  and  O_48 
REMARK   11  A    between atoms: C_23  and  O_68 
REMARK   12  A    between atoms: C_24  and  O_66 
REMARK   13  A    between atoms: C_27  and  O_49 
REMARK   14  A    between atoms: C_28  and  O_48 
REMARK   15  A    between atoms: C_30  and  O_34 
REMARK   16  A    between atoms: C_33  and  O_34 
REMARK   17  A    between atoms: C_35  and  O_60 
REMARK   18  A    between atoms: C_39  and  O_59 
REMARK   19  A    between atoms: C_44  and  O_56 
REMARK   20  A    between atoms: C_45  and  C_52 
REMARK   21  A    between atoms: C_51  and  C_52 
REMARK   22  A    between atoms: C_51  and  C_55 
REMARK   23  A    between atoms: C_52  and  O_57 
REMARK   24  A    between atoms: C_54  and  O_53 
REMARK   25  A    between atoms: C_54  and  C_55 
REMARK   26  A    between atoms: C_55  and  O_61 
ROOT
HETATM    1  C   UNK N   1      26.729  16.501   4.058  0.00  0.00     0.006 A 
HETATM    2  C   UNK N   1      26.306  15.217   4.401  0.00  0.00     0.081 A 
HETATM    3  C   UNK N   1      28.062  16.774   3.860  0.00  0.00     0.088 A 
HETATM    4  C   UNK N   1      29.017  15.752   3.945  0.00  0.00     0.042 A 
HETATM    5  C   UNK N   1      28.630  14.452   4.376  0.00  0.00    -0.017 A 
HETATM    6  C   UNK N   1      27.259  14.188   4.609  0.00  0.00     0.050 A 
HETATM    7  C   UNK N   1      30.337  15.989   3.566  0.00  0.00     0.094 A 
HETATM    8  C   UNK N   1      31.298  14.997   3.655  0.00  0.00     0.053 A 
HETATM    9  C   UNK N   1      30.966  13.722   4.178  0.00  0.00    -0.040 A 
HETATM   10  C   UNK N   1      29.619  13.450   4.515  0.00  0.00     0.020 A 
HETATM   11  C   UNK N   1      32.675  15.283   3.228  0.00  0.00     0.192 C 
HETATM   12  C   UNK N   1      33.744  14.436   3.768  0.00  0.00     0.206 C 
HETATM   13  C   UNK N   1      33.394  12.947   3.610  0.00  0.00     0.063 C 
HETATM   14  C   UNK N   1      32.045  12.647   4.339  0.00  0.00     0.050 C 
HETATM   15  O   UNK N   1      32.953  16.217   2.487  0.00  0.00    -0.289 OA
HETATM   16  C   UNK N   1      25.734  17.591   3.852  0.00  0.00     0.054 C 
ENDROOT
BRANCH  12  17
HETATM   17  O   UNK N   1      34.650  14.969   4.748  0.00  0.00    -0.348 OA
BRANCH  17  18
HETATM   18  C   UNK N   1      34.023  15.477   5.932  0.00  0.00     0.263 C 
HETATM   19  O   UNK N   1      34.777  16.455   6.603  0.00  0.00    -0.354 OA
HETATM   20  C   UNK N   1      33.851  17.264   7.290  0.00  0.00     0.151 C 
HETATM   21  C   UNK N   1      32.983  16.426   8.238  0.00  0.00     0.176 C 
HETATM   22  C   UNK N   1      34.592  18.319   8.080  0.00  0.00     0.042 C 
HETATM   23  C   UNK N   1      33.582  15.012   8.414  0.00  0.00     0.160 C 
HETATM   24  C   UNK N   1      33.774  14.375   6.994  0.00  0.00     0.095 C 
BRANCH  21  25
HETATM   25  O   UNK N   1      31.700  16.320   7.703  0.00  0.00    -0.390 OA
HETATM   26  H   UNK N   1      30.821  16.029   7.412  0.00  0.00     0.210 HD
ENDBRANCH  21  25
BRANCH  23  27
HETATM   27  O   UNK N   1      34.829  15.044   9.103  0.00  0.00    -0.353 OA
BRANCH  27  28
HETATM   28  C   UNK N   1      35.673  13.923   8.826  0.00  0.00     0.263 C 
HETATM   29  O   UNK N   1      36.773  14.314   8.006  0.00  0.00    -0.354 OA
HETATM   30  C   UNK N   1      37.910  13.502   8.203  0.00  0.00     0.151 C 
HETATM   31  C   UNK N   1      38.460  13.629   9.628  0.00  0.00     0.176 C 
HETATM   32  C   UNK N   1      38.983  13.832   7.179  0.00  0.00     0.042 C 
HETATM   33  C   UNK N   1      37.323  13.452  10.639  0.00  0.00     0.160 C 
HETATM   34  C   UNK N   1      35.995  13.005  10.036  0.00  0.00     0.095 C 
BRANCH  31  35
HETATM   35  O   UNK N   1      39.091  14.857   9.843  0.00  0.00    -0.390 OA
HETATM   36  H   UNK N   1      38.830  15.702   9.445  0.00  0.00     0.210 HD
ENDBRANCH  31  35
BRANCH  33  37
HETATM   37  O   UNK N   1      37.640  12.848  11.876  0.00  0.00    -0.353 OA
BRANCH  37  38
HETATM   38  C   UNK N   1      36.533  12.757  12.756  0.00  0.00     0.263 C 
HETATM   39  O   UNK N   1      36.379  13.898  13.592  0.00  0.00    -0.354 OA
HETATM   40  C   UNK N   1      36.667  13.527  14.916  0.00  0.00     0.152 C 
HETATM   41  C   UNK N   1      35.595  12.585  15.493  0.00  0.00     0.180 C 
HETATM   42  C   UNK N   1      36.980  14.723  15.795  0.00  0.00     0.042 C 
HETATM   43  C   UNK N   1      35.097  11.586  14.424  0.00  0.00     0.087 C 
HETATM   44  C   UNK N   1      36.186  11.370  13.371  0.00  0.00     0.101 C 
HETATM   45  C   UNK N   1      34.744  10.272  15.090  0.00  0.00     0.049 C 
BRANCH  41  46
HETATM   46  O   UNK N   1      34.520  13.292  16.044  0.00  0.00    -0.390 OA
HETATM   47  H   UNK N   1      33.662  12.880  16.229  0.00  0.00     0.210 HD
ENDBRANCH  41  46
BRANCH  43  48
HETATM   48  O   UNK N   1      33.959  12.083  13.780  0.00  0.00    -0.387 OA
HETATM   49  H   UNK N   1      33.502  12.056  12.925  0.00  0.00     0.210 HD
ENDBRANCH  43  48
ENDBRANCH  37  38
ENDBRANCH  33  37
ENDBRANCH  27  28
ENDBRANCH  23  27
ENDBRANCH  17  18
ENDBRANCH  12  17
BRANCH  13  50
HETATM   50  C   UNK N   1      33.178  12.719   2.087  0.00  0.00     0.200 C 
BRANCH  50  51
HETATM   51  C   UNK N   1      34.425  12.810   1.241  0.00  0.00     0.186 C 
HETATM   52  O   UNK N   1      34.601  13.803   0.550  0.00  0.00    -0.292 OA
BRANCH  51  53
HETATM   53  C   UNK N   1      35.435  11.703   1.218  0.00  0.00     0.218 C 
BRANCH  53  54
HETATM   54  C   UNK N   1      36.695  12.072   2.006  0.00  0.00     0.150 C 
HETATM   55  C   UNK N   1      36.677  11.407   3.369  0.00  0.00     0.042 C 
BRANCH  54  56
HETATM   56  O   UNK N   1      36.768  13.452   2.188  0.00  0.00    -0.393 OA
HETATM   57  H   UNK N   1      36.506  13.968   2.966  0.00  0.00     0.210 HD
ENDBRANCH  54  56
ENDBRANCH  53  54
BRANCH  53  58
HETATM   58  O   UNK N   1      35.776  11.438  -0.112  0.00  0.00    -0.385 OA
HETATM   59  H   UNK N   1      36.645  11.512  -0.532  0.00  0.00     0.210 HD
ENDBRANCH  53  58
ENDBRANCH  51  53
ENDBRANCH  50  51
BRANCH  50  60
HETATM   60  O   UNK N   1      32.438  11.574   1.792  0.00  0.00    -0.383 OA
HETATM   61  C   UNK N   1      31.590  11.969   0.752  0.00  0.00     0.202 C 
ENDBRANCH  50  60
ENDBRANCH  13  50
BRANCH   7  62
HETATM   62  O   UNK N   1      30.690  17.199   3.080  0.00  0.00    -0.359 OA
HETATM   63  H   UNK N   1      31.363  17.733   2.705  0.00  0.00     0.217 HD
ENDBRANCH   7  62
BRANCH   3  64
HETATM   64  O   UNK N   1      28.420  18.040   3.551  0.00  0.00    -0.359 OA
HETATM   65  H   UNK N   1      28.990  18.525   2.989  0.00  0.00     0.217 HD
ENDBRANCH   3  64
BRANCH   2  66
HETATM   66  O   UNK N   1      24.969  15.020   4.451  0.00  0.00    -0.320 OA
BRANCH  66  67
HETATM   67  C   UNK N   1      24.159  14.909   5.554  0.00  0.00     0.269 C 
HETATM   68  C   UNK N   1      23.213  16.116   5.735  0.00  0.00     0.096 C 
HETATM   69  C   UNK N   1      22.054  16.120   4.736  0.00  0.00     0.160 C 
HETATM   70  C   UNK N   1      21.583  14.700   4.361  0.00  0.00     0.176 C 
HETATM   71  C   UNK N   1      22.113  13.647   5.340  0.00  0.00     0.151 C 
HETATM   72  O   UNK N   1      23.527  13.627   5.495  0.00  0.00    -0.353 OA
HETATM   73  C   UNK N   1      21.427  13.712   6.691  0.00  0.00     0.042 C 
BRANCH  69  74
HETATM   74  O   UNK N   1      22.350  16.900   3.602  0.00  0.00    -0.353 OA
BRANCH  74  75
HETATM   75  C   UNK N   1      21.811  18.197   3.753  0.00  0.00     0.263 C 
HETATM   76  O   UNK N   1      22.773  19.207   4.041  0.00  0.00    -0.354 OA
HETATM   77  C   UNK N   1      23.082  19.858   2.833  0.00  0.00     0.151 C 
HETATM   78  C   UNK N   1      21.915  20.734   2.341  0.00  0.00     0.175 C 
HETATM   79  C   UNK N   1      24.424  20.564   2.891  0.00  0.00     0.042 C 
HETATM   80  C   UNK N   1      20.560  20.100   2.721  0.00  0.00     0.154 C 
HETATM   81  C   UNK N   1      20.704  18.574   2.737  0.00  0.00     0.095 C 
BRANCH  78  82
HETATM   82  O   UNK N   1      21.996  22.041   2.830  0.00  0.00    -0.390 OA
HETATM   83  H   UNK N   1      22.425  22.250   3.675  0.00  0.00     0.210 HD
ENDBRANCH  78  82
BRANCH  80  84
HETATM   84  O   UNK N   1      20.154  20.530   3.991  0.00  0.00    -0.393 OA
HETATM   85  H   UNK N   1      20.361  20.393   4.928  0.00  0.00     0.210 HD
ENDBRANCH  80  84
ENDBRANCH  74  75
ENDBRANCH  69  74
BRANCH  70  86
HETATM   86  O   UNK N   1      21.933  14.355   3.057  0.00  0.00    -0.390 OA
HETATM   87  H   UNK N   1      22.315  14.340   2.165  0.00  0.00     0.210 HD
ENDBRANCH  70  86
ENDBRANCH  66  67
ENDBRANCH   2  66
TORSDOF 26
ENDMDL
MODEL 3
REMARK VINA RESULT:      -9.3      1.629      2.187
REMARK  26 active torsions:
REMARK  status: ('A' for Active; 'I' for Inactive)
REMARK    1  A    between atoms: C_1  and  O_13 
REMARK    2  A    between atoms: C_4  and  O_74 
REMARK    3  A    between atoms: C_5  and  O_73 
REMARK    4  A    between atoms: C_7  and  O_65 
REMARK    5  A    between atoms: C_10  and  O_75 
REMARK    6  A    between atoms: C_11  and  O_13 
REMARK    7  A    between atoms: C_14  and  O_56 
REMARK    8  A    between atoms: C_17  and  O_69 
REMARK    9  A    between atoms: C_18  and  O_65 
REMARK   10  A    between atoms: C_20  and  O_48 
REMARK   11  A    between atoms: C_23  and  O_68 
REMARK   12  A    between atoms: C_24  and  O_66 
REMARK   13  A    between atoms: C_27  and  O_49 
REMARK   14  A    between atoms: C_28  and  O_48 
REMARK   15  A    between atoms: C_30  and  O_34 
REMARK   16  A    between atoms: C_33  and  O_34 
REMARK   17  A    between atoms: C_35  and  O_60 
REMARK   18  A    between atoms: C_39  and  O_59 
REMARK   19  A    between atoms: C_44  and  O_56 
REMARK   20  A    between atoms: C_45  and  C_52 
REMARK   21  A    between atoms: C_51  and  C_52 
REMARK   22  A    between atoms: C_51  and  C_55 
REMARK   23  A    between atoms: C_52  and  O_57 
REMARK   24  A    between atoms: C_54  and  O_53 
REMARK   25  A    between atoms: C_54  and  C_55 
REMARK   26  A    between atoms: C_55  and  O_61 
ROOT
HETATM    1  C   UNK N   1      26.778  16.824   4.045  0.00  0.00     0.006 A 
HETATM    2  C   UNK N   1      26.273  15.585   4.439  0.00  0.00     0.081 A 
HETATM    3  C   UNK N   1      28.132  17.025   3.915  0.00  0.00     0.088 A 
HETATM    4  C   UNK N   1      29.030  15.970   4.124  0.00  0.00     0.042 A 
HETATM    5  C   UNK N   1      28.555  14.718   4.609  0.00  0.00    -0.017 A 
HETATM    6  C   UNK N   1      27.162  14.531   4.771  0.00  0.00     0.050 A 
HETATM    7  C   UNK N   1      30.380  16.124   3.815  0.00  0.00     0.094 A 
HETATM    8  C   UNK N   1      31.285  15.098   4.026  0.00  0.00     0.053 A 
HETATM    9  C   UNK N   1      30.861  13.875   4.604  0.00  0.00    -0.040 A 
HETATM   10  C   UNK N   1      29.485  13.685   4.872  0.00  0.00     0.020 A 
HETATM   11  C   UNK N   1      32.698  15.295   3.670  0.00  0.00     0.192 C 
HETATM   12  C   UNK N   1      33.690  14.438   4.328  0.00  0.00     0.206 C 
HETATM   13  C   UNK N   1      33.279  12.959   4.241  0.00  0.00     0.063 C 
HETATM   14  C   UNK N   1      31.876  12.767   4.900  0.00  0.00     0.050 C 
HETATM   15  O   UNK N   1      33.064  16.166   2.892  0.00  0.00    -0.289 OA
HETATM   16  C   UNK N   1      25.850  17.941   3.709  0.00  0.00     0.054 C 
ENDROOT
BRANCH  12  17
HETATM   17  O   UNK N   1      34.560  14.993   5.328  0.00  0.00    -0.348 OA
BRANCH  17  18
HETATM   18  C   UNK N   1      33.897  15.754   6.345  0.00  0.00     0.263 C 
HETATM   19  O   UNK N   1      34.728  16.679   7.001  0.00  0.00    -0.354 OA
HETATM   20  C   UNK N   1      33.887  17.715   7.452  0.00  0.00     0.151 C 
HETATM   21  C   UNK N   1      32.775  17.167   8.356  0.00  0.00     0.176 C 
HETATM   22  C   UNK N   1      34.705  18.732   8.214  0.00  0.00     0.042 C 
HETATM   23  C   UNK N   1      33.084  15.713   8.776  0.00  0.00     0.160 C 
HETATM   24  C   UNK N   1      33.328  14.864   7.480  0.00  0.00     0.095 C 
BRANCH  21  25
HETATM   25  O   UNK N   1      31.567  17.200   7.660  0.00  0.00    -0.390 OA
HETATM   26  H   UNK N   1      30.772  17.449   7.163  0.00  0.00     0.210 HD
ENDBRANCH  21  25
BRANCH  23  27
HETATM   27  O   UNK N   1      34.224  15.634   9.627  0.00  0.00    -0.353 OA
BRANCH  27  28
HETATM   28  C   UNK N   1      34.582  14.299   9.996  0.00  0.00     0.263 C 
HETATM   29  O   UNK N   1      35.618  13.806   9.148  0.00  0.00    -0.354 OA
HETATM   30  C   UNK N   1      36.423  12.837   9.784  0.00  0.00     0.151 C 
HETATM   31  C   UNK N   1      37.184  13.426  10.978  0.00  0.00     0.176 C 
HETATM   32  C   UNK N   1      37.383  12.207   8.790  0.00  0.00     0.042 C 
HETATM   33  C   UNK N   1      36.215  14.195  11.881  0.00  0.00     0.160 C 
HETATM   34  C   UNK N   1      34.741  14.039  11.518  0.00  0.00     0.095 C 
BRANCH  31  35
HETATM   35  O   UNK N   1      38.222  14.271  10.578  0.00  0.00    -0.390 OA
HETATM   36  H   UNK N   1      38.131  15.212  10.361  0.00  0.00     0.210 HD
ENDBRANCH  31  35
BRANCH  33  37
HETATM   37  O   UNK N   1      36.481  14.198  13.268  0.00  0.00    -0.353 OA
BRANCH  37  38
HETATM   38  C   UNK N   1      36.085  13.003  13.918  0.00  0.00     0.263 C 
HETATM   39  O   UNK N   1      35.100  13.207  14.926  0.00  0.00    -0.354 OA
HETATM   40  C   UNK N   1      35.684  12.959  16.180  0.00  0.00     0.152 C 
HETATM   41  C   UNK N   1      36.010  11.468  16.375  0.00  0.00     0.180 C 
HETATM   42  C   UNK N   1      34.890  13.575  17.317  0.00  0.00     0.042 C 
HETATM   43  C   UNK N   1      36.525  10.833  15.064  0.00  0.00     0.087 C 
HETATM   44  C   UNK N   1      37.161  11.910  14.183  0.00  0.00     0.101 C 
HETATM   45  C   UNK N   1      37.540   9.757  15.391  0.00  0.00     0.049 C 
BRANCH  41  46
HETATM   46  O   UNK N   1      34.914  10.753  16.871  0.00  0.00    -0.390 OA
HETATM   47  H   UNK N   1      34.892   9.784  16.903  0.00  0.00     0.210 HD
ENDBRANCH  41  46
BRANCH  43  48
HETATM   48  O   UNK N   1      35.470  10.254  14.352  0.00  0.00    -0.387 OA
HETATM   49  H   UNK N   1      34.881  10.424  13.600  0.00  0.00     0.210 HD
ENDBRANCH  43  48
ENDBRANCH  37  38
ENDBRANCH  33  37
ENDBRANCH  27  28
ENDBRANCH  23  27
ENDBRANCH  17  18
ENDBRANCH  12  17
BRANCH  13  50
HETATM   50  C   UNK N   1      33.146  12.643   2.724  0.00  0.00     0.200 C 
BRANCH  50  51
HETATM   51  C   UNK N   1      34.412  12.172   2.051  0.00  0.00     0.186 C 
HETATM   52  O   UNK N   1      34.753  11.005   2.183  0.00  0.00    -0.292 OA
BRANCH  51  53
HETATM   53  C   UNK N   1      35.261  13.106   1.245  0.00  0.00     0.218 C 
BRANCH  53  54
HETATM   54  C   UNK N   1      36.555  13.470   1.978  0.00  0.00     0.150 C 
HETATM   55  C   UNK N   1      37.759  13.105   1.132  0.00  0.00     0.042 C 
BRANCH  54  56
HETATM   56  O   UNK N   1      36.638  12.781   3.187  0.00  0.00    -0.393 OA
HETATM   57  H   UNK N   1      36.222  11.938   3.427  0.00  0.00     0.210 HD
ENDBRANCH  54  56
ENDBRANCH  53  54
BRANCH  53  58
HETATM   58  O   UNK N   1      34.526  14.268   0.990  0.00  0.00    -0.385 OA
HETATM   59  H   UNK N   1      34.676  14.931   0.300  0.00  0.00     0.210 HD
ENDBRANCH  53  58
ENDBRANCH  51  53
ENDBRANCH  50  51
BRANCH  50  60
HETATM   60  O   UNK N   1      32.063  11.818   2.419  0.00  0.00    -0.383 OA
HETATM   61  C   UNK N   1      31.610  12.286   1.181  0.00  0.00     0.202 C 
ENDBRANCH  50  60
ENDBRANCH  13  50
BRANCH   7  62
HETATM   62  O   UNK N   1      30.819  17.283   3.278  0.00  0.00    -0.359 OA
HETATM   63  H   UNK N   1      31.459  17.713   2.745  0.00  0.00     0.217 HD
ENDBRANCH   7  62
BRANCH   3  64
HETATM   64  O   UNK N   1      28.568  18.251   3.552  0.00  0.00    -0.359 OA
HETATM   65  H   UNK N   1      28.346  19.159   3.616  0.00  0.00     0.217 HD
ENDBRANCH   3  64
BRANCH   2  66
HETATM   66  O   UNK N   1      24.928  15.450   4.417  0.00  0.00    -0.320 OA
BRANCH  66  67
HETATM   67  C   UNK N   1      24.175  14.466   3.825  0.00  0.00     0.269 C 
HETATM   68  C   UNK N   1      22.937  14.068   4.657  0.00  0.00     0.096 C 
HETATM   69  C   UNK N   1      21.823  15.116   4.608  0.00  0.00     0.160 C 
HETATM   70  C   UNK N   1      21.756  15.853   3.255  0.00  0.00     0.176 C 
HETATM   71  C   UNK N   1      22.548  15.121   2.167  0.00  0.00     0.151 C 
HETATM   72  O   UNK N   1      23.914  14.876   2.480  0.00  0.00    -0.353 OA
HETATM   73  C   UNK N   1      21.866  13.846   1.709  0.00  0.00     0.042 C 
BRANCH  69  74
HETATM   74  O   UNK N   1      21.900  16.006   5.696  0.00  0.00    -0.353 OA
BRANCH  74  75
HETATM   75  C   UNK N   1      20.786  15.828   6.546  0.00  0.00     0.263 C 
HETATM   76  O   UNK N   1      20.527  14.474   6.904  0.00  0.00    -0.354 OA
HETATM   77  C   UNK N   1      21.087  14.255   8.175  0.00  0.00     0.151 C 
HETATM   78  C   UNK N   1      20.296  14.979   9.281  0.00  0.00     0.175 C 
HETATM   79  C   UNK N   1      21.345  12.784   8.442  0.00  0.00     0.042 C 
HETATM   80  C   UNK N   1      19.711  16.306   8.752  0.00  0.00     0.154 C 
HETATM   81  C   UNK N   1      20.643  16.875   7.678  0.00  0.00     0.095 C 
BRANCH  78  82
HETATM   82  O   UNK N   1      19.283  14.177   9.814  0.00  0.00    -0.390 OA
HETATM   83  H   UNK N   1      19.379  13.724  10.667  0.00  0.00     0.210 HD
ENDBRANCH  78  82
BRANCH  80  84
HETATM   84  O   UNK N   1      18.446  16.096   8.189  0.00  0.00    -0.393 OA
HETATM   85  H   UNK N   1      18.024  15.971   7.325  0.00  0.00     0.210 HD
ENDBRANCH  80  84
ENDBRANCH  74  75
ENDBRANCH  69  74
BRANCH  70  86
HETATM   86  O   UNK N   1      22.191  17.175   3.352  0.00  0.00    -0.390 OA
HETATM   87  H   UNK N   1      22.383  18.109   3.180  0.00  0.00     0.210 HD
ENDBRANCH  70  86
ENDBRANCH  66  67
ENDBRANCH   2  66
TORSDOF 26
ENDMDL
MODEL 4
REMARK VINA RESULT:      -9.2      2.190      5.369
REMARK  26 active torsions:
REMARK  status: ('A' for Active; 'I' for Inactive)
REMARK    1  A    between atoms: C_1  and  O_13 
REMARK    2  A    between atoms: C_4  and  O_74 
REMARK    3  A    between atoms: C_5  and  O_73 
REMARK    4  A    between atoms: C_7  and  O_65 
REMARK    5  A    between atoms: C_10  and  O_75 
REMARK    6  A    between atoms: C_11  and  O_13 
REMARK    7  A    between atoms: C_14  and  O_56 
REMARK    8  A    between atoms: C_17  and  O_69 
REMARK    9  A    between atoms: C_18  and  O_65 
REMARK   10  A    between atoms: C_20  and  O_48 
REMARK   11  A    between atoms: C_23  and  O_68 
REMARK   12  A    between atoms: C_24  and  O_66 
REMARK   13  A    between atoms: C_27  and  O_49 
REMARK   14  A    between atoms: C_28  and  O_48 
REMARK   15  A    between atoms: C_30  and  O_34 
REMARK   16  A    between atoms: C_33  and  O_34 
REMARK   17  A    between atoms: C_35  and  O_60 
REMARK   18  A    between atoms: C_39  and  O_59 
REMARK   19  A    between atoms: C_44  and  O_56 
REMARK   20  A    between atoms: C_45  and  C_52 
REMARK   21  A    between atoms: C_51  and  C_52 
REMARK   22  A    between atoms: C_51  and  C_55 
REMARK   23  A    between atoms: C_52  and  O_57 
REMARK   24  A    between atoms: C_54  and  O_53 
REMARK   25  A    between atoms: C_54  and  C_55 
REMARK   26  A    between atoms: C_55  and  O_61 
ROOT
HETATM    1  C   UNK N   1      27.192  16.461   4.125  0.00  0.00     0.006 A 
HETATM    2  C   UNK N   1      26.757  15.210   4.562  0.00  0.00     0.081 A 
HETATM    3  C   UNK N   1      28.530  16.716   3.937  0.00  0.00     0.088 A 
HETATM    4  C   UNK N   1      29.480  15.704   4.127  0.00  0.00     0.042 A 
HETATM    5  C   UNK N   1      29.079  14.443   4.653  0.00  0.00    -0.017 A 
HETATM    6  C   UNK N   1      27.702  14.200   4.876  0.00  0.00     0.050 A 
HETATM    7  C   UNK N   1      30.808  15.908   3.760  0.00  0.00     0.094 A 
HETATM    8  C   UNK N   1      31.764  14.925   3.952  0.00  0.00     0.053 A 
HETATM    9  C   UNK N   1      31.417  13.697   4.569  0.00  0.00    -0.040 A 
HETATM   10  C   UNK N   1      30.061  13.455   4.896  0.00  0.00     0.020 A 
HETATM   11  C   UNK N   1      33.152  15.174   3.535  0.00  0.00     0.192 C 
HETATM   12  C   UNK N   1      34.205  14.373   4.168  0.00  0.00     0.206 C 
HETATM   13  C   UNK N   1      33.855  12.876   4.123  0.00  0.00     0.063 C 
HETATM   14  C   UNK N   1      32.489  12.639   4.842  0.00  0.00     0.050 C 
HETATM   15  O   UNK N   1      33.449  16.044   2.727  0.00  0.00    -0.289 OA
HETATM   16  C   UNK N   1      26.205  17.531   3.808  0.00  0.00     0.054 C 
ENDROOT
BRANCH  12  17
HETATM   17  O   UNK N   1      35.090  14.984   5.121  0.00  0.00    -0.348 OA
BRANCH  17  18
HETATM   18  C   UNK N   1      34.467  15.386   6.347  0.00  0.00     0.263 C 
HETATM   19  O   UNK N   1      34.828  16.675   6.775  0.00  0.00    -0.354 OA
HETATM   20  C   UNK N   1      33.746  17.153   7.541  0.00  0.00     0.151 C 
HETATM   21  C   UNK N   1      33.432  16.204   8.705  0.00  0.00     0.176 C 
HETATM   22  C   UNK N   1      34.080  18.526   8.081  0.00  0.00     0.042 C 
HETATM   23  C   UNK N   1      34.579  15.188   8.900  0.00  0.00     0.160 C 
HETATM   24  C   UNK N   1      34.834  14.459   7.534  0.00  0.00     0.095 C 
BRANCH  21  25
HETATM   25  O   UNK N   1      32.251  15.518   8.425  0.00  0.00    -0.390 OA
HETATM   26  H   UNK N   1      31.407  15.202   8.063  0.00  0.00     0.210 HD
ENDBRANCH  21  25
BRANCH  23  27
HETATM   27  O   UNK N   1      35.779  15.816   9.344  0.00  0.00    -0.353 OA
BRANCH  27  28
HETATM   28  C   UNK N   1      36.412  15.147  10.438  0.00  0.00     0.263 C 
HETATM   29  O   UNK N   1      35.471  14.338  11.143  0.00  0.00    -0.354 OA
HETATM   30  C   UNK N   1      36.076  13.231  11.775  0.00  0.00     0.151 C 
HETATM   31  C   UNK N   1      36.693  12.263  10.759  0.00  0.00     0.176 C 
HETATM   32  C   UNK N   1      35.074  12.513  12.664  0.00  0.00     0.042 C 
HETATM   33  C   UNK N   1      37.573  13.039   9.774  0.00  0.00     0.160 C 
HETATM   34  C   UNK N   1      37.792  14.506  10.131  0.00  0.00     0.095 C 
BRANCH  31  35
HETATM   35  O   UNK N   1      35.723  11.545  10.055  0.00  0.00    -0.390 OA
HETATM   36  H   UNK N   1      35.807  11.230   9.142  0.00  0.00     0.210 HD
ENDBRANCH  31  35
BRANCH  33  37
HETATM   37  O   UNK N   1      38.714  12.382   9.262  0.00  0.00    -0.353 OA
BRANCH  37  38
HETATM   38  C   UNK N   1      39.171  12.924   8.036  0.00  0.00     0.263 C 
HETATM   39  O   UNK N   1      38.186  12.907   7.008  0.00  0.00    -0.354 OA
HETATM   40  C   UNK N   1      38.578  11.980   6.026  0.00  0.00     0.152 C 
HETATM   41  C   UNK N   1      39.816  12.459   5.249  0.00  0.00     0.180 C 
HETATM   42  C   UNK N   1      37.420  11.549   5.146  0.00  0.00     0.042 C 
HETATM   43  C   UNK N   1      40.818  13.177   6.182  0.00  0.00     0.087 C 
HETATM   44  C   UNK N   1      40.647  12.667   7.614  0.00  0.00     0.101 C 
HETATM   45  C   UNK N   1      42.230  12.916   5.698  0.00  0.00     0.049 C 
BRANCH  41  46
HETATM   46  O   UNK N   1      39.471  13.283   4.171  0.00  0.00    -0.390 OA
HETATM   47  H   UNK N   1      39.665  13.050   3.251  0.00  0.00     0.210 HD
ENDBRANCH  41  46
BRANCH  43  48
HETATM   48  O   UNK N   1      40.590  14.557   6.179  0.00  0.00    -0.387 OA
HETATM   49  H   UNK N   1      40.449  15.301   6.784  0.00  0.00     0.210 HD
ENDBRANCH  43  48
ENDBRANCH  37  38
ENDBRANCH  33  37
ENDBRANCH  27  28
ENDBRANCH  23  27
ENDBRANCH  17  18
ENDBRANCH  12  17
BRANCH  13  50
HETATM   50  C   UNK N   1      33.674  12.525   2.620  0.00  0.00     0.200 C 
BRANCH  50  51
HETATM   51  C   UNK N   1      34.946  12.184   1.881  0.00  0.00     0.186 C 
HETATM   52  O   UNK N   1      35.543  11.159   2.173  0.00  0.00    -0.292 OA
BRANCH  51  53
HETATM   53  C   UNK N   1      35.495  13.084   0.816  0.00  0.00     0.218 C 
BRANCH  53  54
HETATM   54  C   UNK N   1      36.904  13.572   1.160  0.00  0.00     0.150 C 
HETATM   55  C   UNK N   1      37.934  12.833   0.328  0.00  0.00     0.042 C 
BRANCH  54  56
HETATM   56  O   UNK N   1      37.181  13.349   2.508  0.00  0.00    -0.393 OA
HETATM   57  H   UNK N   1      37.981  12.965   2.899  0.00  0.00     0.210 HD
ENDBRANCH  54  56
ENDBRANCH  53  54
BRANCH  53  58
HETATM   58  O   UNK N   1      34.640  14.182   0.677  0.00  0.00    -0.385 OA
HETATM   59  H   UNK N   1      33.807  14.353   1.141  0.00  0.00     0.210 HD
ENDBRANCH  53  58
ENDBRANCH  51  53
ENDBRANCH  50  51
BRANCH  50  60
HETATM   60  O   UNK N   1      32.672  11.583   2.382  0.00  0.00    -0.383 OA
HETATM   61  C   UNK N   1      31.980  12.086   1.275  0.00  0.00     0.202 C 
ENDBRANCH  50  60
ENDBRANCH  13  50
BRANCH   7  62
HETATM   62  O   UNK N   1      31.176  17.074   3.185  0.00  0.00    -0.359 OA
HETATM   63  H   UNK N   1      30.924  17.937   2.923  0.00  0.00     0.217 HD
ENDBRANCH   7  62
BRANCH   3  64
HETATM   64  O   UNK N   1      28.898  17.952   3.534  0.00  0.00    -0.359 OA
HETATM   65  H   UNK N   1      29.609  18.413   3.135  0.00  0.00     0.217 HD
ENDBRANCH   3  64
BRANCH   2  66
HETATM   66  O   UNK N   1      25.419  15.018   4.597  0.00  0.00    -0.320 OA
BRANCH  66  67
HETATM   67  C   UNK N   1      24.603  14.864   5.690  0.00  0.00     0.269 C 
HETATM   68  C   UNK N   1      23.621  16.040   5.884  0.00  0.00     0.096 C 
HETATM   69  C   UNK N   1      22.470  16.029   4.875  0.00  0.00     0.160 C 
HETATM   70  C   UNK N   1      22.044  14.603   4.470  0.00  0.00     0.176 C 
HETATM   71  C   UNK N   1      22.596  13.548   5.435  0.00  0.00     0.151 C 
HETATM   72  O   UNK N   1      24.008  13.566   5.602  0.00  0.00    -0.353 OA
HETATM   73  C   UNK N   1      21.896  13.569   6.781  0.00  0.00     0.042 C 
BRANCH  69  74
HETATM   74  O   UNK N   1      22.754  16.837   3.757  0.00  0.00    -0.353 OA
BRANCH  74  75
HETATM   75  C   UNK N   1      22.135  18.098   3.903  0.00  0.00     0.263 C 
HETATM   76  O   UNK N   1      23.039  19.180   4.105  0.00  0.00    -0.354 OA
HETATM   77  C   UNK N   1      23.231  19.812   2.863  0.00  0.00     0.151 C 
HETATM   78  C   UNK N   1      21.980  20.590   2.417  0.00  0.00     0.175 C 
HETATM   79  C   UNK N   1      24.521  20.610   2.820  0.00  0.00     0.042 C 
HETATM   80  C   UNK N   1      20.696  19.877   2.895  0.00  0.00     0.154 C 
HETATM   81  C   UNK N   1      20.947  18.367   2.946  0.00  0.00     0.095 C 
BRANCH  78  82
HETATM   82  O   UNK N   1      21.997  21.915   2.863  0.00  0.00    -0.390 OA
HETATM   83  H   UNK N   1      21.253  22.305   3.349  0.00  0.00     0.210 HD
ENDBRANCH  78  82
BRANCH  80  84
HETATM   84  O   UNK N   1      20.335  20.320   4.174  0.00  0.00    -0.393 OA
HETATM   85  H   UNK N   1      20.718  20.450   5.055  0.00  0.00     0.210 HD
ENDBRANCH  80  84
ENDBRANCH  74  75
ENDBRANCH  69  74
BRANCH  70  86
HETATM   86  O   UNK N   1      22.416  14.292   3.163  0.00  0.00    -0.390 OA
HETATM   87  H   UNK N   1      22.908  14.033   2.369  0.00  0.00     0.210 HD
ENDBRANCH  70  86
ENDBRANCH  66  67
ENDBRANCH   2  66
TORSDOF 26
ENDMDL
MODEL 5
REMARK VINA RESULT:      -9.0      2.197      5.189
REMARK  26 active torsions:
REMARK  status: ('A' for Active; 'I' for Inactive)
REMARK    1  A    between atoms: C_1  and  O_13 
REMARK    2  A    between atoms: C_4  and  O_74 
REMARK    3  A    between atoms: C_5  and  O_73 
REMARK    4  A    between atoms: C_7  and  O_65 
REMARK    5  A    between atoms: C_10  and  O_75 
REMARK    6  A    between atoms: C_11  and  O_13 
REMARK    7  A    between atoms: C_14  and  O_56 
REMARK    8  A    between atoms: C_17  and  O_69 
REMARK    9  A    between atoms: C_18  and  O_65 
REMARK   10  A    between atoms: C_20  and  O_48 
REMARK   11  A    between atoms: C_23  and  O_68 
REMARK   12  A    between atoms: C_24  and  O_66 
REMARK   13  A    between atoms: C_27  and  O_49 
REMARK   14  A    between atoms: C_28  and  O_48 
REMARK   15  A    between atoms: C_30  and  O_34 
REMARK   16  A    between atoms: C_33  and  O_34 
REMARK   17  A    between atoms: C_35  and  O_60 
REMARK   18  A    between atoms: C_39  and  O_59 
REMARK   19  A    between atoms: C_44  and  O_56 
REMARK   20  A    between atoms: C_45  and  C_52 
REMARK   21  A    between atoms: C_51  and  C_52 
REMARK   22  A    between atoms: C_51  and  C_55 
REMARK   23  A    between atoms: C_52  and  O_57 
REMARK   24  A    between atoms: C_54  and  O_53 
REMARK   25  A    between atoms: C_54  and  C_55 
REMARK   26  A    between atoms: C_55  and  O_61 
ROOT
HETATM    1  C   UNK N   1      26.906  16.605   4.149  0.00  0.00     0.006 A 
HETATM    2  C   UNK N   1      26.477  15.394   4.690  0.00  0.00     0.081 A 
HETATM    3  C   UNK N   1      28.238  16.830   3.893  0.00  0.00     0.088 A 
HETATM    4  C   UNK N   1      29.185  15.822   4.120  0.00  0.00     0.042 A 
HETATM    5  C   UNK N   1      28.793  14.608   4.750  0.00  0.00    -0.017 A 
HETATM    6  C   UNK N   1      27.423  14.398   5.040  0.00  0.00     0.050 A 
HETATM    7  C   UNK N   1      30.501  15.984   3.691  0.00  0.00     0.094 A 
HETATM    8  C   UNK N   1      31.454  15.006   3.917  0.00  0.00     0.053 A 
HETATM    9  C   UNK N   1      31.119  13.830   4.634  0.00  0.00    -0.040 A 
HETATM   10  C   UNK N   1      29.775  13.628   5.027  0.00  0.00     0.020 A 
HETATM   11  C   UNK N   1      32.828  15.208   3.432  0.00  0.00     0.192 C 
HETATM   12  C   UNK N   1      33.897  14.442   4.081  0.00  0.00     0.206 C 
HETATM   13  C   UNK N   1      33.531  12.950   4.158  0.00  0.00     0.063 C 
HETATM   14  C   UNK N   1      32.191  12.781   4.942  0.00  0.00     0.050 C 
HETATM   15  O   UNK N   1      33.102  16.014   2.554  0.00  0.00    -0.289 OA
HETATM   16  C   UNK N   1      25.918  17.662   3.792  0.00  0.00     0.054 C 
ENDROOT
BRANCH  12  17
HETATM   17  O   UNK N   1      34.822  15.108   4.955  0.00  0.00    -0.348 OA
BRANCH  17  18
HETATM   18  C   UNK N   1      34.289  15.465   6.236  0.00  0.00     0.263 C 
HETATM   19  O   UNK N   1      34.707  16.724   6.699  0.00  0.00    -0.354 OA
HETATM   20  C   UNK N   1      33.689  17.187   7.555  0.00  0.00     0.151 C 
HETATM   21  C   UNK N   1      33.429  16.190   8.692  0.00  0.00     0.176 C 
HETATM   22  C   UNK N   1      34.088  18.525   8.135  0.00  0.00     0.042 C 
HETATM   23  C   UNK N   1      34.562  15.142   8.764  0.00  0.00     0.160 C 
HETATM   24  C   UNK N   1      34.710  14.475   7.353  0.00  0.00     0.095 C 
BRANCH  21  25
HETATM   25  O   UNK N   1      32.215  15.543   8.459  0.00  0.00    -0.390 OA
HETATM   26  H   UNK N   1      31.487  15.000   8.117  0.00  0.00     0.210 HD
ENDBRANCH  21  25
BRANCH  23  27
HETATM   27  O   UNK N   1      35.802  15.724   9.158  0.00  0.00    -0.353 OA
BRANCH  27  28
HETATM   28  C   UNK N   1      36.515  14.961  10.134  0.00  0.00     0.263 C 
HETATM   29  O   UNK N   1      35.643  14.553  11.187  0.00  0.00    -0.354 OA
HETATM   30  C   UNK N   1      36.061  13.355  11.804  0.00  0.00     0.151 C 
HETATM   31  C   UNK N   1      36.027  12.172  10.829  0.00  0.00     0.176 C 
HETATM   32  C   UNK N   1      35.217  13.066  13.033  0.00  0.00     0.042 C 
HETATM   33  C   UNK N   1      36.749  12.549   9.532  0.00  0.00     0.160 C 
HETATM   34  C   UNK N   1      37.484  13.885   9.574  0.00  0.00     0.095 C 
BRANCH  31  35
HETATM   35  O   UNK N   1      34.722  11.765  10.538  0.00  0.00    -0.390 OA
HETATM   36  H   UNK N   1      34.355  11.644   9.649  0.00  0.00     0.210 HD
ENDBRANCH  31  35
BRANCH  33  37
HETATM   37  O   UNK N   1      37.434  11.522   8.845  0.00  0.00    -0.353 OA
BRANCH  37  38
HETATM   38  C   UNK N   1      36.898  11.251   7.562  0.00  0.00     0.263 C 
HETATM   39  O   UNK N   1      35.479  11.124   7.557  0.00  0.00    -0.354 OA
HETATM   40  C   UNK N   1      35.149   9.784   7.293  0.00  0.00     0.152 C 
HETATM   41  C   UNK N   1      35.493   9.384   5.847  0.00  0.00     0.180 C 
HETATM   42  C   UNK N   1      33.730   9.446   7.710  0.00  0.00     0.042 C 
HETATM   43  C   UNK N   1      36.817  10.035   5.388  0.00  0.00     0.087 C 
HETATM   44  C   UNK N   1      37.700  10.324   6.603  0.00  0.00     0.101 C 
HETATM   45  C   UNK N   1      37.530   9.100   4.432  0.00  0.00     0.049 C 
BRANCH  41  46
HETATM   46  O   UNK N   1      34.457   9.696   4.959  0.00  0.00    -0.390 OA
HETATM   47  H   UNK N   1      34.574   9.691   3.996  0.00  0.00     0.210 HD
ENDBRANCH  41  46
BRANCH  43  48
HETATM   48  O   UNK N   1      36.568  11.244   4.731  0.00  0.00    -0.387 OA
HETATM   49  H   UNK N   1      35.836  11.782   4.389  0.00  0.00     0.210 HD
ENDBRANCH  43  48
ENDBRANCH  37  38
ENDBRANCH  33  37
ENDBRANCH  27  28
ENDBRANCH  23  27
ENDBRANCH  17  18
ENDBRANCH  12  17
BRANCH  13  50
HETATM   50  C   UNK N   1      33.290  12.495   2.691  0.00  0.00     0.200 C 
BRANCH  50  51
HETATM   51  C   UNK N   1      34.502  11.940   1.982  0.00  0.00     0.186 C 
HETATM   52  O   UNK N   1      34.885  10.813   2.259  0.00  0.00    -0.292 OA
BRANCH  51  53
HETATM   53  C   UNK N   1      35.249  12.748   0.965  0.00  0.00     0.218 C 
BRANCH  53  54
HETATM   54  C   UNK N   1      36.624  13.175   1.482  0.00  0.00     0.150 C 
HETATM   55  C   UNK N   1      37.507  13.612   0.329  0.00  0.00     0.042 C 
BRANCH  54  56
HETATM   56  O   UNK N   1      37.248  12.116   2.139  0.00  0.00    -0.393 OA
HETATM   57  H   UNK N   1      37.424  12.021   3.088  0.00  0.00     0.210 HD
ENDBRANCH  54  56
ENDBRANCH  53  54
BRANCH  53  58
HETATM   58  O   UNK N   1      34.492  13.882   0.655  0.00  0.00    -0.385 OA
HETATM   59  H   UNK N   1      34.763  14.811   0.698  0.00  0.00     0.210 HD
ENDBRANCH  53  58
ENDBRANCH  51  53
ENDBRANCH  50  51
BRANCH  50  60
HETATM   60  O   UNK N   1      32.180  11.663   2.539  0.00  0.00    -0.383 OA
HETATM   61  C   UNK N   1      31.567  12.115   1.365  0.00  0.00     0.202 C 
ENDBRANCH  50  60
ENDBRANCH  13  50
BRANCH   7  62
HETATM   62  O   UNK N   1      30.857  17.101   3.020  0.00  0.00    -0.359 OA
HETATM   63  H   UNK N   1      31.160  17.987   3.067  0.00  0.00     0.217 HD
ENDBRANCH   7  62
BRANCH   3  64
HETATM   64  O   UNK N   1      28.603  18.029   3.389  0.00  0.00    -0.359 OA
HETATM   65  H   UNK N   1      29.090  18.799   3.605  0.00  0.00     0.217 HD
ENDBRANCH   3  64
BRANCH   2  66
HETATM   66  O   UNK N   1      25.139  15.221   4.788  0.00  0.00    -0.320 OA
BRANCH  66  67
HETATM   67  C   UNK N   1      24.363  15.164   5.919  0.00  0.00     0.269 C 
HETATM   68  C   UNK N   1      23.365  16.337   6.031  0.00  0.00     0.096 C 
HETATM   69  C   UNK N   1      22.183  16.208   5.068  0.00  0.00     0.160 C 
HETATM   70  C   UNK N   1      21.771  14.742   4.820  0.00  0.00     0.176 C 
HETATM   71  C   UNK N   1      22.374  13.797   5.864  0.00  0.00     0.151 C 
HETATM   72  O   UNK N   1      23.791  13.854   5.980  0.00  0.00    -0.353 OA
HETATM   73  C   UNK N   1      21.719  13.939   7.225  0.00  0.00     0.042 C 
BRANCH  69  74
HETATM   74  O   UNK N   1      22.414  16.906   3.867  0.00  0.00    -0.353 OA
BRANCH  74  75
HETATM   75  C   UNK N   1      21.836  18.193   3.938  0.00  0.00     0.263 C 
HETATM   76  O   UNK N   1      22.775  19.254   4.091  0.00  0.00    -0.354 OA
HETATM   77  C   UNK N   1      23.000  19.809   2.818  0.00  0.00     0.151 C 
HETATM   78  C   UNK N   1      21.779  20.603   2.317  0.00  0.00     0.175 C 
HETATM   79  C   UNK N   1      24.316  20.560   2.746  0.00  0.00     0.042 C 
HETATM   80  C   UNK N   1      20.468  19.962   2.819  0.00  0.00     0.154 C 
HETATM   81  C   UNK N   1      20.667  18.448   2.954  0.00  0.00     0.095 C 
BRANCH  78  82
HETATM   82  O   UNK N   1      21.838  21.950   2.691  0.00  0.00    -0.390 OA
HETATM   83  H   UNK N   1      22.167  22.230   3.559  0.00  0.00     0.210 HD
ENDBRANCH  78  82
BRANCH  80  84
HETATM   84  O   UNK N   1      20.111  20.485   4.068  0.00  0.00    -0.393 OA
HETATM   85  H   UNK N   1      19.336  20.583   4.643  0.00  0.00     0.210 HD
ENDBRANCH  80  84
ENDBRANCH  74  75
ENDBRANCH  69  74
BRANCH  70  86
HETATM   86  O   UNK N   1      22.105  14.309   3.538  0.00  0.00    -0.390 OA
HETATM   87  H   UNK N   1      22.328  13.772   2.762  0.00  0.00     0.210 HD
ENDBRANCH  70  86
ENDBRANCH  66  67
ENDBRANCH   2  66
TORSDOF 26
ENDMDL
MODEL 6
REMARK VINA RESULT:      -9.0      2.080      3.668
REMARK  26 active torsions:
REMARK  status: ('A' for Active; 'I' for Inactive)
REMARK    1  A    between atoms: C_1  and  O_13 
REMARK    2  A    between atoms: C_4  and  O_74 
REMARK    3  A    between atoms: C_5  and  O_73 
REMARK    4  A    between atoms: C_7  and  O_65 
REMARK    5  A    between atoms: C_10  and  O_75 
REMARK    6  A    between atoms: C_11  and  O_13 
REMARK    7  A    between atoms: C_14  and  O_56 
REMARK    8  A    between atoms: C_17  and  O_69 
REMARK    9  A    between atoms: C_18  and  O_65 
REMARK   10  A    between atoms: C_20  and  O_48 
REMARK   11  A    between atoms: C_23  and  O_68 
REMARK   12  A    between atoms: C_24  and  O_66 
REMARK   13  A    between atoms: C_27  and  O_49 
REMARK   14  A    between atoms: C_28  and  O_48 
REMARK   15  A    between atoms: C_30  and  O_34 
REMARK   16  A    between atoms: C_33  and  O_34 
REMARK   17  A    between atoms: C_35  and  O_60 
REMARK   18  A    between atoms: C_39  and  O_59 
REMARK   19  A    between atoms: C_44  and  O_56 
REMARK   20  A    between atoms: C_45  and  C_52 
REMARK   21  A    between atoms: C_51  and  C_52 
REMARK   22  A    between atoms: C_51  and  C_55 
REMARK   23  A    between atoms: C_52  and  O_57 
REMARK   24  A    between atoms: C_54  and  O_53 
REMARK   25  A    between atoms: C_54  and  C_55 
REMARK   26  A    between atoms: C_55  and  O_61 
ROOT
HETATM    1  C   UNK N   1      26.768  16.989   4.249  0.00  0.00     0.006 A 
HETATM    2  C   UNK N   1      26.281  15.723   4.576  0.00  0.00     0.081 A 
HETATM    3  C   UNK N   1      28.117  17.208   4.103  0.00  0.00     0.088 A 
HETATM    4  C   UNK N   1      29.027  16.149   4.225  0.00  0.00     0.042 A 
HETATM    5  C   UNK N   1      28.571  14.866   4.641  0.00  0.00    -0.017 A 
HETATM    6  C   UNK N   1      27.183  14.657   4.821  0.00  0.00     0.050 A 
HETATM    7  C   UNK N   1      30.368  16.333   3.897  0.00  0.00     0.094 A 
HETATM    8  C   UNK N   1      31.285  15.304   4.024  0.00  0.00     0.053 A 
HETATM    9  C   UNK N   1      30.882  14.044   4.533  0.00  0.00    -0.040 A 
HETATM   10  C   UNK N   1      29.513  13.826   4.818  0.00  0.00     0.020 A 
HETATM   11  C   UNK N   1      32.688  15.533   3.650  0.00  0.00     0.192 C 
HETATM   12  C   UNK N   1      33.700  14.646   4.231  0.00  0.00     0.206 C 
HETATM   13  C   UNK N   1      33.298  13.171   4.060  0.00  0.00     0.063 C 
HETATM   14  C   UNK N   1      31.911  12.927   4.736  0.00  0.00     0.050 C 
HETATM   15  O   UNK N   1      33.031  16.454   2.920  0.00  0.00    -0.289 OA
HETATM   16  C   UNK N   1      25.825  18.117   4.005  0.00  0.00     0.054 C 
ENDROOT
BRANCH  12  17
HETATM   17  O   UNK N   1      34.588  15.144   5.245  0.00  0.00    -0.348 OA
BRANCH  17  18
HETATM   18  C   UNK N   1      33.947  15.869   6.302  0.00  0.00     0.263 C 
HETATM   19  O   UNK N   1      34.794  16.764   6.977  0.00  0.00    -0.354 OA
HETATM   20  C   UNK N   1      33.967  17.786   7.482  0.00  0.00     0.151 C 
HETATM   21  C   UNK N   1      32.868  17.209   8.384  0.00  0.00     0.176 C 
HETATM   22  C   UNK N   1      34.803  18.770   8.267  0.00  0.00     0.042 C 
HETATM   23  C   UNK N   1      33.177  15.738   8.743  0.00  0.00     0.160 C 
HETATM   24  C   UNK N   1      33.393  14.938   7.411  0.00  0.00     0.095 C 
BRANCH  21  25
HETATM   25  O   UNK N   1      31.648  17.273   7.711  0.00  0.00    -0.390 OA
HETATM   26  H   UNK N   1      30.772  17.105   7.330  0.00  0.00     0.210 HD
ENDBRANCH  21  25
BRANCH  23  27
HETATM   27  O   UNK N   1      34.332  15.622   9.570  0.00  0.00    -0.353 OA
BRANCH  27  28
HETATM   28  C   UNK N   1      34.620  14.282   9.978  0.00  0.00     0.263 C 
HETATM   29  O   UNK N   1      35.635  13.715   9.151  0.00  0.00    -0.354 OA
HETATM   30  C   UNK N   1      36.388  12.726   9.819  0.00  0.00     0.151 C 
HETATM   31  C   UNK N   1      37.171  13.309  11.000  0.00  0.00     0.176 C 
HETATM   32  C   UNK N   1      37.321  12.021   8.849  0.00  0.00     0.042 C 
HETATM   33  C   UNK N   1      36.237  14.150  11.876  0.00  0.00     0.160 C 
HETATM   34  C   UNK N   1      34.759  14.057  11.507  0.00  0.00     0.095 C 
BRANCH  31  35
HETATM   35  O   UNK N   1      38.252  14.091  10.584  0.00  0.00    -0.390 OA
HETATM   36  H   UNK N   1      38.279  15.060  10.581  0.00  0.00     0.210 HD
ENDBRANCH  31  35
BRANCH  33  37
HETATM   37  O   UNK N   1      36.496  14.179  13.264  0.00  0.00    -0.353 OA
BRANCH  37  38
HETATM   38  C   UNK N   1      36.099  12.995  13.934  0.00  0.00     0.263 C 
HETATM   39  O   UNK N   1      35.129  13.219  14.952  0.00  0.00    -0.354 OA
HETATM   40  C   UNK N   1      35.727  12.981  16.201  0.00  0.00     0.152 C 
HETATM   41  C   UNK N   1      36.044  11.491  16.410  0.00  0.00     0.180 C 
HETATM   42  C   UNK N   1      34.953  13.617  17.341  0.00  0.00     0.042 C 
HETATM   43  C   UNK N   1      36.536  10.836  15.099  0.00  0.00     0.087 C 
HETATM   44  C   UNK N   1      37.169  11.897  14.197  0.00  0.00     0.101 C 
HETATM   45  C   UNK N   1      37.546   9.755  15.426  0.00  0.00     0.049 C 
BRANCH  41  46
HETATM   46  O   UNK N   1      34.948  10.791  16.928  0.00  0.00    -0.390 OA
HETATM   47  H   UNK N   1      34.958  10.379  17.806  0.00  0.00     0.210 HD
ENDBRANCH  41  46
BRANCH  43  48
HETATM   48  O   UNK N   1      35.467  10.256  14.409  0.00  0.00    -0.387 OA
HETATM   49  H   UNK N   1      34.869  10.423  13.663  0.00  0.00     0.210 HD
ENDBRANCH  43  48
ENDBRANCH  37  38
ENDBRANCH  33  37
ENDBRANCH  27  28
ENDBRANCH  23  27
ENDBRANCH  17  18
ENDBRANCH  12  17
BRANCH  13  50
HETATM   50  C   UNK N   1      33.132  12.950   2.530  0.00  0.00     0.200 C 
BRANCH  50  51
HETATM   51  C   UNK N   1      34.407  13.039   1.725  0.00  0.00     0.186 C 
HETATM   52  O   UNK N   1      34.647  14.066   1.108  0.00  0.00    -0.292 OA
BRANCH  51  53
HETATM   53  C   UNK N   1      35.368  11.891   1.657  0.00  0.00     0.218 C 
BRANCH  53  54
HETATM   54  C   UNK N   1      35.322  11.196   0.295  0.00  0.00     0.150 C 
HETATM   55  C   UNK N   1      36.621  11.421  -0.455  0.00  0.00     0.042 C 
BRANCH  54  56
HETATM   56  O   UNK N   1      34.274  11.701  -0.475  0.00  0.00    -0.393 OA
HETATM   57  H   UNK N   1      33.853  12.573  -0.414  0.00  0.00     0.210 HD
ENDBRANCH  54  56
ENDBRANCH  53  54
BRANCH  53  58
HETATM   58  O   UNK N   1      35.039  10.975   2.661  0.00  0.00    -0.385 OA
HETATM   59  H   UNK N   1      34.595  11.148   3.505  0.00  0.00     0.210 HD
ENDBRANCH  53  58
ENDBRANCH  51  53
ENDBRANCH  50  51
BRANCH  50  60
HETATM   60  O   UNK N   1      32.398  11.809   2.206  0.00  0.00    -0.383 OA
HETATM   61  C   UNK N   1      31.436  12.262   1.297  0.00  0.00     0.202 C 
ENDBRANCH  50  60
ENDBRANCH  13  50
BRANCH   7  62
HETATM   62  O   UNK N   1      30.788  17.527   3.425  0.00  0.00    -0.359 OA
HETATM   63  H   UNK N   1      31.413  17.995   2.907  0.00  0.00     0.217 HD
ENDBRANCH   7  62
BRANCH   3  64
HETATM   64  O   UNK N   1      28.537  18.458   3.808  0.00  0.00    -0.359 OA
HETATM   65  H   UNK N   1      28.324  19.198   3.274  0.00  0.00     0.217 HD
ENDBRANCH   3  64
BRANCH   2  66
HETATM   66  O   UNK N   1      24.936  15.579   4.574  0.00  0.00    -0.320 OA
BRANCH  66  67
HETATM   67  C   UNK N   1      24.039  15.896   5.563  0.00  0.00     0.269 C 
HETATM   68  C   UNK N   1      22.615  16.163   5.028  0.00  0.00     0.096 C 
HETATM   69  C   UNK N   1      21.885  14.885   4.610  0.00  0.00     0.160 C 
HETATM   70  C   UNK N   1      22.270  13.667   5.475  0.00  0.00     0.176 C 
HETATM   71  C   UNK N   1      22.984  14.087   6.764  0.00  0.00     0.151 C 
HETATM   72  O   UNK N   1      24.143  14.890   6.575  0.00  0.00    -0.353 OA
HETATM   73  C   UNK N   1      22.044  14.729   7.767  0.00  0.00     0.042 C 
BRANCH  69  74
HETATM   74  O   UNK N   1      22.035  14.629   3.234  0.00  0.00    -0.353 OA
BRANCH  74  75
HETATM   75  C   UNK N   1      20.789  14.753   2.581  0.00  0.00     0.263 C 
HETATM   76  O   UNK N   1      20.144  16.009   2.772  0.00  0.00    -0.354 OA
HETATM   77  C   UNK N   1      20.418  16.804   1.644  0.00  0.00     0.151 C 
HETATM   78  C   UNK N   1      19.664  16.305   0.397  0.00  0.00     0.175 C 
HETATM   79  C   UNK N   1      20.252  18.284   1.933  0.00  0.00     0.042 C 
HETATM   80  C   UNK N   1      19.523  14.768   0.425  0.00  0.00     0.154 C 
HETATM   81  C   UNK N   1      20.731  14.164   1.149  0.00  0.00     0.095 C 
BRANCH  78  82
HETATM   82  O   UNK N   1      18.409  16.907   0.264  0.00  0.00    -0.390 OA
HETATM   83  H   UNK N   1      18.249  17.632  -0.361  0.00  0.00     0.210 HD
ENDBRANCH  78  82
BRANCH  80  84
HETATM   84  O   UNK N   1      18.355  14.392   1.099  0.00  0.00    -0.393 OA
HETATM   85  H   UNK N   1      17.478  14.020   0.923  0.00  0.00     0.210 HD
ENDBRANCH  80  84
ENDBRANCH  74  75
ENDBRANCH  69  74
BRANCH  70  86
HETATM   86  O   UNK N   1      23.052  12.749   4.776  0.00  0.00    -0.390 OA
HETATM   87  H   UNK N   1      23.366  11.983   4.271  0.00  0.00     0.210 HD
ENDBRANCH  70  86
ENDBRANCH  66  67
ENDBRANCH   2  66
TORSDOF 26
ENDMDL
MODEL 7
REMARK VINA RESULT:      -8.6      3.950     12.763
REMARK  26 active torsions:
REMARK  status: ('A' for Active; 'I' for Inactive)
REMARK    1  A    between atoms: C_1  and  O_13 
REMARK    2  A    between atoms: C_4  and  O_74 
REMARK    3  A    between atoms: C_5  and  O_73 
REMARK    4  A    between atoms: C_7  and  O_65 
REMARK    5  A    between atoms: C_10  and  O_75 
REMARK    6  A    between atoms: C_11  and  O_13 
REMARK    7  A    between atoms: C_14  and  O_56 
REMARK    8  A    between atoms: C_17  and  O_69 
REMARK    9  A    between atoms: C_18  and  O_65 
REMARK   10  A    between atoms: C_20  and  O_48 
REMARK   11  A    between atoms: C_23  and  O_68 
REMARK   12  A    between atoms: C_24  and  O_66 
REMARK   13  A    between atoms: C_27  and  O_49 
REMARK   14  A    between atoms: C_28  and  O_48 
REMARK   15  A    between atoms: C_30  and  O_34 
REMARK   16  A    between atoms: C_33  and  O_34 
REMARK   17  A    between atoms: C_35  and  O_60 
REMARK   18  A    between atoms: C_39  and  O_59 
REMARK   19  A    between atoms: C_44  and  O_56 
REMARK   20  A    between atoms: C_45  and  C_52 
REMARK   21  A    between atoms: C_51  and  C_52 
REMARK   22  A    between atoms: C_51  and  C_55 
REMARK   23  A    between atoms: C_52  and  O_57 
REMARK   24  A    between atoms: C_54  and  O_53 
REMARK   25  A    between atoms: C_54  and  C_55 
REMARK   26  A    between atoms: C_55  and  O_61 
ROOT
HETATM    1  C   UNK N   1      30.320  11.187   3.550  0.00  0.00     0.006 A 
HETATM    2  C   UNK N   1      31.185  12.244   3.831  0.00  0.00     0.081 A 
HETATM    3  C   UNK N   1      28.974  11.288   3.815  0.00  0.00     0.088 A 
HETATM    4  C   UNK N   1      28.437  12.478   4.321  0.00  0.00     0.042 A 
HETATM    5  C   UNK N   1      29.302  13.545   4.698  0.00  0.00    -0.017 A 
HETATM    6  C   UNK N   1      30.691  13.419   4.452  0.00  0.00     0.050 A 
HETATM    7  C   UNK N   1      27.057  12.643   4.415  0.00  0.00     0.094 A 
HETATM    8  C   UNK N   1      26.507  13.807   4.925  0.00  0.00     0.053 A 
HETATM    9  C   UNK N   1      27.344  14.845   5.405  0.00  0.00    -0.040 A 
HETATM   10  C   UNK N   1      28.746  14.714   5.265  0.00  0.00     0.020 A 
HETATM   11  C   UNK N   1      25.045  13.948   4.991  0.00  0.00     0.192 C 
HETATM   12  C   UNK N   1      24.498  14.918   5.946  0.00  0.00     0.206 C 
HETATM   13  C   UNK N   1      25.198  16.280   5.804  0.00  0.00     0.063 C 
HETATM   14  C   UNK N   1      26.734  16.103   6.030  0.00  0.00     0.050 C 
HETATM   15  O   UNK N   1      24.287  13.261   4.319  0.00  0.00    -0.289 OA
HETATM   16  C   UNK N   1      30.835   9.943   2.910  0.00  0.00     0.054 C 
ENDROOT
BRANCH  12  17
HETATM   17  O   UNK N   1      23.835  14.453   7.133  0.00  0.00    -0.348 OA
BRANCH  17  18
HETATM   18  C   UNK N   1      22.548  15.037   7.370  0.00  0.00     0.263 C 
HETATM   19  O   UNK N   1      21.714  14.266   8.198  0.00  0.00    -0.354 OA
HETATM   20  C   UNK N   1      20.838  15.172   8.828  0.00  0.00     0.151 C 
HETATM   21  C   UNK N   1      20.057  15.993   7.793  0.00  0.00     0.176 C 
HETATM   22  C   UNK N   1      19.872  14.410   9.706  0.00  0.00     0.042 C 
HETATM   23  C   UNK N   1      20.206  15.374   6.386  0.00  0.00     0.160 C 
HETATM   24  C   UNK N   1      21.734  15.233   6.065  0.00  0.00     0.095 C 
BRANCH  21  25
HETATM   25  O   UNK N   1      20.555  17.296   7.779  0.00  0.00    -0.390 OA
HETATM   26  H   UNK N   1      20.754  18.231   7.947  0.00  0.00     0.210 HD
ENDBRANCH  21  25
BRANCH  23  27
HETATM   27  O   UNK N   1      19.572  14.101   6.293  0.00  0.00    -0.353 OA
BRANCH  27  28
HETATM   28  C   UNK N   1      19.150  13.758   4.971  0.00  0.00     0.263 C 
HETATM   29  O   UNK N   1      19.511  14.784   4.048  0.00  0.00    -0.354 OA
HETATM   30  C   UNK N   1      19.708  14.291   2.740  0.00  0.00     0.151 C 
HETATM   31  C   UNK N   1      20.887  13.315   2.672  0.00  0.00     0.176 C 
HETATM   32  C   UNK N   1      19.900  15.439   1.763  0.00  0.00     0.042 C 
HETATM   33  C   UNK N   1      20.751  12.261   3.776  0.00  0.00     0.160 C 
HETATM   34  C   UNK N   1      19.426  12.295   4.532  0.00  0.00     0.095 C 
BRANCH  31  35
HETATM   35  O   UNK N   1      22.119  13.964   2.795  0.00  0.00    -0.390 OA
HETATM   36  H   UNK N   1      22.877  13.850   2.201  0.00  0.00     0.210 HD
ENDBRANCH  31  35
BRANCH  33  37
HETATM   37  O   UNK N   1      21.238  10.964   3.501  0.00  0.00    -0.353 OA
BRANCH  37  38
HETATM   38  C   UNK N   1      22.450  10.667   4.171  0.00  0.00     0.263 C 
HETATM   39  O   UNK N   1      23.518  10.336   3.289  0.00  0.00    -0.354 OA
HETATM   40  C   UNK N   1      23.824   8.973   3.445  0.00  0.00     0.152 C 
HETATM   41  C   UNK N   1      24.464   8.684   4.813  0.00  0.00     0.180 C 
HETATM   42  C   UNK N   1      24.601   8.418   2.266  0.00  0.00     0.042 C 
HETATM   43  C   UNK N   1      23.812   9.536   5.926  0.00  0.00     0.087 C 
HETATM   44  C   UNK N   1      22.383   9.904   5.525  0.00  0.00     0.101 C 
HETATM   45  C   UNK N   1      23.809   8.753   7.222  0.00  0.00     0.049 C 
BRANCH  41  46
HETATM   46  O   UNK N   1      25.850   8.876   4.794  0.00  0.00    -0.390 OA
HETATM   47  H   UNK N   1      26.318   9.234   4.023  0.00  0.00     0.210 HD
ENDBRANCH  41  46
BRANCH  43  48
HETATM   48  O   UNK N   1      24.530  10.721   6.119  0.00  0.00    -0.387 OA
HETATM   49  H   UNK N   1      25.147  11.315   5.663  0.00  0.00     0.210 HD
ENDBRANCH  43  48
ENDBRANCH  37  38
ENDBRANCH  33  37
ENDBRANCH  27  28
ENDBRANCH  23  27
ENDBRANCH  17  18
ENDBRANCH  12  17
BRANCH  13  50
HETATM   50  C   UNK N   1      24.977  16.720   4.330  0.00  0.00     0.200 C 
BRANCH  50  51
HETATM   51  C   UNK N   1      23.592  17.231   4.012  0.00  0.00     0.186 C 
HETATM   52  O   UNK N   1      22.863  16.558   3.299  0.00  0.00    -0.292 OA
BRANCH  51  53
HETATM   53  C   UNK N   1      23.107  18.548   4.537  0.00  0.00     0.218 C 
BRANCH  53  54
HETATM   54  C   UNK N   1      21.582  18.655   4.470  0.00  0.00     0.150 C 
HETATM   55  C   UNK N   1      21.171  19.676   3.426  0.00  0.00     0.042 C 
BRANCH  54  56
HETATM   56  O   UNK N   1      21.067  19.052   5.703  0.00  0.00    -0.393 OA
HETATM   57  H   UNK N   1      21.304  18.724   6.585  0.00  0.00     0.210 HD
ENDBRANCH  54  56
ENDBRANCH  53  54
BRANCH  53  58
HETATM   58  O   UNK N   1      23.682  19.570   3.775  0.00  0.00    -0.385 OA
HETATM   59  H   UNK N   1      23.251  20.357   3.410  0.00  0.00     0.210 HD
ENDBRANCH  53  58
ENDBRANCH  51  53
ENDBRANCH  50  51
BRANCH  50  60
HETATM   60  O   UNK N   1      25.966  17.580   3.849  0.00  0.00    -0.383 OA
HETATM   61  C   UNK N   1      26.387  16.989   2.654  0.00  0.00     0.202 C 
ENDBRANCH  50  60
ENDBRANCH  13  50
BRANCH   7  62
HETATM   62  O   UNK N   1      26.231  11.665   3.983  0.00  0.00    -0.359 OA
HETATM   63  H   UNK N   1      25.997  10.759   4.016  0.00  0.00     0.217 HD
ENDBRANCH   7  62
BRANCH   3  64
HETATM   64  O   UNK N   1      28.184  10.225   3.544  0.00  0.00    -0.359 OA
HETATM   65  H   UNK N   1      27.498   9.707   3.914  0.00  0.00     0.217 HD
ENDBRANCH   3  64
BRANCH   2  66
HETATM   66  O   UNK N   1      32.465  12.097   3.420  0.00  0.00    -0.320 OA
BRANCH  66  67
HETATM   67  C   UNK N   1      33.163  12.845   2.506  0.00  0.00     0.269 C 
HETATM   68  C   UNK N   1      33.291  14.331   2.908  0.00  0.00     0.096 C 
HETATM   69  C   UNK N   1      34.295  14.558   4.039  0.00  0.00     0.160 C 
HETATM   70  C   UNK N   1      35.478  13.569   3.996  0.00  0.00     0.176 C 
HETATM   71  C   UNK N   1      35.573  12.853   2.645  0.00  0.00     0.151 C 
HETATM   72  O   UNK N   1      34.394  12.165   2.244  0.00  0.00    -0.353 OA
HETATM   73  C   UNK N   1      36.063  13.766   1.537  0.00  0.00     0.042 C 
BRANCH  69  74
HETATM   74  O   UNK N   1      33.664  14.577   5.298  0.00  0.00    -0.353 OA
BRANCH  74  75
HETATM   75  C   UNK N   1      33.809  15.851   5.891  0.00  0.00     0.263 C 
HETATM   76  O   UNK N   1      32.612  16.623   5.933  0.00  0.00    -0.354 OA
HETATM   77  C   UNK N   1      32.056  16.477   7.217  0.00  0.00     0.151 C 
HETATM   78  C   UNK N   1      32.885  17.212   8.286  0.00  0.00     0.175 C 
HETATM   79  C   UNK N   1      30.573  16.794   7.238  0.00  0.00     0.042 C 
HETATM   80  C   UNK N   1      34.386  17.182   7.927  0.00  0.00     0.154 C 
HETATM   81  C   UNK N   1      34.696  15.892   7.160  0.00  0.00     0.095 C 
BRANCH  78  82
HETATM   82  O   UNK N   1      32.455  18.530   8.472  0.00  0.00    -0.390 OA
HETATM   83  H   UNK N   1      32.541  19.203   7.779  0.00  0.00     0.210 HD
ENDBRANCH  78  82
BRANCH  80  84
HETATM   84  O   UNK N   1      34.723  18.279   7.124  0.00  0.00    -0.393 OA
HETATM   85  H   UNK N   1      34.614  18.601   6.216  0.00  0.00     0.210 HD
ENDBRANCH  80  84
ENDBRANCH  74  75
ENDBRANCH  69  74
BRANCH  70  86
HETATM   86  O   UNK N   1      35.420  12.632   5.027  0.00  0.00    -0.390 OA
HETATM   87  H   UNK N   1      35.567  11.863   5.599  0.00  0.00     0.210 HD
ENDBRANCH  70  86
ENDBRANCH  66  67
ENDBRANCH   2  66
TORSDOF 26
ENDMDL
MODEL 8
REMARK VINA RESULT:      -8.5      2.590      5.481
REMARK  26 active torsions:
REMARK  status: ('A' for Active; 'I' for Inactive)
REMARK    1  A    between atoms: C_1  and  O_13 
REMARK    2  A    between atoms: C_4  and  O_74 
REMARK    3  A    between atoms: C_5  and  O_73 
REMARK    4  A    between atoms: C_7  and  O_65 
REMARK    5  A    between atoms: C_10  and  O_75 
REMARK    6  A    between atoms: C_11  and  O_13 
REMARK    7  A    between atoms: C_14  and  O_56 
REMARK    8  A    between atoms: C_17  and  O_69 
REMARK    9  A    between atoms: C_18  and  O_65 
REMARK   10  A    between atoms: C_20  and  O_48 
REMARK   11  A    between atoms: C_23  and  O_68 
REMARK   12  A    between atoms: C_24  and  O_66 
REMARK   13  A    between atoms: C_27  and  O_49 
REMARK   14  A    between atoms: C_28  and  O_48 
REMARK   15  A    between atoms: C_30  and  O_34 
REMARK   16  A    between atoms: C_33  and  O_34 
REMARK   17  A    between atoms: C_35  and  O_60 
REMARK   18  A    between atoms: C_39  and  O_59 
REMARK   19  A    between atoms: C_44  and  O_56 
REMARK   20  A    between atoms: C_45  and  C_52 
REMARK   21  A    between atoms: C_51  and  C_52 
REMARK   22  A    between atoms: C_51  and  C_55 
REMARK   23  A    between atoms: C_52  and  O_57 
REMARK   24  A    between atoms: C_54  and  O_53 
REMARK   25  A    between atoms: C_54  and  C_55 
REMARK   26  A    between atoms: C_55  and  O_61 
ROOT
HETATM    1  C   UNK N   1      27.975  14.346   4.412  0.00  0.00     0.006 A 
HETATM    2  C   UNK N   1      27.706  15.709   4.533  0.00  0.00     0.081 A 
HETATM    3  C   UNK N   1      29.225  13.846   4.695  0.00  0.00     0.088 A 
HETATM    4  C   UNK N   1      30.238  14.692   5.165  0.00  0.00     0.042 A 
HETATM    5  C   UNK N   1      30.022  16.098   5.218  0.00  0.00    -0.017 A 
HETATM    6  C   UNK N   1      28.742  16.607   4.893  0.00  0.00     0.050 A 
HETATM    7  C   UNK N   1      31.441  14.160   5.624  0.00  0.00     0.094 A 
HETATM    8  C   UNK N   1      32.460  14.979   6.079  0.00  0.00     0.053 A 
HETATM    9  C   UNK N   1      32.315  16.389   6.048  0.00  0.00    -0.040 A 
HETATM   10  C   UNK N   1      31.078  16.941   5.636  0.00  0.00     0.020 A 
HETATM   11  C   UNK N   1      33.708  14.378   6.572  0.00  0.00     0.192 C 
HETATM   12  C   UNK N   1      34.910  15.216   6.578  0.00  0.00     0.206 C 
HETATM   13  C   UNK N   1      34.628  16.573   7.246  0.00  0.00     0.063 C 
HETATM   14  C   UNK N   1      33.468  17.295   6.489  0.00  0.00     0.050 C 
HETATM   15  O   UNK N   1      33.778  13.208   6.926  0.00  0.00    -0.289 OA
HETATM   16  C   UNK N   1      26.894  13.398   4.020  0.00  0.00     0.054 C 
ENDROOT
BRANCH  12  17
HETATM   17  O   UNK N   1      35.956  14.970   5.624  0.00  0.00    -0.348 OA
BRANCH  17  18
HETATM   18  C   UNK N   1      36.988  14.086   6.079  0.00  0.00     0.263 C 
HETATM   19  O   UNK N   1      36.843  12.761   5.632  0.00  0.00    -0.354 OA
HETATM   20  C   UNK N   1      38.140  12.214   5.593  0.00  0.00     0.151 C 
HETATM   21  C   UNK N   1      38.819  12.309   6.966  0.00  0.00     0.176 C 
HETATM   22  C   UNK N   1      38.063  10.766   5.165  0.00  0.00     0.042 C 
HETATM   23  C   UNK N   1      37.787  12.667   8.058  0.00  0.00     0.160 C 
HETATM   24  C   UNK N   1      37.041  13.977   7.624  0.00  0.00     0.095 C 
BRANCH  21  25
HETATM   25  O   UNK N   1      39.802  13.297   6.917  0.00  0.00    -0.390 OA
HETATM   26  H   UNK N   1      40.463  13.958   6.654  0.00  0.00     0.210 HD
ENDBRANCH  21  25
BRANCH  23  27
HETATM   27  O   UNK N   1      36.845  11.619   8.266  0.00  0.00    -0.353 OA
BRANCH  27  28
HETATM   28  C   UNK N   1      35.983  11.829   9.387  0.00  0.00     0.263 C 
HETATM   29  O   UNK N   1      34.888  10.915   9.354  0.00  0.00    -0.354 OA
HETATM   30  C   UNK N   1      34.385  10.626  10.641  0.00  0.00     0.151 C 
HETATM   31  C   UNK N   1      35.426   9.910  11.510  0.00  0.00     0.176 C 
HETATM   32  C   UNK N   1      33.109   9.807  10.543  0.00  0.00     0.042 C 
HETATM   33  C   UNK N   1      36.754  10.672  11.461  0.00  0.00     0.160 C 
HETATM   34  C   UNK N   1      36.689  12.023  10.755  0.00  0.00     0.095 C 
BRANCH  31  35
HETATM   35  O   UNK N   1      35.630   8.587  11.108  0.00  0.00    -0.390 OA
HETATM   36  H   UNK N   1      36.264   7.969  11.504  0.00  0.00     0.210 HD
ENDBRANCH  31  35
BRANCH  33  37
HETATM   37  O   UNK N   1      37.559  10.653  12.621  0.00  0.00    -0.353 OA
BRANCH  37  38
HETATM   38  C   UNK N   1      36.858  10.246  13.783  0.00  0.00     0.263 C 
HETATM   39  O   UNK N   1      36.013  11.259  14.318  0.00  0.00    -0.354 OA
HETATM   40  C   UNK N   1      36.546  11.686  15.546  0.00  0.00     0.152 C 
HETATM   41  C   UNK N   1      36.434  10.598  16.629  0.00  0.00     0.180 C 
HETATM   42  C   UNK N   1      36.007  13.040  15.969  0.00  0.00     0.042 C 
HETATM   43  C   UNK N   1      36.694   9.194  16.038  0.00  0.00     0.087 C 
HETATM   44  C   UNK N   1      37.581   9.312  14.797  0.00  0.00     0.101 C 
HETATM   45  C   UNK N   1      37.365   8.326  17.082  0.00  0.00     0.049 C 
BRANCH  41  46
HETATM   46  O   UNK N   1      35.196  10.636  17.282  0.00  0.00    -0.390 OA
HETATM   47  H   UNK N   1      34.504  11.276  17.055  0.00  0.00     0.210 HD
ENDBRANCH  41  46
BRANCH  43  48
HETATM   48  O   UNK N   1      35.490   8.591  15.659  0.00  0.00    -0.387 OA
HETATM   49  H   UNK N   1      34.543   8.782  15.572  0.00  0.00     0.210 HD
ENDBRANCH  43  48
ENDBRANCH  37  38
ENDBRANCH  33  37
ENDBRANCH  27  28
ENDBRANCH  23  27
ENDBRANCH  17  18
ENDBRANCH  12  17
BRANCH  13  50
HETATM   50  C   UNK N   1      34.133  16.245   8.683  0.00  0.00     0.200 C 
BRANCH  50  51
HETATM   51  C   UNK N   1      35.110  16.568   9.789  0.00  0.00     0.186 C 
HETATM   52  O   UNK N   1      35.353  17.739  10.040  0.00  0.00    -0.292 OA
BRANCH  51  53
HETATM   53  C   UNK N   1      35.794  15.485  10.566  0.00  0.00     0.218 C 
BRANCH  53  54
HETATM   54  C   UNK N   1      35.117  15.244  11.916  0.00  0.00     0.150 C 
HETATM   55  C   UNK N   1      36.153  14.922  12.975  0.00  0.00     0.042 C 
BRANCH  54  56
HETATM   56  O   UNK N   1      34.226  14.175  11.830  0.00  0.00    -0.393 OA
HETATM   57  H   UNK N   1      33.689  13.902  11.070  0.00  0.00     0.210 HD
ENDBRANCH  54  56
ENDBRANCH  53  54
BRANCH  53  58
HETATM   58  O   UNK N   1      37.126  15.858  10.770  0.00  0.00    -0.385 OA
HETATM   59  H   UNK N   1      37.927  15.392  10.488  0.00  0.00     0.210 HD
ENDBRANCH  53  58
ENDBRANCH  51  53
ENDBRANCH  50  51
BRANCH  50  60
HETATM   60  O   UNK N   1      32.859  16.740   8.962  0.00  0.00    -0.383 OA
HETATM   61  C   UNK N   1      32.187  15.659   9.542  0.00  0.00     0.202 C 
ENDBRANCH  50  60
ENDBRANCH  13  50
BRANCH   7  62
HETATM   62  O   UNK N   1      31.618  12.821   5.651  0.00  0.00    -0.359 OA
HETATM   63  H   UNK N   1      32.032  12.088   6.063  0.00  0.00     0.217 HD
ENDBRANCH   7  62
BRANCH   3  64
HETATM   64  O   UNK N   1      29.437  12.521   4.540  0.00  0.00    -0.359 OA
HETATM   65  H   UNK N   1      29.991  11.826   4.836  0.00  0.00     0.217 HD
ENDBRANCH   3  64
BRANCH   2  66
HETATM   66  O   UNK N   1      26.419  16.084   4.354  0.00  0.00    -0.320 OA
BRANCH  66  67
HETATM   67  C   UNK N   1      25.924  17.106   3.583  0.00  0.00     0.269 C 
HETATM   68  C   UNK N   1      24.636  16.721   2.822  0.00  0.00     0.096 C 
HETATM   69  C   UNK N   1      23.406  16.649   3.729  0.00  0.00     0.160 C 
HETATM   70  C   UNK N   1      23.456  17.669   4.885  0.00  0.00     0.176 C 
HETATM   71  C   UNK N   1      24.513  18.752   4.644  0.00  0.00     0.151 C 
HETATM   72  O   UNK N   1      25.830  18.266   4.415  0.00  0.00    -0.353 OA
HETATM   73  C   UNK N   1      24.106  19.731   3.560  0.00  0.00     0.042 C 
BRANCH  69  74
HETATM   74  O   UNK N   1      23.175  15.338   4.186  0.00  0.00    -0.353 OA
BRANCH  74  75
HETATM   75  C   UNK N   1      21.804  15.018   4.063  0.00  0.00     0.263 C 
HETATM   76  O   UNK N   1      21.206  14.516   5.254  0.00  0.00    -0.354 OA
HETATM   77  C   UNK N   1      20.539  15.585   5.880  0.00  0.00     0.151 C 
HETATM   78  C   UNK N   1      19.277  16.004   5.104  0.00  0.00     0.175 C 
HETATM   79  C   UNK N   1      20.318  15.335   7.360  0.00  0.00     0.042 C 
HETATM   80  C   UNK N   1      19.482  15.813   3.586  0.00  0.00     0.154 C 
HETATM   81  C   UNK N   1      20.960  16.028   3.246  0.00  0.00     0.095 C 
BRANCH  78  82
HETATM   82  O   UNK N   1      18.141  15.312   5.534  0.00  0.00    -0.390 OA
HETATM   83  H   UNK N   1      17.246  15.672   5.427  0.00  0.00     0.210 HD
ENDBRANCH  78  82
BRANCH  80  84
HETATM   84  O   UNK N   1      19.111  14.519   3.198  0.00  0.00    -0.393 OA
HETATM   85  H   UNK N   1      19.466  13.617   3.171  0.00  0.00     0.210 HD
ENDBRANCH  80  84
ENDBRANCH  74  75
ENDBRANCH  69  74
BRANCH  70  86
HETATM   86  O   UNK N   1      23.673  17.058   6.119  0.00  0.00    -0.390 OA
HETATM   87  H   UNK N   1      23.597  16.751   7.036  0.00  0.00     0.210 HD
ENDBRANCH  70  86
ENDBRANCH  66  67
ENDBRANCH   2  66
TORSDOF 26
ENDMDL
MODEL 9
REMARK VINA RESULT:      -8.5      2.956      5.669
REMARK  26 active torsions:
REMARK  status: ('A' for Active; 'I' for Inactive)
REMARK    1  A    between atoms: C_1  and  O_13 
REMARK    2  A    between atoms: C_4  and  O_74 
REMARK    3  A    between atoms: C_5  and  O_73 
REMARK    4  A    between atoms: C_7  and  O_65 
REMARK    5  A    between atoms: C_10  and  O_75 
REMARK    6  A    between atoms: C_11  and  O_13 
REMARK    7  A    between atoms: C_14  and  O_56 
REMARK    8  A    between atoms: C_17  and  O_69 
REMARK    9  A    between atoms: C_18  and  O_65 
REMARK   10  A    between atoms: C_20  and  O_48 
REMARK   11  A    between atoms: C_23  and  O_68 
REMARK   12  A    between atoms: C_24  and  O_66 
REMARK   13  A    between atoms: C_27  and  O_49 
REMARK   14  A    between atoms: C_28  and  O_48 
REMARK   15  A    between atoms: C_30  and  O_34 
REMARK   16  A    between atoms: C_33  and  O_34 
REMARK   17  A    between atoms: C_35  and  O_60 
REMARK   18  A    between atoms: C_39  and  O_59 
REMARK   19  A    between atoms: C_44  and  O_56 
REMARK   20  A    between atoms: C_45  and  C_52 
REMARK   21  A    between atoms: C_51  and  C_52 
REMARK   22  A    between atoms: C_51  and  C_55 
REMARK   23  A    between atoms: C_52  and  O_57 
REMARK   24  A    between atoms: C_54  and  O_53 
REMARK   25  A    between atoms: C_54  and  C_55 
REMARK   26  A    between atoms: C_55  and  O_61 
ROOT
HETATM    1  C   UNK N   1      28.438  18.292   7.194  0.00  0.00     0.006 A 
HETATM    2  C   UNK N   1      27.825  17.584   6.161  0.00  0.00     0.081 A 
HETATM    3  C   UNK N   1      29.636  17.873   7.722  0.00  0.00     0.088 A 
HETATM    4  C   UNK N   1      30.293  16.754   7.193  0.00  0.00     0.042 A 
HETATM    5  C   UNK N   1      29.655  15.961   6.197  0.00  0.00    -0.017 A 
HETATM    6  C   UNK N   1      28.406  16.382   5.682  0.00  0.00     0.050 A 
HETATM    7  C   UNK N   1      31.587  16.440   7.603  0.00  0.00     0.094 A 
HETATM    8  C   UNK N   1      32.248  15.331   7.102  0.00  0.00     0.053 A 
HETATM    9  C   UNK N   1      31.601  14.463   6.187  0.00  0.00    -0.040 A 
HETATM   10  C   UNK N   1      30.309  14.801   5.720  0.00  0.00     0.020 A 
HETATM   11  C   UNK N   1      33.620  15.044   7.546  0.00  0.00     0.192 C 
HETATM   12  C   UNK N   1      34.104  13.667   7.410  0.00  0.00     0.206 C 
HETATM   13  C   UNK N   1      33.840  13.132   5.992  0.00  0.00     0.063 C 
HETATM   14  C   UNK N   1      32.309  13.201   5.686  0.00  0.00     0.050 C 
HETATM   15  O   UNK N   1      34.336  15.894   8.060  0.00  0.00    -0.289 OA
HETATM   16  C   UNK N   1      27.825  19.548   7.711  0.00  0.00     0.054 C 
ENDROOT
BRANCH  12  17
HETATM   17  O   UNK N   1      34.270  12.849   8.580  0.00  0.00    -0.348 OA
BRANCH  17  18
HETATM   18  C   UNK N   1      35.265  13.313   9.500  0.00  0.00     0.263 C 
HETATM   19  O   UNK N   1      36.585  13.059   9.090  0.00  0.00    -0.354 OA
HETATM   20  C   UNK N   1      37.382  14.055   9.688  0.00  0.00     0.151 C 
HETATM   21  C   UNK N   1      37.220  14.049  11.214  0.00  0.00     0.176 C 
HETATM   22  C   UNK N   1      38.832  13.822   9.331  0.00  0.00     0.042 C 
HETATM   23  C   UNK N   1      36.501  12.762  11.677  0.00  0.00     0.160 C 
HETATM   24  C   UNK N   1      35.149  12.640  10.892  0.00  0.00     0.095 C 
BRANCH  21  25
HETATM   25  O   UNK N   1      36.468  15.161  11.594  0.00  0.00    -0.390 OA
HETATM   26  H   UNK N   1      35.785  15.839  11.720  0.00  0.00     0.210 HD
ENDBRANCH  21  25
BRANCH  23  27
HETATM   27  O   UNK N   1      37.295  11.600  11.459  0.00  0.00    -0.353 OA
BRANCH  27  28
HETATM   28  C   UNK N   1      37.045  10.544  12.390  0.00  0.00     0.263 C 
HETATM   29  O   UNK N   1      36.521  11.066  13.610  0.00  0.00    -0.354 OA
HETATM   30  C   UNK N   1      35.701  10.138  14.287  0.00  0.00     0.151 C 
HETATM   31  C   UNK N   1      34.447   9.791  13.477  0.00  0.00     0.176 C 
HETATM   32  C   UNK N   1      35.326  10.665  15.662  0.00  0.00     0.042 C 
HETATM   33  C   UNK N   1      34.843   9.418  12.045  0.00  0.00     0.160 C 
HETATM   34  C   UNK N   1      36.345   9.285  11.811  0.00  0.00     0.095 C 
BRANCH  31  35
HETATM   35  O   UNK N   1      33.526  10.841  13.450  0.00  0.00    -0.390 OA
HETATM   36  H   UNK N   1      32.621  10.789  13.107  0.00  0.00     0.210 HD
ENDBRANCH  31  35
BRANCH  33  37
HETATM   37  O   UNK N   1      34.057   8.450  11.382  0.00  0.00    -0.353 OA
BRANCH  37  38
HETATM   38  C   UNK N   1      33.301   8.981  10.308  0.00  0.00     0.263 C 
HETATM   39  O   UNK N   1      31.911   8.688  10.394  0.00  0.00    -0.354 OA
HETATM   40  C   UNK N   1      31.577   7.790   9.366  0.00  0.00     0.152 C 
HETATM   41  C   UNK N   1      31.659   8.451   7.979  0.00  0.00     0.180 C 
HETATM   42  C   UNK N   1      30.269   7.068   9.633  0.00  0.00     0.042 C 
HETATM   43  C   UNK N   1      32.857   9.424   7.895  0.00  0.00     0.087 C 
HETATM   44  C   UNK N   1      33.939   8.998   8.888  0.00  0.00     0.101 C 
HETATM   45  C   UNK N   1      33.409   9.420   6.484  0.00  0.00     0.049 C 
BRANCH  41  46
HETATM   46  O   UNK N   1      30.469   9.105   7.640  0.00  0.00    -0.390 OA
HETATM   47  H   UNK N   1      29.605   8.665   7.661  0.00  0.00     0.210 HD
ENDBRANCH  41  46
BRANCH  43  48
HETATM   48  O   UNK N   1      32.456  10.725   8.217  0.00  0.00    -0.387 OA
HETATM   49  H   UNK N   1      32.257  11.579   7.802  0.00  0.00     0.210 HD
ENDBRANCH  43  48
ENDBRANCH  37  38
ENDBRANCH  33  37
ENDBRANCH  27  28
ENDBRANCH  23  27
ENDBRANCH  17  18
ENDBRANCH  12  17
BRANCH  13  50
HETATM   50  C   UNK N   1      34.568  14.109   5.026  0.00  0.00     0.200 C 
BRANCH  50  51
HETATM   51  C   UNK N   1      36.069  14.163   5.177  0.00  0.00     0.186 C 
HETATM   52  O   UNK N   1      36.584  15.187   5.601  0.00  0.00    -0.292 OA
BRANCH  51  53
HETATM   53  C   UNK N   1      36.933  12.998   4.801  0.00  0.00     0.218 C 
BRANCH  53  54
HETATM   54  C   UNK N   1      38.149  12.877   5.723  0.00  0.00     0.150 C 
HETATM   55  C   UNK N   1      39.398  12.590   4.911  0.00  0.00     0.042 C 
BRANCH  54  56
HETATM   56  O   UNK N   1      37.967  11.838   6.635  0.00  0.00    -0.393 OA
HETATM   57  H   UNK N   1      38.518  11.609   7.399  0.00  0.00     0.210 HD
ENDBRANCH  54  56
ENDBRANCH  53  54
BRANCH  53  58
HETATM   58  O   UNK N   1      37.362  13.170   3.481  0.00  0.00    -0.385 OA
HETATM   59  H   UNK N   1      37.748  13.961   3.076  0.00  0.00     0.210 HD
ENDBRANCH  53  58
ENDBRANCH  51  53
ENDBRANCH  50  51
BRANCH  50  60
HETATM   60  O   UNK N   1      34.190  13.960   3.691  0.00  0.00    -0.383 OA
HETATM   61  C   UNK N   1      33.796  15.244   3.298  0.00  0.00     0.202 C 
ENDBRANCH  50  60
ENDBRANCH  13  50
BRANCH   7  62
HETATM   62  O   UNK N   1      32.225  17.237   8.487  0.00  0.00    -0.359 OA
HETATM   63  H   UNK N   1      32.613  17.321   9.336  0.00  0.00     0.217 HD
ENDBRANCH   7  62
BRANCH   3  64
HETATM   64  O   UNK N   1      30.175  18.583   8.737  0.00  0.00    -0.359 OA
HETATM   65  H   UNK N   1      30.868  18.556   9.366  0.00  0.00     0.217 HD
ENDBRANCH   3  64
BRANCH   2  66
HETATM   66  O   UNK N   1      26.717  18.143   5.624  0.00  0.00    -0.320 OA
BRANCH  66  67
HETATM   67  C   UNK N   1      26.537  18.649   4.361  0.00  0.00     0.269 C 
HETATM   68  C   UNK N   1      25.851  17.653   3.401  0.00  0.00     0.096 C 
HETATM   69  C   UNK N   1      24.355  17.491   3.678  0.00  0.00     0.160 C 
HETATM   70  C   UNK N   1      23.699  18.789   4.192  0.00  0.00     0.176 C 
HETATM   71  C   UNK N   1      24.589  20.012   3.948  0.00  0.00     0.151 C 
HETATM   72  O   UNK N   1      25.899  19.922   4.495  0.00  0.00    -0.353 OA
HETATM   73  C   UNK N   1      24.645  20.408   2.484  0.00  0.00     0.042 C 
BRANCH  69  74
HETATM   74  O   UNK N   1      24.100  16.395   4.524  0.00  0.00    -0.353 OA
BRANCH  74  75
HETATM   75  C   UNK N   1      23.057  15.605   3.991  0.00  0.00     0.263 C 
HETATM   76  O   UNK N   1      21.747  16.071   4.299  0.00  0.00    -0.354 OA
HETATM   77  C   UNK N   1      21.284  16.804   3.191  0.00  0.00     0.151 C 
HETATM   78  C   UNK N   1      20.967  15.890   1.993  0.00  0.00     0.175 C 
HETATM   79  C   UNK N   1      20.172  17.766   3.565  0.00  0.00     0.042 C 
HETATM   80  C   UNK N   1      21.931  14.684   1.958  0.00  0.00     0.154 C 
HETATM   81  C   UNK N   1      23.283  15.102   2.543  0.00  0.00     0.095 C 
BRANCH  78  82
HETATM   82  O   UNK N   1      19.639  15.453   2.001  0.00  0.00    -0.390 OA
HETATM   83  H   UNK N   1      19.217  15.072   1.215  0.00  0.00     0.210 HD
ENDBRANCH  78  82
BRANCH  80  84
HETATM   84  O   UNK N   1      21.418  13.623   2.714  0.00  0.00    -0.393 OA
HETATM   85  H   UNK N   1      21.283  13.360   3.638  0.00  0.00     0.210 HD
ENDBRANCH  80  84
ENDBRANCH  74  75
ENDBRANCH  69  74
BRANCH  70  86
HETATM   86  O   UNK N   1      23.359  18.710   5.542  0.00  0.00    -0.390 OA
HETATM   87  H   UNK N   1      23.022  18.424   6.405  0.00  0.00     0.210 HD
ENDBRANCH  70  86
ENDBRANCH  66  67
ENDBRANCH   2  66
TORSDOF 26
ENDMDL
