MODEL 1
REMARK VINA RESULT:      -4.3      0.000      0.000
REMARK  8 active torsions:
REMARK  status: ('A' for Active; 'I' for Inactive)
REMARK    1  A    between atoms: C_2  and  C_1 
REMARK    2  A    between atoms: N_7  and  C_1 
REMARK    3  A    between atoms: C_3  and  C_2 
REMARK    4  A    between atoms: C_4  and  C_3 
REMARK    5  A    between atoms: C_5  and  C_4 
REMARK    6  A    between atoms: C_9  and  C_4 
REMARK    7  A    between atoms: C_4  and  N_12 
REMARK    8  A    between atoms: O_6  and  C_5 
ROOT
HETATM    1  C   UNK N   1      19.988  17.711   2.269  0.00  0.00     0.169 C 
ENDROOT
BRANCH   1   2
HETATM    2  C   UNK N   1      21.050  18.737   2.715  0.00  0.00     0.049 C 
BRANCH   2   3
HETATM    3  C   UNK N   1      20.556  20.177   2.830  0.00  0.00     0.022 C 
BRANCH   3   4
HETATM    4  C   UNK N   1      21.152  21.071   1.764  0.00  0.00     0.111 C 
BRANCH   4   5
HETATM    5  N   UNK N   1      20.315  21.016   0.579  0.00  0.00    -0.430 N 
HETATM    6  H   UNK N   1      19.671  21.774   0.354  0.00  0.00     0.149 HD
HETATM    7  H   UNK N   1      20.373  20.206  -0.039  0.00  0.00     0.149 HD
ENDBRANCH   4   5
ENDBRANCH   3   4
ENDBRANCH   2   3
ENDBRANCH   1   2
BRANCH   1   8
HETATM    8  C   UNK N   1      20.328  17.261   0.865  0.00  0.00     0.174 C 
HETATM    9  O   UNK N   1      20.611  16.085   0.653  0.00  0.00    -0.648 OA
BRANCH   8  10
HETATM   10  O   UNK N   1      20.333  18.129  -0.164  0.00  0.00    -0.774 OA
HETATM   11  H   UNK N   1      20.427  17.816  -1.042  0.00  0.00     0.167 HD
ENDBRANCH   8  10
ENDBRANCH   1   8
BRANCH   1  12
HETATM   12  C   UNK N   1      19.939  16.491   3.213  0.00  0.00     0.391 C 
HETATM   13  F   UNK N   1      19.033  16.671   4.244  0.00  0.00    -0.211 F 
HETATM   14  F   UNK N   1      21.190  16.214   3.737  0.00  0.00    -0.211 F 
ENDBRANCH   1  12
BRANCH   1  15
HETATM   15  N   UNK N   1      18.675  18.336   2.249  0.00  0.00    -0.409 N 
HETATM   16  H   UNK N   1      18.139  19.172   2.016  0.00  0.00     0.151 HD
HETATM   17  H   UNK N   1      18.014  17.654   2.622  0.00  0.00     0.151 HD
ENDBRANCH   1  15
TORSDOF 8
ENDMDL
MODEL 2
REMARK VINA RESULT:      -4.3     14.739     15.409
REMARK  8 active torsions:
REMARK  status: ('A' for Active; 'I' for Inactive)
REMARK    1  A    between atoms: C_2  and  C_1 
REMARK    2  A    between atoms: N_7  and  C_1 
REMARK    3  A    between atoms: C_3  and  C_2 
REMARK    4  A    between atoms: C_4  and  C_3 
REMARK    5  A    between atoms: C_5  and  C_4 
REMARK    6  A    between atoms: C_9  and  C_4 
REMARK    7  A    between atoms: C_4  and  N_12 
REMARK    8  A    between atoms: O_6  and  C_5 
ROOT
HETATM    1  C   UNK N   1      33.941  16.967   8.652  0.00  0.00     0.169 C 
ENDROOT
BRANCH   1   2
HETATM    2  C   UNK N   1      34.459  15.654   8.030  0.00  0.00     0.049 C 
BRANCH   2   3
HETATM    3  C   UNK N   1      34.555  14.473   8.991  0.00  0.00     0.022 C 
BRANCH   3   4
HETATM    4  C   UNK N   1      33.719  13.296   8.536  0.00  0.00     0.111 C 
BRANCH   4   5
HETATM    5  N   UNK N   1      32.406  13.385   9.148  0.00  0.00    -0.430 N 
HETATM    6  H   UNK N   1      32.160  12.807   9.952  0.00  0.00     0.149 HD
HETATM    7  H   UNK N   1      31.718  14.035   8.769  0.00  0.00     0.149 HD
ENDBRANCH   4   5
ENDBRANCH   3   4
ENDBRANCH   2   3
ENDBRANCH   1   2
BRANCH   1   8
HETATM    8  C   UNK N   1      34.493  18.121   7.842  0.00  0.00     0.174 C 
HETATM    9  O   UNK N   1      34.405  18.102   6.617  0.00  0.00    -0.648 OA
BRANCH   8  10
HETATM   10  O   UNK N   1      35.087  19.171   8.438  0.00  0.00    -0.774 OA
HETATM   11  H   UNK N   1      36.003  19.323   8.317  0.00  0.00     0.167 HD
ENDBRANCH   8  10
ENDBRANCH   1   8
BRANCH   1  12
HETATM   12  C   UNK N   1      32.399  17.026   8.664  0.00  0.00     0.391 C 
HETATM   13  F   UNK N   1      31.845  16.262   7.650  0.00  0.00    -0.211 F 
HETATM   14  F   UNK N   1      31.948  18.331   8.560  0.00  0.00    -0.211 F 
ENDBRANCH   1  12
BRANCH   1  15
HETATM   15  N   UNK N   1      34.422  17.090  10.019  0.00  0.00    -0.409 N 
HETATM   16  H   UNK N   1      34.520  16.634  10.926  0.00  0.00     0.151 HD
HETATM   17  H   UNK N   1      34.836  18.018  10.106  0.00  0.00     0.151 HD
ENDBRANCH   1  15
TORSDOF 8
ENDMDL
MODEL 3
REMARK VINA RESULT:      -4.2     15.621     16.209
REMARK  8 active torsions:
REMARK  status: ('A' for Active; 'I' for Inactive)
REMARK    1  A    between atoms: C_2  and  C_1 
REMARK    2  A    between atoms: N_7  and  C_1 
REMARK    3  A    between atoms: C_3  and  C_2 
REMARK    4  A    between atoms: C_4  and  C_3 
REMARK    5  A    between atoms: C_5  and  C_4 
REMARK    6  A    between atoms: C_9  and  C_4 
REMARK    7  A    between atoms: C_4  and  N_12 
REMARK    8  A    between atoms: O_6  and  C_5 
ROOT
HETATM    1  C   UNK N   1      34.160  16.945   8.796  0.00  0.00     0.169 C 
ENDROOT
BRANCH   1   2
HETATM    2  C   UNK N   1      34.825  15.673   8.233  0.00  0.00     0.049 C 
BRANCH   2   3
HETATM    3  C   UNK N   1      35.201  14.621   9.273  0.00  0.00     0.022 C 
BRANCH   3   4
HETATM    4  C   UNK N   1      36.677  14.284   9.236  0.00  0.00     0.111 C 
BRANCH   4   5
HETATM    5  N   UNK N   1      37.325  14.876  10.393  0.00  0.00    -0.430 N 
HETATM    6  H   UNK N   1      37.289  14.422  11.305  0.00  0.00     0.149 HD
HETATM    7  H   UNK N   1      37.824  15.759  10.291  0.00  0.00     0.149 HD
ENDBRANCH   4   5
ENDBRANCH   3   4
ENDBRANCH   2   3
ENDBRANCH   1   2
BRANCH   1   8
HETATM    8  C   UNK N   1      34.616  18.123   7.961  0.00  0.00     0.174 C 
HETATM    9  O   UNK N   1      34.424  18.120   6.748  0.00  0.00    -0.648 OA
BRANCH   8  10
HETATM   10  O   UNK N   1      35.236  19.177   8.522  0.00  0.00    -0.774 OA
HETATM   11  H   UNK N   1      35.697  19.791   7.986  0.00  0.00     0.167 HD
ENDBRANCH   8  10
ENDBRANCH   1   8
BRANCH   1  12
HETATM   12  C   UNK N   1      32.620  16.848   8.766  0.00  0.00     0.391 C 
HETATM   13  F   UNK N   1      32.172  16.075   7.708  0.00  0.00    -0.211 F 
HETATM   14  F   UNK N   1      32.041  18.103   8.702  0.00  0.00    -0.211 F 
ENDBRANCH   1  12
BRANCH   1  15
HETATM   15  N   UNK N   1      34.586  17.159  10.170  0.00  0.00    -0.409 N 
HETATM   16  H   UNK N   1      35.235  16.885  10.907  0.00  0.00     0.151 HD
HETATM   17  H   UNK N   1      33.989  17.890  10.556  0.00  0.00     0.151 HD
ENDBRANCH   1  15
TORSDOF 8
ENDMDL
MODEL 4
REMARK VINA RESULT:      -4.1     17.672     18.305
REMARK  8 active torsions:
REMARK  status: ('A' for Active; 'I' for Inactive)
REMARK    1  A    between atoms: C_2  and  C_1 
REMARK    2  A    between atoms: N_7  and  C_1 
REMARK    3  A    between atoms: C_3  and  C_2 
REMARK    4  A    between atoms: C_4  and  C_3 
REMARK    5  A    between atoms: C_5  and  C_4 
REMARK    6  A    between atoms: C_9  and  C_4 
REMARK    7  A    between atoms: C_4  and  N_12 
REMARK    8  A    between atoms: O_6  and  C_5 
ROOT
HETATM    1  C   UNK N   1      34.813  14.849  10.752  0.00  0.00     0.169 C 
ENDROOT
BRANCH   1   2
HETATM    2  C   UNK N   1      35.188  13.995  11.980  0.00  0.00     0.049 C 
BRANCH   2   3
HETATM    3  C   UNK N   1      35.817  12.641  11.663  0.00  0.00     0.022 C 
BRANCH   3   4
HETATM    4  C   UNK N   1      37.244  12.545  12.159  0.00  0.00     0.111 C 
BRANCH   4   5
HETATM    5  N   UNK N   1      38.111  13.265  11.244  0.00  0.00    -0.430 N 
HETATM    6  H   UNK N   1      38.961  13.722  11.575  0.00  0.00     0.149 HD
HETATM    7  H   UNK N   1      37.867  13.314  10.255  0.00  0.00     0.149 HD
ENDBRANCH   4   5
ENDBRANCH   3   4
ENDBRANCH   2   3
ENDBRANCH   1   2
BRANCH   1   8
HETATM    8  C   UNK N   1      35.655  16.107  10.778  0.00  0.00     0.174 C 
HETATM    9  O   UNK N   1      35.118  17.203  10.642  0.00  0.00    -0.648 OA
BRANCH   8  10
HETATM   10  O   UNK N   1      36.989  16.049  10.944  0.00  0.00    -0.774 OA
HETATM   11  H   UNK N   1      37.530  15.678  10.275  0.00  0.00     0.167 HD
ENDBRANCH   8  10
ENDBRANCH   1   8
BRANCH   1  12
HETATM   12  C   UNK N   1      35.050  14.087   9.431  0.00  0.00     0.391 C 
HETATM   13  F   UNK N   1      35.581  14.908   8.450  0.00  0.00    -0.211 F 
HETATM   14  F   UNK N   1      33.880  13.510   8.969  0.00  0.00    -0.211 F 
ENDBRANCH   1  12
BRANCH   1  15
HETATM   15  N   UNK N   1      33.411  15.230  10.824  0.00  0.00    -0.409 N 
HETATM   16  H   UNK N   1      32.493  15.010  11.210  0.00  0.00     0.151 HD
HETATM   17  H   UNK N   1      33.300  16.067  10.252  0.00  0.00     0.151 HD
ENDBRANCH   1  15
TORSDOF 8
ENDMDL
MODEL 5
REMARK VINA RESULT:      -4.0     23.364     24.191
REMARK  8 active torsions:
REMARK  status: ('A' for Active; 'I' for Inactive)
REMARK    1  A    between atoms: C_2  and  C_1 
REMARK    2  A    between atoms: N_7  and  C_1 
REMARK    3  A    between atoms: C_3  and  C_2 
REMARK    4  A    between atoms: C_4  and  C_3 
REMARK    5  A    between atoms: C_5  and  C_4 
REMARK    6  A    between atoms: C_9  and  C_4 
REMARK    7  A    between atoms: C_4  and  N_12 
REMARK    8  A    between atoms: O_6  and  C_5 
ROOT
HETATM    1  C   UNK N   1      43.723  23.014   3.250  0.00  0.00     0.169 C 
ENDROOT
BRANCH   1   2
HETATM    2  C   UNK N   1      44.763  23.304   2.148  0.00  0.00     0.049 C 
BRANCH   2   3
HETATM    3  C   UNK N   1      45.484  24.644   2.271  0.00  0.00     0.022 C 
BRANCH   3   4
HETATM    4  C   UNK N   1      45.279  25.517   1.052  0.00  0.00     0.111 C 
BRANCH   4   5
HETATM    5  N   UNK N   1      43.901  25.396   0.611  0.00  0.00    -0.430 N 
HETATM    6  H   UNK N   1      43.155  25.921   1.069  0.00  0.00     0.149 HD
HETATM    7  H   UNK N   1      43.675  24.777  -0.167  0.00  0.00     0.149 HD
ENDBRANCH   4   5
ENDBRANCH   3   4
ENDBRANCH   2   3
ENDBRANCH   1   2
BRANCH   1   8
HETATM    8  C   UNK N   1      42.388  22.764   2.582  0.00  0.00     0.174 C 
HETATM    9  O   UNK N   1      41.950  21.619   2.504  0.00  0.00    -0.648 OA
BRANCH   8  10
HETATM   10  O   UNK N   1      41.667  23.775   2.063  0.00  0.00    -0.774 OA
HETATM   11  H   UNK N   1      42.083  24.585   1.844  0.00  0.00     0.167 HD
ENDBRANCH   8  10
ENDBRANCH   1   8
BRANCH   1  12
HETATM   12  C   UNK N   1      44.119  21.791   4.104  0.00  0.00     0.391 C 
HETATM   13  F   UNK N   1      43.630  21.884   5.396  0.00  0.00    -0.211 F 
HETATM   14  F   UNK N   1      45.493  21.629   4.138  0.00  0.00    -0.211 F 
ENDBRANCH   1  12
BRANCH   1  15
HETATM   15  N   UNK N   1      43.593  24.170   4.124  0.00  0.00    -0.409 N 
HETATM   16  H   UNK N   1      43.873  25.135   4.297  0.00  0.00     0.151 HD
HETATM   17  H   UNK N   1      42.956  23.905   4.875  0.00  0.00     0.151 HD
ENDBRANCH   1  15
TORSDOF 8
ENDMDL
MODEL 6
REMARK VINA RESULT:      -3.9     14.260     14.834
REMARK  8 active torsions:
REMARK  status: ('A' for Active; 'I' for Inactive)
REMARK    1  A    between atoms: C_2  and  C_1 
REMARK    2  A    between atoms: N_7  and  C_1 
REMARK    3  A    between atoms: C_3  and  C_2 
REMARK    4  A    between atoms: C_4  and  C_3 
REMARK    5  A    between atoms: C_5  and  C_4 
REMARK    6  A    between atoms: C_9  and  C_4 
REMARK    7  A    between atoms: C_4  and  N_12 
REMARK    8  A    between atoms: O_6  and  C_5 
ROOT
HETATM    1  C   UNK N   1      32.946  16.801   7.757  0.00  0.00     0.169 C 
ENDROOT
BRANCH   1   2
HETATM    2  C   UNK N   1      33.720  15.557   8.241  0.00  0.00     0.049 C 
BRANCH   2   3
HETATM    3  C   UNK N   1      33.787  15.383   9.756  0.00  0.00     0.022 C 
BRANCH   3   4
HETATM    4  C   UNK N   1      35.150  15.738  10.311  0.00  0.00     0.111 C 
BRANCH   4   5
HETATM    5  N   UNK N   1      35.145  17.130  10.721  0.00  0.00    -0.430 N 
HETATM    6  H   UNK N   1      34.927  17.873  10.057  0.00  0.00     0.149 HD
HETATM    7  H   UNK N   1      35.363  17.370  11.688  0.00  0.00     0.149 HD
ENDBRANCH   4   5
ENDBRANCH   3   4
ENDBRANCH   2   3
ENDBRANCH   1   2
BRANCH   1   8
HETATM    8  C   UNK N   1      33.950  17.795   7.213  0.00  0.00     0.174 C 
HETATM    9  O   UNK N   1      34.138  17.871   6.002  0.00  0.00    -0.648 OA
BRANCH   8  10
HETATM   10  O   UNK N   1      34.648  18.602   8.034  0.00  0.00    -0.774 OA
HETATM   11  H   UNK N   1      34.609  18.475   8.961  0.00  0.00     0.167 HD
ENDBRANCH   8  10
ENDBRANCH   1   8
BRANCH   1  12
HETATM   12  C   UNK N   1      31.917  16.445   6.664  0.00  0.00     0.391 C 
HETATM   13  F   UNK N   1      30.893  17.375   6.596  0.00  0.00    -0.211 F 
HETATM   14  F   UNK N   1      31.384  15.184   6.870  0.00  0.00    -0.211 F 
ENDBRANCH   1  12
BRANCH   1  15
HETATM   15  N   UNK N   1      32.246  17.414   8.874  0.00  0.00    -0.409 N 
HETATM   16  H   UNK N   1      32.132  18.252   9.445  0.00  0.00     0.151 HD
HETATM   17  H   UNK N   1      31.598  16.715   9.239  0.00  0.00     0.151 HD
ENDBRANCH   1  15
TORSDOF 8
ENDMDL
MODEL 7
REMARK VINA RESULT:      -3.9     12.741     13.351
REMARK  8 active torsions:
REMARK  status: ('A' for Active; 'I' for Inactive)
REMARK    1  A    between atoms: C_2  and  C_1 
REMARK    2  A    between atoms: N_7  and  C_1 
REMARK    3  A    between atoms: C_3  and  C_2 
REMARK    4  A    between atoms: C_4  and  C_3 
REMARK    5  A    between atoms: C_5  and  C_4 
REMARK    6  A    between atoms: C_9  and  C_4 
REMARK    7  A    between atoms: C_4  and  N_12 
REMARK    8  A    between atoms: O_6  and  C_5 
ROOT
HETATM    1  C   UNK N   1      32.356  17.169   7.722  0.00  0.00     0.169 C 
ENDROOT
BRANCH   1   2
HETATM    2  C   UNK N   1      31.430  18.026   8.608  0.00  0.00     0.049 C 
BRANCH   2   3
HETATM    3  C   UNK N   1      29.938  17.889   8.314  0.00  0.00     0.022 C 
BRANCH   3   4
HETATM    4  C   UNK N   1      29.084  18.263   9.506  0.00  0.00     0.111 C 
BRANCH   4   5
HETATM    5  N   UNK N   1      27.715  18.458   9.064  0.00  0.00    -0.430 N 
HETATM    6  H   UNK N   1      26.972  17.826   9.361  0.00  0.00     0.149 HD
HETATM    7  H   UNK N   1      27.493  19.239   8.447  0.00  0.00     0.149 HD
ENDBRANCH   4   5
ENDBRANCH   3   4
ENDBRANCH   2   3
ENDBRANCH   1   2
BRANCH   1   8
HETATM    8  C   UNK N   1      33.757  17.735   7.821  0.00  0.00     0.174 C 
HETATM    9  O   UNK N   1      34.268  17.905   8.924  0.00  0.00    -0.648 OA
BRANCH   8  10
HETATM   10  O   UNK N   1      34.457  18.061   6.719  0.00  0.00    -0.774 OA
HETATM   11  H   UNK N   1      34.013  18.215   5.909  0.00  0.00     0.167 HD
ENDBRANCH   8  10
ENDBRANCH   1   8
BRANCH   1  12
HETATM   12  C   UNK N   1      32.358  15.689   8.158  0.00  0.00     0.391 C 
HETATM   13  F   UNK N   1      31.544  14.912   7.351  0.00  0.00    -0.211 F 
HETATM   14  F   UNK N   1      31.963  15.556   9.478  0.00  0.00    -0.211 F 
ENDBRANCH   1  12
BRANCH   1  15
HETATM   15  N   UNK N   1      31.924  17.245   6.336  0.00  0.00    -0.409 N 
HETATM   16  H   UNK N   1      32.022  17.730   5.444  0.00  0.00     0.151 HD
HETATM   17  H   UNK N   1      31.238  16.503   6.197  0.00  0.00     0.151 HD
ENDBRANCH   1  15
TORSDOF 8
ENDMDL
MODEL 8
REMARK VINA RESULT:      -3.8     12.354     13.526
REMARK  8 active torsions:
REMARK  status: ('A' for Active; 'I' for Inactive)
REMARK    1  A    between atoms: C_2  and  C_1 
REMARK    2  A    between atoms: N_7  and  C_1 
REMARK    3  A    between atoms: C_3  and  C_2 
REMARK    4  A    between atoms: C_4  and  C_3 
REMARK    5  A    between atoms: C_5  and  C_4 
REMARK    6  A    between atoms: C_9  and  C_4 
REMARK    7  A    between atoms: C_4  and  N_12 
REMARK    8  A    between atoms: O_6  and  C_5 
ROOT
HETATM    1  C   UNK N   1      26.372  27.147  -4.990  0.00  0.00     0.169 C 
ENDROOT
BRANCH   1   2
HETATM    2  C   UNK N   1      26.344  28.683  -5.129  0.00  0.00     0.049 C 
BRANCH   2   3
HETATM    3  C   UNK N   1      27.685  29.380  -4.918  0.00  0.00     0.022 C 
BRANCH   3   4
HETATM    4  C   UNK N   1      27.570  30.569  -3.988  0.00  0.00     0.111 C 
BRANCH   4   5
HETATM    5  N   UNK N   1      26.201  30.666  -3.513  0.00  0.00    -0.430 N 
HETATM    6  H   UNK N   1      25.711  29.848  -3.152  0.00  0.00     0.149 HD
HETATM    7  H   UNK N   1      25.723  31.567  -3.541  0.00  0.00     0.149 HD
ENDBRANCH   4   5
ENDBRANCH   3   4
ENDBRANCH   2   3
ENDBRANCH   1   2
BRANCH   1   8
HETATM    8  C   UNK N   1      26.153  26.804  -3.532  0.00  0.00     0.174 C 
HETATM    9  O   UNK N   1      25.724  27.659  -2.762  0.00  0.00    -0.648 OA
BRANCH   8  10
HETATM   10  O   UNK N   1      26.423  25.574  -3.057  0.00  0.00    -0.774 OA
HETATM   11  H   UNK N   1      26.050  25.292  -2.246  0.00  0.00     0.167 HD
ENDBRANCH   8  10
ENDBRANCH   1   8
BRANCH   1  12
HETATM   12  C   UNK N   1      25.286  26.474  -5.855  0.00  0.00     0.391 C 
HETATM   13  F   UNK N   1      25.581  26.551  -7.206  0.00  0.00    -0.211 F 
HETATM   14  F   UNK N   1      24.041  27.033  -5.620  0.00  0.00    -0.211 F 
ENDBRANCH   1  12
BRANCH   1  15
HETATM   15  N   UNK N   1      27.672  26.638  -5.395  0.00  0.00    -0.409 N 
HETATM   16  H   UNK N   1      28.683  26.727  -5.298  0.00  0.00     0.151 HD
HETATM   17  H   UNK N   1      27.502  25.870  -6.045  0.00  0.00     0.151 HD
ENDBRANCH   1  15
TORSDOF 8
ENDMDL
MODEL 9
REMARK VINA RESULT:      -3.7     22.768     23.555
REMARK  8 active torsions:
REMARK  status: ('A' for Active; 'I' for Inactive)
REMARK    1  A    between atoms: C_2  and  C_1 
REMARK    2  A    between atoms: N_7  and  C_1 
REMARK    3  A    between atoms: C_3  and  C_2 
REMARK    4  A    between atoms: C_4  and  C_3 
REMARK    5  A    between atoms: C_5  and  C_4 
REMARK    6  A    between atoms: C_9  and  C_4 
REMARK    7  A    between atoms: C_4  and  N_12 
REMARK    8  A    between atoms: O_6  and  C_5 
ROOT
HETATM    1  C   UNK N   1      43.766  21.843   2.944  0.00  0.00     0.169 C 
ENDROOT
BRANCH   1   2
HETATM    2  C   UNK N   1      42.687  22.927   2.742  0.00  0.00     0.049 C 
BRANCH   2   3
HETATM    3  C   UNK N   1      41.632  22.605   1.687  0.00  0.00     0.022 C 
BRANCH   3   4
HETATM    4  C   UNK N   1      41.077  23.854   1.035  0.00  0.00     0.111 C 
BRANCH   4   5
HETATM    5  N   UNK N   1      42.177  24.741   0.701  0.00  0.00    -0.430 N 
HETATM    6  H   UNK N   1      42.858  25.022   1.406  0.00  0.00     0.149 HD
HETATM    7  H   UNK N   1      42.270  25.087  -0.253  0.00  0.00     0.149 HD
ENDBRANCH   4   5
ENDBRANCH   3   4
ENDBRANCH   2   3
ENDBRANCH   1   2
BRANCH   1   8
HETATM    8  C   UNK N   1      44.535  22.175   4.205  0.00  0.00     0.174 C 
HETATM    9  O   UNK N   1      43.930  22.532   5.212  0.00  0.00    -0.648 OA
BRANCH   8  10
HETATM   10  O   UNK N   1      45.878  22.092   4.246  0.00  0.00    -0.774 OA
HETATM   11  H   UNK N   1      46.367  22.009   3.451  0.00  0.00     0.167 HD
ENDBRANCH   8  10
ENDBRANCH   1   8
BRANCH   1  12
HETATM   12  C   UNK N   1      43.147  20.435   3.065  0.00  0.00     0.391 C 
HETATM   13  F   UNK N   1      42.111  20.403   3.983  0.00  0.00    -0.211 F 
HETATM   14  F   UNK N   1      44.103  19.496   3.412  0.00  0.00    -0.211 F 
ENDBRANCH   1  12
BRANCH   1  15
HETATM   15  N   UNK N   1      44.691  21.851   1.822  0.00  0.00    -0.409 N 
HETATM   16  H   UNK N   1      44.848  22.139   0.857  0.00  0.00     0.151 HD
HETATM   17  H   UNK N   1      45.536  21.369   2.130  0.00  0.00     0.151 HD
ENDBRANCH   1  15
TORSDOF 8
ENDMDL
