MODEL 1
REMARK VINA RESULT:      -7.2      0.000      0.000
REMARK  2 active torsions:
REMARK  status: ('A' for Active; 'I' for Inactive)
REMARK    1  A    between atoms: C_14  and  C_11 
REMARK    2  A    between atoms: O_19  and  C_14 
ROOT
HETATM    1  C   UNK N   1      29.563  17.894   9.869  0.00  0.00     0.033 C 
HETATM    2  C   UNK N   1      28.455  17.130   7.768  0.00  0.00     0.030 C 
HETATM    3  C   UNK N   1      28.368  17.365   6.265  0.00  0.00     0.043 C 
HETATM    4  C   UNK N   1      29.798  16.955   4.260  0.00  0.00     0.051 A 
HETATM    5  C   UNK N   1      32.215  17.017   4.367  0.00  0.00     0.060 A 
HETATM    6  C   UNK N   1      31.977  17.990   8.422  0.00  0.00     0.114 A 
HETATM    7  C   UNK N   1      29.527  18.035   8.350  0.00  0.00     0.086 C 
HETATM    8  C   UNK N   1      29.719  17.268   5.620  0.00  0.00    -0.027 A 
HETATM    9  C   UNK N   1      31.039  16.835   3.635  0.00  0.00     0.117 A 
HETATM   10  C   UNK N   1      32.159  17.336   5.734  0.00  0.00     0.045 A 
HETATM   11  C   UNK N   1      33.241  17.855   7.848  0.00  0.00     0.104 A 
HETATM   12  C   UNK N   1      30.900  17.474   6.370  0.00  0.00     0.055 A 
HETATM   13  C   UNK N   1      33.335  17.528   6.479  0.00  0.00     0.202 A 
HETATM   14  F   UNK N   1      31.101  16.540   2.314  0.00  0.00    -0.206 F 
HETATM   15  N   UNK N   1      30.834  17.803   7.704  0.00  0.00    -0.350 N 
HETATM   16  O   UNK N   1      34.425  17.410   5.943  0.00  0.00    -0.286 OA
ENDROOT
BRANCH  11  17
HETATM   17  C   UNK N   1      34.426  18.080   8.713  0.00  0.00     0.181 C 
HETATM   18  O   UNK N   1      34.664  17.348   9.660  0.00  0.00    -0.646 OA
BRANCH  17  19
HETATM   19  O   UNK N   1      35.261  19.107   8.450  0.00  0.00    -0.772 OA
HETATM   20  H   UNK N   1      35.510  19.695   9.135  0.00  0.00     0.167 HD
ENDBRANCH  17  19
ENDBRANCH  11  17
TORSDOF 2
ENDMDL
MODEL 2
REMARK VINA RESULT:      -6.8      2.735      4.181
REMARK  2 active torsions:
REMARK  status: ('A' for Active; 'I' for Inactive)
REMARK    1  A    between atoms: C_14  and  C_11 
REMARK    2  A    between atoms: O_19  and  C_14 
ROOT
HETATM    1  C   UNK N   1      33.738  17.905   8.288  0.00  0.00     0.033 C 
HETATM    2  C   UNK N   1      33.820  17.456   5.834  0.00  0.00     0.030 C 
HETATM    3  C   UNK N   1      33.242  16.592   4.720  0.00  0.00     0.043 C 
HETATM    4  C   UNK N   1      31.081  16.398   3.486  0.00  0.00     0.051 A 
HETATM    5  C   UNK N   1      28.953  16.890   4.528  0.00  0.00     0.060 A 
HETATM    6  C   UNK N   1      30.935  17.706   8.113  0.00  0.00     0.114 A 
HETATM    7  C   UNK N   1      33.108  17.128   7.136  0.00  0.00     0.086 C 
HETATM    8  C   UNK N   1      31.745  16.683   4.682  0.00  0.00    -0.027 A 
HETATM    9  C   UNK N   1      29.692  16.495   3.410  0.00  0.00     0.117 A 
HETATM   10  C   UNK N   1      29.599  17.178   5.742  0.00  0.00     0.045 A 
HETATM   11  C   UNK N   1      29.548  17.844   8.079  0.00  0.00     0.104 A 
HETATM   12  C   UNK N   1      31.009  17.066   5.828  0.00  0.00     0.055 A 
HETATM   13  C   UNK N   1      28.866  17.570   6.875  0.00  0.00     0.202 A 
HETATM   14  F   UNK N   1      29.059  16.207   2.247  0.00  0.00    -0.206 F 
HETATM   15  N   UNK N   1      31.650  17.329   7.015  0.00  0.00    -0.350 N 
HETATM   16  O   UNK N   1      27.651  17.672   6.812  0.00  0.00    -0.286 OA
ENDROOT
BRANCH  11  17
HETATM   17  C   UNK N   1      28.858  18.259   9.327  0.00  0.00     0.181 C 
HETATM   18  O   UNK N   1      29.474  18.775  10.245  0.00  0.00    -0.646 OA
BRANCH  17  19
HETATM   19  O   UNK N   1      27.528  18.068   9.451  0.00  0.00    -0.772 OA
HETATM   20  H   UNK N   1      26.930  18.661   9.043  0.00  0.00     0.167 HD
ENDBRANCH  17  19
ENDBRANCH  11  17
TORSDOF 2
ENDMDL
MODEL 3
REMARK VINA RESULT:      -6.6      3.277      5.141
REMARK  2 active torsions:
REMARK  status: ('A' for Active; 'I' for Inactive)
REMARK    1  A    between atoms: C_14  and  C_11 
REMARK    2  A    between atoms: O_19  and  C_14 
ROOT
HETATM    1  C   UNK N   1      29.252  15.845   3.675  0.00  0.00     0.033 C 
HETATM    2  C   UNK N   1      31.740  16.016   3.758  0.00  0.00     0.030 C 
HETATM    3  C   UNK N   1      32.900  16.911   4.177  0.00  0.00     0.043 C 
HETATM    4  C   UNK N   1      33.957  17.663   6.309  0.00  0.00     0.051 A 
HETATM    5  C   UNK N   1      32.682  17.966   8.344  0.00  0.00     0.060 A 
HETATM    6  C   UNK N   1      29.208  16.901   6.284  0.00  0.00     0.114 A 
HETATM    7  C   UNK N   1      30.433  16.671   4.173  0.00  0.00     0.086 C 
HETATM    8  C   UNK N   1      32.797  17.294   5.624  0.00  0.00    -0.027 A 
HETATM    9  C   UNK N   1      33.900  18.002   7.661  0.00  0.00     0.117 A 
HETATM   10  C   UNK N   1      31.502  17.602   7.673  0.00  0.00     0.045 A 
HETATM   11  C   UNK N   1      29.104  17.206   7.641  0.00  0.00     0.104 A 
HETATM   12  C   UNK N   1      31.553  17.271   6.297  0.00  0.00     0.055 A 
HETATM   13  C   UNK N   1      30.270  17.568   8.348  0.00  0.00     0.202 A 
HETATM   14  F   UNK N   1      35.032  18.367   8.312  0.00  0.00    -0.206 F 
HETATM   15  N   UNK N   1      30.401  16.930   5.627  0.00  0.00    -0.350 N 
HETATM   16  O   UNK N   1      30.214  17.850   9.535  0.00  0.00    -0.286 OA
ENDROOT
BRANCH  11  17
HETATM   17  C   UNK N   1      27.759  17.147   8.268  0.00  0.00     0.181 C 
HETATM   18  O   UNK N   1      26.928  16.332   7.901  0.00  0.00    -0.646 OA
BRANCH  17  19
HETATM   19  O   UNK N   1      27.446  18.003   9.262  0.00  0.00    -0.772 OA
HETATM   20  H   UNK N   1      26.694  17.845   9.796  0.00  0.00     0.167 HD
ENDBRANCH  17  19
ENDBRANCH  11  17
TORSDOF 2
ENDMDL
MODEL 4
REMARK VINA RESULT:      -6.6     11.634     13.471
REMARK  2 active torsions:
REMARK  status: ('A' for Active; 'I' for Inactive)
REMARK    1  A    between atoms: C_14  and  C_11 
REMARK    2  A    between atoms: O_19  and  C_14 
ROOT
HETATM    1  C   UNK N   1      26.781  25.259  -3.751  0.00  0.00     0.033 C 
HETATM    2  C   UNK N   1      26.023  24.237  -5.897  0.00  0.00     0.030 C 
HETATM    3  C   UNK N   1      26.489  23.762  -7.268  0.00  0.00     0.043 C 
HETATM    4  C   UNK N   1      27.807  21.856  -8.195  0.00  0.00     0.051 A 
HETATM    5  C   UNK N   1      29.610  20.814  -6.962  0.00  0.00     0.060 A 
HETATM    6  C   UNK N   1      29.000  23.528  -3.846  0.00  0.00     0.114 A 
HETATM    7  C   UNK N   1      27.230  24.682  -5.089  0.00  0.00     0.086 C 
HETATM    8  C   UNK N   1      27.595  22.756  -7.148  0.00  0.00    -0.027 A 
HETATM    9  C   UNK N   1      28.812  20.893  -8.106  0.00  0.00     0.117 A 
HETATM   10  C   UNK N   1      29.416  21.711  -5.897  0.00  0.00     0.045 A 
HETATM   11  C   UNK N   1      29.999  22.567  -3.699  0.00  0.00     0.104 A 
HETATM   12  C   UNK N   1      28.407  22.700  -5.990  0.00  0.00     0.055 A 
HETATM   13  C   UNK N   1      30.216  21.645  -4.743  0.00  0.00     0.202 A 
HETATM   14  F   UNK N   1      29.014  20.033  -9.133  0.00  0.00    -0.206 F 
HETATM   15  N   UNK N   1      28.220  23.594  -4.962  0.00  0.00    -0.350 N 
HETATM   16  O   UNK N   1      31.088  20.796  -4.651  0.00  0.00    -0.286 OA
ENDROOT
BRANCH  11  17
HETATM   17  C   UNK N   1      30.796  22.577  -2.446  0.00  0.00     0.181 C 
HETATM   18  O   UNK N   1      30.374  23.115  -1.434  0.00  0.00    -0.646 OA
BRANCH  17  19
HETATM   19  O   UNK N   1      32.006  21.981  -2.418  0.00  0.00    -0.772 OA
HETATM   20  H   UNK N   1      32.421  21.725  -3.217  0.00  0.00     0.167 HD
ENDBRANCH  17  19
ENDBRANCH  11  17
TORSDOF 2
ENDMDL
MODEL 5
REMARK VINA RESULT:      -6.5      4.979      6.911
REMARK  2 active torsions:
REMARK  status: ('A' for Active; 'I' for Inactive)
REMARK    1  A    between atoms: C_14  and  C_11 
REMARK    2  A    between atoms: O_19  and  C_14 
ROOT
HETATM    1  C   UNK N   1      33.055  13.303   6.707  0.00  0.00     0.033 C 
HETATM    2  C   UNK N   1      33.380  12.028   8.827  0.00  0.00     0.030 C 
HETATM    3  C   UNK N   1      34.371  11.727   9.945  0.00  0.00     0.043 C 
HETATM    4  C   UNK N   1      35.344  12.929  11.904  0.00  0.00     0.051 A 
HETATM    5  C   UNK N   1      35.726  15.318  11.891  0.00  0.00     0.060 A 
HETATM    6  C   UNK N   1      34.303  15.490   7.968  0.00  0.00     0.114 A 
HETATM    7  C   UNK N   1      33.985  13.060   7.891  0.00  0.00     0.086 C 
HETATM    8  C   UNK N   1      34.856  12.988  10.596  0.00  0.00    -0.027 A 
HETATM    9  C   UNK N   1      35.781  14.086  12.547  0.00  0.00     0.117 A 
HETATM   10  C   UNK N   1      35.242  15.401  10.574  0.00  0.00     0.045 A 
HETATM   11  C   UNK N   1      34.704  16.678   8.578  0.00  0.00     0.104 A 
HETATM   12  C   UNK N   1      34.811  14.225   9.912  0.00  0.00     0.055 A 
HETATM   13  C   UNK N   1      35.187  16.634   9.902  0.00  0.00     0.202 A 
HETATM   14  F   UNK N   1      36.261  14.014  13.813  0.00  0.00    -0.206 F 
HETATM   15  N   UNK N   1      34.352  14.292   8.617  0.00  0.00    -0.350 N 
HETATM   16  O   UNK N   1      35.554  17.654  10.463  0.00  0.00    -0.286 OA
ENDROOT
BRANCH  11  17
HETATM   17  C   UNK N   1      34.613  17.932   7.787  0.00  0.00     0.181 C 
HETATM   18  O   UNK N   1      34.271  17.915   6.616  0.00  0.00    -0.646 OA
BRANCH  17  19
HETATM   19  O   UNK N   1      34.909  19.112   8.369  0.00  0.00    -0.772 OA
HETATM   20  H   UNK N   1      34.247  19.586   8.831  0.00  0.00     0.167 HD
ENDBRANCH  17  19
ENDBRANCH  11  17
TORSDOF 2
ENDMDL
MODEL 6
REMARK VINA RESULT:      -6.4      1.001      1.355
REMARK  2 active torsions:
REMARK  status: ('A' for Active; 'I' for Inactive)
REMARK    1  A    between atoms: C_14  and  C_11 
REMARK    2  A    between atoms: O_19  and  C_14 
ROOT
HETATM    1  C   UNK N   1      29.382  17.682   9.282  0.00  0.00     0.033 C 
HETATM    2  C   UNK N   1      28.802  17.301   6.884  0.00  0.00     0.030 C 
HETATM    3  C   UNK N   1      29.191  17.648   5.452  0.00  0.00     0.043 C 
HETATM    4  C   UNK N   1      31.038  17.091   3.869  0.00  0.00     0.051 A 
HETATM    5  C   UNK N   1      33.295  16.652   4.624  0.00  0.00     0.060 A 
HETATM    6  C   UNK N   1      32.085  17.381   8.555  0.00  0.00     0.114 A 
HETATM    7  C   UNK N   1      29.806  17.928   7.837  0.00  0.00     0.086 C 
HETATM    8  C   UNK N   1      30.630  17.322   5.185  0.00  0.00    -0.027 A 
HETATM    9  C   UNK N   1      32.364  16.762   3.588  0.00  0.00     0.117 A 
HETATM   10  C   UNK N   1      32.908  16.884   5.955  0.00  0.00     0.045 A 
HETATM   11  C   UNK N   1      33.416  17.030   8.327  0.00  0.00     0.104 A 
HETATM   12  C   UNK N   1      31.566  17.232   6.243  0.00  0.00     0.055 A 
HETATM   13  C   UNK N   1      33.837  16.781   7.004  0.00  0.00     0.202 A 
HETATM   14  F   UNK N   1      32.748  16.549   2.306  0.00  0.00    -0.206 F 
HETATM   15  N   UNK N   1      31.181  17.478   7.540  0.00  0.00    -0.350 N 
HETATM   16  O   UNK N   1      34.996  16.480   6.768  0.00  0.00    -0.286 OA
ENDROOT
BRANCH  11  17
HETATM   17  C   UNK N   1      34.325  16.951   9.498  0.00  0.00     0.181 C 
HETATM   18  O   UNK N   1      35.179  17.801   9.692  0.00  0.00    -0.646 OA
BRANCH  17  19
HETATM   19  O   UNK N   1      34.209  15.926  10.368  0.00  0.00    -0.772 OA
HETATM   20  H   UNK N   1      34.356  15.047  10.078  0.00  0.00     0.167 HD
ENDBRANCH  17  19
ENDBRANCH  11  17
TORSDOF 2
ENDMDL
MODEL 7
REMARK VINA RESULT:      -6.4      7.559      9.587
REMARK  2 active torsions:
REMARK  status: ('A' for Active; 'I' for Inactive)
REMARK    1  A    between atoms: C_14  and  C_11 
REMARK    2  A    between atoms: O_19  and  C_14 
ROOT
HETATM    1  C   UNK N   1      21.751  15.752   5.350  0.00  0.00     0.033 C 
HETATM    2  C   UNK N   1      24.168  15.867   5.962  0.00  0.00     0.030 C 
HETATM    3  C   UNK N   1      25.562  16.162   5.424  0.00  0.00     0.043 C 
HETATM    4  C   UNK N   1      26.864  18.168   4.707  0.00  0.00     0.051 A 
HETATM    5  C   UNK N   1      25.809  20.093   3.689  0.00  0.00     0.060 A 
HETATM    6  C   UNK N   1      22.118  18.151   3.922  0.00  0.00     0.114 A 
HETATM    7  C   UNK N   1      23.147  16.137   4.870  0.00  0.00     0.086 C 
HETATM    8  C   UNK N   1      25.627  17.524   4.797  0.00  0.00    -0.027 A 
HETATM    9  C   UNK N   1      26.956  19.444   4.152  0.00  0.00     0.117 A 
HETATM   10  C   UNK N   1      24.555  19.462   3.766  0.00  0.00     0.045 A 
HETATM   11  C   UNK N   1      22.156  19.437   3.383  0.00  0.00     0.104 A 
HETATM   12  C   UNK N   1      24.460  18.161   4.315  0.00  0.00     0.055 A 
HETATM   13  C   UNK N   1      23.395  20.103   3.298  0.00  0.00     0.202 A 
HETATM   14  F   UNK N   1      28.163  20.054   4.062  0.00  0.00    -0.206 F 
HETATM   15  N   UNK N   1      23.240  17.527   4.380  0.00  0.00    -0.350 N 
HETATM   16  O   UNK N   1      23.466  21.226   2.823  0.00  0.00    -0.286 OA
ENDROOT
BRANCH  11  17
HETATM   17  C   UNK N   1      20.879  20.031   2.911  0.00  0.00     0.181 C 
HETATM   18  O   UNK N   1      20.092  19.383   2.239  0.00  0.00    -0.646 OA
BRANCH  17  19
HETATM   19  O   UNK N   1      20.578  21.307   3.228  0.00  0.00    -0.772 OA
HETATM   20  H   UNK N   1      19.706  21.532   3.486  0.00  0.00     0.167 HD
ENDBRANCH  17  19
ENDBRANCH  11  17
TORSDOF 2
ENDMDL
MODEL 8
REMARK VINA RESULT:      -6.3     11.395     13.301
REMARK  2 active torsions:
REMARK  status: ('A' for Active; 'I' for Inactive)
REMARK    1  A    between atoms: C_14  and  C_11 
REMARK    2  A    between atoms: O_19  and  C_14 
ROOT
HETATM    1  C   UNK N   1      35.177   7.526  17.862  0.00  0.00     0.033 C 
HETATM    2  C   UNK N   1      35.119   9.333  19.583  0.00  0.00     0.030 C 
HETATM    3  C   UNK N   1      35.664  10.710  19.943  0.00  0.00     0.043 C 
HETATM    4  C   UNK N   1      35.355  13.063  19.169  0.00  0.00     0.051 A 
HETATM    5  C   UNK N   1      34.850  13.607  16.866  0.00  0.00     0.060 A 
HETATM    6  C   UNK N   1      35.017   9.545  15.906  0.00  0.00     0.114 A 
HETATM    7  C   UNK N   1      35.624   8.944  18.204  0.00  0.00     0.086 C 
HETATM    8  C   UNK N   1      35.398  11.703  18.850  0.00  0.00    -0.027 A 
HETATM    9  C   UNK N   1      35.087  14.011  18.182  0.00  0.00     0.117 A 
HETATM   10  C   UNK N   1      34.892  12.245  16.522  0.00  0.00     0.045 A 
HETATM   11  C   UNK N   1      34.720  10.452  14.889  0.00  0.00     0.104 A 
HETATM   12  C   UNK N   1      35.179  11.280  17.518  0.00  0.00     0.055 A 
HETATM   13  C   UNK N   1      34.661  11.827  15.200  0.00  0.00     0.202 A 
HETATM   14  F   UNK N   1      35.057  15.327  18.502  0.00  0.00    -0.206 F 
HETATM   15  N   UNK N   1      35.239   9.946  17.189  0.00  0.00    -0.350 N 
HETATM   16  O   UNK N   1      34.412  12.649  14.333  0.00  0.00    -0.286 OA
ENDROOT
BRANCH  11  17
HETATM   17  C   UNK N   1      34.495   9.918  13.522  0.00  0.00     0.181 C 
HETATM   18  O   UNK N   1      35.115   8.949  13.114  0.00  0.00    -0.646 OA
BRANCH  17  19
HETATM   19  O   UNK N   1      33.589  10.507  12.715  0.00  0.00    -0.772 OA
HETATM   20  H   UNK N   1      33.219  10.030  11.999  0.00  0.00     0.167 HD
ENDBRANCH  17  19
ENDBRANCH  11  17
TORSDOF 2
ENDMDL
MODEL 9
REMARK VINA RESULT:      -6.3     10.072     11.899
REMARK  2 active torsions:
REMARK  status: ('A' for Active; 'I' for Inactive)
REMARK    1  A    between atoms: C_14  and  C_11 
REMARK    2  A    between atoms: O_19  and  C_14 
ROOT
HETATM    1  C   UNK N   1      21.972  17.587   5.223  0.00  0.00     0.033 C 
HETATM    2  C   UNK N   1      23.344  15.509   5.383  0.00  0.00     0.030 C 
HETATM    3  C   UNK N   1      24.059  14.575   6.353  0.00  0.00     0.043 C 
HETATM    4  C   UNK N   1      23.421  12.872   8.062  0.00  0.00     0.051 A 
HETATM    5  C   UNK N   1      21.388  13.049   9.363  0.00  0.00     0.060 A 
HETATM    6  C   UNK N   1      20.518  16.658   7.449  0.00  0.00     0.114 A 
HETATM    7  C   UNK N   1      22.611  16.579   6.173  0.00  0.00     0.086 C 
HETATM    8  C   UNK N   1      23.123  14.072   7.413  0.00  0.00    -0.027 A 
HETATM    9  C   UNK N   1      22.560  12.364   9.035  0.00  0.00     0.117 A 
HETATM   10  C   UNK N   1      21.071  14.260   8.725  0.00  0.00     0.045 A 
HETATM   11  C   UNK N   1      19.615  16.178   8.397  0.00  0.00     0.104 A 
HETATM   12  C   UNK N   1      21.949  14.787   7.747  0.00  0.00     0.055 A 
HETATM   13  C   UNK N   1      19.896  14.961   9.050  0.00  0.00     0.202 A 
HETATM   14  F   UNK N   1      22.865  11.203   9.664  0.00  0.00    -0.206 F 
HETATM   15  N   UNK N   1      21.657  15.980   7.129  0.00  0.00    -0.350 N 
HETATM   16  O   UNK N   1      19.131  14.516   9.891  0.00  0.00    -0.286 OA
ENDROOT
BRANCH  11  17
HETATM   17  C   UNK N   1      18.403  16.990   8.677  0.00  0.00     0.181 C 
HETATM   18  O   UNK N   1      17.313  16.670   8.230  0.00  0.00    -0.646 OA
BRANCH  17  19
HETATM   19  O   UNK N   1      18.501  18.097   9.441  0.00  0.00    -0.772 OA
HETATM   20  H   UNK N   1      18.242  18.928   9.097  0.00  0.00     0.167 HD
ENDBRANCH  17  19
ENDBRANCH  11  17
TORSDOF 2
ENDMDL
