MODEL 1
REMARK VINA RESULT:      -6.1      0.000      0.000
REMARK  3 active torsions:
REMARK  status: ('A' for Active; 'I' for Inactive)
REMARK    1  A    between atoms: C_6  and  C_5 
REMARK    2  A    between atoms: C_12  and  C_5 
REMARK    3  A    between atoms: C_13  and  C_6 
ROOT
HETATM    1  C   UNK N   1      28.505  29.125  -7.101  0.00  0.00     0.001 A 
HETATM    2  C   UNK N   1      28.616  30.197  -6.185  0.00  0.00     0.002 A 
HETATM    3  C   UNK N   1      27.571  28.099  -6.880  0.00  0.00     0.014 A 
HETATM    4  C   UNK N   1      27.794  30.247  -5.041  0.00  0.00     0.030 A 
HETATM    5  C   UNK N   1      25.342  27.906  -4.078  0.00  0.00     0.096 A 
HETATM    6  C   UNK N   1      25.805  27.344  -5.267  0.00  0.00    -0.030 A 
HETATM    7  C   UNK N   1      26.777  28.181  -5.738  0.00  0.00    -0.002 A 
HETATM    8  C   UNK N   1      26.884  29.212  -4.853  0.00  0.00     0.042 A 
HETATM    9  N   UNK N   1      26.015  29.061  -3.833  0.00  0.00    -0.365 N 
HETATM   10  H   UNK N   1      25.892  29.666  -3.065  0.00  0.00     0.165 HD
ENDROOT
BRANCH   6  11
HETATM   11  C   UNK N   1      25.367  26.097  -5.957  0.00  0.00     0.041 C 
BRANCH  11  12
HETATM   12  C   UNK N   1      25.565  24.806  -5.180  0.00  0.00     0.009 C 
BRANCH  12  13
HETATM   13  C   UNK N   1      27.063  24.581  -4.985  0.00  0.00    -0.011 C 
HETATM   14  C   UNK N   1      27.580  23.486  -5.910  0.00  0.00     0.024 C 
HETATM   15  C   UNK N   1      29.081  23.303  -5.672  0.00  0.00     0.114 C 
HETATM   16  N   UNK N   1      29.342  22.945  -4.277  0.00  0.00    -0.421 N 
HETATM   17  C   UNK N   1      28.910  24.042  -3.414  0.00  0.00     0.114 C 
HETATM   18  H   UNK N   1      29.758  22.069  -3.958  0.00  0.00     0.153 HD
HETATM   19  C   UNK N   1      27.403  24.226  -3.535  0.00  0.00     0.024 C 
ENDBRANCH  12  13
ENDBRANCH  11  12
ENDBRANCH   6  11
TORSDOF 3
ENDMDL
MODEL 2
REMARK VINA RESULT:      -6.0     12.567     15.416
REMARK  3 active torsions:
REMARK  status: ('A' for Active; 'I' for Inactive)
REMARK    1  A    between atoms: C_6  and  C_5 
REMARK    2  A    between atoms: C_12  and  C_5 
REMARK    3  A    between atoms: C_13  and  C_6 
ROOT
HETATM    1  C   UNK N   1      27.547  19.979   4.289  0.00  0.00     0.001 A 
HETATM    2  C   UNK N   1      26.827  20.842   5.148  0.00  0.00     0.002 A 
HETATM    3  C   UNK N   1      28.305  18.923   4.821  0.00  0.00     0.014 A 
HETATM    4  C   UNK N   1      26.864  20.653   6.544  0.00  0.00     0.030 A 
HETATM    5  C   UNK N   1      28.628  18.165   8.310  0.00  0.00     0.096 A 
HETATM    6  C   UNK N   1      28.957  17.852   6.992  0.00  0.00    -0.030 A 
HETATM    7  C   UNK N   1      28.318  18.768   6.205  0.00  0.00    -0.002 A 
HETATM    8  C   UNK N   1      27.627  19.599   7.034  0.00  0.00     0.042 A 
HETATM    9  N   UNK N   1      27.804  19.247   8.324  0.00  0.00    -0.365 N 
HETATM   10  H   UNK N   1      27.414  19.684   9.116  0.00  0.00     0.165 HD
ENDROOT
BRANCH   6  11
HETATM   11  C   UNK N   1      29.810  16.748   6.469  0.00  0.00     0.041 C 
BRANCH  11  12
HETATM   12  C   UNK N   1      31.171  17.160   5.930  0.00  0.00     0.009 C 
BRANCH  12  13
HETATM   13  C   UNK N   1      32.244  16.688   6.907  0.00  0.00    -0.011 C 
HETATM   14  C   UNK N   1      31.822  15.404   7.611  0.00  0.00     0.024 C 
HETATM   15  C   UNK N   1      32.931  14.978   8.577  0.00  0.00     0.114 C 
HETATM   16  N   UNK N   1      33.187  16.030   9.563  0.00  0.00    -0.421 N 
HETATM   17  C   UNK N   1      33.666  17.225   8.872  0.00  0.00     0.114 C 
HETATM   18  H   UNK N   1      33.052  15.942  10.570  0.00  0.00     0.153 HD
HETATM   19  C   UNK N   1      32.575  17.757   7.952  0.00  0.00     0.024 C 
ENDBRANCH  12  13
ENDBRANCH  11  12
ENDBRANCH   6  11
TORSDOF 3
ENDMDL
MODEL 3
REMARK VINA RESULT:      -6.0     17.031     19.973
REMARK  3 active torsions:
REMARK  status: ('A' for Active; 'I' for Inactive)
REMARK    1  A    between atoms: C_6  and  C_5 
REMARK    2  A    between atoms: C_12  and  C_5 
REMARK    3  A    between atoms: C_13  and  C_6 
ROOT
HETATM    1  C   UNK N   1      24.715  13.042   9.812  0.00  0.00     0.001 A 
HETATM    2  C   UNK N   1      24.725  12.084  10.852  0.00  0.00     0.002 A 
HETATM    3  C   UNK N   1      23.505  13.622   9.395  0.00  0.00     0.014 A 
HETATM    4  C   UNK N   1      23.523  11.700  11.480  0.00  0.00     0.030 A 
HETATM    5  C   UNK N   1      20.277  12.868  10.762  0.00  0.00     0.096 A 
HETATM    6  C   UNK N   1      21.039  13.595   9.848  0.00  0.00    -0.030 A 
HETATM    7  C   UNK N   1      22.338  13.216  10.039  0.00  0.00    -0.002 A 
HETATM    8  C   UNK N   1      22.345  12.292  11.039  0.00  0.00     0.042 A 
HETATM    9  N   UNK N   1      21.096  12.067  11.494  0.00  0.00    -0.365 N 
HETATM   10  H   UNK N   1      20.829  11.447  12.212  0.00  0.00     0.165 HD
ENDROOT
BRANCH   6  11
HETATM   11  C   UNK N   1      20.600  14.610   8.848  0.00  0.00     0.041 C 
BRANCH  11  12
HETATM   12  C   UNK N   1      20.641  14.169   7.394  0.00  0.00     0.009 C 
BRANCH  12  13
HETATM   13  C   UNK N   1      21.075  15.356   6.538  0.00  0.00    -0.011 C 
HETATM   14  C   UNK N   1      22.526  15.213   6.095  0.00  0.00     0.024 C 
HETATM   15  C   UNK N   1      22.907  16.428   5.243  0.00  0.00     0.114 C 
HETATM   16  N   UNK N   1      22.735  17.665   6.005  0.00  0.00    -0.421 N 
HETATM   17  C   UNK N   1      21.323  17.820   6.352  0.00  0.00     0.114 C 
HETATM   18  H   UNK N   1      23.480  18.316   6.255  0.00  0.00     0.153 HD
HETATM   19  C   UNK N   1      20.895  16.686   7.273  0.00  0.00     0.024 C 
ENDBRANCH  12  13
ENDBRANCH  11  12
ENDBRANCH   6  11
TORSDOF 3
ENDMDL
MODEL 4
REMARK VINA RESULT:      -5.9     15.800     17.745
REMARK  3 active torsions:
REMARK  status: ('A' for Active; 'I' for Inactive)
REMARK    1  A    between atoms: C_6  and  C_5 
REMARK    2  A    between atoms: C_12  and  C_5 
REMARK    3  A    between atoms: C_13  and  C_6 
ROOT
HETATM    1  C   UNK N   1      29.471  18.528   9.668  0.00  0.00     0.001 A 
HETATM    2  C   UNK N   1      28.256  18.002   9.173  0.00  0.00     0.002 A 
HETATM    3  C   UNK N   1      30.672  18.312   8.972  0.00  0.00     0.014 A 
HETATM    4  C   UNK N   1      28.236  17.253   7.979  0.00  0.00     0.030 A 
HETATM    5  C   UNK N   1      30.984  16.451   5.923  0.00  0.00     0.096 A 
HETATM    6  C   UNK N   1      31.600  17.196   6.927  0.00  0.00    -0.030 A 
HETATM    7  C   UNK N   1      30.613  17.566   7.797  0.00  0.00    -0.002 A 
HETATM    8  C   UNK N   1      29.444  17.056   7.319  0.00  0.00     0.042 A 
HETATM    9  N   UNK N   1      29.650  16.373   6.175  0.00  0.00    -0.365 N 
HETATM   10  H   UNK N   1      28.971  15.910   5.631  0.00  0.00     0.165 HD
ENDROOT
BRANCH   6  11
HETATM   11  C   UNK N   1      33.035  17.571   7.080  0.00  0.00     0.041 C 
BRANCH  11  12
HETATM   12  C   UNK N   1      34.040  16.453   6.848  0.00  0.00     0.009 C 
BRANCH  12  13
HETATM   13  C   UNK N   1      34.564  15.982   8.203  0.00  0.00    -0.011 C 
HETATM   14  C   UNK N   1      33.697  14.866   8.771  0.00  0.00     0.024 C 
HETATM   15  C   UNK N   1      34.266  14.435  10.125  0.00  0.00     0.114 C 
HETATM   16  N   UNK N   1      34.298  15.566  11.054  0.00  0.00    -0.421 N 
HETATM   17  C   UNK N   1      35.197  16.591  10.526  0.00  0.00     0.114 C 
HETATM   18  H   UNK N   1      33.777  15.629  11.928  0.00  0.00     0.153 HD
HETATM   19  C   UNK N   1      34.645  17.130   9.213  0.00  0.00     0.024 C 
ENDBRANCH  12  13
ENDBRANCH  11  12
ENDBRANCH   6  11
TORSDOF 3
ENDMDL
MODEL 5
REMARK VINA RESULT:      -5.9      2.043      2.540
REMARK  3 active torsions:
REMARK  status: ('A' for Active; 'I' for Inactive)
REMARK    1  A    between atoms: C_6  and  C_5 
REMARK    2  A    between atoms: C_12  and  C_5 
REMARK    3  A    between atoms: C_13  and  C_6 
ROOT
HETATM    1  C   UNK N   1      28.398  29.149  -7.072  0.00  0.00     0.001 A 
HETATM    2  C   UNK N   1      28.635  30.186  -6.140  0.00  0.00     0.002 A 
HETATM    3  C   UNK N   1      27.418  28.176  -6.815  0.00  0.00     0.014 A 
HETATM    4  C   UNK N   1      27.893  30.253  -4.943  0.00  0.00     0.030 A 
HETATM    5  C   UNK N   1      25.365  28.039  -3.878  0.00  0.00     0.096 A 
HETATM    6  C   UNK N   1      25.715  27.485  -5.108  0.00  0.00    -0.030 A 
HETATM    7  C   UNK N   1      26.706  28.274  -5.621  0.00  0.00    -0.002 A 
HETATM    8  C   UNK N   1      26.933  29.270  -4.721  0.00  0.00     0.042 A 
HETATM    9  N   UNK N   1      26.124  29.144  -3.650  0.00  0.00    -0.365 N 
HETATM   10  H   UNK N   1      26.090  29.733  -2.861  0.00  0.00     0.165 HD
ENDROOT
BRANCH   6  11
HETATM   11  C   UNK N   1      25.156  26.288  -5.798  0.00  0.00     0.041 C 
BRANCH  11  12
HETATM   12  C   UNK N   1      25.680  24.942  -5.321  0.00  0.00     0.009 C 
BRANCH  12  13
HETATM   13  C   UNK N   1      26.215  24.174  -6.526  0.00  0.00    -0.011 C 
HETATM   14  C   UNK N   1      25.852  24.873  -7.831  0.00  0.00     0.024 C 
HETATM   15  C   UNK N   1      26.410  24.061  -9.002  0.00  0.00     0.114 C 
HETATM   16  N   UNK N   1      25.865  22.703  -8.993  0.00  0.00    -0.421 N 
HETATM   17  C   UNK N   1      26.291  22.025  -7.771  0.00  0.00     0.114 C 
HETATM   18  H   UNK N   1      25.281  22.294  -9.723  0.00  0.00     0.153 HD
HETATM   19  C   UNK N   1      25.698  22.733  -6.560  0.00  0.00     0.024 C 
ENDBRANCH  12  13
ENDBRANCH  11  12
ENDBRANCH   6  11
TORSDOF 3
ENDMDL
MODEL 6
REMARK VINA RESULT:      -5.8     24.188     27.660
REMARK  3 active torsions:
REMARK  status: ('A' for Active; 'I' for Inactive)
REMARK    1  A    between atoms: C_6  and  C_5 
REMARK    2  A    between atoms: C_12  and  C_5 
REMARK    3  A    between atoms: C_13  and  C_6 
ROOT
HETATM    1  C   UNK N   1      35.192   9.236  18.010  0.00  0.00     0.001 A 
HETATM    2  C   UNK N   1      35.236   9.201  19.423  0.00  0.00     0.002 A 
HETATM    3  C   UNK N   1      35.178  10.466  17.332  0.00  0.00     0.014 A 
HETATM    4  C   UNK N   1      35.264  10.399  20.166  0.00  0.00     0.030 A 
HETATM    5  C   UNK N   1      35.228  13.689  18.903  0.00  0.00     0.096 A 
HETATM    6  C   UNK N   1      35.196  12.942  17.726  0.00  0.00    -0.030 A 
HETATM    7  C   UNK N   1      35.206  11.629  18.100  0.00  0.00    -0.002 A 
HETATM    8  C   UNK N   1      35.246  11.598  19.461  0.00  0.00     0.042 A 
HETATM    9  N   UNK N   1      35.261  12.846  19.970  0.00  0.00    -0.365 N 
HETATM   10  H   UNK N   1      35.289  13.098  20.922  0.00  0.00     0.165 HD
ENDROOT
BRANCH   6  11
HETATM   11  C   UNK N   1      35.173  13.411  16.311  0.00  0.00     0.041 C 
BRANCH  11  12
HETATM   12  C   UNK N   1      36.507  13.386  15.582  0.00  0.00     0.009 C 
BRANCH  12  13
HETATM   13  C   UNK N   1      36.250  13.075  14.110  0.00  0.00    -0.011 C 
HETATM   14  C   UNK N   1      36.042  14.353  13.306  0.00  0.00     0.024 C 
HETATM   15  C   UNK N   1      35.789  13.983  11.842  0.00  0.00     0.114 C 
HETATM   16  N   UNK N   1      34.612  13.119  11.725  0.00  0.00    -0.421 N 
HETATM   17  C   UNK N   1      34.865  11.868  12.437  0.00  0.00     0.114 C 
HETATM   18  H   UNK N   1      33.753  13.353  11.227  0.00  0.00     0.153 HD
HETATM   19  C   UNK N   1      35.043  12.152  13.923  0.00  0.00     0.024 C 
ENDBRANCH  12  13
ENDBRANCH  11  12
ENDBRANCH   6  11
TORSDOF 3
ENDMDL
MODEL 7
REMARK VINA RESULT:      -5.6     22.866     26.388
REMARK  3 active torsions:
REMARK  status: ('A' for Active; 'I' for Inactive)
REMARK    1  A    between atoms: C_6  and  C_5 
REMARK    2  A    between atoms: C_12  and  C_5 
REMARK    3  A    between atoms: C_13  and  C_6 
ROOT
HETATM    1  C   UNK N   1      35.167  13.604  18.415  0.00  0.00     0.001 A 
HETATM    2  C   UNK N   1      35.308  12.570  19.368  0.00  0.00     0.002 A 
HETATM    3  C   UNK N   1      35.035  13.296  17.050  0.00  0.00     0.014 A 
HETATM    4  C   UNK N   1      35.319  11.220  18.961  0.00  0.00     0.030 A 
HETATM    5  C   UNK N   1      35.034   9.986  15.672  0.00  0.00     0.096 A 
HETATM    6  C   UNK N   1      34.949  11.361  15.458  0.00  0.00    -0.030 A 
HETATM    7  C   UNK N   1      35.051  11.951  16.686  0.00  0.00    -0.002 A 
HETATM    8  C   UNK N   1      35.189  10.954  17.602  0.00  0.00     0.042 A 
HETATM    9  N   UNK N   1      35.180   9.746  17.003  0.00  0.00    -0.365 N 
HETATM   10  H   UNK N   1      35.262   8.867  17.440  0.00  0.00     0.165 HD
ENDROOT
BRANCH   6  11
HETATM   11  C   UNK N   1      34.768  12.108  14.181  0.00  0.00     0.041 C 
BRANCH  11  12
HETATM   12  C   UNK N   1      35.618  11.639  13.011  0.00  0.00     0.009 C 
BRANCH  12  13
HETATM   13  C   UNK N   1      35.751  12.788  12.015  0.00  0.00    -0.011 C 
HETATM   14  C   UNK N   1      37.144  12.823  11.397  0.00  0.00     0.024 C 
HETATM   15  C   UNK N   1      37.221  13.991  10.411  0.00  0.00     0.114 C 
HETATM   16  N   UNK N   1      36.943  15.258  11.090  0.00  0.00    -0.421 N 
HETATM   17  C   UNK N   1      35.576  15.232  11.606  0.00  0.00     0.114 C 
HETATM   18  H   UNK N   1      37.598  16.034  11.188  0.00  0.00     0.153 HD
HETATM   19  C   UNK N   1      35.447  14.142  12.662  0.00  0.00     0.024 C 
ENDBRANCH  12  13
ENDBRANCH  11  12
ENDBRANCH   6  11
TORSDOF 3
ENDMDL
MODEL 8
REMARK VINA RESULT:      -5.6      1.198      5.541
REMARK  3 active torsions:
REMARK  status: ('A' for Active; 'I' for Inactive)
REMARK    1  A    between atoms: C_6  and  C_5 
REMARK    2  A    between atoms: C_12  and  C_5 
REMARK    3  A    between atoms: C_13  and  C_6 
ROOT
HETATM    1  C   UNK N   1      29.375  23.519  -3.015  0.00  0.00     0.001 A 
HETATM    2  C   UNK N   1      30.147  22.672  -3.843  0.00  0.00     0.002 A 
HETATM    3  C   UNK N   1      28.199  24.109  -3.506  0.00  0.00     0.014 A 
HETATM    4  C   UNK N   1      29.746  22.413  -5.170  0.00  0.00     0.030 A 
HETATM    5  C   UNK N   1      26.900  23.676  -6.820  0.00  0.00     0.096 A 
HETATM    6  C   UNK N   1      26.767  24.257  -5.560  0.00  0.00    -0.030 A 
HETATM    7  C   UNK N   1      27.835  23.831  -4.822  0.00  0.00    -0.002 A 
HETATM    8  C   UNK N   1      28.578  23.017  -5.623  0.00  0.00     0.042 A 
HETATM    9  N   UNK N   1      28.023  22.910  -6.847  0.00  0.00    -0.365 N 
HETATM   10  H   UNK N   1      28.362  22.383  -7.607  0.00  0.00     0.165 HD
ENDROOT
BRANCH   6  11
HETATM   11  C   UNK N   1      25.697  25.157  -5.042  0.00  0.00     0.041 C 
BRANCH  11  12
HETATM   12  C   UNK N   1      25.210  26.229  -6.004  0.00  0.00     0.009 C 
BRANCH  12  13
HETATM   13  C   UNK N   1      25.705  27.586  -5.509  0.00  0.00    -0.011 C 
HETATM   14  C   UNK N   1      27.079  27.914  -6.081  0.00  0.00     0.024 C 
HETATM   15  C   UNK N   1      27.524  29.280  -5.552  0.00  0.00     0.114 C 
HETATM   16  N   UNK N   1      27.580  29.273  -4.090  0.00  0.00    -0.421 N 
HETATM   17  C   UNK N   1      26.238  29.035  -3.562  0.00  0.00     0.114 C 
HETATM   18  H   UNK N   1      28.420  29.411  -3.528  0.00  0.00     0.153 HD
HETATM   19  C   UNK N   1      25.761  27.650  -3.980  0.00  0.00     0.024 C 
ENDBRANCH  12  13
ENDBRANCH  11  12
ENDBRANCH   6  11
TORSDOF 3
ENDMDL
MODEL 9
REMARK VINA RESULT:      -5.5     12.365     15.057
REMARK  3 active torsions:
REMARK  status: ('A' for Active; 'I' for Inactive)
REMARK    1  A    between atoms: C_6  and  C_5 
REMARK    2  A    between atoms: C_12  and  C_5 
REMARK    3  A    between atoms: C_13  and  C_6 
ROOT
HETATM    1  C   UNK N   1      27.019  21.140   5.652  0.00  0.00     0.001 A 
HETATM    2  C   UNK N   1      26.233  20.483   4.678  0.00  0.00     0.002 A 
HETATM    3  C   UNK N   1      27.774  20.395   6.574  0.00  0.00     0.014 A 
HETATM    4  C   UNK N   1      26.197  19.074   4.622  0.00  0.00     0.030 A 
HETATM    5  C   UNK N   1      27.902  16.815   6.721  0.00  0.00     0.096 A 
HETATM    6  C   UNK N   1      28.322  18.040   7.238  0.00  0.00    -0.030 A 
HETATM    7  C   UNK N   1      27.712  19.006   6.488  0.00  0.00    -0.002 A 
HETATM    8  C   UNK N   1      26.954  18.370   5.552  0.00  0.00     0.042 A 
HETATM    9  N   UNK N   1      27.057  17.032   5.678  0.00  0.00    -0.365 N 
HETATM   10  H   UNK N   1      26.611  16.348   5.126  0.00  0.00     0.165 HD
ENDROOT
BRANCH   6  11
HETATM   11  C   UNK N   1      29.258  18.319   8.364  0.00  0.00     0.041 C 
BRANCH  11  12
HETATM   12  C   UNK N   1      30.359  17.293   8.581  0.00  0.00     0.009 C 
BRANCH  12  13
HETATM   13  C   UNK N   1      31.583  17.716   7.774  0.00  0.00    -0.011 C 
HETATM   14  C   UNK N   1      31.704  16.904   6.490  0.00  0.00     0.024 C 
HETATM   15  C   UNK N   1      32.945  17.368   5.723  0.00  0.00     0.114 C 
HETATM   16  N   UNK N   1      34.148  17.197   6.539  0.00  0.00    -0.421 N 
HETATM   17  C   UNK N   1      34.045  18.045   7.725  0.00  0.00     0.114 C 
HETATM   18  H   UNK N   1      34.933  16.584   6.316  0.00  0.00     0.153 HD
HETATM   19  C   UNK N   1      32.875  17.583   8.584  0.00  0.00     0.024 C 
ENDBRANCH  12  13
ENDBRANCH  11  12
ENDBRANCH   6  11
TORSDOF 3
ENDMDL
