REMARK  5 active torsions:
REMARK  status: ('A' for Active; 'I' for Inactive)
REMARK    1  A    between atoms: N_13  and  C_4 
REMARK    2  A    between atoms: N_13  and  C_5 
REMARK    3  A    between atoms: C_12  and  C_9 
REMARK    4  A    between atoms: O_14  and  C_10 
REMARK    5  A    between atoms: O_16  and  C_11 
REMARK       I    between atoms: N_13  and  C_12 
ROOT
HETATM    1  C   UNK N   1       1.674   0.553   0.289  0.00  0.00     0.020 A 
HETATM    2  C   UNK N   1       1.637   1.945   0.374  0.00  0.00     0.040 A 
HETATM    3  C   UNK N   1      -0.715   0.502  -0.028  0.00  0.00     0.056 A 
HETATM    4  C   UNK N   1       0.503  -0.190   0.082  0.00  0.00     0.035 A 
HETATM    5  C   UNK N   1       0.424   2.622   0.257  0.00  0.00     0.099 A 
HETATM    6  C   UNK N   1      -0.765   1.905   0.067  0.00  0.00     0.102 A 
ENDROOT
BRANCH   4   7
HETATM    7  C   UNK N   1       0.513  -1.681  -0.111  0.00  0.00     0.253 C 
HETATM    8  N   UNK N   1       1.635  -2.463   0.065  0.00  0.00    -0.349 N 
HETATM    9  O   UNK N   1      -0.527  -2.209  -0.478  0.00  0.00    -0.267 OA
BRANCH   8  10
HETATM   10  C   UNK N   1       2.878  -1.928   0.571  0.00  0.00     0.121 C 
HETATM   11  C   UNK N   1       3.931  -1.881  -0.520  0.00  0.00     0.026 C 
ENDBRANCH   8  10
BRANCH   8  12
HETATM   12  C   UNK N   1       1.602  -3.878  -0.263  0.00  0.00     0.121 C 
HETATM   13  C   UNK N   1       0.651  -4.646   0.640  0.00  0.00     0.026 C 
ENDBRANCH   8  12
ENDBRANCH   4   7
BRANCH   6  14
HETATM   14  O   UNK N   1      -1.939   2.577  -0.027  0.00  0.00    -0.353 OA
HETATM   15  C   UNK N   1      -3.157   1.953  -0.169  0.00  0.00     0.210 C 
ENDBRANCH   6  14
BRANCH   5  16
HETATM   16  O   UNK N   1       0.403   3.964   0.329  0.00  0.00    -0.358 OA
HETATM   17  H   UNK N   1       1.206   4.444   0.379  0.00  0.00     0.217 HD
ENDBRANCH   5  16
TORSDOF 5
