REMARK  6 active torsions:
REMARK  status: ('A' for Active; 'I' for Inactive)
REMARK    1  A    between atoms: N_11  and  C_2 
REMARK    2  A    between atoms: C_10  and  C_7 
REMARK    3  A    between atoms: N_11  and  C_7 
REMARK    4  A    between atoms: C_10  and  C_8 
REMARK    5  A    between atoms: O_12  and  C_9 
REMARK    6  A    between atoms: O_13  and  C_10 
ROOT
HETATM    1  C   UNK N   1       8.115  -0.701   0.349  0.00  0.00     0.003 A 
HETATM    2  C   UNK N   1       6.987   0.100   0.155  0.00  0.00     0.010 A 
HETATM    3  C   UNK N   1       8.015  -2.090   0.231  0.00  0.00     0.036 A 
HETATM    4  C   UNK N   1       5.663  -1.875  -0.301  0.00  0.00     0.046 A 
HETATM    5  C   UNK N   1       5.750  -0.479  -0.172  0.00  0.00    -0.025 A 
HETATM    6  C   UNK N   1       6.788  -2.675  -0.089  0.00  0.00     0.066 A 
ENDROOT
BRANCH   5   7
HETATM    7  C   UNK N   1       4.530   0.379  -0.411  0.00  0.00     0.168 C 
BRANCH   7   8
HETATM    8  C   UNK N   1       3.330  -0.064   0.414  0.00  0.00     0.150 C 
BRANCH   8   9
HETATM    9  N   UNK N   1       2.711  -1.224  -0.212  0.00  0.00    -0.419 N 
HETATM   10  H   UNK N   1       3.071  -1.737  -1.018  0.00  0.00     0.153 HD
BRANCH   9  11
HETATM   11  C   UNK N   1       1.490  -1.519   0.517  0.00  0.00     0.109 C 
HETATM   12  C   UNK N   1       0.312  -0.836  -0.152  0.00  0.00     0.026 C 
ENDBRANCH   9  11
ENDBRANCH   8   9
ENDBRANCH   7   8
BRANCH   7  13
HETATM   13  O   UNK N   1       4.800   1.724  -0.140  0.00  0.00    -0.389 OA
HETATM   14  H   UNK N   1       5.702   2.028   0.048  0.00  0.00     0.210 HD
ENDBRANCH   7  13
ENDBRANCH   5   7
BRANCH   6  15
HETATM   15  O   UNK N   1       6.688  -4.012  -0.189  0.00  0.00    -0.361 OA
HETATM   16  H   UNK N   1       5.846  -4.417  -0.258  0.00  0.00     0.217 HD
ENDBRANCH   6  15
TORSDOF 6
