MODEL 1
REMARK VINA RESULT:      -7.8      0.000      0.000
REMARK  5 active torsions:
REMARK  status: ('A' for Active; 'I' for Inactive)
REMARK    1  A    between atoms: C_14  and  C_17 
REMARK    2  A    between atoms: C_17  and  C_19 
REMARK    3  A    between atoms: C_19  and  C_20 
REMARK    4  A    between atoms: C_20  and  C_21 
REMARK    5  A    between atoms: C_21  and  O_23 
ROOT
HETATM    1  C   UNK N   1      35.154   8.946  18.863  0.00  0.00     0.002 A 
HETATM    2  C   UNK N   1      35.237  10.162  19.596  0.00  0.00     0.012 A 
HETATM    3  C   UNK N   1      35.210  11.387  18.904  0.00  0.00    -0.024 A 
HETATM    4  C   UNK N   1      35.293  12.648  19.518  0.00  0.00     0.012 A 
HETATM    5  C   UNK N   1      35.269  13.819  18.710  0.00  0.00     0.002 A 
HETATM    6  C   UNK N   1      35.174  13.728  17.297  0.00  0.00     0.013 A 
HETATM    7  C   UNK N   1      35.094  12.454  16.728  0.00  0.00    -0.013 A 
HETATM    8  C   UNK N   1      35.107  11.345  17.535  0.00  0.00    -0.004 A 
HETATM    9  C   UNK N   1      35.021  10.193  16.805  0.00  0.00    -0.013 A 
HETATM   10  C   UNK N   1      35.044   8.954  17.451  0.00  0.00     0.013 A 
HETATM   11  C   UNK N   1      34.951  10.581  15.402  0.00  0.00    -0.014 A 
HETATM   12  C   UNK N   1      35.013  11.968  15.350  0.00  0.00    -0.013 A 
HETATM   13  C   UNK N   1      35.033  12.645  14.133  0.00  0.00     0.028 A 
HETATM   14  C   UNK N   1      34.970  11.887  12.941  0.00  0.00     0.011 A 
HETATM   15  C   UNK N   1      34.877  10.474  13.013  0.00  0.00     0.016 A 
HETATM   16  C   UNK N   1      34.873   9.810  14.250  0.00  0.00     0.014 A 
ENDROOT
BRANCH  14  17
HETATM   17  C   UNK N   1      35.039  12.547  11.612  0.00  0.00     0.160 C 
HETATM   18  O   UNK N   1      34.494  12.031  10.650  0.00  0.00    -0.292 OA
BRANCH  17  19
HETATM   19  C   UNK N   1      35.825  13.807  11.402  0.00  0.00     0.094 C 
BRANCH  19  20
HETATM   20  C   UNK N   1      34.919  15.022  11.338  0.00  0.00     0.117 C 
BRANCH  20  21
HETATM   21  C   UNK N   1      35.717  16.203  10.900  0.00  0.00     0.139 C 
HETATM   22  O   UNK N   1      35.160  17.248  10.608  0.00  0.00    -0.650 OA
BRANCH  21  23
HETATM   23  O   UNK N   1      37.057  16.109  10.812  0.00  0.00    -0.776 OA
HETATM   24  H   UNK N   1      37.595  16.403  11.520  0.00  0.00     0.167 HD
ENDBRANCH  21  23
ENDBRANCH  20  21
ENDBRANCH  19  20
ENDBRANCH  17  19
ENDBRANCH  14  17
TORSDOF 5
ENDMDL
MODEL 2
REMARK VINA RESULT:      -7.7      8.531     12.785
REMARK  5 active torsions:
REMARK  status: ('A' for Active; 'I' for Inactive)
REMARK    1  A    between atoms: C_14  and  C_17 
REMARK    2  A    between atoms: C_17  and  C_19 
REMARK    3  A    between atoms: C_19  and  C_20 
REMARK    4  A    between atoms: C_20  and  C_21 
REMARK    5  A    between atoms: C_21  and  O_23 
ROOT
HETATM    1  C   UNK N   1      26.371  20.932   6.136  0.00  0.00     0.002 A 
HETATM    2  C   UNK N   1      26.060  20.170   4.977  0.00  0.00     0.012 A 
HETATM    3  C   UNK N   1      26.726  18.950   4.755  0.00  0.00    -0.024 A 
HETATM    4  C   UNK N   1      26.508  18.116   3.644  0.00  0.00     0.012 A 
HETATM    5  C   UNK N   1      27.254  16.910   3.523  0.00  0.00     0.002 A 
HETATM    6  C   UNK N   1      28.218  16.548   4.498  0.00  0.00     0.013 A 
HETATM    7  C   UNK N   1      28.402  17.405   5.586  0.00  0.00    -0.013 A 
HETATM    8  C   UNK N   1      27.659  18.554   5.682  0.00  0.00    -0.004 A 
HETATM    9  C   UNK N   1      27.975  19.263   6.807  0.00  0.00    -0.013 A 
HETATM   10  C   UNK N   1      27.339  20.480   7.067  0.00  0.00     0.013 A 
HETATM   11  C   UNK N   1      29.017  18.518   7.502  0.00  0.00    -0.014 A 
HETATM   12  C   UNK N   1      29.294  17.385   6.747  0.00  0.00    -0.013 A 
HETATM   13  C   UNK N   1      30.299  16.497   7.120  0.00  0.00     0.028 A 
HETATM   14  C   UNK N   1      31.027  16.763   8.303  0.00  0.00     0.011 A 
HETATM   15  C   UNK N   1      30.711  17.907   9.078  0.00  0.00     0.016 A 
HETATM   16  C   UNK N   1      29.704  18.799   8.676  0.00  0.00     0.014 A 
ENDROOT
BRANCH  14  17
HETATM   17  C   UNK N   1      32.144  15.880   8.726  0.00  0.00     0.160 C 
HETATM   18  O   UNK N   1      31.927  14.949   9.485  0.00  0.00    -0.292 OA
BRANCH  17  19
HETATM   19  C   UNK N   1      33.557  16.144   8.298  0.00  0.00     0.094 C 
BRANCH  19  20
HETATM   20  C   UNK N   1      34.170  17.287   9.082  0.00  0.00     0.117 C 
BRANCH  20  21
HETATM   21  C   UNK N   1      34.644  18.332   8.130  0.00  0.00     0.139 C 
HETATM   22  O   UNK N   1      34.356  18.263   6.946  0.00  0.00    -0.650 OA
BRANCH  21  23
HETATM   23  O   UNK N   1      35.406  19.347   8.578  0.00  0.00    -0.776 OA
HETATM   24  H   UNK N   1      36.230  19.529   8.173  0.00  0.00     0.167 HD
ENDBRANCH  21  23
ENDBRANCH  20  21
ENDBRANCH  19  20
ENDBRANCH  17  19
ENDBRANCH  14  17
TORSDOF 5
ENDMDL
MODEL 3
REMARK VINA RESULT:      -7.4     26.623     28.249
REMARK  5 active torsions:
REMARK  status: ('A' for Active; 'I' for Inactive)
REMARK    1  A    between atoms: C_14  and  C_17 
REMARK    2  A    between atoms: C_17  and  C_19 
REMARK    3  A    between atoms: C_19  and  C_20 
REMARK    4  A    between atoms: C_20  and  C_21 
REMARK    5  A    between atoms: C_21  and  O_23 
ROOT
HETATM    1  C   UNK N   1      29.142  30.746  -6.071  0.00  0.00     0.002 A 
HETATM    2  C   UNK N   1      28.343  30.653  -4.898  0.00  0.00     0.012 A 
HETATM    3  C   UNK N   1      27.399  29.615  -4.787  0.00  0.00    -0.024 A 
HETATM    4  C   UNK N   1      26.551  29.427  -3.683  0.00  0.00     0.012 A 
HETATM    5  C   UNK N   1      25.627  28.345  -3.691  0.00  0.00     0.002 A 
HETATM    6  C   UNK N   1      25.544  27.466  -4.802  0.00  0.00     0.013 A 
HETATM    7  C   UNK N   1      26.406  27.688  -5.878  0.00  0.00    -0.013 A 
HETATM    8  C   UNK N   1      27.295  28.733  -5.835  0.00  0.00    -0.004 A 
HETATM    9  C   UNK N   1      28.053  28.794  -6.971  0.00  0.00    -0.013 A 
HETATM   10  C   UNK N   1      29.001  29.809  -7.123  0.00  0.00     0.013 A 
HETATM   11  C   UNK N   1      27.618  27.702  -7.833  0.00  0.00    -0.014 A 
HETATM   12  C   UNK N   1      26.596  27.032  -7.172  0.00  0.00    -0.013 A 
HETATM   13  C   UNK N   1      25.925  25.969  -7.771  0.00  0.00     0.028 A 
HETATM   14  C   UNK N   1      26.321  25.569  -9.069  0.00  0.00     0.011 A 
HETATM   15  C   UNK N   1      27.386  26.245  -9.716  0.00  0.00     0.016 A 
HETATM   16  C   UNK N   1      28.040  27.324  -9.101  0.00  0.00     0.014 A 
ENDROOT
BRANCH  14  17
HETATM   17  C   UNK N   1      25.611  24.475  -9.780  0.00  0.00     0.160 C 
HETATM   18  O   UNK N   1      24.589  24.720 -10.402  0.00  0.00    -0.292 OA
BRANCH  17  19
HETATM   19  C   UNK N   1      26.079  23.053  -9.699  0.00  0.00     0.094 C 
BRANCH  19  20
HETATM   20  C   UNK N   1      26.087  22.553  -8.268  0.00  0.00     0.117 C 
BRANCH  20  21
HETATM   21  C   UNK N   1      24.958  21.597  -8.079  0.00  0.00     0.139 C 
HETATM   22  O   UNK N   1      25.180  20.414  -7.878  0.00  0.00    -0.650 OA
BRANCH  21  23
HETATM   23  O   UNK N   1      23.689  22.041  -8.145  0.00  0.00    -0.776 OA
HETATM   24  H   UNK N   1      23.400  22.723  -7.574  0.00  0.00     0.167 HD
ENDBRANCH  21  23
ENDBRANCH  20  21
ENDBRANCH  19  20
ENDBRANCH  17  19
ENDBRANCH  14  17
TORSDOF 5
ENDMDL
MODEL 4
REMARK VINA RESULT:      -7.2      1.500      2.954
REMARK  5 active torsions:
REMARK  status: ('A' for Active; 'I' for Inactive)
REMARK    1  A    between atoms: C_14  and  C_17 
REMARK    2  A    between atoms: C_17  and  C_19 
REMARK    3  A    between atoms: C_19  and  C_20 
REMARK    4  A    between atoms: C_20  and  C_21 
REMARK    5  A    between atoms: C_21  and  O_23 
ROOT
HETATM    1  C   UNK N   1      34.995  12.716  19.565  0.00  0.00     0.002 A 
HETATM    2  C   UNK N   1      34.944  11.297  19.628  0.00  0.00     0.012 A 
HETATM    3  C   UNK N   1      35.256  10.544  18.481  0.00  0.00    -0.024 A 
HETATM    4  C   UNK N   1      35.232   9.140  18.421  0.00  0.00     0.012 A 
HETATM    5  C   UNK N   1      35.556   8.490  17.197  0.00  0.00     0.002 A 
HETATM    6  C   UNK N   1      35.889   9.240  16.039  0.00  0.00     0.013 A 
HETATM    7  C   UNK N   1      35.901  10.633  16.143  0.00  0.00    -0.013 A 
HETATM    8  C   UNK N   1      35.597  11.230  17.340  0.00  0.00    -0.004 A 
HETATM    9  C   UNK N   1      35.659  12.592  17.252  0.00  0.00    -0.013 A 
HETATM   10  C   UNK N   1      35.357  13.379  18.367  0.00  0.00     0.013 A 
HETATM   11  C   UNK N   1      36.031  12.914  15.879  0.00  0.00    -0.014 A 
HETATM   12  C   UNK N   1      36.163  11.714  15.192  0.00  0.00    -0.013 A 
HETATM   13  C   UNK N   1      36.451  11.691  13.830  0.00  0.00     0.028 A 
HETATM   14  C   UNK N   1      36.626  12.923  13.158  0.00  0.00     0.011 A 
HETATM   15  C   UNK N   1      36.517  14.137  13.882  0.00  0.00     0.016 A 
HETATM   16  C   UNK N   1      36.211  14.139  15.252  0.00  0.00     0.014 A 
ENDROOT
BRANCH  14  17
HETATM   17  C   UNK N   1      36.885  12.965  11.696  0.00  0.00     0.160 C 
HETATM   18  O   UNK N   1      37.993  12.683  11.268  0.00  0.00    -0.292 OA
BRANCH  17  19
HETATM   19  C   UNK N   1      35.833  13.415  10.726  0.00  0.00     0.094 C 
BRANCH  19  20
HETATM   20  C   UNK N   1      36.053  14.853  10.297  0.00  0.00     0.117 C 
BRANCH  20  21
HETATM   21  C   UNK N   1      34.960  15.700  10.855  0.00  0.00     0.139 C 
HETATM   22  O   UNK N   1      35.072  16.916  10.871  0.00  0.00    -0.650 OA
BRANCH  21  23
HETATM   23  O   UNK N   1      33.854  15.120  11.355  0.00  0.00    -0.776 OA
HETATM   24  H   UNK N   1      33.033  15.218  10.915  0.00  0.00     0.167 HD
ENDBRANCH  21  23
ENDBRANCH  20  21
ENDBRANCH  19  20
ENDBRANCH  17  19
ENDBRANCH  14  17
TORSDOF 5
ENDMDL
MODEL 5
REMARK VINA RESULT:      -7.2     14.978     17.428
REMARK  5 active torsions:
REMARK  status: ('A' for Active; 'I' for Inactive)
REMARK    1  A    between atoms: C_14  and  C_17 
REMARK    2  A    between atoms: C_17  and  C_19 
REMARK    3  A    between atoms: C_19  and  C_20 
REMARK    4  A    between atoms: C_20  and  C_21 
REMARK    5  A    between atoms: C_21  and  O_23 
ROOT
HETATM    1  C   UNK N   1      28.642  16.593   3.760  0.00  0.00     0.002 A 
HETATM    2  C   UNK N   1      28.985  17.886   4.242  0.00  0.00     0.012 A 
HETATM    3  C   UNK N   1      27.962  18.798   4.560  0.00  0.00    -0.024 A 
HETATM    4  C   UNK N   1      28.179  20.102   5.036  0.00  0.00     0.012 A 
HETATM    5  C   UNK N   1      27.060  20.938   5.311  0.00  0.00     0.002 A 
HETATM    6  C   UNK N   1      25.736  20.476   5.100  0.00  0.00     0.013 A 
HETATM    7  C   UNK N   1      25.565  19.172   4.626  0.00  0.00    -0.013 A 
HETATM    8  C   UNK N   1      26.663  18.387   4.382  0.00  0.00    -0.004 A 
HETATM    9  C   UNK N   1      26.303  17.150   3.925  0.00  0.00    -0.013 A 
HETATM   10  C   UNK N   1      27.287  16.213   3.597  0.00  0.00     0.013 A 
HETATM   11  C   UNK N   1      24.847  17.127   3.859  0.00  0.00    -0.014 A 
HETATM   12  C   UNK N   1      24.391  18.373   4.272  0.00  0.00    -0.013 A 
HETATM   13  C   UNK N   1      23.035  18.686   4.258  0.00  0.00     0.028 A 
HETATM   14  C   UNK N   1      22.120  17.697   3.829  0.00  0.00     0.011 A 
HETATM   15  C   UNK N   1      22.600  16.421   3.439  0.00  0.00     0.016 A 
HETATM   16  C   UNK N   1      23.973  16.130   3.446  0.00  0.00     0.014 A 
ENDROOT
BRANCH  14  17
HETATM   17  C   UNK N   1      20.666  17.987   3.743  0.00  0.00     0.160 C 
HETATM   18  O   UNK N   1      19.860  17.178   4.174  0.00  0.00    -0.292 OA
BRANCH  17  19
HETATM   19  C   UNK N   1      20.152  19.228   3.075  0.00  0.00     0.094 C 
BRANCH  19  20
HETATM   20  C   UNK N   1      20.409  19.200   1.581  0.00  0.00     0.117 C 
BRANCH  20  21
HETATM   21  C   UNK N   1      20.882  20.544   1.142  0.00  0.00     0.139 C 
HETATM   22  O   UNK N   1      21.433  21.291   1.935  0.00  0.00    -0.650 OA
BRANCH  21  23
HETATM   23  O   UNK N   1      20.688  20.939  -0.129  0.00  0.00    -0.776 OA
HETATM   24  H   UNK N   1      19.885  21.353  -0.374  0.00  0.00     0.167 HD
ENDBRANCH  21  23
ENDBRANCH  20  21
ENDBRANCH  19  20
ENDBRANCH  17  19
ENDBRANCH  14  17
TORSDOF 5
ENDMDL
MODEL 6
REMARK VINA RESULT:      -7.2     12.322     16.409
REMARK  5 active torsions:
REMARK  status: ('A' for Active; 'I' for Inactive)
REMARK    1  A    between atoms: C_14  and  C_17 
REMARK    2  A    between atoms: C_17  and  C_19 
REMARK    3  A    between atoms: C_19  and  C_20 
REMARK    4  A    between atoms: C_20  and  C_21 
REMARK    5  A    between atoms: C_21  and  O_23 
ROOT
HETATM    1  C   UNK N   1      21.895  20.564   2.523  0.00  0.00     0.002 A 
HETATM    2  C   UNK N   1      21.112  19.540   3.121  0.00  0.00     0.012 A 
HETATM    3  C   UNK N   1      21.736  18.588   3.949  0.00  0.00    -0.024 A 
HETATM    4  C   UNK N   1      21.069  17.528   4.586  0.00  0.00     0.012 A 
HETATM    5  C   UNK N   1      21.813  16.620   5.389  0.00  0.00     0.002 A 
HETATM    6  C   UNK N   1      23.216  16.763   5.544  0.00  0.00     0.013 A 
HETATM    7  C   UNK N   1      23.840  17.831   4.893  0.00  0.00    -0.013 A 
HETATM    8  C   UNK N   1      23.093  18.698   4.136  0.00  0.00    -0.004 A 
HETATM    9  C   UNK N   1      23.870  19.674   3.578  0.00  0.00    -0.013 A 
HETATM   10  C   UNK N   1      23.291  20.639   2.750  0.00  0.00     0.013 A 
HETATM   11  C   UNK N   1      25.242  19.421   4.001  0.00  0.00    -0.014 A 
HETATM   12  C   UNK N   1      25.229  18.280   4.795  0.00  0.00    -0.013 A 
HETATM   13  C   UNK N   1      26.408  17.742   5.303  0.00  0.00     0.028 A 
HETATM   14  C   UNK N   1      27.628  18.395   5.009  0.00  0.00     0.011 A 
HETATM   15  C   UNK N   1      27.619  19.575   4.223  0.00  0.00     0.016 A 
HETATM   16  C   UNK N   1      26.421  20.093   3.707  0.00  0.00     0.014 A 
ENDROOT
BRANCH  14  17
HETATM   17  C   UNK N   1      28.923  17.841   5.481  0.00  0.00     0.160 C 
HETATM   18  O   UNK N   1      29.926  17.984   4.801  0.00  0.00    -0.292 OA
BRANCH  17  19
HETATM   19  C   UNK N   1      29.021  17.044   6.747  0.00  0.00     0.094 C 
BRANCH  19  20
HETATM   20  C   UNK N   1      29.345  17.928   7.935  0.00  0.00     0.117 C 
BRANCH  20  21
HETATM   21  C   UNK N   1      28.129  18.063   8.789  0.00  0.00     0.139 C 
HETATM   22  O   UNK N   1      27.833  17.184   9.582  0.00  0.00    -0.650 OA
BRANCH  21  23
HETATM   23  O   UNK N   1      27.348  19.153   8.671  0.00  0.00    -0.776 OA
HETATM   24  H   UNK N   1      26.925  19.510   9.426  0.00  0.00     0.167 HD
ENDBRANCH  21  23
ENDBRANCH  20  21
ENDBRANCH  19  20
ENDBRANCH  17  19
ENDBRANCH  14  17
TORSDOF 5
ENDMDL
MODEL 7
REMARK VINA RESULT:      -7.2     21.702     24.681
REMARK  5 active torsions:
REMARK  status: ('A' for Active; 'I' for Inactive)
REMARK    1  A    between atoms: C_14  and  C_17 
REMARK    2  A    between atoms: C_17  and  C_19 
REMARK    3  A    between atoms: C_19  and  C_20 
REMARK    4  A    between atoms: C_20  and  C_21 
REMARK    5  A    between atoms: C_21  and  O_23 
ROOT
HETATM    1  C   UNK N   1      30.001  20.627  -6.871  0.00  0.00     0.002 A 
HETATM    2  C   UNK N   1      30.752  20.662  -5.665  0.00  0.00     0.012 A 
HETATM    3  C   UNK N   1      30.428  21.611  -4.677  0.00  0.00    -0.024 A 
HETATM    4  C   UNK N   1      31.103  21.746  -3.452  0.00  0.00     0.012 A 
HETATM    5  C   UNK N   1      30.689  22.755  -2.537  0.00  0.00     0.002 A 
HETATM    6  C   UNK N   1      29.617  23.629  -2.851  0.00  0.00     0.013 A 
HETATM    7  C   UNK N   1      28.973  23.460  -4.080  0.00  0.00    -0.013 A 
HETATM    8  C   UNK N   1      29.387  22.470  -4.935  0.00  0.00    -0.004 A 
HETATM    9  C   UNK N   1      28.644  22.456  -6.083  0.00  0.00    -0.013 A 
HETATM   10  C   UNK N   1      28.932  21.531  -7.090  0.00  0.00     0.013 A 
HETATM   11  C   UNK N   1      27.666  23.531  -5.971  0.00  0.00    -0.014 A 
HETATM   12  C   UNK N   1      27.877  24.161  -4.750  0.00  0.00    -0.013 A 
HETATM   13  C   UNK N   1      27.135  25.278  -4.377  0.00  0.00     0.028 A 
HETATM   14  C   UNK N   1      26.141  25.753  -5.264  0.00  0.00     0.011 A 
HETATM   15  C   UNK N   1      25.919  25.080  -6.492  0.00  0.00     0.016 A 
HETATM   16  C   UNK N   1      26.689  23.964  -6.857  0.00  0.00     0.014 A 
ENDROOT
BRANCH  14  17
HETATM   17  C   UNK N   1      25.352  26.970  -4.945  0.00  0.00     0.160 C 
HETATM   18  O   UNK N   1      24.507  27.368  -5.731  0.00  0.00    -0.292 OA
BRANCH  17  19
HETATM   19  C   UNK N   1      25.613  27.771  -3.704  0.00  0.00     0.094 C 
BRANCH  19  20
HETATM   20  C   UNK N   1      26.495  28.969  -3.993  0.00  0.00     0.117 C 
BRANCH  20  21
HETATM   21  C   UNK N   1      27.650  28.964  -3.049  0.00  0.00     0.139 C 
HETATM   22  O   UNK N   1      27.476  29.196  -1.863  0.00  0.00    -0.650 OA
BRANCH  21  23
HETATM   23  O   UNK N   1      28.889  28.716  -3.511  0.00  0.00    -0.776 OA
HETATM   24  H   UNK N   1      29.582  29.323  -3.344  0.00  0.00     0.167 HD
ENDBRANCH  21  23
ENDBRANCH  20  21
ENDBRANCH  19  20
ENDBRANCH  17  19
ENDBRANCH  14  17
TORSDOF 5
ENDMDL
MODEL 8
REMARK VINA RESULT:      -7.1     14.194     16.304
REMARK  5 active torsions:
REMARK  status: ('A' for Active; 'I' for Inactive)
REMARK    1  A    between atoms: C_14  and  C_17 
REMARK    2  A    between atoms: C_17  and  C_19 
REMARK    3  A    between atoms: C_19  and  C_20 
REMARK    4  A    between atoms: C_20  and  C_21 
REMARK    5  A    between atoms: C_21  and  O_23 
ROOT
HETATM    1  C   UNK N   1      23.846  11.890   8.656  0.00  0.00     0.002 A 
HETATM    2  C   UNK N   1      22.689  12.063   9.464  0.00  0.00     0.012 A 
HETATM    3  C   UNK N   1      21.839  13.159   9.226  0.00  0.00    -0.024 A 
HETATM    4  C   UNK N   1      20.675  13.438   9.962  0.00  0.00     0.012 A 
HETATM    5  C   UNK N   1      19.902  14.587   9.635  0.00  0.00     0.002 A 
HETATM    6  C   UNK N   1      20.298  15.457   8.587  0.00  0.00     0.013 A 
HETATM    7  C   UNK N   1      21.462  15.143   7.880  0.00  0.00    -0.013 A 
HETATM    8  C   UNK N   1      22.179  14.021   8.211  0.00  0.00    -0.004 A 
HETATM    9  C   UNK N   1      23.281  13.877   7.416  0.00  0.00    -0.013 A 
HETATM   10  C   UNK N   1      24.152  12.803   7.618  0.00  0.00     0.013 A 
HETATM   11  C   UNK N   1      23.289  15.003   6.491  0.00  0.00    -0.014 A 
HETATM   12  C   UNK N   1      22.184  15.792   6.784  0.00  0.00    -0.013 A 
HETATM   13  C   UNK N   1      21.949  16.986   6.108  0.00  0.00     0.028 A 
HETATM   14  C   UNK N   1      22.856  17.375   5.095  0.00  0.00     0.011 A 
HETATM   15  C   UNK N   1      23.962  16.544   4.788  0.00  0.00     0.016 A 
HETATM   16  C   UNK N   1      24.189  15.350   5.492  0.00  0.00     0.014 A 
ENDROOT
BRANCH  14  17
HETATM   17  C   UNK N   1      22.688  18.663   4.374  0.00  0.00     0.160 C 
HETATM   18  O   UNK N   1      23.669  19.331   4.089  0.00  0.00    -0.292 OA
BRANCH  17  19
HETATM   19  C   UNK N   1      21.329  19.204   4.042  0.00  0.00     0.094 C 
BRANCH  19  20
HETATM   20  C   UNK N   1      21.106  19.260   2.543  0.00  0.00     0.117 C 
BRANCH  20  21
HETATM   21  C   UNK N   1      21.225  20.674   2.085  0.00  0.00     0.139 C 
HETATM   22  O   UNK N   1      20.749  21.016   1.014  0.00  0.00    -0.650 OA
BRANCH  21  23
HETATM   23  O   UNK N   1      21.874  21.572   2.849  0.00  0.00    -0.776 OA
HETATM   24  H   UNK N   1      22.056  22.427   2.516  0.00  0.00     0.167 HD
ENDBRANCH  21  23
ENDBRANCH  20  21
ENDBRANCH  19  20
ENDBRANCH  17  19
ENDBRANCH  14  17
TORSDOF 5
ENDMDL
MODEL 9
REMARK VINA RESULT:      -7.0      6.188     11.341
REMARK  5 active torsions:
REMARK  status: ('A' for Active; 'I' for Inactive)
REMARK    1  A    between atoms: C_14  and  C_17 
REMARK    2  A    between atoms: C_17  and  C_19 
REMARK    3  A    between atoms: C_19  and  C_20 
REMARK    4  A    between atoms: C_20  and  C_21 
REMARK    5  A    between atoms: C_21  and  O_23 
ROOT
HETATM    1  C   UNK N   1      29.536  16.733   3.214  0.00  0.00     0.002 A 
HETATM    2  C   UNK N   1      28.402  16.897   4.056  0.00  0.00     0.012 A 
HETATM    3  C   UNK N   1      28.590  17.084   5.438  0.00  0.00    -0.024 A 
HETATM    4  C   UNK N   1      27.549  17.248   6.367  0.00  0.00     0.012 A 
HETATM    5  C   UNK N   1      27.866  17.417   7.744  0.00  0.00     0.002 A 
HETATM    6  C   UNK N   1      29.213  17.409   8.189  0.00  0.00     0.013 A 
HETATM    7  C   UNK N   1      30.217  17.244   7.232  0.00  0.00    -0.013 A 
HETATM    8  C   UNK N   1      29.881  17.096   5.910  0.00  0.00    -0.004 A 
HETATM    9  C   UNK N   1      30.989  16.946   5.124  0.00  0.00    -0.013 A 
HETATM   10  C   UNK N   1      30.848  16.758   3.747  0.00  0.00     0.013 A 
HETATM   11  C   UNK N   1      32.148  16.994   6.008  0.00  0.00    -0.014 A 
HETATM   12  C   UNK N   1      31.676  17.159   7.304  0.00  0.00    -0.013 A 
HETATM   13  C   UNK N   1      32.546  17.178   8.391  0.00  0.00     0.028 A 
HETATM   14  C   UNK N   1      33.932  17.042   8.146  0.00  0.00     0.011 A 
HETATM   15  C   UNK N   1      34.399  16.905   6.814  0.00  0.00     0.016 A 
HETATM   16  C   UNK N   1      33.504  16.874   5.733  0.00  0.00     0.014 A 
ENDROOT
BRANCH  14  17
HETATM   17  C   UNK N   1      34.905  17.004   9.268  0.00  0.00     0.160 C 
HETATM   18  O   UNK N   1      35.404  18.041   9.674  0.00  0.00    -0.292 OA
BRANCH  17  19
HETATM   19  C   UNK N   1      35.350  15.707   9.876  0.00  0.00     0.094 C 
BRANCH  19  20
HETATM   20  C   UNK N   1      35.756  15.885  11.326  0.00  0.00     0.117 C 
BRANCH  20  21
HETATM   21  C   UNK N   1      35.420  14.645  12.083  0.00  0.00     0.139 C 
HETATM   22  O   UNK N   1      36.252  14.121  12.806  0.00  0.00    -0.650 OA
BRANCH  21  23
HETATM   23  O   UNK N   1      34.199  14.094  11.954  0.00  0.00    -0.776 OA
HETATM   24  H   UNK N   1      33.981  13.613  11.181  0.00  0.00     0.167 HD
ENDBRANCH  21  23
ENDBRANCH  20  21
ENDBRANCH  19  20
ENDBRANCH  17  19
ENDBRANCH  14  17
TORSDOF 5
ENDMDL
