REMARK  2 active torsions:
REMARK  status: ('A' for Active; 'I' for Inactive)
REMARK    1  A    between atoms: C_14  and  C_11 
REMARK    2  A    between atoms: O_19  and  C_14 
ROOT
HETATM    1  C   UNK N   1      -0.766  -1.418  -0.148  0.00  0.00     0.033 C 
HETATM    2  C   UNK N   1      -2.084   0.687  -0.394  0.00  0.00     0.030 C 
HETATM    3  C   UNK N   1      -2.260   2.101   0.146  0.00  0.00     0.043 C 
HETATM    4  C   UNK N   1      -1.018   4.264   0.057  0.00  0.00     0.051 A 
HETATM    5  C   UNK N   1       1.397   4.360  -0.066  0.00  0.00     0.060 A 
HETATM    6  C   UNK N   1       1.536   0.188   0.078  0.00  0.00     0.114 A 
HETATM    7  C   UNK N   1      -0.901   0.034   0.300  0.00  0.00     0.086 C 
HETATM    8  C   UNK N   1      -0.972   2.868   0.092  0.00  0.00    -0.027 A 
HETATM    9  C   UNK N   1       0.160   5.007  -0.017  0.00  0.00     0.117 A 
HETATM   10  C   UNK N   1       1.467   2.957  -0.028  0.00  0.00     0.045 A 
HETATM   11  C   UNK N   1       2.739   0.886  -0.022  0.00  0.00     0.104 A 
HETATM   12  C   UNK N   1       0.274   2.199   0.062  0.00  0.00     0.055 A 
HETATM   13  C   UNK N   1       2.706   2.295  -0.071  0.00  0.00     0.202 A 
HETATM   14  F   UNK N   1       0.102   6.361  -0.041  0.00  0.00    -0.206 F 
HETATM   15  N   UNK N   1       0.332   0.826   0.117  0.00  0.00    -0.350 N 
HETATM   16  O   UNK N   1       3.741   2.938  -0.150  0.00  0.00    -0.286 OA
ENDROOT
BRANCH  11  17
HETATM   17  C   UNK N   1       3.999   0.101  -0.057  0.00  0.00     0.181 C 
HETATM   18  O   UNK N   1       5.086   0.655  -0.096  0.00  0.00    -0.646 OA
BRANCH  17  19
HETATM   19  O   UNK N   1       3.948  -1.247  -0.042  0.00  0.00    -0.772 OA
HETATM   20  H   UNK N   1       3.120  -1.684  -0.031  0.00  0.00     0.167 HD
ENDBRANCH  17  19
ENDBRANCH  11  17
TORSDOF 2
