MODEL 1
REMARK VINA RESULT:      -8.0      0.000      0.000
REMARK  12 active torsions:
REMARK  status: ('A' for Active; 'I' for Inactive)
REMARK    1  A    between atoms: N_26  and  C_7 
REMARK       I    between atoms: N_28  and  C_8 
REMARK    2  A    between atoms: C_11  and  C_18 
REMARK       I    between atoms: N_14  and  C_11 
REMARK    3  A    between atoms: C_16  and  N_14 
REMARK    4  A    between atoms: C_15  and  C_16 
REMARK    5  A    between atoms: O_20  and  C_15 
REMARK    6  A    between atoms: C_29  and  C_16 
REMARK    7  A    between atoms: C_17  and  C_33 
REMARK    8  A    between atoms: O_22  and  C_17 
REMARK    9  A    between atoms: C_32  and  C_19 
REMARK   10  A    between atoms: N_24  and  C_32 
REMARK   11  A    between atoms: C_34  and  N_24 
REMARK   12  A    between atoms: C_33  and  C_29 
ROOT
HETATM    1  N   UNK N   1      33.400  15.890   7.723  0.00  0.00    -0.384 N 
HETATM    2  H   UNK N   1      34.199  16.125   7.200  0.00  0.00     0.160 HD
ENDROOT
BRANCH   1   3
HETATM    3  C   UNK N   1      33.371  14.732   8.584  0.00  0.00     0.178 C 
BRANCH   3   4
HETATM    4  C   UNK N   1      34.254  14.836   9.774  0.00  0.00     0.043 A 
HETATM    5  N   UNK N   1      34.289  13.796  10.646  0.00  0.00    -0.351 N 
HETATM    6  C   UNK N   1      35.005  13.873  11.794  0.00  0.00     0.122 A 
ATOM      7  HN  UNK N   1      33.769  12.944  10.434  1.00  0.00     0.166 HD
HETATM    8  C   UNK N   1      35.037  12.816  12.705  0.00  0.00     0.145 A 
HETATM    9  C   UNK N   1      35.724  15.040  12.089  0.00  0.00     0.151 A 
HETATM   10  N   UNK N   1      35.767  12.937  13.843  0.00  0.00    -0.175 N 
HETATM   11  C   UNK N   1      36.467  14.073  14.112  0.00  0.00     0.679 A 
ATOM     12  HN  UNK N   1      35.790  12.164  14.509  1.00  0.00     0.186 HD
HETATM   13  N   UNK N   1      36.442  15.119  13.238  0.00  0.00    -0.174 N 
HETATM   14  N   UNK N   1      37.219  14.169  15.298  0.00  0.00    -0.234 N 
ATOM     15  HN  UNK N   1      36.967  15.967  13.448  1.00  0.00     0.186 HD
HETATM   16  H   UNK N   1      37.123  13.484  15.999  0.00  0.00     0.174 HD
HETATM   17  H   UNK N   1      37.841  14.921  15.428  0.00  0.00     0.174 HD
HETATM   18  N   UNK N   1      35.687  16.087  11.220  0.00  0.00    -0.348 N 
HETATM   19  C   UNK N   1      34.954  16.013  10.073  0.00  0.00     0.116 A 
ATOM     20  HN  UNK N   1      36.212  16.935  11.429  1.00  0.00     0.167 HD
BRANCH   8  21
HETATM   21  N   UNK N   1      34.315  11.631  12.454  0.00  0.00    -0.383 N 
HETATM   22  H   UNK N   1      33.573  11.359  13.043  0.00  0.00     0.157 HD
HETATM   23  H   UNK N   1      34.555  11.068  11.683  0.00  0.00     0.157 HD
ENDBRANCH   8  21
ENDBRANCH   3   4
ENDBRANCH   1   3
BRANCH   1  24
HETATM   24  C   UNK N   1      32.222  16.666   7.665  0.00  0.00     0.028 A 
HETATM   25  C   UNK N   1      32.045  17.699   8.587  0.00  0.00     0.030 A 
HETATM   26  C   UNK N   1      30.775  18.246   8.780  0.00  0.00     0.019 A 
HETATM   27  C   UNK N   1      29.673  17.796   8.030  0.00  0.00     0.032 A 
HETATM   28  C   UNK N   1      29.876  16.818   7.050  0.00  0.00     0.019 A 
HETATM   29  C   UNK N   1      31.137  16.239   6.885  0.00  0.00     0.030 A 
BRANCH  27  30
HETATM   30  C   UNK N   1      28.298  18.157   8.480  0.00  0.00     0.252 C 
HETATM   31  N   UNK N   1      27.428  18.910   7.750  0.00  0.00    -0.343 N 
HETATM   32  H   UNK N   1      26.467  18.759   7.897  0.00  0.00     0.163 HD
HETATM   33  O   UNK N   1      27.893  17.669   9.523  0.00  0.00    -0.268 OA
BRANCH  31  34
HETATM   34  C   UNK N   1      27.798  19.913   6.775  0.00  0.00     0.183 C 
BRANCH  34  35
HETATM   35  C   UNK N   1      26.799  21.035   6.968  0.00  0.00     0.163 C 
HETATM   36  O   UNK N   1      26.714  21.953   6.161  0.00  0.00    -0.648 OA
BRANCH  35  37
HETATM   37  O   UNK N   1      25.922  20.978   7.988  0.00  0.00    -0.775 OA
HETATM   38  H   UNK N   1      25.361  21.707   8.166  0.00  0.00     0.167 HD
ENDBRANCH  35  37
ENDBRANCH  34  35
BRANCH  34  39
HETATM   39  C   UNK N   1      27.704  19.459   5.316  0.00  0.00     0.046 C 
BRANCH  39  40
HETATM   40  C   UNK N   1      26.437  18.774   4.862  0.00  0.00     0.112 C 
BRANCH  40  41
HETATM   41  C   UNK N   1      26.765  17.322   4.755  0.00  0.00     0.139 C 
HETATM   42  O   UNK N   1      26.653  16.598   5.731  0.00  0.00    -0.650 OA
BRANCH  41  43
HETATM   43  O   UNK N   1      27.138  16.799   3.573  0.00  0.00    -0.776 OA
HETATM   44  H   UNK N   1      27.934  17.052   3.147  0.00  0.00     0.167 HD
ENDBRANCH  41  43
ENDBRANCH  40  41
ENDBRANCH  39  40
ENDBRANCH  34  39
ENDBRANCH  31  34
ENDBRANCH  27  30
ENDBRANCH   1  24
TORSDOF 12
ENDMDL
MODEL 2
REMARK VINA RESULT:      -7.7      1.741      2.719
REMARK  12 active torsions:
REMARK  status: ('A' for Active; 'I' for Inactive)
REMARK    1  A    between atoms: N_26  and  C_7 
REMARK       I    between atoms: N_28  and  C_8 
REMARK    2  A    between atoms: C_11  and  C_18 
REMARK       I    between atoms: N_14  and  C_11 
REMARK    3  A    between atoms: C_16  and  N_14 
REMARK    4  A    between atoms: C_15  and  C_16 
REMARK    5  A    between atoms: O_20  and  C_15 
REMARK    6  A    between atoms: C_29  and  C_16 
REMARK    7  A    between atoms: C_17  and  C_33 
REMARK    8  A    between atoms: O_22  and  C_17 
REMARK    9  A    between atoms: C_32  and  C_19 
REMARK   10  A    between atoms: N_24  and  C_32 
REMARK   11  A    between atoms: C_34  and  N_24 
REMARK   12  A    between atoms: C_33  and  C_29 
ROOT
HETATM    1  N   UNK N   1      33.488  17.556   6.473  0.00  0.00    -0.384 N 
HETATM    2  H   UNK N   1      33.891  18.444   6.344  0.00  0.00     0.160 HD
ENDROOT
BRANCH   1   3
HETATM    3  C   UNK N   1      34.109  16.360   5.956  0.00  0.00     0.178 C 
BRANCH   3   4
HETATM    4  C   UNK N   1      34.755  15.512   6.991  0.00  0.00     0.043 A 
HETATM    5  N   UNK N   1      34.887  16.012   8.246  0.00  0.00    -0.351 N 
HETATM    6  C   UNK N   1      35.549  15.321   9.205  0.00  0.00     0.122 A 
ATOM      7  HN  UNK N   1      34.481  16.920   8.471  1.00  0.00     0.166 HD
HETATM    8  C   UNK N   1      35.704  15.830  10.495  0.00  0.00     0.145 A 
HETATM    9  C   UNK N   1      36.106  14.070   8.902  0.00  0.00     0.151 A 
HETATM   10  N   UNK N   1      36.376  15.103  11.424  0.00  0.00    -0.175 N 
HETATM   11  C   UNK N   1      36.904  13.886  11.118  0.00  0.00     0.679 A 
ATOM     12  HN  UNK N   1      36.488  15.475  12.368  1.00  0.00     0.186 HD
HETATM   13  N   UNK N   1      36.770  13.375   9.861  0.00  0.00    -0.174 N 
HETATM   14  N   UNK N   1      37.592  13.152  12.103  0.00  0.00    -0.234 N 
ATOM     15  HN  UNK N   1      37.171  12.465   9.639  1.00  0.00     0.186 HD
HETATM   16  H   UNK N   1      37.821  13.576  12.961  0.00  0.00     0.174 HD
HETATM   17  H   UNK N   1      37.845  12.216  11.933  0.00  0.00     0.174 HD
HETATM   18  N   UNK N   1      35.981  13.569   7.643  0.00  0.00    -0.348 N 
HETATM   19  C   UNK N   1      35.328  14.273   6.675  0.00  0.00     0.116 A 
ATOM     20  HN  UNK N   1      36.381  12.658   7.420  1.00  0.00     0.167 HD
BRANCH   8  21
HETATM   21  N   UNK N   1      35.172  17.091  10.837  0.00  0.00    -0.383 N 
HETATM   22  H   UNK N   1      34.261  17.170  11.201  0.00  0.00     0.157 HD
HETATM   23  H   UNK N   1      35.718  17.900  10.711  0.00  0.00     0.157 HD
ENDBRANCH   8  21
ENDBRANCH   3   4
ENDBRANCH   1   3
BRANCH   1  24
HETATM   24  C   UNK N   1      32.272  17.388   7.172  0.00  0.00     0.028 A 
HETATM   25  C   UNK N   1      31.215  16.727   6.545  0.00  0.00     0.030 A 
HETATM   26  C   UNK N   1      29.921  16.846   7.056  0.00  0.00     0.019 A 
HETATM   27  C   UNK N   1      29.671  17.597   8.219  0.00  0.00     0.032 A 
HETATM   28  C   UNK N   1      30.748  18.188   8.888  0.00  0.00     0.019 A 
HETATM   29  C   UNK N   1      32.038  18.106   8.355  0.00  0.00     0.030 A 
BRANCH  27  30
HETATM   30  C   UNK N   1      28.266  17.972   8.547  0.00  0.00     0.252 C 
HETATM   31  N   UNK N   1      27.470  18.731   7.743  0.00  0.00    -0.343 N 
HETATM   32  H   UNK N   1      26.498  18.589   7.807  0.00  0.00     0.163 HD
HETATM   33  O   UNK N   1      27.768  17.492   9.553  0.00  0.00    -0.268 OA
BRANCH  31  34
HETATM   34  C   UNK N   1      27.931  19.726   6.801  0.00  0.00     0.183 C 
BRANCH  34  35
HETATM   35  C   UNK N   1      26.985  20.896   6.970  0.00  0.00     0.163 C 
HETATM   36  O   UNK N   1      27.004  21.844   6.194  0.00  0.00    -0.648 OA
BRANCH  35  37
HETATM   37  O   UNK N   1      26.039  20.855   7.928  0.00  0.00    -0.775 OA
HETATM   38  H   UNK N   1      25.302  21.432   7.886  0.00  0.00     0.167 HD
ENDBRANCH  35  37
ENDBRANCH  34  35
BRANCH  34  39
HETATM   39  C   UNK N   1      27.876  19.298   5.332  0.00  0.00     0.046 C 
BRANCH  39  40
HETATM   40  C   UNK N   1      26.997  18.127   4.963  0.00  0.00     0.112 C 
BRANCH  40  41
HETATM   41  C   UNK N   1      25.660  18.700   4.629  0.00  0.00     0.139 C 
HETATM   42  O   UNK N   1      25.546  19.480   3.697  0.00  0.00    -0.650 OA
BRANCH  41  43
HETATM   43  O   UNK N   1      24.571  18.323   5.323  0.00  0.00    -0.776 OA
HETATM   44  H   UNK N   1      23.865  17.853   4.924  0.00  0.00     0.167 HD
ENDBRANCH  41  43
ENDBRANCH  40  41
ENDBRANCH  39  40
ENDBRANCH  34  39
ENDBRANCH  31  34
ENDBRANCH  27  30
ENDBRANCH   1  24
TORSDOF 12
ENDMDL
MODEL 3
REMARK VINA RESULT:      -7.5      1.562      2.093
REMARK  12 active torsions:
REMARK  status: ('A' for Active; 'I' for Inactive)
REMARK    1  A    between atoms: N_26  and  C_7 
REMARK       I    between atoms: N_28  and  C_8 
REMARK    2  A    between atoms: C_11  and  C_18 
REMARK       I    between atoms: N_14  and  C_11 
REMARK    3  A    between atoms: C_16  and  N_14 
REMARK    4  A    between atoms: C_15  and  C_16 
REMARK    5  A    between atoms: O_20  and  C_15 
REMARK    6  A    between atoms: C_29  and  C_16 
REMARK    7  A    between atoms: C_17  and  C_33 
REMARK    8  A    between atoms: O_22  and  C_17 
REMARK    9  A    between atoms: C_32  and  C_19 
REMARK   10  A    between atoms: N_24  and  C_32 
REMARK   11  A    between atoms: C_34  and  N_24 
REMARK   12  A    between atoms: C_33  and  C_29 
ROOT
HETATM    1  N   UNK N   1      33.454  16.111   7.600  0.00  0.00    -0.384 N 
HETATM    2  H   UNK N   1      33.589  15.335   7.010  0.00  0.00     0.160 HD
ENDROOT
BRANCH   1   3
HETATM    3  C   UNK N   1      34.473  16.547   8.523  0.00  0.00     0.178 C 
BRANCH   3   4
HETATM    4  C   UNK N   1      34.794  15.563   9.588  0.00  0.00     0.043 A 
HETATM    5  N   UNK N   1      36.075  15.128   9.703  0.00  0.00    -0.351 N 
HETATM    6  C   UNK N   1      36.406  14.164  10.595  0.00  0.00     0.122 A 
ATOM      7  HN  UNK N   1      36.799  15.534   9.109  1.00  0.00     0.166 HD
HETATM    8  C   UNK N   1      37.716  13.698  10.712  0.00  0.00     0.145 A 
HETATM    9  C   UNK N   1      35.416  13.605  11.416  0.00  0.00     0.151 A 
HETATM   10  N   UNK N   1      38.002  12.730  11.619  0.00  0.00    -0.175 N 
HETATM   11  C   UNK N   1      37.032  12.203  12.416  0.00  0.00     0.679 A 
ATOM     12  HN  UNK N   1      38.961  12.390  11.705  1.00  0.00     0.186 HD
HETATM   13  N   UNK N   1      35.745  12.639  12.311  0.00  0.00    -0.174 N 
HETATM   14  N   UNK N   1      37.359  11.203  13.351  0.00  0.00    -0.234 N 
ATOM     15  HN  UNK N   1      35.024  12.238  12.909  1.00  0.00     0.186 HD
HETATM   16  H   UNK N   1      38.248  10.780  13.329  0.00  0.00     0.174 HD
HETATM   17  H   UNK N   1      36.699  10.925  14.027  0.00  0.00     0.174 HD
HETATM   18  N   UNK N   1      34.129  14.035  11.300  0.00  0.00    -0.348 N 
HETATM   19  C   UNK N   1      33.795  14.994  10.391  0.00  0.00     0.116 A 
ATOM     20  HN  UNK N   1      33.408  13.634  11.898  1.00  0.00     0.167 HD
BRANCH   8  21
HETATM   21  N   UNK N   1      38.739  14.222   9.894  0.00  0.00    -0.383 N 
HETATM   22  H   UNK N   1      38.576  15.009   9.326  0.00  0.00     0.157 HD
HETATM   23  H   UNK N   1      39.627  13.796   9.892  0.00  0.00     0.157 HD
ENDBRANCH   8  21
ENDBRANCH   3   4
ENDBRANCH   1   3
BRANCH   1  24
HETATM   24  C   UNK N   1      32.252  16.851   7.586  0.00  0.00     0.028 A 
HETATM   25  C   UNK N   1      32.070  17.868   8.523  0.00  0.00     0.030 A 
HETATM   26  C   UNK N   1      30.791  18.374   8.761  0.00  0.00     0.019 A 
HETATM   27  C   UNK N   1      29.681  17.896   8.039  0.00  0.00     0.032 A 
HETATM   28  C   UNK N   1      29.884  16.935   7.043  0.00  0.00     0.019 A 
HETATM   29  C   UNK N   1      31.157  16.397   6.834  0.00  0.00     0.030 A 
BRANCH  27  30
HETATM   30  C   UNK N   1      28.310  18.210   8.534  0.00  0.00     0.252 C 
HETATM   31  N   UNK N   1      27.400  18.953   7.843  0.00  0.00    -0.343 N 
HETATM   32  H   UNK N   1      26.448  18.772   8.014  0.00  0.00     0.163 HD
HETATM   33  O   UNK N   1      27.948  17.690   9.578  0.00  0.00    -0.268 OA
BRANCH  31  34
HETATM   34  C   UNK N   1      27.714  19.985   6.880  0.00  0.00     0.183 C 
BRANCH  34  35
HETATM   35  C   UNK N   1      26.667  21.057   7.096  0.00  0.00     0.163 C 
HETATM   36  O   UNK N   1      26.488  21.944   6.271  0.00  0.00    -0.648 OA
BRANCH  35  37
HETATM   37  O   UNK N   1      25.848  20.983   8.163  0.00  0.00    -0.775 OA
HETATM   38  H   UNK N   1      25.532  20.151   8.456  0.00  0.00     0.167 HD
ENDBRANCH  35  37
ENDBRANCH  34  35
BRANCH  34  39
HETATM   39  C   UNK N   1      27.629  19.546   5.416  0.00  0.00     0.046 C 
BRANCH  39  40
HETATM   40  C   UNK N   1      26.823  18.313   5.086  0.00  0.00     0.112 C 
BRANCH  40  41
HETATM   41  C   UNK N   1      25.449  18.791   4.752  0.00  0.00     0.139 C 
HETATM   42  O   UNK N   1      25.293  19.644   3.893  0.00  0.00    -0.650 OA
BRANCH  41  43
HETATM   43  O   UNK N   1      24.379  18.251   5.362  0.00  0.00    -0.776 OA
HETATM   44  H   UNK N   1      24.395  18.002   6.265  0.00  0.00     0.167 HD
ENDBRANCH  41  43
ENDBRANCH  40  41
ENDBRANCH  39  40
ENDBRANCH  34  39
ENDBRANCH  31  34
ENDBRANCH  27  30
ENDBRANCH   1  24
TORSDOF 12
ENDMDL
MODEL 4
REMARK VINA RESULT:      -7.4      4.130     10.238
REMARK  12 active torsions:
REMARK  status: ('A' for Active; 'I' for Inactive)
REMARK    1  A    between atoms: N_26  and  C_7 
REMARK       I    between atoms: N_28  and  C_8 
REMARK    2  A    between atoms: C_11  and  C_18 
REMARK       I    between atoms: N_14  and  C_11 
REMARK    3  A    between atoms: C_16  and  N_14 
REMARK    4  A    between atoms: C_15  and  C_16 
REMARK    5  A    between atoms: O_20  and  C_15 
REMARK    6  A    between atoms: C_29  and  C_16 
REMARK    7  A    between atoms: C_17  and  C_33 
REMARK    8  A    between atoms: O_22  and  C_17 
REMARK    9  A    between atoms: C_32  and  C_19 
REMARK   10  A    between atoms: N_24  and  C_32 
REMARK   11  A    between atoms: C_34  and  N_24 
REMARK   12  A    between atoms: C_33  and  C_29 
ROOT
HETATM    1  N   UNK N   1      30.002  16.247   5.806  0.00  0.00    -0.384 N 
HETATM    2  H   UNK N   1      30.176  15.612   5.075  0.00  0.00     0.160 HD
ENDROOT
BRANCH   1   3
HETATM    3  C   UNK N   1      28.673  16.455   6.328  0.00  0.00     0.178 C 
BRANCH   3   4
HETATM    4  C   UNK N   1      27.879  17.469   5.589  0.00  0.00     0.043 A 
HETATM    5  N   UNK N   1      26.525  17.374   5.614  0.00  0.00    -0.351 N 
HETATM    6  C   UNK N   1      25.754  18.216   4.885  0.00  0.00     0.122 A 
ATOM      7  HN  UNK N   1      26.081  16.659   6.192  1.00  0.00     0.166 HD
HETATM    8  C   UNK N   1      24.362  18.119   4.892  0.00  0.00     0.145 A 
HETATM    9  C   UNK N   1      26.357  19.203   4.092  0.00  0.00     0.151 A 
HETATM   10  N   UNK N   1      23.628  18.984   4.144  0.00  0.00    -0.175 N 
HETATM   11  C   UNK N   1      24.228  19.942   3.386  0.00  0.00     0.679 A 
ATOM     12  HN  UNK N   1      22.610  18.913   4.150  1.00  0.00     0.186 HD
HETATM   13  N   UNK N   1      25.587  20.047   3.360  0.00  0.00    -0.174 N 
HETATM   14  N   UNK N   1      23.442  20.828   2.624  0.00  0.00    -0.234 N 
ATOM     15  HN  UNK N   1      26.028  20.766   2.787  1.00  0.00     0.186 HD
HETATM   16  H   UNK N   1      22.477  20.664   2.521  0.00  0.00     0.174 HD
HETATM   17  H   UNK N   1      23.858  21.610   2.194  0.00  0.00     0.174 HD
HETATM   18  N   UNK N   1      27.715  19.297   4.059  0.00  0.00    -0.348 N 
HETATM   19  C   UNK N   1      28.490  18.439   4.782  0.00  0.00     0.116 A 
ATOM     20  HN  UNK N   1      28.157  20.015   3.487  1.00  0.00     0.167 HD
BRANCH   8  21
HETATM   21  N   UNK N   1      23.715  17.131   5.663  0.00  0.00    -0.383 N 
HETATM   22  H   UNK N   1      23.027  17.379   6.323  0.00  0.00     0.157 HD
HETATM   23  H   UNK N   1      23.953  16.184   5.541  0.00  0.00     0.157 HD
ENDBRANCH   8  21
ENDBRANCH   3   4
ENDBRANCH   1   3
BRANCH   1  24
HETATM   24  C   UNK N   1      31.040  17.001   6.395  0.00  0.00     0.028 A 
HETATM   25  C   UNK N   1      32.239  17.164   5.701  0.00  0.00     0.030 A 
HETATM   26  C   UNK N   1      33.382  17.594   6.379  0.00  0.00     0.019 A 
HETATM   27  C   UNK N   1      33.333  17.902   7.751  0.00  0.00     0.032 A 
HETATM   28  C   UNK N   1      32.108  17.816   8.421  0.00  0.00     0.019 A 
HETATM   29  C   UNK N   1      30.973  17.345   7.754  0.00  0.00     0.030 A 
BRANCH  27  30
HETATM   30  C   UNK N   1      34.612  18.037   8.506  0.00  0.00     0.252 C 
HETATM   31  N   UNK N   1      35.219  17.014   9.170  0.00  0.00    -0.343 N 
HETATM   32  H   UNK N   1      36.196  17.061   9.272  0.00  0.00     0.163 HD
HETATM   33  O   UNK N   1      35.198  19.106   8.445  0.00  0.00    -0.268 OA
BRANCH  31  34
HETATM   34  C   UNK N   1      34.548  15.866   9.739  0.00  0.00     0.183 C 
BRANCH  34  35
HETATM   35  C   UNK N   1      35.195  15.663  11.093  0.00  0.00     0.163 C 
HETATM   36  O   UNK N   1      34.659  14.979  11.955  0.00  0.00    -0.648 OA
BRANCH  35  37
HETATM   37  O   UNK N   1      36.426  16.159  11.324  0.00  0.00    -0.775 OA
HETATM   38  H   UNK N   1      36.962  15.789  11.997  0.00  0.00     0.167 HD
ENDBRANCH  35  37
ENDBRANCH  34  35
BRANCH  34  39
HETATM   39  C   UNK N   1      34.717  14.566   8.948  0.00  0.00     0.046 C 
BRANCH  39  40
HETATM   40  C   UNK N   1      34.066  14.468   7.589  0.00  0.00     0.112 C 
BRANCH  40  41
HETATM   41  C   UNK N   1      32.701  13.912   7.821  0.00  0.00     0.139 C 
HETATM   42  O   UNK N   1      31.912  13.825   6.893  0.00  0.00    -0.650 OA
BRANCH  41  43
HETATM   43  O   UNK N   1      32.351  13.463   9.040  0.00  0.00    -0.776 OA
HETATM   44  H   UNK N   1      32.936  12.957   9.569  0.00  0.00     0.167 HD
ENDBRANCH  41  43
ENDBRANCH  40  41
ENDBRANCH  39  40
ENDBRANCH  34  39
ENDBRANCH  31  34
ENDBRANCH  27  30
ENDBRANCH   1  24
TORSDOF 12
ENDMDL
MODEL 5
REMARK VINA RESULT:      -7.4      2.181      4.180
REMARK  12 active torsions:
REMARK  status: ('A' for Active; 'I' for Inactive)
REMARK    1  A    between atoms: N_26  and  C_7 
REMARK       I    between atoms: N_28  and  C_8 
REMARK    2  A    between atoms: C_11  and  C_18 
REMARK       I    between atoms: N_14  and  C_11 
REMARK    3  A    between atoms: C_16  and  N_14 
REMARK    4  A    between atoms: C_15  and  C_16 
REMARK    5  A    between atoms: O_20  and  C_15 
REMARK    6  A    between atoms: C_29  and  C_16 
REMARK    7  A    between atoms: C_17  and  C_33 
REMARK    8  A    between atoms: O_22  and  C_17 
REMARK    9  A    between atoms: C_32  and  C_19 
REMARK   10  A    between atoms: N_24  and  C_32 
REMARK   11  A    between atoms: C_34  and  N_24 
REMARK   12  A    between atoms: C_33  and  C_29 
ROOT
HETATM    1  N   UNK N   1      34.338  16.850  10.132  0.00  0.00    -0.384 N 
HETATM    2  H   UNK N   1      33.707  17.294  10.742  0.00  0.00     0.160 HD
ENDROOT
BRANCH   1   3
HETATM    3  C   UNK N   1      35.585  16.298  10.602  0.00  0.00     0.178 C 
BRANCH   3   4
HETATM    4  C   UNK N   1      35.433  15.166  11.551  0.00  0.00     0.043 A 
HETATM    5  N   UNK N   1      36.079  15.230  12.743  0.00  0.00    -0.351 N 
HETATM    6  C   UNK N   1      36.050  14.187  13.608  0.00  0.00     0.122 A 
ATOM      7  HN  UNK N   1      36.593  16.075  12.992  1.00  0.00     0.166 HD
HETATM    8  C   UNK N   1      36.721  14.235  14.830  0.00  0.00     0.145 A 
HETATM    9  C   UNK N   1      35.341  13.024  13.273  0.00  0.00     0.151 A 
HETATM   10  N   UNK N   1      36.666  13.167  15.665  0.00  0.00    -0.175 N 
HETATM   11  C   UNK N   1      35.967  12.047  15.331  0.00  0.00     0.679 A 
ATOM     12  HN  UNK N   1      37.157  13.202  16.559  1.00  0.00     0.186 HD
HETATM   13  N   UNK N   1      35.310  11.979  14.138  0.00  0.00    -0.174 N 
HETATM   14  N   UNK N   1      35.923  10.956  16.219  0.00  0.00    -0.234 N 
ATOM     15  HN  UNK N   1      34.792  11.136  13.893  1.00  0.00     0.186 HD
HETATM   16  H   UNK N   1      36.512  10.940  17.007  0.00  0.00     0.174 HD
HETATM   17  H   UNK N   1      35.304  10.209  16.051  0.00  0.00     0.174 HD
HETATM   18  N   UNK N   1      34.697  12.954  12.076  0.00  0.00    -0.348 N 
HETATM   19  C   UNK N   1      34.741  13.998  11.200  0.00  0.00     0.116 A 
ATOM     20  HN  UNK N   1      34.178  12.112  11.831  1.00  0.00     0.167 HD
BRANCH   8  21
HETATM   21  N   UNK N   1      37.459  15.380  15.199  0.00  0.00    -0.383 N 
HETATM   22  H   UNK N   1      38.443  15.381  15.155  0.00  0.00     0.157 HD
HETATM   23  H   UNK N   1      36.985  16.187  15.505  0.00  0.00     0.157 HD
ENDBRANCH   8  21
ENDBRANCH   3   4
ENDBRANCH   1   3
BRANCH   1  24
HETATM   24  C   UNK N   1      34.067  16.721   8.752  0.00  0.00     0.028 A 
HETATM   25  C   UNK N   1      34.112  17.857   7.943  0.00  0.00     0.030 A 
HETATM   26  C   UNK N   1      33.524  17.831   6.676  0.00  0.00     0.019 A 
HETATM   27  C   UNK N   1      32.916  16.660   6.187  0.00  0.00     0.032 A 
HETATM   28  C   UNK N   1      32.949  15.502   6.971  0.00  0.00     0.019 A 
HETATM   29  C   UNK N   1      33.498  15.537   8.256  0.00  0.00     0.030 A 
BRANCH  27  30
HETATM   30  C   UNK N   1      32.026  16.753   4.995  0.00  0.00     0.252 C 
HETATM   31  N   UNK N   1      30.678  16.939   5.060  0.00  0.00    -0.343 N 
HETATM   32  H   UNK N   1      30.248  17.390   4.299  0.00  0.00     0.163 HD
HETATM   33  O   UNK N   1      32.550  16.758   3.892  0.00  0.00    -0.268 OA
BRANCH  31  34
HETATM   34  C   UNK N   1      29.825  16.530   6.154  0.00  0.00     0.183 C 
BRANCH  34  35
HETATM   35  C   UNK N   1      28.545  16.054   5.499  0.00  0.00     0.163 C 
HETATM   36  O   UNK N   1      28.217  14.875   5.534  0.00  0.00    -0.648 OA
BRANCH  35  37
HETATM   37  O   UNK N   1      27.702  16.951   4.953  0.00  0.00    -0.775 OA
HETATM   38  H   UNK N   1      26.795  16.945   5.186  0.00  0.00     0.167 HD
ENDBRANCH  35  37
ENDBRANCH  34  35
BRANCH  34  39
HETATM   39  C   UNK N   1      29.453  17.647   7.133  0.00  0.00     0.046 C 
BRANCH  39  40
HETATM   40  C   UNK N   1      30.130  17.666   8.483  0.00  0.00     0.112 C 
BRANCH  40  41
HETATM   41  C   UNK N   1      29.184  18.352   9.412  0.00  0.00     0.139 C 
HETATM   42  O   UNK N   1      29.610  18.921  10.405  0.00  0.00    -0.650 OA
BRANCH  41  43
HETATM   43  O   UNK N   1      27.868  18.384   9.135  0.00  0.00    -0.776 OA
HETATM   44  H   UNK N   1      27.252  18.810   9.698  0.00  0.00     0.167 HD
ENDBRANCH  41  43
ENDBRANCH  40  41
ENDBRANCH  39  40
ENDBRANCH  34  39
ENDBRANCH  31  34
ENDBRANCH  27  30
ENDBRANCH   1  24
TORSDOF 12
ENDMDL
MODEL 6
REMARK VINA RESULT:      -7.4     14.252     18.173
REMARK  12 active torsions:
REMARK  status: ('A' for Active; 'I' for Inactive)
REMARK    1  A    between atoms: N_26  and  C_7 
REMARK       I    between atoms: N_28  and  C_8 
REMARK    2  A    between atoms: C_11  and  C_18 
REMARK       I    between atoms: N_14  and  C_11 
REMARK    3  A    between atoms: C_16  and  N_14 
REMARK    4  A    between atoms: C_15  and  C_16 
REMARK    5  A    between atoms: O_20  and  C_15 
REMARK    6  A    between atoms: C_29  and  C_16 
REMARK    7  A    between atoms: C_17  and  C_33 
REMARK    8  A    between atoms: O_22  and  C_17 
REMARK    9  A    between atoms: C_32  and  C_19 
REMARK   10  A    between atoms: N_24  and  C_32 
REMARK   11  A    between atoms: C_34  and  N_24 
REMARK   12  A    between atoms: C_33  and  C_29 
ROOT
HETATM    1  N   UNK N   1      27.512  23.487  -7.266  0.00  0.00    -0.384 N 
HETATM    2  H   UNK N   1      27.088  23.933  -8.034  0.00  0.00     0.160 HD
ENDROOT
BRANCH   1   3
HETATM    3  C   UNK N   1      27.002  23.639  -5.925  0.00  0.00     0.178 C 
BRANCH   3   4
HETATM    4  C   UNK N   1      26.624  25.031  -5.570  0.00  0.00     0.043 A 
HETATM    5  N   UNK N   1      27.550  25.819  -4.966  0.00  0.00    -0.351 N 
HETATM    6  C   UNK N   1      27.233  27.064  -4.539  0.00  0.00     0.122 A 
ATOM      7  HN  UNK N   1      28.499  25.468  -4.833  1.00  0.00     0.166 HD
HETATM    8  C   UNK N   1      28.172  27.878  -3.904  0.00  0.00     0.145 A 
HETATM    9  C   UNK N   1      25.931  27.553  -4.723  0.00  0.00     0.151 A 
HETATM   10  N   UNK N   1      27.809  29.120  -3.491  0.00  0.00    -0.175 N 
HETATM   11  C   UNK N   1      26.544  29.584  -3.684  0.00  0.00     0.679 A 
ATOM     12  HN  UNK N   1      28.497  29.715  -3.026  1.00  0.00     0.186 HD
HETATM   13  N   UNK N   1      25.611  28.802  -4.295  0.00  0.00    -0.174 N 
HETATM   14  N   UNK N   1      26.198  30.878  -3.249  0.00  0.00    -0.234 N 
ATOM     15  HN  UNK N   1      24.665  29.155  -4.433  1.00  0.00     0.186 HD
HETATM   16  H   UNK N   1      26.818  31.387  -2.678  0.00  0.00     0.174 HD
HETATM   17  H   UNK N   1      25.336  31.273  -3.515  0.00  0.00     0.174 HD
HETATM   18  N   UNK N   1      24.998  26.764  -5.322  0.00  0.00    -0.348 N 
HETATM   19  C   UNK N   1      25.315  25.505  -5.738  0.00  0.00     0.116 A 
ATOM     20  HN  UNK N   1      24.052  27.118  -5.461  1.00  0.00     0.167 HD
BRANCH   8  21
HETATM   21  N   UNK N   1      29.487  27.419  -3.685  0.00  0.00    -0.383 N 
HETATM   22  H   UNK N   1      30.121  27.946  -3.146  0.00  0.00     0.157 HD
HETATM   23  H   UNK N   1      29.776  26.563  -4.076  0.00  0.00     0.157 HD
ENDBRANCH   8  21
ENDBRANCH   3   4
ENDBRANCH   1   3
BRANCH   1  24
HETATM   24  C   UNK N   1      28.651  22.667  -7.422  0.00  0.00     0.028 A 
HETATM   25  C   UNK N   1      28.511  21.283  -7.311  0.00  0.00     0.030 A 
HETATM   26  C   UNK N   1      29.640  20.485  -7.116  0.00  0.00     0.019 A 
HETATM   27  C   UNK N   1      30.926  21.053  -7.065  0.00  0.00     0.032 A 
HETATM   28  C   UNK N   1      31.064  22.432  -7.260  0.00  0.00     0.019 A 
HETATM   29  C   UNK N   1      29.933  23.238  -7.413  0.00  0.00     0.030 A 
BRANCH  27  30
HETATM   30  C   UNK N   1      32.056  20.237  -6.537  0.00  0.00     0.252 C 
HETATM   31  N   UNK N   1      32.405  20.176  -5.221  0.00  0.00    -0.343 N 
HETATM   32  H   UNK N   1      32.843  19.352  -4.909  0.00  0.00     0.163 HD
HETATM   33  O   UNK N   1      32.643  19.505  -7.318  0.00  0.00    -0.268 OA
BRANCH  31  34
HETATM   34  C   UNK N   1      32.186  21.219  -4.244  0.00  0.00     0.183 C 
BRANCH  34  35
HETATM   35  C   UNK N   1      33.233  20.983  -3.176  0.00  0.00     0.163 C 
HETATM   36  O   UNK N   1      34.396  20.741  -3.472  0.00  0.00    -0.648 OA
BRANCH  35  37
HETATM   37  O   UNK N   1      32.908  21.138  -1.878  0.00  0.00    -0.775 OA
HETATM   38  H   UNK N   1      32.966  20.412  -1.289  0.00  0.00     0.167 HD
ENDBRANCH  35  37
ENDBRANCH  34  35
BRANCH  34  39
HETATM   39  C   UNK N   1      30.815  21.185  -3.562  0.00  0.00     0.046 C 
BRANCH  39  40
HETATM   40  C   UNK N   1      29.923  22.396  -3.692  0.00  0.00     0.112 C 
BRANCH  40  41
HETATM   41  C   UNK N   1      30.357  23.348  -2.628  0.00  0.00     0.139 C 
HETATM   42  O   UNK N   1      30.538  22.948  -1.489  0.00  0.00    -0.650 OA
BRANCH  41  43
HETATM   43  O   UNK N   1      30.593  24.638  -2.931  0.00  0.00    -0.776 OA
HETATM   44  H   UNK N   1      31.455  25.005  -2.901  0.00  0.00     0.167 HD
ENDBRANCH  41  43
ENDBRANCH  40  41
ENDBRANCH  39  40
ENDBRANCH  34  39
ENDBRANCH  31  34
ENDBRANCH  27  30
ENDBRANCH   1  24
TORSDOF 12
ENDMDL
MODEL 7
REMARK VINA RESULT:      -7.4      5.343      9.132
REMARK  12 active torsions:
REMARK  status: ('A' for Active; 'I' for Inactive)
REMARK    1  A    between atoms: N_26  and  C_7 
REMARK       I    between atoms: N_28  and  C_8 
REMARK    2  A    between atoms: C_11  and  C_18 
REMARK       I    between atoms: N_14  and  C_11 
REMARK    3  A    between atoms: C_16  and  N_14 
REMARK    4  A    between atoms: C_15  and  C_16 
REMARK    5  A    between atoms: O_20  and  C_15 
REMARK    6  A    between atoms: C_29  and  C_16 
REMARK    7  A    between atoms: C_17  and  C_33 
REMARK    8  A    between atoms: O_22  and  C_17 
REMARK    9  A    between atoms: C_32  and  C_19 
REMARK   10  A    between atoms: N_24  and  C_32 
REMARK   11  A    between atoms: C_34  and  N_24 
REMARK   12  A    between atoms: C_33  and  C_29 
ROOT
HETATM    1  N   UNK N   1      25.067  17.843   5.290  0.00  0.00    -0.384 N 
HETATM    2  H   UNK N   1      25.127  17.135   5.970  0.00  0.00     0.160 HD
ENDROOT
BRANCH   1   3
HETATM    3  C   UNK N   1      26.240  18.357   4.625  0.00  0.00     0.178 C 
BRANCH   3   4
HETATM    4  C   UNK N   1      27.523  17.966   5.264  0.00  0.00     0.043 A 
HETATM    5  N   UNK N   1      27.624  18.050   6.615  0.00  0.00    -0.351 N 
HETATM    6  C   UNK N   1      28.797  17.794   7.243  0.00  0.00     0.122 A 
ATOM      7  HN  UNK N   1      26.805  18.308   7.166  1.00  0.00     0.166 HD
HETATM    8  C   UNK N   1      28.918  17.891   8.630  0.00  0.00     0.145 A 
HETATM    9  C   UNK N   1      29.925  17.435   6.491  0.00  0.00     0.151 A 
HETATM   10  N   UNK N   1      30.113  17.626   9.217  0.00  0.00    -0.175 N 
HETATM   11  C   UNK N   1      31.198  17.270   8.475  0.00  0.00     0.679 A 
ATOM     12  HN  UNK N   1      30.201  17.697  10.231  1.00  0.00     0.186 HD
HETATM   13  N   UNK N   1      31.102  17.178   7.118  0.00  0.00    -0.174 N 
HETATM   14  N   UNK N   1      32.424  16.998   9.111  0.00  0.00    -0.234 N 
ATOM     15  HN  UNK N   1      31.919  16.914   6.569  1.00  0.00     0.186 HD
HETATM   16  H   UNK N   1      32.540  17.206  10.066  0.00  0.00     0.174 HD
HETATM   17  H   UNK N   1      33.166  16.600   8.600  0.00  0.00     0.174 HD
HETATM   18  N   UNK N   1      29.829  17.356   5.136  0.00  0.00    -0.348 N 
HETATM   19  C   UNK N   1      28.652  17.629   4.505  0.00  0.00     0.116 A 
ATOM     20  HN  UNK N   1      30.646  17.091   4.586  1.00  0.00     0.167 HD
BRANCH   8  21
HETATM   21  N   UNK N   1      27.812  18.264   9.422  0.00  0.00    -0.383 N 
HETATM   22  H   UNK N   1      27.009  18.658   9.011  0.00  0.00     0.157 HD
HETATM   23  H   UNK N   1      27.843  18.129  10.397  0.00  0.00     0.157 HD
ENDBRANCH   8  21
ENDBRANCH   3   4
ENDBRANCH   1   3
BRANCH   1  24
HETATM   24  C   UNK N   1      23.828  18.409   4.917  0.00  0.00     0.028 A 
HETATM   25  C   UNK N   1      22.666  17.984   5.561  0.00  0.00     0.030 A 
HETATM   26  C   UNK N   1      21.419  18.255   4.996  0.00  0.00     0.019 A 
HETATM   27  C   UNK N   1      21.313  18.986   3.798  0.00  0.00     0.032 A 
HETATM   28  C   UNK N   1      22.479  19.480   3.202  0.00  0.00     0.019 A 
HETATM   29  C   UNK N   1      23.731  19.173   3.744  0.00  0.00     0.030 A 
BRANCH  27  30
HETATM   30  C   UNK N   1      20.019  18.977   3.058  0.00  0.00     0.252 C 
HETATM   31  N   UNK N   1      19.457  17.861   2.516  0.00  0.00    -0.343 N 
HETATM   32  H   UNK N   1      18.477  17.847   2.429  0.00  0.00     0.163 HD
HETATM   33  O   UNK N   1      19.379  20.016   3.019  0.00  0.00    -0.268 OA
BRANCH  31  34
HETATM   34  C   UNK N   1      20.178  16.694   2.057  0.00  0.00     0.183 C 
BRANCH  34  35
HETATM   35  C   UNK N   1      19.891  16.613   0.572  0.00  0.00     0.163 C 
HETATM   36  O   UNK N   1      19.223  15.699   0.105  0.00  0.00    -0.648 OA
BRANCH  35  37
HETATM   37  O   UNK N   1      20.291  17.611  -0.239  0.00  0.00    -0.775 OA
HETATM   38  H   UNK N   1      20.715  17.415  -1.050  0.00  0.00     0.167 HD
ENDBRANCH  35  37
ENDBRANCH  34  35
BRANCH  34  39
HETATM   39  C   UNK N   1      19.731  15.372   2.686  0.00  0.00     0.046 C 
BRANCH  39  40
HETATM   40  C   UNK N   1      20.375  14.945   3.982  0.00  0.00     0.112 C 
BRANCH  40  41
HETATM   41  C   UNK N   1      19.377  15.226   5.056  0.00  0.00     0.139 C 
HETATM   42  O   UNK N   1      19.478  14.676   6.141  0.00  0.00    -0.650 OA
BRANCH  41  43
HETATM   43  O   UNK N   1      18.394  16.121   4.847  0.00  0.00    -0.776 OA
HETATM   44  H   UNK N   1      18.345  16.631   4.062  0.00  0.00     0.167 HD
ENDBRANCH  41  43
ENDBRANCH  40  41
ENDBRANCH  39  40
ENDBRANCH  34  39
ENDBRANCH  31  34
ENDBRANCH  27  30
ENDBRANCH   1  24
TORSDOF 12
ENDMDL
MODEL 8
REMARK VINA RESULT:      -7.2      3.152      5.753
REMARK  12 active torsions:
REMARK  status: ('A' for Active; 'I' for Inactive)
REMARK    1  A    between atoms: N_26  and  C_7 
REMARK       I    between atoms: N_28  and  C_8 
REMARK    2  A    between atoms: C_11  and  C_18 
REMARK       I    between atoms: N_14  and  C_11 
REMARK    3  A    between atoms: C_16  and  N_14 
REMARK    4  A    between atoms: C_15  and  C_16 
REMARK    5  A    between atoms: O_20  and  C_15 
REMARK    6  A    between atoms: C_29  and  C_16 
REMARK    7  A    between atoms: C_17  and  C_33 
REMARK    8  A    between atoms: O_22  and  C_17 
REMARK    9  A    between atoms: C_32  and  C_19 
REMARK   10  A    between atoms: N_24  and  C_32 
REMARK   11  A    between atoms: C_34  and  N_24 
REMARK   12  A    between atoms: C_33  and  C_29 
ROOT
HETATM    1  N   UNK N   1      34.996  13.697  12.462  0.00  0.00    -0.384 N 
HETATM    2  H   UNK N   1      34.380  12.931  12.494  0.00  0.00     0.160 HD
ENDROOT
BRANCH   1   3
HETATM    3  C   UNK N   1      35.912  13.978  13.541  0.00  0.00     0.178 C 
BRANCH   3   4
HETATM    4  C   UNK N   1      35.656  13.195  14.778  0.00  0.00     0.043 A 
HETATM    5  N   UNK N   1      35.583  13.860  15.960  0.00  0.00    -0.351 N 
HETATM    6  C   UNK N   1      35.443  13.189  17.128  0.00  0.00     0.122 A 
ATOM      7  HN  UNK N   1      35.634  14.879  15.968  1.00  0.00     0.166 HD
HETATM    8  C   UNK N   1      35.382  13.859  18.350  0.00  0.00     0.145 A 
HETATM    9  C   UNK N   1      35.369  11.788  17.123  0.00  0.00     0.151 A 
HETATM   10  N   UNK N   1      35.242  13.146  19.497  0.00  0.00    -0.175 N 
HETATM   11  C   UNK N   1      35.162  11.787  19.476  0.00  0.00     0.679 A 
ATOM     12  HN  UNK N   1      35.197  13.637  20.391  1.00  0.00     0.186 HD
HETATM   13  N   UNK N   1      35.228  11.114  18.292  0.00  0.00    -0.174 N 
HETATM   14  N   UNK N   1      35.013  11.074  20.680  0.00  0.00    -0.234 N 
ATOM     15  HN  UNK N   1      35.171  10.096  18.285  1.00  0.00     0.186 HD
HETATM   16  H   UNK N   1      35.115  11.538  21.542  0.00  0.00     0.174 HD
HETATM   17  H   UNK N   1      34.807  10.111  20.661  0.00  0.00     0.174 HD
HETATM   18  N   UNK N   1      35.447  11.119  15.940  0.00  0.00    -0.348 N 
HETATM   19  C   UNK N   1      35.604  11.795  14.767  0.00  0.00     0.116 A 
ATOM     20  HN  UNK N   1      35.389  10.101  15.932  1.00  0.00     0.167 HD
BRANCH   8  21
HETATM   21  N   UNK N   1      35.468  15.266  18.402  0.00  0.00    -0.383 N 
HETATM   22  H   UNK N   1      36.148  15.708  18.961  0.00  0.00     0.157 HD
HETATM   23  H   UNK N   1      34.842  15.813  17.875  0.00  0.00     0.157 HD
ENDBRANCH   8  21
ENDBRANCH   3   4
ENDBRANCH   1   3
BRANCH   1  24
HETATM   24  C   UNK N   1      35.027  14.578  11.359  0.00  0.00     0.028 A 
HETATM   25  C   UNK N   1      35.579  15.849  11.521  0.00  0.00     0.030 A 
HETATM   26  C   UNK N   1      35.318  16.845  10.577  0.00  0.00     0.019 A 
HETATM   27  C   UNK N   1      34.532  16.575   9.442  0.00  0.00     0.032 A 
HETATM   28  C   UNK N   1      34.051  15.275   9.245  0.00  0.00     0.019 A 
HETATM   29  C   UNK N   1      34.276  14.289  10.209  0.00  0.00     0.030 A 
BRANCH  27  30
HETATM   30  C   UNK N   1      34.006  17.716   8.640  0.00  0.00     0.252 C 
HETATM   31  N   UNK N   1      32.690  17.897   8.340  0.00  0.00    -0.343 N 
HETATM   32  H   UNK N   1      32.384  18.821   8.194  0.00  0.00     0.163 HD
HETATM   33  O   UNK N   1      34.792  18.592   8.312  0.00  0.00    -0.268 OA
BRANCH  31  34
HETATM   34  C   UNK N   1      31.702  16.847   8.220  0.00  0.00     0.183 C 
BRANCH  34  35
HETATM   35  C   UNK N   1      31.265  16.883   6.771  0.00  0.00     0.163 C 
HETATM   36  O   UNK N   1      31.988  17.354   5.902  0.00  0.00    -0.648 OA
BRANCH  35  37
HETATM   37  O   UNK N   1      30.106  16.299   6.411  0.00  0.00    -0.775 OA
HETATM   38  H   UNK N   1      29.511  16.748   5.843  0.00  0.00     0.167 HD
ENDBRANCH  35  37
ENDBRANCH  34  35
BRANCH  34  39
HETATM   39  C   UNK N   1      30.452  17.037   9.084  0.00  0.00     0.046 C 
BRANCH  39  40
HETATM   40  C   UNK N   1      29.795  18.395   9.098  0.00  0.00     0.112 C 
BRANCH  40  41
HETATM   41  C   UNK N   1      28.325  18.146   9.171  0.00  0.00     0.139 C 
HETATM   42  O   UNK N   1      27.906  17.109   9.661  0.00  0.00    -0.650 OA
BRANCH  41  43
HETATM   43  O   UNK N   1      27.459  19.080   8.740  0.00  0.00    -0.776 OA
HETATM   44  H   UNK N   1      26.805  19.449   9.302  0.00  0.00     0.167 HD
ENDBRANCH  41  43
ENDBRANCH  40  41
ENDBRANCH  39  40
ENDBRANCH  34  39
ENDBRANCH  31  34
ENDBRANCH  27  30
ENDBRANCH   1  24
TORSDOF 12
ENDMDL
MODEL 9
REMARK VINA RESULT:      -7.2      2.088      4.047
REMARK  12 active torsions:
REMARK  status: ('A' for Active; 'I' for Inactive)
REMARK    1  A    between atoms: N_26  and  C_7 
REMARK       I    between atoms: N_28  and  C_8 
REMARK    2  A    between atoms: C_11  and  C_18 
REMARK       I    between atoms: N_14  and  C_11 
REMARK    3  A    between atoms: C_16  and  N_14 
REMARK    4  A    between atoms: C_15  and  C_16 
REMARK    5  A    between atoms: O_20  and  C_15 
REMARK    6  A    between atoms: C_29  and  C_16 
REMARK    7  A    between atoms: C_17  and  C_33 
REMARK    8  A    between atoms: O_22  and  C_17 
REMARK    9  A    between atoms: C_32  and  C_19 
REMARK   10  A    between atoms: N_24  and  C_32 
REMARK   11  A    between atoms: C_34  and  N_24 
REMARK   12  A    between atoms: C_33  and  C_29 
ROOT
HETATM    1  N   UNK N   1      30.630  17.360   6.781  0.00  0.00    -0.384 N 
HETATM    2  H   UNK N   1      30.393  17.737   7.658  0.00  0.00     0.160 HD
ENDROOT
BRANCH   1   3
HETATM    3  C   UNK N   1      32.001  17.272   6.339  0.00  0.00     0.178 C 
BRANCH   3   4
HETATM    4  C   UNK N   1      32.989  17.138   7.441  0.00  0.00     0.043 A 
HETATM    5  N   UNK N   1      32.995  15.992   8.168  0.00  0.00    -0.351 N 
HETATM    6  C   UNK N   1      33.810  15.852   9.241  0.00  0.00     0.122 A 
ATOM      7  HN  UNK N   1      32.376  15.225   7.903  1.00  0.00     0.166 HD
HETATM    8  C   UNK N   1      33.815  14.684  10.005  0.00  0.00     0.145 A 
HETATM    9  C   UNK N   1      34.665  16.901   9.607  0.00  0.00     0.151 A 
HETATM   10  N   UNK N   1      34.649  14.588  11.072  0.00  0.00    -0.175 N 
HETATM   11  C   UNK N   1      35.479  15.612  11.411  0.00  0.00     0.679 A 
ATOM     12  HN  UNK N   1      34.652  13.733  11.631  1.00  0.00     0.186 HD
HETATM   13  N   UNK N   1      35.483  16.763  10.681  0.00  0.00    -0.174 N 
HETATM   14  N   UNK N   1      36.336  15.482  12.520  0.00  0.00    -0.234 N 
ATOM     15  HN  UNK N   1      36.106  17.527  10.944  1.00  0.00     0.186 HD
HETATM   16  H   UNK N   1      36.233  14.721  13.136  0.00  0.00     0.174 HD
HETATM   17  H   UNK N   1      37.039  16.153  12.682  0.00  0.00     0.174 HD
HETATM   18  N   UNK N   1      34.657  18.054   8.884  0.00  0.00    -0.348 N 
HETATM   19  C   UNK N   1      33.825  18.199   7.815  0.00  0.00     0.116 A 
ATOM     20  HN  UNK N   1      35.280  18.818   9.145  1.00  0.00     0.167 HD
BRANCH   8  21
HETATM   21  N   UNK N   1      32.960  13.610   9.680  0.00  0.00    -0.383 N 
HETATM   22  H   UNK N   1      32.665  12.976  10.372  0.00  0.00     0.157 HD
HETATM   23  H   UNK N   1      32.656  13.494   8.751  0.00  0.00     0.157 HD
ENDBRANCH   8  21
ENDBRANCH   3   4
ENDBRANCH   1   3
BRANCH   1  24
HETATM   24  C   UNK N   1      29.645  16.879   5.890  0.00  0.00     0.028 A 
HETATM   25  C   UNK N   1      29.838  17.035   4.517  0.00  0.00     0.030 A 
HETATM   26  C   UNK N   1      28.758  16.893   3.644  0.00  0.00     0.019 A 
HETATM   27  C   UNK N   1      27.479  16.558   4.126  0.00  0.00     0.032 A 
HETATM   28  C   UNK N   1      27.312  16.323   5.495  0.00  0.00     0.019 A 
HETATM   29  C   UNK N   1      28.382  16.506   6.376  0.00  0.00     0.030 A 
BRANCH  27  30
HETATM   30  C   UNK N   1      26.300  16.735   3.230  0.00  0.00     0.252 C 
HETATM   31  N   UNK N   1      25.649  17.917   3.048  0.00  0.00    -0.343 N 
HETATM   32  H   UNK N   1      25.193  18.052   2.186  0.00  0.00     0.163 HD
HETATM   33  O   UNK N   1      25.958  15.783   2.545  0.00  0.00    -0.268 OA
BRANCH  31  34
HETATM   34  C   UNK N   1      25.570  18.991   4.013  0.00  0.00     0.183 C 
BRANCH  34  35
HETATM   35  C   UNK N   1      24.204  19.610   3.802  0.00  0.00     0.163 C 
HETATM   36  O   UNK N   1      24.086  20.780   3.458  0.00  0.00    -0.648 OA
BRANCH  35  37
HETATM   37  O   UNK N   1      23.103  18.842   3.896  0.00  0.00    -0.775 OA
HETATM   38  H   UNK N   1      22.389  19.108   4.441  0.00  0.00     0.167 HD
ENDBRANCH  35  37
ENDBRANCH  34  35
BRANCH  34  39
HETATM   39  C   UNK N   1      26.611  20.098   3.831  0.00  0.00     0.046 C 
BRANCH  39  40
HETATM   40  C   UNK N   1      27.720  20.210   4.850  0.00  0.00     0.112 C 
BRANCH  40  41
HETATM   41  C   UNK N   1      27.062  20.559   6.144  0.00  0.00     0.139 C 
HETATM   42  O   UNK N   1      26.439  21.604   6.248  0.00  0.00    -0.650 OA
BRANCH  41  43
HETATM   43  O   UNK N   1      27.115  19.704   7.181  0.00  0.00    -0.776 OA
HETATM   44  H   UNK N   1      27.048  18.777   7.065  0.00  0.00     0.167 HD
ENDBRANCH  41  43
ENDBRANCH  40  41
ENDBRANCH  39  40
ENDBRANCH  34  39
ENDBRANCH  31  34
ENDBRANCH  27  30
ENDBRANCH   1  24
TORSDOF 12
ENDMDL
