MODEL 1
REMARK VINA RESULT:      -7.7      0.000      0.000
REMARK  6 active torsions:
REMARK  status: ('A' for Active; 'I' for Inactive)
REMARK    1  A    between atoms: C_13  and  C_10 
REMARK    2  A    between atoms: C_18  and  C_10 
REMARK    3  A    between atoms: N_26  and  C_13 
REMARK    4  A    between atoms: C_22  and  C_17 
REMARK    5  A    between atoms: N_24  and  C_19 
REMARK    6  A    between atoms: O_27  and  C_22 
ROOT
HETATM    1  C   UNK N   1      35.775  14.398   8.369  0.00  0.00     0.055 C 
HETATM    2  C   UNK N   1      33.481  14.771   9.291  0.00  0.00     0.055 C 
HETATM    3  C   UNK N   1      36.151  14.112   9.835  0.00  0.00     0.274 C 
HETATM    4  C   UNK N   1      34.046  14.913  10.717  0.00  0.00     0.274 C 
HETATM    5  C   UNK N   1      34.492  15.233   8.240  0.00  0.00     0.087 C 
HETATM    6  N   UNK N   1      35.512  15.082  10.722  0.00  0.00     0.088 N 
ENDROOT
BRANCH   6   7
HETATM    7  C   UNK N   1      36.120  15.014  12.055  0.00  0.00     0.277 C 
BRANCH   7   8
HETATM    8  C   UNK N   1      36.541  13.611  12.487  0.00  0.00     0.071 C 
BRANCH   8   9
HETATM    9  C   UNK N   1      35.755  13.177  13.671  0.00  0.00    -0.029 A 
HETATM   10  C   UNK N   1      34.755  12.211  13.687  0.00  0.00     0.096 A 
HETATM   11  N   UNK N   1      34.284  12.069  14.952  0.00  0.00    -0.365 N 
HETATM   12  C   UNK N   1      34.987  12.932  15.712  0.00  0.00     0.042 A 
HETATM   13  H   UNK N   1      33.572  11.460  15.253  0.00  0.00     0.165 HD
HETATM   14  C   UNK N   1      34.866  13.132  17.083  0.00  0.00     0.030 A 
HETATM   15  C   UNK N   1      35.892  13.623  14.958  0.00  0.00    -0.002 A 
HETATM   16  C   UNK N   1      35.717  14.080  17.683  0.00  0.00     0.002 A 
HETATM   17  C   UNK N   1      36.654  14.796  16.902  0.00  0.00     0.001 A 
HETATM   18  C   UNK N   1      36.749  14.569  15.518  0.00  0.00     0.014 A 
ENDBRANCH   8   9
ENDBRANCH   7   8
ENDBRANCH   6   7
BRANCH   5  19
HETATM   19  N   UNK N   1      34.785  16.630   8.467  0.00  0.00    -0.366 N 
HETATM   20  C   UNK N   1      34.218  17.637   7.885  0.00  0.00     0.146 C 
ATOM     21  HN  UNK N   1      35.510  16.843   9.152  1.00  0.00     0.162 HD
BRANCH  20  22
HETATM   22  C   UNK N   1      33.168  17.513   6.829  0.00  0.00     0.014 A 
HETATM   23  C   UNK N   1      31.806  17.343   7.125  0.00  0.00     0.016 A 
HETATM   24  C   UNK N   1      30.864  17.215   6.101  0.00  0.00     0.001 A 
HETATM   25  C   UNK N   1      31.273  17.268   4.766  0.00  0.00     0.000 A 
HETATM   26  C   UNK N   1      32.623  17.440   4.457  0.00  0.00     0.001 A 
HETATM   27  C   UNK N   1      33.565  17.552   5.483  0.00  0.00     0.016 A 
ENDBRANCH  20  22
BRANCH  20  28
HETATM   28  O   UNK N   1      34.574  18.875   8.282  0.00  0.00    -0.346 OA
HETATM   29  H   UNK N   1      34.939  19.141   9.103  0.00  0.00     0.219 HD
ENDBRANCH  20  28
ENDBRANCH   5  19
TORSDOF 6
ENDMDL
MODEL 2
REMARK VINA RESULT:      -7.6      2.540      9.306
REMARK  6 active torsions:
REMARK  status: ('A' for Active; 'I' for Inactive)
REMARK    1  A    between atoms: C_13  and  C_10 
REMARK    2  A    between atoms: C_18  and  C_10 
REMARK    3  A    between atoms: N_26  and  C_13 
REMARK    4  A    between atoms: C_22  and  C_17 
REMARK    5  A    between atoms: N_24  and  C_19 
REMARK    6  A    between atoms: O_27  and  C_22 
ROOT
HETATM    1  C   UNK N   1      37.478  11.811  12.899  0.00  0.00     0.055 C 
HETATM    2  C   UNK N   1      36.367  13.815  13.901  0.00  0.00     0.055 C 
HETATM    3  C   UNK N   1      37.137  12.485  11.557  0.00  0.00     0.274 C 
HETATM    4  C   UNK N   1      35.698  14.153  12.556  0.00  0.00     0.274 C 
HETATM    5  C   UNK N   1      36.592  12.310  14.052  0.00  0.00     0.087 C 
HETATM    6  N   UNK N   1      35.784  13.037  11.594  0.00  0.00     0.088 N 
ENDROOT
BRANCH   6   7
HETATM    7  C   UNK N   1      35.348  13.379  10.236  0.00  0.00     0.277 C 
BRANCH   7   8
HETATM    8  C   UNK N   1      36.181  14.466   9.560  0.00  0.00     0.071 C 
BRANCH   8   9
HETATM    9  C   UNK N   1      35.326  15.630   9.210  0.00  0.00    -0.029 A 
HETATM   10  C   UNK N   1      34.883  16.619  10.083  0.00  0.00     0.096 A 
HETATM   11  N   UNK N   1      34.145  17.528   9.398  0.00  0.00    -0.365 N 
HETATM   12  C   UNK N   1      34.136  17.113   8.116  0.00  0.00     0.042 A 
HETATM   13  H   UNK N   1      33.705  18.329   9.763  0.00  0.00     0.165 HD
HETATM   14  C   UNK N   1      33.517  17.737   7.038  0.00  0.00     0.030 A 
HETATM   15  C   UNK N   1      34.847  15.957   7.971  0.00  0.00    -0.002 A 
HETATM   16  C   UNK N   1      33.647  17.135   5.771  0.00  0.00     0.002 A 
HETATM   17  C   UNK N   1      34.384  15.937   5.620  0.00  0.00     0.001 A 
HETATM   18  C   UNK N   1      34.997  15.334   6.733  0.00  0.00     0.014 A 
ENDBRANCH   8   9
ENDBRANCH   7   8
ENDBRANCH   6   7
BRANCH   5  19
HETATM   19  N   UNK N   1      35.309  11.647  14.013  0.00  0.00    -0.366 N 
HETATM   20  C   UNK N   1      34.523  11.437  15.019  0.00  0.00     0.146 C 
ATOM     21  HN  UNK N   1      34.991  11.311  13.103  1.00  0.00     0.162 HD
BRANCH  20  22
HETATM   22  C   UNK N   1      34.842  11.821  16.427  0.00  0.00     0.014 A 
HETATM   23  C   UNK N   1      34.764  13.144  16.892  0.00  0.00     0.016 A 
HETATM   24  C   UNK N   1      35.089  13.456  18.215  0.00  0.00     0.001 A 
HETATM   25  C   UNK N   1      35.486  12.444  19.092  0.00  0.00     0.000 A 
HETATM   26  C   UNK N   1      35.566  11.125  18.645  0.00  0.00     0.001 A 
HETATM   27  C   UNK N   1      35.254  10.818  17.318  0.00  0.00     0.016 A 
ENDBRANCH  20  22
BRANCH  20  28
HETATM   28  O   UNK N   1      33.327  10.865  14.774  0.00  0.00    -0.346 OA
HETATM   29  H   UNK N   1      32.623  10.705  15.372  0.00  0.00     0.219 HD
ENDBRANCH  20  28
ENDBRANCH   5  19
TORSDOF 6
ENDMDL
MODEL 3
REMARK VINA RESULT:      -7.5     16.966     21.294
REMARK  6 active torsions:
REMARK  status: ('A' for Active; 'I' for Inactive)
REMARK    1  A    between atoms: C_13  and  C_10 
REMARK    2  A    between atoms: C_18  and  C_10 
REMARK    3  A    between atoms: N_26  and  C_13 
REMARK    4  A    between atoms: C_22  and  C_17 
REMARK    5  A    between atoms: N_24  and  C_19 
REMARK    6  A    between atoms: O_27  and  C_22 
ROOT
HETATM    1  C   UNK N   1      30.898  27.052  -5.804  0.00  0.00     0.055 C 
HETATM    2  C   UNK N   1      31.296  26.943  -3.338  0.00  0.00     0.055 C 
HETATM    3  C   UNK N   1      30.700  28.559  -5.549  0.00  0.00     0.274 C 
HETATM    4  C   UNK N   1      30.649  28.327  -3.142  0.00  0.00     0.274 C 
HETATM    5  C   UNK N   1      30.694  26.208  -4.536  0.00  0.00     0.087 C 
HETATM    6  N   UNK N   1      29.909  28.770  -4.339  0.00  0.00     0.088 N 
ENDROOT
BRANCH   6   7
HETATM    7  C   UNK N   1      29.452  30.163  -4.280  0.00  0.00     0.277 C 
BRANCH   7   8
HETATM    8  C   UNK N   1      28.232  30.464  -5.149  0.00  0.00     0.071 C 
BRANCH   8   9
HETATM    9  C   UNK N   1      27.153  29.476  -4.886  0.00  0.00    -0.029 A 
HETATM   10  C   UNK N   1      26.276  29.481  -3.807  0.00  0.00     0.096 A 
HETATM   11  N   UNK N   1      25.416  28.438  -3.918  0.00  0.00    -0.365 N 
HETATM   12  C   UNK N   1      25.751  27.797  -5.056  0.00  0.00     0.042 A 
HETATM   13  H   UNK N   1      24.694  28.196  -3.295  0.00  0.00     0.165 HD
HETATM   14  C   UNK N   1      25.137  26.672  -5.595  0.00  0.00     0.030 A 
HETATM   15  C   UNK N   1      26.808  28.407  -5.668  0.00  0.00    -0.002 A 
HETATM   16  C   UNK N   1      25.643  26.171  -6.811  0.00  0.00     0.002 A 
HETATM   17  C   UNK N   1      26.738  26.802  -7.445  0.00  0.00     0.001 A 
HETATM   18  C   UNK N   1      27.334  27.939  -6.871  0.00  0.00     0.014 A 
ENDBRANCH   8   9
ENDBRANCH   7   8
ENDBRANCH   6   7
BRANCH   5  19
HETATM   19  N   UNK N   1      29.283  26.011  -4.294  0.00  0.00    -0.366 N 
HETATM   20  C   UNK N   1      28.698  24.884  -4.047  0.00  0.00     0.146 C 
ATOM     21  HN  UNK N   1      28.691  26.841  -4.319  1.00  0.00     0.162 HD
BRANCH  20  22
HETATM   22  C   UNK N   1      29.397  23.565  -4.010  0.00  0.00     0.014 A 
HETATM   23  C   UNK N   1      30.068  23.089  -2.871  0.00  0.00     0.016 A 
HETATM   24  C   UNK N   1      30.723  21.855  -2.893  0.00  0.00     0.001 A 
HETATM   25  C   UNK N   1      30.705  21.076  -4.052  0.00  0.00     0.000 A 
HETATM   26  C   UNK N   1      30.040  21.535  -5.190  0.00  0.00     0.001 A 
HETATM   27  C   UNK N   1      29.399  22.776  -5.171  0.00  0.00     0.016 A 
ENDBRANCH  20  22
BRANCH  20  28
HETATM   28  O   UNK N   1      27.378  24.908  -3.772  0.00  0.00    -0.346 OA
HETATM   29  H   UNK N   1      26.949  24.751  -2.953  0.00  0.00     0.219 HD
ENDBRANCH  20  28
ENDBRANCH   5  19
TORSDOF 6
ENDMDL
MODEL 4
REMARK VINA RESULT:      -7.5      2.158      3.489
REMARK  6 active torsions:
REMARK  status: ('A' for Active; 'I' for Inactive)
REMARK    1  A    between atoms: C_13  and  C_10 
REMARK    2  A    between atoms: C_18  and  C_10 
REMARK    3  A    between atoms: N_26  and  C_13 
REMARK    4  A    between atoms: C_22  and  C_17 
REMARK    5  A    between atoms: N_24  and  C_19 
REMARK    6  A    between atoms: O_27  and  C_22 
ROOT
HETATM    1  C   UNK N   1      35.964  15.316  11.886  0.00  0.00     0.055 C 
HETATM    2  C   UNK N   1      35.594  13.229  10.559  0.00  0.00     0.055 C 
HETATM    3  C   UNK N   1      36.050  14.354  13.085  0.00  0.00     0.274 C 
HETATM    4  C   UNK N   1      35.252  12.442  11.837  0.00  0.00     0.274 C 
HETATM    5  C   UNK N   1      35.214  14.705  10.692  0.00  0.00     0.087 C 
HETATM    6  N   UNK N   1      35.012  13.330  12.991  0.00  0.00     0.088 N 
ENDROOT
BRANCH   6   7
HETATM    7  C   UNK N   1      34.888  12.628  14.273  0.00  0.00     0.277 C 
BRANCH   7   8
HETATM    8  C   UNK N   1      36.153  12.646  15.129  0.00  0.00     0.071 C 
BRANCH   8   9
HETATM    9  C   UNK N   1      35.814  12.939  16.546  0.00  0.00    -0.029 A 
HETATM   10  C   UNK N   1      35.657  14.199  17.112  0.00  0.00     0.096 A 
HETATM   11  N   UNK N   1      35.326  14.069  18.422  0.00  0.00    -0.365 N 
HETATM   12  C   UNK N   1      35.271  12.744  18.663  0.00  0.00     0.042 A 
HETATM   13  H   UNK N   1      35.160  14.795  19.065  0.00  0.00     0.165 HD
HETATM   14  C   UNK N   1      34.953  12.125  19.867  0.00  0.00     0.030 A 
HETATM   15  C   UNK N   1      35.565  12.029  17.538  0.00  0.00    -0.002 A 
HETATM   16  C   UNK N   1      34.941  10.716  19.894  0.00  0.00     0.002 A 
HETATM   17  C   UNK N   1      35.245   9.975  18.729  0.00  0.00     0.001 A 
HETATM   18  C   UNK N   1      35.563  10.635  17.528  0.00  0.00     0.014 A 
ENDBRANCH   8   9
ENDBRANCH   7   8
ENDBRANCH   6   7
BRANCH   5  19
HETATM   19  N   UNK N   1      33.787  14.796  10.903  0.00  0.00    -0.366 N 
HETATM   20  C   UNK N   1      32.923  15.311  10.091  0.00  0.00     0.146 C 
ATOM     21  HN  UNK N   1      33.427  14.416  11.779  1.00  0.00     0.162 HD
BRANCH  20  22
HETATM   22  C   UNK N   1      33.273  15.947   8.785  0.00  0.00     0.014 A 
HETATM   23  C   UNK N   1      33.419  15.215   7.596  0.00  0.00     0.016 A 
HETATM   24  C   UNK N   1      33.765  15.855   6.402  0.00  0.00     0.001 A 
HETATM   25  C   UNK N   1      33.959  17.238   6.383  0.00  0.00     0.000 A 
HETATM   26  C   UNK N   1      33.815  17.979   7.557  0.00  0.00     0.001 A 
HETATM   27  C   UNK N   1      33.483  17.335   8.752  0.00  0.00     0.016 A 
ENDBRANCH  20  22
BRANCH  20  28
HETATM   28  O   UNK N   1      31.620  15.238  10.430  0.00  0.00    -0.346 OA
HETATM   29  H   UNK N   1      30.905  14.896   9.930  0.00  0.00     0.219 HD
ENDBRANCH  20  28
ENDBRANCH   5  19
TORSDOF 6
ENDMDL
MODEL 5
REMARK VINA RESULT:      -7.4      7.038     11.121
REMARK  6 active torsions:
REMARK  status: ('A' for Active; 'I' for Inactive)
REMARK    1  A    between atoms: C_13  and  C_10 
REMARK    2  A    between atoms: C_18  and  C_10 
REMARK    3  A    between atoms: N_26  and  C_13 
REMARK    4  A    between atoms: C_22  and  C_17 
REMARK    5  A    between atoms: N_24  and  C_19 
REMARK    6  A    between atoms: O_27  and  C_22 
ROOT
HETATM    1  C   UNK N   1      25.541  20.091   4.042  0.00  0.00     0.055 C 
HETATM    2  C   UNK N   1      25.742  17.647   3.553  0.00  0.00     0.055 C 
HETATM    3  C   UNK N   1      26.891  19.901   4.759  0.00  0.00     0.274 C 
HETATM    4  C   UNK N   1      26.813  17.486   4.648  0.00  0.00     0.274 C 
HETATM    5  C   UNK N   1      24.764  18.775   3.888  0.00  0.00     0.087 C 
HETATM    6  N   UNK N   1      26.884  18.662   5.535  0.00  0.00     0.088 N 
ENDROOT
BRANCH   6   7
HETATM    7  C   UNK N   1      28.022  18.649   6.461  0.00  0.00     0.277 C 
BRANCH   7   8
HETATM    8  C   UNK N   1      28.520  17.253   6.830  0.00  0.00     0.071 C 
BRANCH   8   9
HETATM    9  C   UNK N   1      29.894  17.326   7.393  0.00  0.00    -0.029 A 
HETATM   10  C   UNK N   1      30.231  17.355   8.742  0.00  0.00     0.096 A 
HETATM   11  N   UNK N   1      31.582  17.398   8.869  0.00  0.00    -0.365 N 
HETATM   12  C   UNK N   1      32.076  17.389   7.615  0.00  0.00     0.042 A 
HETATM   13  H   UNK N   1      32.096  17.430   9.707  0.00  0.00     0.165 HD
HETATM   14  C   UNK N   1      33.415  17.406   7.243  0.00  0.00     0.030 A 
HETATM   15  C   UNK N   1      31.070  17.346   6.693  0.00  0.00    -0.002 A 
HETATM   16  C   UNK N   1      33.711  17.376   5.866  0.00  0.00     0.002 A 
HETATM   17  C   UNK N   1      32.670  17.332   4.910  0.00  0.00     0.001 A 
HETATM   18  C   UNK N   1      31.325  17.316   5.323  0.00  0.00     0.014 A 
ENDBRANCH   8   9
ENDBRANCH   7   8
ENDBRANCH   6   7
BRANCH   5  19
HETATM   19  N   UNK N   1      24.093  18.449   5.126  0.00  0.00    -0.366 N 
HETATM   20  C   UNK N   1      22.833  18.190   5.270  0.00  0.00     0.146 C 
ATOM     21  HN  UNK N   1      24.668  18.420   5.968  1.00  0.00     0.162 HD
BRANCH  20  22
HETATM   22  C   UNK N   1      21.837  18.225   4.158  0.00  0.00     0.014 A 
HETATM   23  C   UNK N   1      21.147  19.391   3.789  0.00  0.00     0.016 A 
HETATM   24  C   UNK N   1      20.211  19.368   2.751  0.00  0.00     0.001 A 
HETATM   25  C   UNK N   1      19.963  18.179   2.062  0.00  0.00     0.000 A 
HETATM   26  C   UNK N   1      20.643  17.013   2.415  0.00  0.00     0.001 A 
HETATM   27  C   UNK N   1      21.568  17.035   3.463  0.00  0.00     0.016 A 
ENDBRANCH  20  22
BRANCH  20  28
HETATM   28  O   UNK N   1      22.401  17.833   6.496  0.00  0.00    -0.346 OA
HETATM   29  H   UNK N   1      22.521  17.017   6.942  0.00  0.00     0.219 HD
ENDBRANCH  20  28
ENDBRANCH   5  19
TORSDOF 6
ENDMDL
MODEL 6
REMARK VINA RESULT:      -7.3      1.205      1.498
REMARK  6 active torsions:
REMARK  status: ('A' for Active; 'I' for Inactive)
REMARK    1  A    between atoms: C_13  and  C_10 
REMARK    2  A    between atoms: C_18  and  C_10 
REMARK    3  A    between atoms: N_26  and  C_13 
REMARK    4  A    between atoms: C_22  and  C_17 
REMARK    5  A    between atoms: N_24  and  C_19 
REMARK    6  A    between atoms: O_27  and  C_22 
ROOT
HETATM    1  C   UNK N   1      34.806  14.005   8.154  0.00  0.00     0.055 C 
HETATM    2  C   UNK N   1      33.144  14.924   9.779  0.00  0.00     0.055 C 
HETATM    3  C   UNK N   1      35.610  13.642   9.417  0.00  0.00     0.274 C 
HETATM    4  C   UNK N   1      34.200  14.931  10.900  0.00  0.00     0.274 C 
HETATM    5  C   UNK N   1      33.785  15.125   8.405  0.00  0.00     0.087 C 
HETATM    6  N   UNK N   1      35.567  14.741  10.379  0.00  0.00     0.088 N 
ENDROOT
BRANCH   6   7
HETATM    7  C   UNK N   1      36.582  14.533  11.417  0.00  0.00     0.277 C 
BRANCH   7   8
HETATM    8  C   UNK N   1      36.028  14.464  12.839  0.00  0.00     0.071 C 
BRANCH   8   9
HETATM    9  C   UNK N   1      36.402  13.176  13.478  0.00  0.00    -0.029 A 
HETATM   10  C   UNK N   1      37.204  12.184  12.924  0.00  0.00     0.096 A 
HETATM   11  N   UNK N   1      37.342  11.166  13.811  0.00  0.00    -0.365 N 
HETATM   12  C   UNK N   1      36.639  11.525  14.903  0.00  0.00     0.042 A 
HETATM   13  H   UNK N   1      37.850  10.334  13.682  0.00  0.00     0.165 HD
HETATM   14  C   UNK N   1      36.500  10.803  16.084  0.00  0.00     0.030 A 
HETATM   15  C   UNK N   1      36.054  12.746  14.729  0.00  0.00    -0.002 A 
HETATM   16  C   UNK N   1      35.726  11.376  17.112  0.00  0.00     0.002 A 
HETATM   17  C   UNK N   1      35.119  12.640  16.933  0.00  0.00     0.001 A 
HETATM   18  C   UNK N   1      35.282  13.343  15.725  0.00  0.00     0.014 A 
ENDBRANCH   8   9
ENDBRANCH   7   8
ENDBRANCH   6   7
BRANCH   5  19
HETATM   19  N   UNK N   1      34.445  16.410   8.388  0.00  0.00    -0.366 N 
HETATM   20  C   UNK N   1      34.157  17.410   7.619  0.00  0.00     0.146 C 
ATOM     21  HN  UNK N   1      35.213  16.542   9.047  1.00  0.00     0.162 HD
BRANCH  20  22
HETATM   22  C   UNK N   1      33.094  17.383   6.571  0.00  0.00     0.014 A 
HETATM   23  C   UNK N   1      31.732  17.223   6.871  0.00  0.00     0.016 A 
HETATM   24  C   UNK N   1      30.776  17.187   5.852  0.00  0.00     0.001 A 
HETATM   25  C   UNK N   1      31.172  17.323   4.519  0.00  0.00     0.000 A 
HETATM   26  C   UNK N   1      32.522  17.487   4.206  0.00  0.00     0.001 A 
HETATM   27  C   UNK N   1      33.477  17.507   5.226  0.00  0.00     0.016 A 
ENDBRANCH  20  22
BRANCH  20  28
HETATM   28  O   UNK N   1      34.839  18.559   7.801  0.00  0.00    -0.346 OA
HETATM   29  H   UNK N   1      34.746  19.371   7.343  0.00  0.00     0.219 HD
ENDBRANCH  20  28
ENDBRANCH   5  19
TORSDOF 6
ENDMDL
MODEL 7
REMARK VINA RESULT:      -7.2      2.158      8.493
REMARK  6 active torsions:
REMARK  status: ('A' for Active; 'I' for Inactive)
REMARK    1  A    between atoms: C_13  and  C_10 
REMARK    2  A    between atoms: C_18  and  C_10 
REMARK    3  A    between atoms: N_26  and  C_13 
REMARK    4  A    between atoms: C_22  and  C_17 
REMARK    5  A    between atoms: N_24  and  C_19 
REMARK    6  A    between atoms: O_27  and  C_22 
ROOT
HETATM    1  C   UNK N   1      35.352  16.780  10.814  0.00  0.00     0.055 C 
HETATM    2  C   UNK N   1      33.711  14.895  10.864  0.00  0.00     0.055 C 
HETATM    3  C   UNK N   1      34.956  16.882   9.329  0.00  0.00     0.274 C 
HETATM    4  C   UNK N   1      33.735  14.793   9.328  0.00  0.00     0.274 C 
HETATM    5  C   UNK N   1      35.046  15.399  11.414  0.00  0.00     0.087 C 
HETATM    6  N   UNK N   1      34.857  15.549   8.737  0.00  0.00     0.088 N 
ENDROOT
BRANCH   6   7
HETATM    7  C   UNK N   1      34.806  15.656   7.275  0.00  0.00     0.277 C 
BRANCH   7   8
HETATM    8  C   UNK N   1      34.250  16.981   6.758  0.00  0.00     0.071 C 
BRANCH   8   9
HETATM    9  C   UNK N   1      32.807  16.845   6.432  0.00  0.00    -0.029 A 
HETATM   10  C   UNK N   1      32.270  16.220   5.311  0.00  0.00     0.096 A 
HETATM   11  N   UNK N   1      30.916  16.272   5.370  0.00  0.00    -0.365 N 
HETATM   12  C   UNK N   1      30.615  16.914   6.516  0.00  0.00     0.042 A 
HETATM   13  H   UNK N   1      30.281  15.913   4.709  0.00  0.00     0.165 HD
HETATM   14  C   UNK N   1      29.346  17.191   7.013  0.00  0.00     0.030 A 
HETATM   15  C   UNK N   1      31.748  17.277   7.185  0.00  0.00    -0.002 A 
HETATM   16  C   UNK N   1      29.260  17.866   8.246  0.00  0.00     0.002 A 
HETATM   17  C   UNK N   1      30.434  18.242   8.940  0.00  0.00     0.001 A 
HETATM   18  C   UNK N   1      31.701  17.945   8.407  0.00  0.00     0.014 A 
ENDBRANCH   8   9
ENDBRANCH   7   8
ENDBRANCH   6   7
BRANCH   5  19
HETATM   19  N   UNK N   1      36.080  14.459  11.045  0.00  0.00    -0.366 N 
HETATM   20  C   UNK N   1      36.492  13.456  11.751  0.00  0.00     0.146 C 
ATOM     21  HN  UNK N   1      36.529  14.600  10.139  1.00  0.00     0.162 HD
BRANCH  20  22
HETATM   22  C   UNK N   1      35.979  13.122  13.113  0.00  0.00     0.014 A 
HETATM   23  C   UNK N   1      34.923  12.223  13.331  0.00  0.00     0.016 A 
HETATM   24  C   UNK N   1      34.468  11.957  14.626  0.00  0.00     0.001 A 
HETATM   25  C   UNK N   1      35.073  12.580  15.720  0.00  0.00     0.000 A 
HETATM   26  C   UNK N   1      36.125  13.474  15.518  0.00  0.00     0.001 A 
HETATM   27  C   UNK N   1      36.569  13.750  14.223  0.00  0.00     0.016 A 
ENDBRANCH  20  22
BRANCH  20  28
HETATM   28  O   UNK N   1      37.419  12.642  11.206  0.00  0.00    -0.346 OA
HETATM   29  H   UNK N   1      38.196  12.875  10.737  0.00  0.00     0.219 HD
ENDBRANCH  20  28
ENDBRANCH   5  19
TORSDOF 6
ENDMDL
MODEL 8
REMARK VINA RESULT:      -7.1      2.397      8.855
REMARK  6 active torsions:
REMARK  status: ('A' for Active; 'I' for Inactive)
REMARK    1  A    between atoms: C_13  and  C_10 
REMARK    2  A    between atoms: C_18  and  C_10 
REMARK    3  A    between atoms: N_26  and  C_13 
REMARK    4  A    between atoms: C_22  and  C_17 
REMARK    5  A    between atoms: N_24  and  C_19 
REMARK    6  A    between atoms: O_27  and  C_22 
ROOT
HETATM    1  C   UNK N   1      34.803  11.153  12.584  0.00  0.00     0.055 C 
HETATM    2  C   UNK N   1      37.191  10.643  12.046  0.00  0.00     0.055 C 
HETATM    3  C   UNK N   1      34.692  11.465  11.079  0.00  0.00     0.274 C 
HETATM    4  C   UNK N   1      37.081  11.395  10.706  0.00  0.00     0.274 C 
HETATM    5  C   UNK N   1      36.249  11.232  13.098  0.00  0.00     0.087 C 
HETATM    6  N   UNK N   1      35.860  12.220  10.629  0.00  0.00     0.088 N 
ENDROOT
BRANCH   6   7
HETATM    7  C   UNK N   1      35.603  12.790   9.302  0.00  0.00     0.277 C 
BRANCH   7   8
HETATM    8  C   UNK N   1      36.421  14.039   8.981  0.00  0.00     0.071 C 
BRANCH   8   9
HETATM    9  C   UNK N   1      35.606  15.262   9.201  0.00  0.00    -0.029 A 
HETATM   10  C   UNK N   1      35.433  15.930  10.409  0.00  0.00     0.096 A 
HETATM   11  N   UNK N   1      34.643  17.016  10.215  0.00  0.00    -0.365 N 
HETATM   12  C   UNK N   1      34.336  17.026   8.903  0.00  0.00     0.042 A 
HETATM   13  H   UNK N   1      34.352  17.665  10.895  0.00  0.00     0.165 HD
HETATM   14  C   UNK N   1      33.558  17.963   8.231  0.00  0.00     0.030 A 
HETATM   15  C   UNK N   1      34.909  15.967   8.258  0.00  0.00    -0.002 A 
HETATM   16  C   UNK N   1      33.376  17.788   6.845  0.00  0.00     0.002 A 
HETATM   17  C   UNK N   1      33.969  16.692   6.177  0.00  0.00     0.001 A 
HETATM   18  C   UNK N   1      34.749  15.763   6.889  0.00  0.00     0.014 A 
ENDBRANCH   8   9
ENDBRANCH   7   8
ENDBRANCH   6   7
BRANCH   5  19
HETATM   19  N   UNK N   1      36.619  12.610  13.327  0.00  0.00    -0.366 N 
HETATM   20  C   UNK N   1      36.622  13.223  14.466  0.00  0.00     0.146 C 
ATOM     21  HN  UNK N   1      36.906  13.152  12.512  1.00  0.00     0.162 HD
BRANCH  20  22
HETATM   22  C   UNK N   1      36.195  12.601  15.755  0.00  0.00     0.014 A 
HETATM   23  C   UNK N   1      36.461  11.261  16.080  0.00  0.00     0.016 A 
HETATM   24  C   UNK N   1      36.026  10.721  17.293  0.00  0.00     0.001 A 
HETATM   25  C   UNK N   1      35.327  11.520  18.202  0.00  0.00     0.000 A 
HETATM   26  C   UNK N   1      35.057  12.854  17.893  0.00  0.00     0.001 A 
HETATM   27  C   UNK N   1      35.481  13.388  16.674  0.00  0.00     0.016 A 
ENDBRANCH  20  22
BRANCH  20  28
HETATM   28  O   UNK N   1      37.071  14.494  14.495  0.00  0.00    -0.346 OA
HETATM   29  H   UNK N   1      37.957  14.799  14.528  0.00  0.00     0.219 HD
ENDBRANCH  20  28
ENDBRANCH   5  19
TORSDOF 6
ENDMDL
MODEL 9
REMARK VINA RESULT:      -7.1      2.216      9.201
REMARK  6 active torsions:
REMARK  status: ('A' for Active; 'I' for Inactive)
REMARK    1  A    between atoms: C_13  and  C_10 
REMARK    2  A    between atoms: C_18  and  C_10 
REMARK    3  A    between atoms: N_26  and  C_13 
REMARK    4  A    between atoms: C_22  and  C_17 
REMARK    5  A    between atoms: N_24  and  C_19 
REMARK    6  A    between atoms: O_27  and  C_22 
ROOT
HETATM    1  C   UNK N   1      34.839  13.214  11.623  0.00  0.00     0.055 C 
HETATM    2  C   UNK N   1      37.091  13.449  10.561  0.00  0.00     0.055 C 
HETATM    3  C   UNK N   1      34.408  14.261  10.578  0.00  0.00     0.274 C 
HETATM    4  C   UNK N   1      36.672  14.773   9.895  0.00  0.00     0.274 C 
HETATM    5  C   UNK N   1      36.353  13.229  11.883  0.00  0.00     0.087 C 
HETATM    6  N   UNK N   1      35.419  15.310  10.462  0.00  0.00     0.088 N 
ENDROOT
BRANCH   6   7
HETATM    7  C   UNK N   1      34.868  16.453   9.726  0.00  0.00     0.277 C 
BRANCH   7   8
HETATM    8  C   UNK N   1      33.441  16.251   9.222  0.00  0.00     0.071 C 
BRANCH   8   9
HETATM    9  C   UNK N   1      33.341  16.630   7.789  0.00  0.00    -0.029 A 
HETATM   10  C   UNK N   1      34.400  16.778   6.900  0.00  0.00     0.096 A 
HETATM   11  N   UNK N   1      33.920  17.107   5.674  0.00  0.00    -0.365 N 
HETATM   12  C   UNK N   1      32.579  17.156   5.799  0.00  0.00     0.042 A 
HETATM   13  H   UNK N   1      34.444  17.277   4.859  0.00  0.00     0.165 HD
HETATM   14  C   UNK N   1      31.654  17.439   4.800  0.00  0.00     0.030 A 
HETATM   15  C   UNK N   1      32.196  16.870   7.078  0.00  0.00    -0.002 A 
HETATM   16  C   UNK N   1      30.289  17.422   5.148  0.00  0.00     0.002 A 
HETATM   17  C   UNK N   1      29.892  17.126   6.473  0.00  0.00     0.001 A 
HETATM   18  C   UNK N   1      30.855  16.844   7.458  0.00  0.00     0.014 A 
ENDBRANCH   8   9
ENDBRANCH   7   8
ENDBRANCH   6   7
BRANCH   5  19
HETATM   19  N   UNK N   1      36.691  14.309  12.784  0.00  0.00    -0.366 N 
HETATM   20  C   UNK N   1      36.717  14.249  14.076  0.00  0.00     0.146 C 
ATOM     21  HN  UNK N   1      36.932  15.204  12.359  1.00  0.00     0.162 HD
BRANCH  20  22
HETATM   22  C   UNK N   1      36.355  13.036  14.867  0.00  0.00     0.014 A 
HETATM   23  C   UNK N   1      37.189  11.909  14.960  0.00  0.00     0.016 A 
HETATM   24  C   UNK N   1      36.798  10.791  15.700  0.00  0.00     0.001 A 
HETATM   25  C   UNK N   1      35.570  10.790  16.367  0.00  0.00     0.000 A 
HETATM   26  C   UNK N   1      34.733  11.903  16.287  0.00  0.00     0.001 A 
HETATM   27  C   UNK N   1      35.120  13.015  15.534  0.00  0.00     0.016 A 
ENDBRANCH  20  22
BRANCH  20  28
HETATM   28  O   UNK N   1      37.129  15.344  14.747  0.00  0.00    -0.346 OA
HETATM   29  H   UNK N   1      37.785  15.407  15.413  0.00  0.00     0.219 HD
ENDBRANCH  20  28
ENDBRANCH   5  19
TORSDOF 6
ENDMDL
