MODEL 1
REMARK VINA RESULT:      -9.0      0.000      0.000
REMARK  18 active torsions:
REMARK  status: ('A' for Active; 'I' for Inactive)
REMARK    1  A    between atoms: C_1  and  O_11 
REMARK    2  A    between atoms: C_2  and  O_9 
REMARK    3  A    between atoms: C_3  and  O_10 
REMARK    4  A    between atoms: C_4  and  O_12 
REMARK    5  A    between atoms: C_5  and  O_7 
REMARK    6  A    between atoms: C_6  and  O_8 
REMARK    7  A    between atoms: C_20  and  O_7 
REMARK    8  A    between atoms: O_8  and  C_56 
REMARK    9  A    between atoms: C_47  and  O_9 
REMARK   10  A    between atoms: C_38  and  O_10 
REMARK   11  A    between atoms: C_65  and  O_11 
REMARK   12  A    between atoms: C_29  and  O_12 
REMARK   13  A    between atoms: C_16  and  C_20 
REMARK   14  A    between atoms: C_25  and  C_29 
REMARK   15  A    between atoms: C_34  and  C_38 
REMARK   16  A    between atoms: C_43  and  C_47 
REMARK   17  A    between atoms: C_52  and  C_56 
REMARK   18  A    between atoms: C_61  and  C_65 
ROOT
HETATM    1  C   UNK N   1      20.348  15.030   6.459  0.00  0.00     0.196 C 
HETATM    2  C   UNK N   1      21.075  15.586   5.218  0.00  0.00     0.196 C 
HETATM    3  C   UNK N   1      22.433  16.156   5.694  0.00  0.00     0.196 C 
HETATM    4  C   UNK N   1      23.381  15.142   6.381  0.00  0.00     0.196 C 
HETATM    5  C   UNK N   1      22.623  13.820   6.616  0.00  0.00     0.196 C 
HETATM    6  C   UNK N   1      21.206  13.982   7.248  0.00  0.00     0.196 C 
ENDROOT
BRANCH   1   7
HETATM    7  O   UNK N   1      20.044  16.125   7.253  0.00  0.00    -0.306 OA
BRANCH   7   8
HETATM    8  C   UNK N   1      18.801  16.563   7.582  0.00  0.00     0.295 C 
HETATM    9  O   UNK N   1      17.868  16.227   6.868  0.00  0.00    -0.259 OA
BRANCH   8  10
HETATM   10  C   UNK N   1      18.524  17.459   8.734  0.00  0.00     0.054 A 
HETATM   11  C   UNK N   1      19.498  18.387   9.133  0.00  0.00     0.105 A 
HETATM   12  N   UNK N   1      19.293  19.183  10.216  0.00  0.00    -0.374 N 
HETATM   13  C   UNK N   1      18.151  19.099  10.950  0.00  0.00     0.087 A 
ATOM     14  HN  UNK N   1      20.011  19.857  10.484  1.00  0.00     0.164 HD
HETATM   15  C   UNK N   1      17.155  18.189  10.592  0.00  0.00     0.018 A 
HETATM   16  C   UNK N   1      17.344  17.368   9.480  0.00  0.00     0.020 A 
ENDBRANCH   8  10
ENDBRANCH   7   8
ENDBRANCH   1   7
BRANCH   2  17
HETATM   17  O   UNK N   1      20.247  16.491   4.552  0.00  0.00    -0.306 OA
BRANCH  17  18
HETATM   18  C   UNK N   1      20.126  16.681   3.202  0.00  0.00     0.295 C 
HETATM   19  O   UNK N   1      19.932  15.738   2.447  0.00  0.00    -0.259 OA
BRANCH  18  20
HETATM   20  C   UNK N   1      20.262  18.033   2.634  0.00  0.00     0.054 A 
HETATM   21  C   UNK N   1      20.336  18.216   1.247  0.00  0.00     0.105 A 
HETATM   22  N   UNK N   1      20.498  19.462   0.726  0.00  0.00    -0.374 N 
HETATM   23  C   UNK N   1      20.611  20.555   1.526  0.00  0.00     0.087 A 
ATOM     24  HN  UNK N   1      20.537  19.579  -0.287  1.00  0.00     0.164 HD
HETATM   25  C   UNK N   1      20.548  20.417   2.914  0.00  0.00     0.018 A 
HETATM   26  C   UNK N   1      20.368  19.150   3.469  0.00  0.00     0.020 A 
ENDBRANCH  18  20
ENDBRANCH  17  18
ENDBRANCH   2  17
BRANCH   6  27
HETATM   27  O   UNK N   1      21.254  14.375   8.570  0.00  0.00    -0.306 OA
BRANCH  27  28
HETATM   28  C   UNK N   1      20.839  13.605   9.611  0.00  0.00     0.295 C 
HETATM   29  O   UNK N   1      19.644  13.573   9.863  0.00  0.00    -0.259 OA
BRANCH  28  30
HETATM   30  C   UNK N   1      21.774  12.859  10.493  0.00  0.00     0.054 A 
HETATM   31  C   UNK N   1      21.274  12.181  11.616  0.00  0.00     0.105 A 
HETATM   32  N   UNK N   1      22.119  11.552  12.477  0.00  0.00    -0.374 N 
HETATM   33  C   UNK N   1      23.465  11.572  12.288  0.00  0.00     0.087 A 
ATOM     34  HN  UNK N   1      21.735  11.056  13.280  1.00  0.00     0.164 HD
HETATM   35  C   UNK N   1      24.008  12.234  11.185  0.00  0.00     0.018 A 
HETATM   36  C   UNK N   1      23.156  12.879  10.284  0.00  0.00     0.020 A 
ENDBRANCH  28  30
ENDBRANCH  27  28
ENDBRANCH   6  27
BRANCH   3  37
HETATM   37  O   UNK N   1      22.997  17.114   4.871  0.00  0.00    -0.306 OA
BRANCH  37  38
HETATM   38  C   UNK N   1      23.271  18.408   5.173  0.00  0.00     0.295 C 
HETATM   39  O   UNK N   1      22.652  18.997   6.047  0.00  0.00    -0.259 OA
BRANCH  38  40
HETATM   40  C   UNK N   1      24.356  19.088   4.442  0.00  0.00     0.054 A 
HETATM   41  C   UNK N   1      24.090  19.898   3.331  0.00  0.00     0.105 A 
HETATM   42  N   UNK N   1      25.109  20.532   2.687  0.00  0.00    -0.374 N 
HETATM   43  C   UNK N   1      26.398  20.421   3.112  0.00  0.00     0.087 A 
ATOM     44  HN  UNK N   1      24.902  21.104   1.868  1.00  0.00     0.164 HD
HETATM   45  C   UNK N   1      26.705  19.633   4.222  0.00  0.00     0.018 A 
HETATM   46  C   UNK N   1      25.678  18.957   4.881  0.00  0.00     0.020 A 
ENDBRANCH  38  40
ENDBRANCH  37  38
ENDBRANCH   3  37
BRANCH   5  47
HETATM   47  O   UNK N   1      23.428  12.807   7.115  0.00  0.00    -0.306 OA
BRANCH  47  48
HETATM   48  C   UNK N   1      23.977  11.778   6.420  0.00  0.00     0.295 C 
HETATM   49  O   UNK N   1      25.069  11.900   5.878  0.00  0.00    -0.259 OA
BRANCH  48  50
HETATM   50  C   UNK N   1      23.229  10.514   6.281  0.00  0.00     0.054 A 
HETATM   51  C   UNK N   1      23.711   9.325   6.839  0.00  0.00     0.105 A 
HETATM   52  N   UNK N   1      23.028   8.160   6.672  0.00  0.00    -0.374 N 
HETATM   53  C   UNK N   1      21.874   8.112   5.952  0.00  0.00     0.087 A 
ATOM     54  HN  UNK N   1      23.388   7.305   7.096  1.00  0.00     0.164 HD
HETATM   55  C   UNK N   1      21.360   9.273   5.372  0.00  0.00     0.018 A 
HETATM   56  C   UNK N   1      22.040  10.480   5.541  0.00  0.00     0.020 A 
ENDBRANCH  48  50
ENDBRANCH  47  48
ENDBRANCH   5  47
BRANCH   4  57
HETATM   57  O   UNK N   1      24.505  14.932   5.610  0.00  0.00    -0.306 OA
BRANCH  57  58
HETATM   58  C   UNK N   1      25.761  15.240   6.030  0.00  0.00     0.295 C 
HETATM   59  O   UNK N   1      26.037  15.222   7.220  0.00  0.00    -0.259 OA
BRANCH  58  60
HETATM   60  C   UNK N   1      26.797  15.606   5.042  0.00  0.00     0.054 A 
HETATM   61  C   UNK N   1      28.043  16.094   5.458  0.00  0.00     0.105 A 
HETATM   62  N   UNK N   1      28.979  16.456   4.539  0.00  0.00    -0.374 N 
HETATM   63  C   UNK N   1      28.734  16.373   3.203  0.00  0.00     0.087 A 
ATOM     64  HN  UNK N   1      29.887  16.798   4.858  1.00  0.00     0.164 HD
HETATM   65  C   UNK N   1      27.504  15.898   2.746  0.00  0.00     0.018 A 
HETATM   66  C   UNK N   1      26.536  15.508   3.672  0.00  0.00     0.020 A 
ENDBRANCH  58  60
ENDBRANCH  57  58
ENDBRANCH   4  57
TORSDOF 18
ENDMDL
MODEL 2
REMARK VINA RESULT:      -8.8      2.552      5.913
REMARK  18 active torsions:
REMARK  status: ('A' for Active; 'I' for Inactive)
REMARK    1  A    between atoms: C_1  and  O_11 
REMARK    2  A    between atoms: C_2  and  O_9 
REMARK    3  A    between atoms: C_3  and  O_10 
REMARK    4  A    between atoms: C_4  and  O_12 
REMARK    5  A    between atoms: C_5  and  O_7 
REMARK    6  A    between atoms: C_6  and  O_8 
REMARK    7  A    between atoms: C_20  and  O_7 
REMARK    8  A    between atoms: O_8  and  C_56 
REMARK    9  A    between atoms: C_47  and  O_9 
REMARK   10  A    between atoms: C_38  and  O_10 
REMARK   11  A    between atoms: C_65  and  O_11 
REMARK   12  A    between atoms: C_29  and  O_12 
REMARK   13  A    between atoms: C_16  and  C_20 
REMARK   14  A    between atoms: C_25  and  C_29 
REMARK   15  A    between atoms: C_34  and  C_38 
REMARK   16  A    between atoms: C_43  and  C_47 
REMARK   17  A    between atoms: C_52  and  C_56 
REMARK   18  A    between atoms: C_61  and  C_65 
ROOT
HETATM    1  C   UNK N   1      20.711  14.414   6.601  0.00  0.00     0.196 C 
HETATM    2  C   UNK N   1      21.363  15.756   6.211  0.00  0.00     0.196 C 
HETATM    3  C   UNK N   1      22.739  15.437   5.580  0.00  0.00     0.196 C 
HETATM    4  C   UNK N   1      22.704  14.546   4.314  0.00  0.00     0.196 C 
HETATM    5  C   UNK N   1      21.274  14.007   4.114  0.00  0.00     0.196 C 
HETATM    6  C   UNK N   1      20.612  13.415   5.396  0.00  0.00     0.196 C 
ENDROOT
BRANCH   1   7
HETATM    7  O   UNK N   1      21.486  13.889   7.623  0.00  0.00    -0.306 OA
BRANCH   7   8
HETATM    8  C   UNK N   1      21.078  13.627   8.892  0.00  0.00     0.295 C 
HETATM    9  O   UNK N   1      19.923  13.893   9.188  0.00  0.00    -0.259 OA
BRANCH   8  10
HETATM   10  C   UNK N   1      21.971  13.078   9.944  0.00  0.00     0.054 A 
HETATM   11  C   UNK N   1      23.361  13.203   9.801  0.00  0.00     0.105 A 
HETATM   12  N   UNK N   1      24.203  12.664  10.723  0.00  0.00    -0.374 N 
HETATM   13  C   UNK N   1      23.730  11.979  11.798  0.00  0.00     0.087 A 
ATOM     14  HN  UNK N   1      25.210  12.774  10.605  1.00  0.00     0.164 HD
HETATM   15  C   UNK N   1      22.355  11.827  11.981  0.00  0.00     0.018 A 
HETATM   16  C   UNK N   1      21.474  12.379  11.050  0.00  0.00     0.020 A 
ENDBRANCH   8  10
ENDBRANCH   7   8
ENDBRANCH   1   7
BRANCH   2  17
HETATM   17  O   UNK N   1      21.396  16.604   7.321  0.00  0.00    -0.306 OA
BRANCH  17  18
HETATM   18  C   UNK N   1      20.727  17.784   7.494  0.00  0.00     0.295 C 
HETATM   19  O   UNK N   1      21.071  18.797   6.901  0.00  0.00    -0.259 OA
BRANCH  18  20
HETATM   20  C   UNK N   1      19.592  17.857   8.431  0.00  0.00     0.054 A 
HETATM   21  C   UNK N   1      19.577  18.811   9.455  0.00  0.00     0.105 A 
HETATM   22  N   UNK N   1      18.546  18.853  10.341  0.00  0.00    -0.374 N 
HETATM   23  C   UNK N   1      17.517  17.966  10.273  0.00  0.00     0.087 A 
ATOM     24  HN  UNK N   1      18.544  19.564  11.074  1.00  0.00     0.164 HD
HETATM   25  C   UNK N   1      17.495  16.994   9.270  0.00  0.00     0.018 A 
HETATM   26  C   UNK N   1      18.536  16.943   8.342  0.00  0.00     0.020 A 
ENDBRANCH  18  20
ENDBRANCH  17  18
ENDBRANCH   2  17
BRANCH   6  27
HETATM   27  O   UNK N   1      21.180  12.218   5.784  0.00  0.00    -0.306 OA
BRANCH  27  28
HETATM   28  C   UNK N   1      20.584  11.006   5.630  0.00  0.00     0.295 C 
HETATM   29  O   UNK N   1      19.377  10.977   5.442  0.00  0.00    -0.259 OA
BRANCH  28  30
HETATM   30  C   UNK N   1      21.318   9.719   5.749  0.00  0.00     0.054 A 
HETATM   31  C   UNK N   1      20.644   8.512   5.502  0.00  0.00     0.105 A 
HETATM   32  N   UNK N   1      21.275   7.320   5.673  0.00  0.00    -0.374 N 
HETATM   33  C   UNK N   1      22.565   7.258   6.099  0.00  0.00     0.087 A 
ATOM     34  HN  UNK N   1      20.772   6.456   5.478  1.00  0.00     0.164 HD
HETATM   35  C   UNK N   1      23.275   8.432   6.357  0.00  0.00     0.018 A 
HETATM   36  C   UNK N   1      22.646   9.667   6.179  0.00  0.00     0.020 A 
ENDBRANCH  28  30
ENDBRANCH  27  28
ENDBRANCH   6  27
BRANCH   3  37
HETATM   37  O   UNK N   1      23.667  16.462   5.624  0.00  0.00    -0.306 OA
BRANCH  37  38
HETATM   38  C   UNK N   1      23.679  17.601   4.886  0.00  0.00     0.295 C 
HETATM   39  O   UNK N   1      22.644  18.081   4.450  0.00  0.00    -0.259 OA
BRANCH  38  40
HETATM   40  C   UNK N   1      24.971  18.268   4.641  0.00  0.00     0.054 A 
HETATM   41  C   UNK N   1      26.170  17.738   5.132  0.00  0.00     0.105 A 
HETATM   42  N   UNK N   1      27.352  18.363   4.872  0.00  0.00    -0.374 N 
HETATM   43  C   UNK N   1      27.408  19.494   4.117  0.00  0.00     0.087 A 
ATOM     44  HN  UNK N   1      28.215  17.975   5.253  1.00  0.00     0.164 HD
HETATM   45  C   UNK N   1      26.237  20.049   3.598  0.00  0.00     0.018 A 
HETATM   46  C   UNK N   1      25.015  19.437   3.872  0.00  0.00     0.020 A 
ENDBRANCH  38  40
ENDBRANCH  37  38
ENDBRANCH   3  37
BRANCH   5  47
HETATM   47  O   UNK N   1      21.114  13.298   2.933  0.00  0.00    -0.306 OA
BRANCH  47  48
HETATM   48  C   UNK N   1      19.976  13.159   2.206  0.00  0.00     0.295 C 
HETATM   49  O   UNK N   1      19.333  12.116   2.242  0.00  0.00    -0.259 OA
BRANCH  48  50
HETATM   50  C   UNK N   1      19.534  14.260   1.330  0.00  0.00     0.054 A 
HETATM   51  C   UNK N   1      18.395  14.130   0.526  0.00  0.00     0.105 A 
HETATM   52  N   UNK N   1      18.020  15.141  -0.303  0.00  0.00    -0.374 N 
HETATM   53  C   UNK N   1      18.739  16.294  -0.387  0.00  0.00     0.087 A 
ATOM     54  HN  UNK N   1      17.181  15.034  -0.873  1.00  0.00     0.164 HD
HETATM   55  C   UNK N   1      19.884  16.465   0.392  0.00  0.00     0.018 A 
HETATM   56  C   UNK N   1      20.280  15.444   1.257  0.00  0.00     0.020 A 
ENDBRANCH  48  50
ENDBRANCH  47  48
ENDBRANCH   5  47
BRANCH   4  57
HETATM   57  O   UNK N   1      23.119  15.259   3.209  0.00  0.00    -0.306 OA
BRANCH  57  58
HETATM   58  C   UNK N   1      24.204  14.913   2.466  0.00  0.00     0.295 C 
HETATM   59  O   UNK N   1      25.208  15.611   2.474  0.00  0.00    -0.259 OA
BRANCH  58  60
HETATM   60  C   UNK N   1      24.167  13.690   1.637  0.00  0.00     0.054 A 
HETATM   61  C   UNK N   1      24.847  12.532   2.038  0.00  0.00     0.105 A 
HETATM   62  N   UNK N   1      24.831  11.421   1.253  0.00  0.00    -0.374 N 
HETATM   63  C   UNK N   1      24.176  11.402   0.061  0.00  0.00     0.087 A 
ATOM     64  HN  UNK N   1      25.321  10.582   1.565  1.00  0.00     0.164 HD
HETATM   65  C   UNK N   1      23.491  12.537  -0.379  0.00  0.00     0.018 A 
HETATM   66  C   UNK N   1      23.484  13.681   0.418  0.00  0.00     0.020 A 
ENDBRANCH  58  60
ENDBRANCH  57  58
ENDBRANCH   4  57
TORSDOF 18
ENDMDL
MODEL 3
REMARK VINA RESULT:      -8.8      2.290      8.560
REMARK  18 active torsions:
REMARK  status: ('A' for Active; 'I' for Inactive)
REMARK    1  A    between atoms: C_1  and  O_11 
REMARK    2  A    between atoms: C_2  and  O_9 
REMARK    3  A    between atoms: C_3  and  O_10 
REMARK    4  A    between atoms: C_4  and  O_12 
REMARK    5  A    between atoms: C_5  and  O_7 
REMARK    6  A    between atoms: C_6  and  O_8 
REMARK    7  A    between atoms: C_20  and  O_7 
REMARK    8  A    between atoms: O_8  and  C_56 
REMARK    9  A    between atoms: C_47  and  O_9 
REMARK   10  A    between atoms: C_38  and  O_10 
REMARK   11  A    between atoms: C_65  and  O_11 
REMARK   12  A    between atoms: C_29  and  O_12 
REMARK   13  A    between atoms: C_16  and  C_20 
REMARK   14  A    between atoms: C_25  and  C_29 
REMARK   15  A    between atoms: C_34  and  C_38 
REMARK   16  A    between atoms: C_43  and  C_47 
REMARK   17  A    between atoms: C_52  and  C_56 
REMARK   18  A    between atoms: C_61  and  C_65 
ROOT
HETATM    1  C   UNK N   1      22.038  15.023   6.828  0.00  0.00     0.196 C 
HETATM    2  C   UNK N   1      22.450  13.628   6.315  0.00  0.00     0.196 C 
HETATM    3  C   UNK N   1      21.774  13.423   4.938  0.00  0.00     0.196 C 
HETATM    4  C   UNK N   1      22.150  14.456   3.847  0.00  0.00     0.196 C 
HETATM    5  C   UNK N   1      22.970  15.593   4.488  0.00  0.00     0.196 C 
HETATM    6  C   UNK N   1      22.370  16.168   5.808  0.00  0.00     0.196 C 
ENDROOT
BRANCH   1   7
HETATM    7  O   UNK N   1      20.677  14.957   7.078  0.00  0.00    -0.306 OA
BRANCH   7   8
HETATM    8  C   UNK N   1      20.075  15.033   8.294  0.00  0.00     0.295 C 
HETATM    9  O   UNK N   1      20.069  14.030   8.992  0.00  0.00    -0.259 OA
BRANCH   8  10
HETATM   10  C   UNK N   1      19.393  16.252   8.798  0.00  0.00     0.054 A 
HETATM   11  C   UNK N   1      20.108  17.457   8.878  0.00  0.00     0.105 A 
HETATM   12  N   UNK N   1      19.524  18.576   9.385  0.00  0.00    -0.374 N 
HETATM   13  C   UNK N   1      18.242  18.561   9.838  0.00  0.00     0.087 A 
ATOM     14  HN  UNK N   1      20.059  19.444   9.426  1.00  0.00     0.164 HD
HETATM   15  C   UNK N   1      17.493  17.385   9.781  0.00  0.00     0.018 A 
HETATM   16  C   UNK N   1      18.072  16.228   9.259  0.00  0.00     0.020 A 
ENDBRANCH   8  10
ENDBRANCH   7   8
ENDBRANCH   1   7
BRANCH   2  17
HETATM   17  O   UNK N   1      22.149  12.664   7.279  0.00  0.00    -0.306 OA
BRANCH  17  18
HETATM   18  C   UNK N   1      23.014  11.812   7.911  0.00  0.00     0.295 C 
HETATM   19  O   UNK N   1      23.559  10.901   7.304  0.00  0.00    -0.259 OA
BRANCH  18  20
HETATM   20  C   UNK N   1      23.276  11.966   9.353  0.00  0.00     0.054 A 
HETATM   21  C   UNK N   1      24.573  12.227   9.814  0.00  0.00     0.105 A 
HETATM   22  N   UNK N   1      24.821  12.332  11.147  0.00  0.00    -0.374 N 
HETATM   23  C   UNK N   1      23.831  12.170  12.066  0.00  0.00     0.087 A 
ATOM     24  HN  UNK N   1      25.768  12.536  11.465  1.00  0.00     0.164 HD
HETATM   25  C   UNK N   1      22.525  11.904  11.649  0.00  0.00     0.018 A 
HETATM   26  C   UNK N   1      22.247  11.806  10.286  0.00  0.00     0.020 A 
ENDBRANCH  18  20
ENDBRANCH  17  18
ENDBRANCH   2  17
BRANCH   6  27
HETATM   27  O   UNK N   1      21.220  16.901   5.597  0.00  0.00    -0.306 OA
BRANCH  27  28
HETATM   28  C   UNK N   1      21.202  18.238   5.352  0.00  0.00     0.295 C 
HETATM   29  O   UNK N   1      21.293  18.999   6.303  0.00  0.00    -0.259 OA
BRANCH  28  30
HETATM   30  C   UNK N   1      21.007  18.812   3.996  0.00  0.00     0.054 A 
HETATM   31  C   UNK N   1      20.030  18.269   3.147  0.00  0.00     0.105 A 
HETATM   32  N   UNK N   1      19.883  18.731   1.876  0.00  0.00    -0.374 N 
HETATM   33  C   UNK N   1      20.680  19.717   1.386  0.00  0.00     0.087 A 
ATOM     34  HN  UNK N   1      19.159  18.330   1.280  1.00  0.00     0.164 HD
HETATM   35  C   UNK N   1      21.666  20.287   2.194  0.00  0.00     0.018 A 
HETATM   36  C   UNK N   1      21.827  19.832   3.504  0.00  0.00     0.020 A 
ENDBRANCH  28  30
ENDBRANCH  27  28
ENDBRANCH   6  27
BRANCH   3  37
HETATM   37  O   UNK N   1      21.601  12.106   4.551  0.00  0.00    -0.306 OA
BRANCH  37  38
HETATM   38  C   UNK N   1      20.432  11.430   4.411  0.00  0.00     0.295 C 
HETATM   39  O   UNK N   1      19.458  11.955   3.892  0.00  0.00    -0.259 OA
BRANCH  38  40
HETATM   40  C   UNK N   1      20.366  10.033   4.878  0.00  0.00     0.054 A 
HETATM   41  C   UNK N   1      19.142   9.370   5.025  0.00  0.00     0.105 A 
HETATM   42  N   UNK N   1      19.112   8.072   5.436  0.00  0.00    -0.374 N 
HETATM   43  C   UNK N   1      20.255   7.379   5.689  0.00  0.00     0.087 A 
ATOM     44  HN  UNK N   1      18.211   7.609   5.557  1.00  0.00     0.164 HD
HETATM   45  C   UNK N   1      21.497   7.999   5.544  0.00  0.00     0.018 A 
HETATM   46  C   UNK N   1      21.549   9.334   5.146  0.00  0.00     0.020 A 
ENDBRANCH  38  40
ENDBRANCH  37  38
ENDBRANCH   3  37
BRANCH   5  47
HETATM   47  O   UNK N   1      23.460  16.504   3.565  0.00  0.00    -0.306 OA
BRANCH  47  48
HETATM   48  C   UNK N   1      24.760  16.802   3.316  0.00  0.00     0.295 C 
HETATM   49  O   UNK N   1      25.450  16.065   2.621  0.00  0.00    -0.259 OA
BRANCH  48  50
HETATM   50  C   UNK N   1      25.361  18.003   3.927  0.00  0.00     0.054 A 
HETATM   51  C   UNK N   1      25.869  17.972   5.231  0.00  0.00     0.105 A 
HETATM   52  N   UNK N   1      26.388  19.097   5.793  0.00  0.00    -0.374 N 
HETATM   53  C   UNK N   1      26.418  20.279   5.118  0.00  0.00     0.087 A 
ATOM     54  HN  UNK N   1      26.766  19.053   6.740  1.00  0.00     0.164 HD
HETATM   55  C   UNK N   1      25.916  20.357   3.818  0.00  0.00     0.018 A 
HETATM   56  C   UNK N   1      25.389  19.211   3.219  0.00  0.00     0.020 A 
ENDBRANCH  48  50
ENDBRANCH  47  48
ENDBRANCH   5  47
BRANCH   4  57
HETATM   57  O   UNK N   1      22.861  13.850   2.832  0.00  0.00    -0.306 OA
BRANCH  57  58
HETATM   58  C   UNK N   1      22.575  14.029   1.515  0.00  0.00     0.295 C 
HETATM   59  O   UNK N   1      23.473  14.197   0.704  0.00  0.00    -0.259 OA
BRANCH  58  60
HETATM   60  C   UNK N   1      21.168  14.028   1.063  0.00  0.00     0.054 A 
HETATM   61  C   UNK N   1      20.431  15.219   1.011  0.00  0.00     0.105 A 
HETATM   62  N   UNK N   1      19.128  15.202   0.621  0.00  0.00    -0.374 N 
HETATM   63  C   UNK N   1      18.499  14.042   0.289  0.00  0.00     0.087 A 
ATOM     64  HN  UNK N   1      18.609  16.080   0.577  1.00  0.00     0.164 HD
HETATM   65  C   UNK N   1      19.195  12.833   0.333  0.00  0.00     0.018 A 
HETATM   66  C   UNK N   1      20.536  12.830   0.716  0.00  0.00     0.020 A 
ENDBRANCH  58  60
ENDBRANCH  57  58
ENDBRANCH   4  57
TORSDOF 18
ENDMDL
MODEL 4
REMARK VINA RESULT:      -8.6      2.158      4.794
REMARK  18 active torsions:
REMARK  status: ('A' for Active; 'I' for Inactive)
REMARK    1  A    between atoms: C_1  and  O_11 
REMARK    2  A    between atoms: C_2  and  O_9 
REMARK    3  A    between atoms: C_3  and  O_10 
REMARK    4  A    between atoms: C_4  and  O_12 
REMARK    5  A    between atoms: C_5  and  O_7 
REMARK    6  A    between atoms: C_6  and  O_8 
REMARK    7  A    between atoms: C_20  and  O_7 
REMARK    8  A    between atoms: O_8  and  C_56 
REMARK    9  A    between atoms: C_47  and  O_9 
REMARK   10  A    between atoms: C_38  and  O_10 
REMARK   11  A    between atoms: C_65  and  O_11 
REMARK   12  A    between atoms: C_29  and  O_12 
REMARK   13  A    between atoms: C_16  and  C_20 
REMARK   14  A    between atoms: C_25  and  C_29 
REMARK   15  A    between atoms: C_34  and  C_38 
REMARK   16  A    between atoms: C_43  and  C_47 
REMARK   17  A    between atoms: C_52  and  C_56 
REMARK   18  A    between atoms: C_61  and  C_65 
ROOT
HETATM    1  C   UNK N   1      21.871  15.151   5.029  0.00  0.00     0.196 C 
HETATM    2  C   UNK N   1      23.186  15.138   4.223  0.00  0.00     0.196 C 
HETATM    3  C   UNK N   1      24.249  15.892   5.058  0.00  0.00     0.196 C 
HETATM    4  C   UNK N   1      24.547  15.297   6.456  0.00  0.00     0.196 C 
HETATM    5  C   UNK N   1      23.524  14.186   6.762  0.00  0.00     0.196 C 
HETATM    6  C   UNK N   1      22.039  14.566   6.474  0.00  0.00     0.196 C 
ENDROOT
BRANCH   1   7
HETATM    7  O   UNK N   1      21.455  16.472   5.069  0.00  0.00    -0.306 OA
BRANCH   7   8
HETATM    8  C   UNK N   1      20.461  17.028   4.329  0.00  0.00     0.295 C 
HETATM    9  O   UNK N   1      19.389  16.444   4.279  0.00  0.00    -0.259 OA
BRANCH   8  10
HETATM   10  C   UNK N   1      20.622  18.281   3.548  0.00  0.00     0.054 A 
HETATM   11  C   UNK N   1      19.585  18.702   2.702  0.00  0.00     0.105 A 
HETATM   12  N   UNK N   1      19.726  19.817   1.936  0.00  0.00    -0.374 N 
HETATM   13  C   UNK N   1      20.873  20.548   1.955  0.00  0.00     0.087 A 
ATOM     14  HN  UNK N   1      18.957  20.111   1.334  1.00  0.00     0.164 HD
HETATM   15  C   UNK N   1      21.932  20.167   2.780  0.00  0.00     0.018 A 
HETATM   16  C   UNK N   1      21.804  19.029   3.578  0.00  0.00     0.020 A 
ENDBRANCH   8  10
ENDBRANCH   7   8
ENDBRANCH   1   7
BRANCH   2  17
HETATM   17  O   UNK N   1      22.960  15.647   2.942  0.00  0.00    -0.306 OA
BRANCH  17  18
HETATM   18  C   UNK N   1      22.798  14.946   1.778  0.00  0.00     0.295 C 
HETATM   19  O   UNK N   1      23.763  14.583   1.122  0.00  0.00    -0.259 OA
BRANCH  18  20
HETATM   20  C   UNK N   1      21.443  14.646   1.282  0.00  0.00     0.054 A 
HETATM   21  C   UNK N   1      20.540  15.683   1.013  0.00  0.00     0.105 A 
HETATM   22  N   UNK N   1      19.279  15.403   0.590  0.00  0.00    -0.374 N 
HETATM   23  C   UNK N   1      18.852  14.121   0.434  0.00  0.00     0.087 A 
ATOM     24  HN  UNK N   1      18.638  16.170   0.385  1.00  0.00     0.164 HD
HETATM   25  C   UNK N   1      19.718  13.057   0.697  0.00  0.00     0.018 A 
HETATM   26  C   UNK N   1      21.021  13.323   1.118  0.00  0.00     0.020 A 
ENDBRANCH  18  20
ENDBRANCH  17  18
ENDBRANCH   2  17
BRANCH   6  27
HETATM   27  O   UNK N   1      21.542  15.490   7.371  0.00  0.00    -0.306 OA
BRANCH  27  28
HETATM   28  C   UNK N   1      20.428  15.299   8.125  0.00  0.00     0.295 C 
HETATM   29  O   UNK N   1      20.038  14.153   8.297  0.00  0.00    -0.259 OA
BRANCH  28  30
HETATM   30  C   UNK N   1      19.628  16.416   8.691  0.00  0.00     0.054 A 
HETATM   31  C   UNK N   1      20.174  17.709   8.729  0.00  0.00     0.105 A 
HETATM   32  N   UNK N   1      19.489  18.732   9.307  0.00  0.00    -0.374 N 
HETATM   33  C   UNK N   1      18.270  18.535   9.874  0.00  0.00     0.087 A 
ATOM     34  HN  UNK N   1      19.899  19.666   9.313  1.00  0.00     0.164 HD
HETATM   35  C   UNK N   1      17.688  17.266   9.861  0.00  0.00     0.018 A 
HETATM   36  C   UNK N   1      18.371  16.204   9.265  0.00  0.00     0.020 A 
ENDBRANCH  28  30
ENDBRANCH  27  28
ENDBRANCH   6  27
BRANCH   3  37
HETATM   37  O   UNK N   1      25.307  16.419   4.338  0.00  0.00    -0.306 OA
BRANCH  37  38
HETATM   38  C   UNK N   1      25.532  17.721   4.030  0.00  0.00     0.295 C 
HETATM   39  O   UNK N   1      25.180  18.185   2.956  0.00  0.00    -0.259 OA
BRANCH  38  40
HETATM   40  C   UNK N   1      26.192  18.578   5.032  0.00  0.00     0.054 A 
HETATM   41  C   UNK N   1      27.095  18.050   5.963  0.00  0.00     0.105 A 
HETATM   42  N   UNK N   1      27.706  18.869   6.863  0.00  0.00    -0.374 N 
HETATM   43  C   UNK N   1      27.481  20.212   6.871  0.00  0.00     0.087 A 
ATOM     44  HN  UNK N   1      28.347  18.467   7.547  1.00  0.00     0.164 HD
HETATM   45  C   UNK N   1      26.597  20.780   5.953  0.00  0.00     0.018 A 
HETATM   46  C   UNK N   1      25.944  19.956   5.038  0.00  0.00     0.020 A 
ENDBRANCH  38  40
ENDBRANCH  37  38
ENDBRANCH   3  37
BRANCH   5  47
HETATM   47  O   UNK N   1      23.787  13.507   7.942  0.00  0.00    -0.306 OA
BRANCH  47  48
HETATM   48  C   UNK N   1      23.174  12.385   8.398  0.00  0.00     0.295 C 
HETATM   49  O   UNK N   1      22.698  11.570   7.616  0.00  0.00    -0.259 OA
BRANCH  48  50
HETATM   50  C   UNK N   1      23.041  12.168   9.851  0.00  0.00     0.054 A 
HETATM   51  C   UNK N   1      21.782  12.060  10.452  0.00  0.00     0.105 A 
HETATM   52  N   UNK N   1      21.675  11.895  11.798  0.00  0.00    -0.374 N 
HETATM   53  C   UNK N   1      22.777  11.843  12.597  0.00  0.00     0.087 A 
ATOM     54  HN  UNK N   1      20.750  11.806  12.218  1.00  0.00     0.164 HD
HETATM   55  C   UNK N   1      24.052  11.953  12.040  0.00  0.00     0.018 A 
HETATM   56  C   UNK N   1      24.184  12.111  10.659  0.00  0.00     0.020 A 
ENDBRANCH  48  50
ENDBRANCH  47  48
ENDBRANCH   5  47
BRANCH   4  57
HETATM   57  O   UNK N   1      25.835  14.806   6.507  0.00  0.00    -0.306 OA
BRANCH  57  58
HETATM   58  C   UNK N   1      26.299  13.848   5.661  0.00  0.00     0.295 C 
HETATM   59  O   UNK N   1      25.773  12.745   5.628  0.00  0.00    -0.259 OA
BRANCH  58  60
HETATM   60  C   UNK N   1      27.451  14.138   4.783  0.00  0.00     0.054 A 
HETATM   61  C   UNK N   1      27.449  13.732   3.442  0.00  0.00     0.105 A 
HETATM   62  N   UNK N   1      28.528  13.978   2.649  0.00  0.00    -0.374 N 
HETATM   63  C   UNK N   1      29.635  14.606   3.130  0.00  0.00     0.087 A 
ATOM     64  HN  UNK N   1      28.506  13.686   1.672  1.00  0.00     0.164 HD
HETATM   65  C   UNK N   1      29.680  15.023   4.461  0.00  0.00     0.018 A 
HETATM   66  C   UNK N   1      28.579  14.792   5.287  0.00  0.00     0.020 A 
ENDBRANCH  58  60
ENDBRANCH  57  58
ENDBRANCH   4  57
TORSDOF 18
ENDMDL
MODEL 5
REMARK VINA RESULT:      -8.5      2.180      7.673
REMARK  18 active torsions:
REMARK  status: ('A' for Active; 'I' for Inactive)
REMARK    1  A    between atoms: C_1  and  O_11 
REMARK    2  A    between atoms: C_2  and  O_9 
REMARK    3  A    between atoms: C_3  and  O_10 
REMARK    4  A    between atoms: C_4  and  O_12 
REMARK    5  A    between atoms: C_5  and  O_7 
REMARK    6  A    between atoms: C_6  and  O_8 
REMARK    7  A    between atoms: C_20  and  O_7 
REMARK    8  A    between atoms: O_8  and  C_56 
REMARK    9  A    between atoms: C_47  and  O_9 
REMARK   10  A    between atoms: C_38  and  O_10 
REMARK   11  A    between atoms: C_65  and  O_11 
REMARK   12  A    between atoms: C_29  and  O_12 
REMARK   13  A    between atoms: C_16  and  C_20 
REMARK   14  A    between atoms: C_25  and  C_29 
REMARK   15  A    between atoms: C_34  and  C_38 
REMARK   16  A    between atoms: C_43  and  C_47 
REMARK   17  A    between atoms: C_52  and  C_56 
REMARK   18  A    between atoms: C_61  and  C_65 
ROOT
HETATM    1  C   UNK N   1      20.641  15.812   7.297  0.00  0.00     0.196 C 
HETATM    2  C   UNK N   1      21.201  14.375   7.293  0.00  0.00     0.196 C 
HETATM    3  C   UNK N   1      21.202  13.882   5.826  0.00  0.00     0.196 C 
HETATM    4  C   UNK N   1      22.051  14.720   4.839  0.00  0.00     0.196 C 
HETATM    5  C   UNK N   1      22.530  16.003   5.547  0.00  0.00     0.196 C 
HETATM    6  C   UNK N   1      21.422  16.770   6.332  0.00  0.00     0.196 C 
ENDROOT
BRANCH   1   7
HETATM    7  O   UNK N   1      19.309  15.710   6.929  0.00  0.00    -0.306 OA
BRANCH   7   8
HETATM    8  C   UNK N   1      18.274  16.424   7.441  0.00  0.00     0.295 C 
HETATM    9  O   UNK N   1      17.190  16.340   6.884  0.00  0.00    -0.259 OA
BRANCH   8  10
HETATM   10  C   UNK N   1      18.400  17.329   8.612  0.00  0.00     0.054 A 
HETATM   11  C   UNK N   1      17.335  17.434   9.519  0.00  0.00     0.105 A 
HETATM   12  N   UNK N   1      17.402  18.294  10.571  0.00  0.00    -0.374 N 
HETATM   13  C   UNK N   1      18.492  19.083  10.770  0.00  0.00     0.087 A 
ATOM     14  HN  UNK N   1      16.621  18.348  11.223  1.00  0.00     0.164 HD
HETATM   15  C   UNK N   1      19.576  19.015   9.893  0.00  0.00     0.018 A 
HETATM   16  C   UNK N   1      19.527  18.134   8.811  0.00  0.00     0.020 A 
ENDBRANCH   8  10
ENDBRANCH   7   8
ENDBRANCH   1   7
BRANCH   2  17
HETATM   17  O   UNK N   1      20.477  13.585   8.189  0.00  0.00    -0.306 OA
BRANCH  17  18
HETATM   18  C   UNK N   1      20.619  13.514   9.548  0.00  0.00     0.295 C 
HETATM   19  O   UNK N   1      19.713  13.855  10.296  0.00  0.00    -0.259 OA
BRANCH  18  20
HETATM   20  C   UNK N   1      21.890  13.051  10.132  0.00  0.00     0.054 A 
HETATM   21  C   UNK N   1      23.103  13.288   9.473  0.00  0.00     0.105 A 
HETATM   22  N   UNK N   1      24.271  12.828   9.995  0.00  0.00    -0.374 N 
HETATM   23  C   UNK N   1      24.297  12.114  11.152  0.00  0.00     0.087 A 
ATOM     24  HN  UNK N   1      25.147  13.022   9.509  1.00  0.00     0.164 HD
HETATM   25  C   UNK N   1      23.110  11.850  11.839  0.00  0.00     0.018 A 
HETATM   26  C   UNK N   1      21.902  12.326  11.328  0.00  0.00     0.020 A 
ENDBRANCH  18  20
ENDBRANCH  17  18
ENDBRANCH   2  17
BRANCH   6  27
HETATM   27  O   UNK N   1      20.506  17.381   5.500  0.00  0.00    -0.306 OA
BRANCH  27  28
HETATM   28  C   UNK N   1      20.827  18.319   4.570  0.00  0.00     0.295 C 
HETATM   29  O   UNK N   1      21.224  19.406   4.961  0.00  0.00    -0.259 OA
BRANCH  28  30
HETATM   30  C   UNK N   1      20.651  18.107   3.110  0.00  0.00     0.054 A 
HETATM   31  C   UNK N   1      20.574  19.217   2.253  0.00  0.00     0.105 A 
HETATM   32  N   UNK N   1      20.342  19.050   0.923  0.00  0.00    -0.374 N 
HETATM   33  C   UNK N   1      20.166  17.813   0.387  0.00  0.00     0.087 A 
ATOM     34  HN  UNK N   1      20.301  19.868   0.317  1.00  0.00     0.164 HD
HETATM   35  C   UNK N   1      20.234  16.680   1.200  0.00  0.00     0.018 A 
HETATM   36  C   UNK N   1      20.480  16.831   2.566  0.00  0.00     0.020 A 
ENDBRANCH  28  30
ENDBRANCH  27  28
ENDBRANCH   6  27
BRANCH   3  37
HETATM   37  O   UNK N   1      21.183  12.508   5.660  0.00  0.00    -0.306 OA
BRANCH  37  38
HETATM   38  C   UNK N   1      20.293  11.772   4.948  0.00  0.00     0.295 C 
HETATM   39  O   UNK N   1      19.349  11.222   5.496  0.00  0.00    -0.259 OA
BRANCH  38  40
HETATM   40  C   UNK N   1      20.471  11.669   3.488  0.00  0.00     0.054 A 
HETATM   41  C   UNK N   1      19.784  12.514   2.608  0.00  0.00     0.105 A 
HETATM   42  N   UNK N   1      19.984  12.411   1.265  0.00  0.00    -0.374 N 
HETATM   43  C   UNK N   1      20.866  11.515   0.743  0.00  0.00     0.087 A 
ATOM     44  HN  UNK N   1      19.462  13.021   0.635  1.00  0.00     0.164 HD
HETATM   45  C   UNK N   1      21.580  10.662   1.586  0.00  0.00     0.018 A 
HETATM   46  C   UNK N   1      21.372  10.735   2.962  0.00  0.00     0.020 A 
ENDBRANCH  38  40
ENDBRANCH  37  38
ENDBRANCH   3  37
BRANCH   5  47
HETATM   47  O   UNK N   1      23.404  16.759   4.781  0.00  0.00    -0.306 OA
BRANCH  47  48
HETATM   48  C   UNK N   1      24.721  16.985   5.019  0.00  0.00     0.295 C 
HETATM   49  O   UNK N   1      25.362  16.239   5.750  0.00  0.00    -0.259 OA
BRANCH  48  50
HETATM   50  C   UNK N   1      25.375  18.167   4.427  0.00  0.00     0.054 A 
HETATM   51  C   UNK N   1      26.741  18.405   4.615  0.00  0.00     0.105 A 
HETATM   52  N   UNK N   1      27.323  19.518   4.091  0.00  0.00    -0.374 N 
HETATM   53  C   UNK N   1      26.601  20.433   3.387  0.00  0.00     0.087 A 
ATOM     54  HN  UNK N   1      28.323  19.670   4.227  1.00  0.00     0.164 HD
HETATM   55  C   UNK N   1      25.234  20.238   3.181  0.00  0.00     0.018 A 
HETATM   56  C   UNK N   1      24.620  19.097   3.700  0.00  0.00     0.020 A 
ENDBRANCH  48  50
ENDBRANCH  47  48
ENDBRANCH   5  47
BRANCH   4  57
HETATM   57  O   UNK N   1      23.123  13.984   4.377  0.00  0.00    -0.306 OA
BRANCH  57  58
HETATM   58  C   UNK N   1      23.553  14.028   3.088  0.00  0.00     0.295 C 
HETATM   59  O   UNK N   1      22.750  14.007   2.167  0.00  0.00    -0.259 OA
BRANCH  58  60
HETATM   60  C   UNK N   1      25.000  14.094   2.799  0.00  0.00     0.054 A 
HETATM   61  C   UNK N   1      25.868  13.092   3.254  0.00  0.00     0.105 A 
HETATM   62  N   UNK N   1      27.204  13.178   3.007  0.00  0.00    -0.374 N 
HETATM   63  C   UNK N   1      27.736  14.233   2.333  0.00  0.00     0.087 A 
ATOM     64  HN  UNK N   1      27.821  12.434   3.335  1.00  0.00     0.164 HD
HETATM   65  C   UNK N   1      26.908  15.255   1.867  0.00  0.00     0.018 A 
HETATM   66  C   UNK N   1      25.534  15.179   2.098  0.00  0.00     0.020 A 
ENDBRANCH  58  60
ENDBRANCH  57  58
ENDBRANCH   4  57
TORSDOF 18
ENDMDL
MODEL 6
REMARK VINA RESULT:      -8.5      1.860      2.629
REMARK  18 active torsions:
REMARK  status: ('A' for Active; 'I' for Inactive)
REMARK    1  A    between atoms: C_1  and  O_11 
REMARK    2  A    between atoms: C_2  and  O_9 
REMARK    3  A    between atoms: C_3  and  O_10 
REMARK    4  A    between atoms: C_4  and  O_12 
REMARK    5  A    between atoms: C_5  and  O_7 
REMARK    6  A    between atoms: C_6  and  O_8 
REMARK    7  A    between atoms: C_20  and  O_7 
REMARK    8  A    between atoms: O_8  and  C_56 
REMARK    9  A    between atoms: C_47  and  O_9 
REMARK   10  A    between atoms: C_38  and  O_10 
REMARK   11  A    between atoms: C_65  and  O_11 
REMARK   12  A    between atoms: C_29  and  O_12 
REMARK   13  A    between atoms: C_16  and  C_20 
REMARK   14  A    between atoms: C_25  and  C_29 
REMARK   15  A    between atoms: C_34  and  C_38 
REMARK   16  A    between atoms: C_43  and  C_47 
REMARK   17  A    between atoms: C_52  and  C_56 
REMARK   18  A    between atoms: C_61  and  C_65 
ROOT
HETATM    1  C   UNK N   1      20.458  15.019   6.238  0.00  0.00     0.196 C 
HETATM    2  C   UNK N   1      21.180  15.542   4.980  0.00  0.00     0.196 C 
HETATM    3  C   UNK N   1      22.519  16.168   5.440  0.00  0.00     0.196 C 
HETATM    4  C   UNK N   1      23.487  15.208   6.174  0.00  0.00     0.196 C 
HETATM    5  C   UNK N   1      22.763  13.878   6.459  0.00  0.00     0.196 C 
HETATM    6  C   UNK N   1      21.338  14.028   7.075  0.00  0.00     0.196 C 
ENDROOT
BRANCH   1   7
HETATM    7  O   UNK N   1      20.119  16.137   6.983  0.00  0.00    -0.306 OA
BRANCH   7   8
HETATM    8  C   UNK N   1      18.867  16.508   7.359  0.00  0.00     0.295 C 
HETATM    9  O   UNK N   1      17.929  16.133   6.672  0.00  0.00    -0.259 OA
BRANCH   8  10
HETATM   10  C   UNK N   1      18.585  17.374   8.532  0.00  0.00     0.054 A 
HETATM   11  C   UNK N   1      19.552  18.300   8.952  0.00  0.00     0.105 A 
HETATM   12  N   UNK N   1      19.342  19.069  10.054  0.00  0.00    -0.374 N 
HETATM   13  C   UNK N   1      18.202  18.959  10.786  0.00  0.00     0.087 A 
ATOM     14  HN  UNK N   1      20.054  19.743  10.336  1.00  0.00     0.164 HD
HETATM   15  C   UNK N   1      17.212  18.050  10.409  0.00  0.00     0.018 A 
HETATM   16  C   UNK N   1      17.407  17.256   9.277  0.00  0.00     0.020 A 
ENDBRANCH   8  10
ENDBRANCH   7   8
ENDBRANCH   1   7
BRANCH   2  17
HETATM   17  O   UNK N   1      20.333  16.397   4.271  0.00  0.00    -0.306 OA
BRANCH  17  18
HETATM   18  C   UNK N   1      20.129  16.444   2.919  0.00  0.00     0.295 C 
HETATM   19  O   UNK N   1      19.748  17.471   2.374  0.00  0.00    -0.259 OA
BRANCH  18  20
HETATM   20  C   UNK N   1      20.339  15.238   2.100  0.00  0.00     0.054 A 
HETATM   21  C   UNK N   1      19.366  14.231   2.057  0.00  0.00     0.105 A 
HETATM   22  N   UNK N   1      19.577  13.101   1.330  0.00  0.00    -0.374 N 
HETATM   23  C   UNK N   1      20.735  12.907   0.645  0.00  0.00     0.087 A 
ATOM     24  HN  UNK N   1      18.852  12.384   1.298  1.00  0.00     0.164 HD
HETATM   25  C   UNK N   1      21.734  13.882   0.665  0.00  0.00     0.018 A 
HETATM   26  C   UNK N   1      21.532  15.055   1.393  0.00  0.00     0.020 A 
ENDBRANCH  18  20
ENDBRANCH  17  18
ENDBRANCH   2  17
BRANCH   6  27
HETATM   27  O   UNK N   1      21.366  14.476   8.380  0.00  0.00    -0.306 OA
BRANCH  27  28
HETATM   28  C   UNK N   1      20.999  13.725   9.453  0.00  0.00     0.295 C 
HETATM   29  O   UNK N   1      19.808  13.612   9.697  0.00  0.00    -0.259 OA
BRANCH  28  30
HETATM   30  C   UNK N   1      21.979  13.096  10.376  0.00  0.00     0.054 A 
HETATM   31  C   UNK N   1      23.352  13.188  10.097  0.00  0.00     0.105 A 
HETATM   32  N   UNK N   1      24.262  12.559  10.888  0.00  0.00    -0.374 N 
HETATM   33  C   UNK N   1      23.875  11.816  11.959  0.00  0.00     0.087 A 
ATOM     34  HN  UNK N   1      25.255  12.648  10.675  1.00  0.00     0.164 HD
HETATM   35  C   UNK N   1      22.520  11.696  12.275  0.00  0.00     0.018 A 
HETATM   36  C   UNK N   1      21.570  12.341  11.480  0.00  0.00     0.020 A 
ENDBRANCH  28  30
ENDBRANCH  27  28
ENDBRANCH   6  27
BRANCH   3  37
HETATM   37  O   UNK N   1      23.063  17.107   4.582  0.00  0.00    -0.306 OA
BRANCH  37  38
HETATM   38  C   UNK N   1      23.163  18.446   4.775  0.00  0.00     0.295 C 
HETATM   39  O   UNK N   1      22.270  19.072   5.327  0.00  0.00    -0.259 OA
BRANCH  38  40
HETATM   40  C   UNK N   1      24.389  19.132   4.328  0.00  0.00     0.054 A 
HETATM   41  C   UNK N   1      25.615  18.929   4.973  0.00  0.00     0.105 A 
HETATM   42  N   UNK N   1      26.736  19.559   4.526  0.00  0.00    -0.374 N 
HETATM   43  C   UNK N   1      26.707  20.376   3.437  0.00  0.00     0.087 A 
ATOM     44  HN  UNK N   1      27.618  19.416   5.017  1.00  0.00     0.164 HD
HETATM   45  C   UNK N   1      25.508  20.597   2.759  0.00  0.00     0.018 A 
HETATM   46  C   UNK N   1      24.345  19.979   3.215  0.00  0.00     0.020 A 
ENDBRANCH  38  40
ENDBRANCH  37  38
ENDBRANCH   3  37
BRANCH   5  47
HETATM   47  O   UNK N   1      23.591  12.908   7.004  0.00  0.00    -0.306 OA
BRANCH  47  48
HETATM   48  C   UNK N   1      23.906  11.702   6.468  0.00  0.00     0.295 C 
HETATM   49  O   UNK N   1      23.665  10.664   7.075  0.00  0.00    -0.259 OA
BRANCH  48  50
HETATM   50  C   UNK N   1      24.584  11.642   5.160  0.00  0.00     0.054 A 
HETATM   51  C   UNK N   1      23.866  11.390   3.985  0.00  0.00     0.105 A 
HETATM   52  N   UNK N   1      24.511  11.303   2.790  0.00  0.00    -0.374 N 
HETATM   53  C   UNK N   1      25.862  11.443   2.701  0.00  0.00     0.087 A 
ATOM     54  HN  UNK N   1      23.970  11.132   1.943  1.00  0.00     0.164 HD
HETATM   55  C   UNK N   1      26.619  11.688   3.848  0.00  0.00     0.018 A 
HETATM   56  C   UNK N   1      25.975  11.792   5.082  0.00  0.00     0.020 A 
ENDBRANCH  48  50
ENDBRANCH  47  48
ENDBRANCH   5  47
BRANCH   4  57
HETATM   57  O   UNK N   1      24.623  14.998   5.420  0.00  0.00    -0.306 OA
BRANCH  57  58
HETATM   58  C   UNK N   1      25.867  15.362   5.832  0.00  0.00     0.295 C 
HETATM   59  O   UNK N   1      26.105  15.511   7.022  0.00  0.00    -0.259 OA
BRANCH  58  60
HETATM   60  C   UNK N   1      26.935  15.587   4.836  0.00  0.00     0.054 A 
HETATM   61  C   UNK N   1      26.681  15.432   3.467  0.00  0.00     0.105 A 
HETATM   62  N   UNK N   1      27.680  15.612   2.560  0.00  0.00    -0.374 N 
HETATM   63  C   UNK N   1      28.944  15.930   2.948  0.00  0.00     0.087 A 
ATOM     64  HN  UNK N   1      27.476  15.508   1.566  1.00  0.00     0.164 HD
HETATM   65  C   UNK N   1      29.241  16.089   4.303  0.00  0.00     0.018 A 
HETATM   66  C   UNK N   1      28.228  15.921   5.248  0.00  0.00     0.020 A 
ENDBRANCH  58  60
ENDBRANCH  57  58
ENDBRANCH   4  57
TORSDOF 18
ENDMDL
MODEL 7
REMARK VINA RESULT:      -8.5      1.768      8.069
REMARK  18 active torsions:
REMARK  status: ('A' for Active; 'I' for Inactive)
REMARK    1  A    between atoms: C_1  and  O_11 
REMARK    2  A    between atoms: C_2  and  O_9 
REMARK    3  A    between atoms: C_3  and  O_10 
REMARK    4  A    between atoms: C_4  and  O_12 
REMARK    5  A    between atoms: C_5  and  O_7 
REMARK    6  A    between atoms: C_6  and  O_8 
REMARK    7  A    between atoms: C_20  and  O_7 
REMARK    8  A    between atoms: O_8  and  C_56 
REMARK    9  A    between atoms: C_47  and  O_9 
REMARK   10  A    between atoms: C_38  and  O_10 
REMARK   11  A    between atoms: C_65  and  O_11 
REMARK   12  A    between atoms: C_29  and  O_12 
REMARK   13  A    between atoms: C_16  and  C_20 
REMARK   14  A    between atoms: C_25  and  C_29 
REMARK   15  A    between atoms: C_34  and  C_38 
REMARK   16  A    between atoms: C_43  and  C_47 
REMARK   17  A    between atoms: C_52  and  C_56 
REMARK   18  A    between atoms: C_61  and  C_65 
ROOT
HETATM    1  C   UNK N   1      20.948  15.800   7.028  0.00  0.00     0.196 C 
HETATM    2  C   UNK N   1      21.292  14.306   7.202  0.00  0.00     0.196 C 
HETATM    3  C   UNK N   1      21.415  13.691   5.787  0.00  0.00     0.196 C 
HETATM    4  C   UNK N   1      22.497  14.321   4.876  0.00  0.00     0.196 C 
HETATM    5  C   UNK N   1      23.058  15.585   5.556  0.00  0.00     0.196 C 
HETATM    6  C   UNK N   1      21.978  16.558   6.121  0.00  0.00     0.196 C 
ENDROOT
BRANCH   1   7
HETATM    7  O   UNK N   1      19.675  15.843   6.483  0.00  0.00    -0.306 OA
BRANCH   7   8
HETATM    8  C   UNK N   1      18.566  16.372   7.063  0.00  0.00     0.295 C 
HETATM    9  O   UNK N   1      17.488  16.168   6.526  0.00  0.00    -0.259 OA
BRANCH   8  10
HETATM   10  C   UNK N   1      18.602  17.214   8.286  0.00  0.00     0.054 A 
HETATM   11  C   UNK N   1      17.486  17.241   9.136  0.00  0.00     0.105 A 
HETATM   12  N   UNK N   1      17.470  18.043  10.234  0.00  0.00    -0.374 N 
HETATM   13  C   UNK N   1      18.523  18.849  10.535  0.00  0.00     0.087 A 
ATOM     14  HN  UNK N   1      16.653  18.040  10.844  1.00  0.00     0.164 HD
HETATM   15  C   UNK N   1      19.655  18.858   9.718  0.00  0.00     0.018 A 
HETATM   16  C   UNK N   1      19.692  18.037   8.590  0.00  0.00     0.020 A 
ENDBRANCH   8  10
ENDBRANCH   7   8
ENDBRANCH   1   7
BRANCH   2  17
HETATM   17  O   UNK N   1      20.352  13.701   8.038  0.00  0.00    -0.306 OA
BRANCH  17  18
HETATM   18  C   UNK N   1      20.308  13.722   9.406  0.00  0.00     0.295 C 
HETATM   19  O   UNK N   1      19.367  14.231   9.999  0.00  0.00    -0.259 OA
BRANCH  18  20
HETATM   20  C   UNK N   1      21.422  13.155  10.187  0.00  0.00     0.054 A 
HETATM   21  C   UNK N   1      22.749  13.414   9.822  0.00  0.00     0.105 A 
HETATM   22  N   UNK N   1      23.775  12.860  10.521  0.00  0.00    -0.374 N 
HETATM   23  C   UNK N   1      23.547  12.030  11.575  0.00  0.00     0.087 A 
ATOM     24  HN  UNK N   1      24.736  13.070  10.251  1.00  0.00     0.164 HD
HETATM   25  C   UNK N   1      22.239  11.741  11.969  0.00  0.00     0.018 A 
HETATM   26  C   UNK N   1      21.172  12.311  11.273  0.00  0.00     0.020 A 
ENDBRANCH  18  20
ENDBRANCH  17  18
ENDBRANCH   2  17
BRANCH   6  27
HETATM   27  O   UNK N   1      21.276  17.210   5.128  0.00  0.00    -0.306 OA
BRANCH  27  28
HETATM   28  C   UNK N   1      21.219  18.562   4.995  0.00  0.00     0.295 C 
HETATM   29  O   UNK N   1      21.196  19.240   6.011  0.00  0.00    -0.259 OA
BRANCH  28  30
HETATM   30  C   UNK N   1      21.115  19.245   3.680  0.00  0.00     0.054 A 
HETATM   31  C   UNK N   1      19.958  19.078   2.902  0.00  0.00     0.105 A 
HETATM   32  N   UNK N   1      19.870  19.635   1.664  0.00  0.00    -0.374 N 
HETATM   33  C   UNK N   1      20.897  20.354   1.138  0.00  0.00     0.087 A 
ATOM     34  HN  UNK N   1      19.016  19.512   1.121  1.00  0.00     0.164 HD
HETATM   35  C   UNK N   1      22.068  20.546   1.875  0.00  0.00     0.018 A 
HETATM   36  C   UNK N   1      22.174  19.989   3.151  0.00  0.00     0.020 A 
ENDBRANCH  28  30
ENDBRANCH  27  28
ENDBRANCH   6  27
BRANCH   3  37
HETATM   37  O   UNK N   1      21.222  12.323   5.714  0.00  0.00    -0.306 OA
BRANCH  37  38
HETATM   38  C   UNK N   1      20.114  11.664   5.291  0.00  0.00     0.295 C 
HETATM   39  O   UNK N   1      19.131  12.273   4.894  0.00  0.00    -0.259 OA
BRANCH  38  40
HETATM   40  C   UNK N   1      20.127  10.190   5.294  0.00  0.00     0.054 A 
HETATM   41  C   UNK N   1      21.320   9.471   5.433  0.00  0.00     0.105 A 
HETATM   42  N   UNK N   1      21.300   8.110   5.454  0.00  0.00    -0.374 N 
HETATM   43  C   UNK N   1      20.134   7.413   5.369  0.00  0.00     0.087 A 
ATOM     44  HN  UNK N   1      22.180   7.600   5.537  1.00  0.00     0.164 HD
HETATM   45  C   UNK N   1      18.921   8.091   5.241  0.00  0.00     0.018 A 
HETATM   46  C   UNK N   1      18.922   9.484   5.194  0.00  0.00     0.020 A 
ENDBRANCH  38  40
ENDBRANCH  37  38
ENDBRANCH   3  37
BRANCH   5  47
HETATM   47  O   UNK N   1      24.124  16.150   4.871  0.00  0.00    -0.306 OA
BRANCH  47  48
HETATM   48  C   UNK N   1      25.316  16.542   5.387  0.00  0.00     0.295 C 
HETATM   49  O   UNK N   1      25.821  15.939   6.327  0.00  0.00    -0.259 OA
BRANCH  48  50
HETATM   50  C   UNK N   1      25.989  17.735   4.839  0.00  0.00     0.054 A 
HETATM   51  C   UNK N   1      27.317  17.677   4.401  0.00  0.00     0.105 A 
HETATM   52  N   UNK N   1      27.935  18.794   3.931  0.00  0.00    -0.374 N 
HETATM   53  C   UNK N   1      27.293  19.994   3.885  0.00  0.00     0.087 A 
ATOM     54  HN  UNK N   1      28.899  18.731   3.604  1.00  0.00     0.164 HD
HETATM   55  C   UNK N   1      25.970  20.099   4.317  0.00  0.00     0.018 A 
HETATM   56  C   UNK N   1      25.315  18.962   4.793  0.00  0.00     0.020 A 
ENDBRANCH  48  50
ENDBRANCH  47  48
ENDBRANCH   5  47
BRANCH   4  57
HETATM   57  O   UNK N   1      23.504  13.412   4.622  0.00  0.00    -0.306 OA
BRANCH  57  58
HETATM   58  C   UNK N   1      23.961  13.141   3.371  0.00  0.00     0.295 C 
HETATM   59  O   UNK N   1      23.350  12.376   2.641  0.00  0.00    -0.259 OA
BRANCH  58  60
HETATM   60  C   UNK N   1      25.211  13.770   2.894  0.00  0.00     0.054 A 
HETATM   61  C   UNK N   1      25.175  14.830   1.978  0.00  0.00     0.105 A 
HETATM   62  N   UNK N   1      26.332  15.382   1.523  0.00  0.00    -0.374 N 
HETATM   63  C   UNK N   1      27.547  14.920   1.924  0.00  0.00     0.087 A 
ATOM     64  HN  UNK N   1      26.289  16.162   0.865  1.00  0.00     0.164 HD
HETATM   65  C   UNK N   1      27.627  13.862   2.831  0.00  0.00     0.018 A 
HETATM   66  C   UNK N   1      26.453  13.291   3.321  0.00  0.00     0.020 A 
ENDBRANCH  58  60
ENDBRANCH  57  58
ENDBRANCH   4  57
TORSDOF 18
ENDMDL
MODEL 8
REMARK VINA RESULT:      -8.5      2.824      7.944
REMARK  18 active torsions:
REMARK  status: ('A' for Active; 'I' for Inactive)
REMARK    1  A    between atoms: C_1  and  O_11 
REMARK    2  A    between atoms: C_2  and  O_9 
REMARK    3  A    between atoms: C_3  and  O_10 
REMARK    4  A    between atoms: C_4  and  O_12 
REMARK    5  A    between atoms: C_5  and  O_7 
REMARK    6  A    between atoms: C_6  and  O_8 
REMARK    7  A    between atoms: C_20  and  O_7 
REMARK    8  A    between atoms: O_8  and  C_56 
REMARK    9  A    between atoms: C_47  and  O_9 
REMARK   10  A    between atoms: C_38  and  O_10 
REMARK   11  A    between atoms: C_65  and  O_11 
REMARK   12  A    between atoms: C_29  and  O_12 
REMARK   13  A    between atoms: C_16  and  C_20 
REMARK   14  A    between atoms: C_25  and  C_29 
REMARK   15  A    between atoms: C_34  and  C_38 
REMARK   16  A    between atoms: C_43  and  C_47 
REMARK   17  A    between atoms: C_52  and  C_56 
REMARK   18  A    between atoms: C_61  and  C_65 
ROOT
HETATM    1  C   UNK N   1      24.390  15.498   5.813  0.00  0.00     0.196 C 
HETATM    2  C   UNK N   1      25.094  14.127   5.855  0.00  0.00     0.196 C 
HETATM    3  C   UNK N   1      25.856  13.956   4.519  0.00  0.00     0.196 C 
HETATM    4  C   UNK N   1      26.932  15.029   4.220  0.00  0.00     0.196 C 
HETATM    5  C   UNK N   1      26.826  16.157   5.266  0.00  0.00     0.196 C 
HETATM    6  C   UNK N   1      25.378  16.680   5.519  0.00  0.00     0.196 C 
ENDROOT
BRANCH   1   7
HETATM    7  O   UNK N   1      23.418  15.405   4.830  0.00  0.00    -0.306 OA
BRANCH   7   8
HETATM    8  C   UNK N   1      22.075  15.349   5.026  0.00  0.00     0.295 C 
HETATM    9  O   UNK N   1      21.353  15.334   4.040  0.00  0.00    -0.259 OA
BRANCH   8  10
HETATM   10  C   UNK N   1      21.441  15.346   6.369  0.00  0.00     0.054 A 
HETATM   11  C   UNK N   1      21.154  16.568   6.996  0.00  0.00     0.105 A 
HETATM   12  N   UNK N   1      20.622  16.596   8.248  0.00  0.00    -0.374 N 
HETATM   13  C   UNK N   1      20.363  15.449   8.931  0.00  0.00     0.087 A 
ATOM     14  HN  UNK N   1      20.412  17.495   8.682  1.00  0.00     0.164 HD
HETATM   15  C   UNK N   1      20.634  14.210   8.349  0.00  0.00     0.018 A 
HETATM   16  C   UNK N   1      21.174  14.161   7.063  0.00  0.00     0.020 A 
ENDBRANCH   8  10
ENDBRANCH   7   8
ENDBRANCH   1   7
BRANCH   2  17
HETATM   17  O   UNK N   1      24.163  13.128   6.144  0.00  0.00    -0.306 OA
BRANCH  17  18
HETATM   18  C   UNK N   1      24.330  12.034   6.949  0.00  0.00     0.295 C 
HETATM   19  O   UNK N   1      24.658  10.952   6.483  0.00  0.00    -0.259 OA
BRANCH  18  20
HETATM   20  C   UNK N   1      24.082  12.141   8.397  0.00  0.00     0.054 A 
HETATM   21  C   UNK N   1      24.888  12.963   9.196  0.00  0.00     0.105 A 
HETATM   22  N   UNK N   1      24.683  13.032  10.538  0.00  0.00    -0.374 N 
HETATM   23  C   UNK N   1      23.711  12.299  11.145  0.00  0.00     0.087 A 
ATOM     24  HN  UNK N   1      25.269  13.646  11.104  1.00  0.00     0.164 HD
HETATM   25  C   UNK N   1      22.888  11.462  10.387  0.00  0.00     0.018 A 
HETATM   26  C   UNK N   1      23.073  11.387   9.006  0.00  0.00     0.020 A 
ENDBRANCH  18  20
ENDBRANCH  17  18
ENDBRANCH   2  17
BRANCH   6  27
HETATM   27  O   UNK N   1      24.879  17.403   4.455  0.00  0.00    -0.306 OA
BRANCH  27  28
HETATM   28  C   UNK N   1      24.513  18.710   4.525  0.00  0.00     0.295 C 
HETATM   29  O   UNK N   1      25.213  19.470   5.178  0.00  0.00    -0.259 OA
BRANCH  28  30
HETATM   30  C   UNK N   1      23.272  19.241   3.905  0.00  0.00     0.054 A 
HETATM   31  C   UNK N   1      23.355  20.299   2.985  0.00  0.00     0.105 A 
HETATM   32  N   UNK N   1      22.227  20.848   2.459  0.00  0.00    -0.374 N 
HETATM   33  C   UNK N   1      20.993  20.404   2.814  0.00  0.00     0.087 A 
ATOM     34  HN  UNK N   1      22.310  21.608   1.784  1.00  0.00     0.164 HD
HETATM   35  C   UNK N   1      20.861  19.354   3.726  0.00  0.00     0.018 A 
HETATM   36  C   UNK N   1      22.007  18.771   4.270  0.00  0.00     0.020 A 
ENDBRANCH  28  30
ENDBRANCH  27  28
ENDBRANCH   6  27
BRANCH   3  37
HETATM   37  O   UNK N   1      26.124  12.650   4.149  0.00  0.00    -0.306 OA
BRANCH  37  38
HETATM   38  C   UNK N   1      25.635  11.976   3.077  0.00  0.00     0.295 C 
HETATM   39  O   UNK N   1      26.116  10.907   2.732  0.00  0.00    -0.259 OA
BRANCH  38  40
HETATM   40  C   UNK N   1      24.488  12.548   2.348  0.00  0.00     0.054 A 
HETATM   41  C   UNK N   1      23.183  12.442   2.844  0.00  0.00     0.105 A 
HETATM   42  N   UNK N   1      22.145  12.999   2.160  0.00  0.00    -0.374 N 
HETATM   43  C   UNK N   1      22.342  13.689   1.004  0.00  0.00     0.087 A 
ATOM     44  HN  UNK N   1      21.197  12.897   2.524  1.00  0.00     0.164 HD
HETATM   45  C   UNK N   1      23.629  13.828   0.482  0.00  0.00     0.018 A 
HETATM   46  C   UNK N   1      24.702  13.246   1.154  0.00  0.00     0.020 A 
ENDBRANCH  38  40
ENDBRANCH  37  38
ENDBRANCH   3  37
BRANCH   5  47
HETATM   47  O   UNK N   1      27.832  17.105   5.155  0.00  0.00    -0.306 OA
BRANCH  47  48
HETATM   48  C   UNK N   1      28.366  17.855   6.152  0.00  0.00     0.295 C 
HETATM   49  O   UNK N   1      27.985  19.004   6.345  0.00  0.00    -0.259 OA
BRANCH  48  50
HETATM   50  C   UNK N   1      29.448  17.295   6.985  0.00  0.00     0.054 A 
HETATM   51  C   UNK N   1      29.472  17.499   8.369  0.00  0.00     0.105 A 
HETATM   52  N   UNK N   1      30.495  17.006   9.119  0.00  0.00    -0.374 N 
HETATM   53  C   UNK N   1      31.523  16.319   8.551  0.00  0.00     0.087 A 
ATOM     54  HN  UNK N   1      30.490  17.153  10.128  1.00  0.00     0.164 HD
HETATM   55  C   UNK N   1      31.544  16.098   7.173  0.00  0.00     0.018 A 
HETATM   56  C   UNK N   1      30.498  16.586   6.388  0.00  0.00     0.020 A 
ENDBRANCH  48  50
ENDBRANCH  47  48
ENDBRANCH   5  47
BRANCH   4  57
HETATM   57  O   UNK N   1      28.192  14.467   4.231  0.00  0.00    -0.306 OA
BRANCH  57  58
HETATM   58  C   UNK N   1      28.987  14.406   3.130  0.00  0.00     0.295 C 
HETATM   59  O   UNK N   1      28.656  13.735   2.164  0.00  0.00    -0.259 OA
BRANCH  58  60
HETATM   60  C   UNK N   1      30.264  15.149   3.104  0.00  0.00     0.054 A 
HETATM   61  C   UNK N   1      30.295  16.509   2.768  0.00  0.00     0.105 A 
HETATM   62  N   UNK N   1      31.480  17.176   2.719  0.00  0.00    -0.374 N 
HETATM   63  C   UNK N   1      32.660  16.550   2.975  0.00  0.00     0.087 A 
ATOM     64  HN  UNK N   1      31.484  18.169   2.484  1.00  0.00     0.164 HD
HETATM   65  C   UNK N   1      32.675  15.194   3.308  0.00  0.00     0.018 A 
HETATM   66  C   UNK N   1      31.469  14.495   3.378  0.00  0.00     0.020 A 
ENDBRANCH  58  60
ENDBRANCH  57  58
ENDBRANCH   4  57
TORSDOF 18
ENDMDL
MODEL 9
REMARK VINA RESULT:      -8.5      2.702      6.754
REMARK  18 active torsions:
REMARK  status: ('A' for Active; 'I' for Inactive)
REMARK    1  A    between atoms: C_1  and  O_11 
REMARK    2  A    between atoms: C_2  and  O_9 
REMARK    3  A    between atoms: C_3  and  O_10 
REMARK    4  A    between atoms: C_4  and  O_12 
REMARK    5  A    between atoms: C_5  and  O_7 
REMARK    6  A    between atoms: C_6  and  O_8 
REMARK    7  A    between atoms: C_20  and  O_7 
REMARK    8  A    between atoms: O_8  and  C_56 
REMARK    9  A    between atoms: C_47  and  O_9 
REMARK   10  A    between atoms: C_38  and  O_10 
REMARK   11  A    between atoms: C_65  and  O_11 
REMARK   12  A    between atoms: C_29  and  O_12 
REMARK   13  A    between atoms: C_16  and  C_20 
REMARK   14  A    between atoms: C_25  and  C_29 
REMARK   15  A    between atoms: C_34  and  C_38 
REMARK   16  A    between atoms: C_43  and  C_47 
REMARK   17  A    between atoms: C_52  and  C_56 
REMARK   18  A    between atoms: C_61  and  C_65 
ROOT
HETATM    1  C   UNK N   1      22.569  13.850   3.391  0.00  0.00     0.196 C 
HETATM    2  C   UNK N   1      23.208  14.894   4.329  0.00  0.00     0.196 C 
HETATM    3  C   UNK N   1      22.180  15.205   5.444  0.00  0.00     0.196 C 
HETATM    4  C   UNK N   1      21.746  13.996   6.309  0.00  0.00     0.196 C 
HETATM    5  C   UNK N   1      22.306  12.702   5.688  0.00  0.00     0.196 C 
HETATM    6  C   UNK N   1      22.086  12.566   4.150  0.00  0.00     0.196 C 
ENDROOT
BRANCH   1   7
HETATM    7  O   UNK N   1      21.511  14.488   2.764  0.00  0.00    -0.306 OA
BRANCH   7   8
HETATM    8  C   UNK N   1      21.292  14.564   1.426  0.00  0.00     0.295 C 
HETATM    9  O   UNK N   1      22.239  14.843   0.706  0.00  0.00    -0.259 OA
BRANCH   8  10
HETATM   10  C   UNK N   1      19.960  14.368   0.799  0.00  0.00     0.054 A 
HETATM   11  C   UNK N   1      19.258  15.481   0.311  0.00  0.00     0.105 A 
HETATM   12  N   UNK N   1      18.015  15.337  -0.220  0.00  0.00    -0.374 N 
HETATM   13  C   UNK N   1      17.409  14.121  -0.284  0.00  0.00     0.087 A 
ATOM     14  HN  UNK N   1      17.526  16.158  -0.578  1.00  0.00     0.164 HD
HETATM   15  C   UNK N   1      18.067  12.985   0.192  0.00  0.00     0.018 A 
HETATM   16  C   UNK N   1      19.347  13.112   0.735  0.00  0.00     0.020 A 
ENDBRANCH   8  10
ENDBRANCH   7   8
ENDBRANCH   1   7
BRANCH   2  17
HETATM   17  O   UNK N   1      23.636  15.996   3.587  0.00  0.00    -0.306 OA
BRANCH  17  18
HETATM   18  C   UNK N   1      24.923  16.391   3.339  0.00  0.00     0.295 C 
HETATM   19  O   UNK N   1      25.649  15.745   2.596  0.00  0.00    -0.259 OA
BRANCH  18  20
HETATM   20  C   UNK N   1      25.463  17.595   3.995  0.00  0.00     0.054 A 
HETATM   21  C   UNK N   1      26.127  17.495   5.225  0.00  0.00     0.105 A 
HETATM   22  N   UNK N   1      26.592  18.611   5.847  0.00  0.00    -0.374 N 
HETATM   23  C   UNK N   1      26.413  19.848   5.311  0.00  0.00     0.087 A 
ATOM     24  HN  UNK N   1      27.086  18.519   6.736  1.00  0.00     0.164 HD
HETATM   25  C   UNK N   1      25.752  19.993   4.089  0.00  0.00     0.018 A 
HETATM   26  C   UNK N   1      25.279  18.859   3.427  0.00  0.00     0.020 A 
ENDBRANCH  18  20
ENDBRANCH  17  18
ENDBRANCH   2  17
BRANCH   6  27
HETATM   27  O   UNK N   1      20.765  12.343   3.818  0.00  0.00    -0.306 OA
BRANCH  27  28
HETATM   28  C   UNK N   1      20.193  11.112   3.751  0.00  0.00     0.295 C 
HETATM   29  O   UNK N   1      19.484  10.755   4.680  0.00  0.00    -0.259 OA
BRANCH  28  30
HETATM   30  C   UNK N   1      20.443  10.159   2.638  0.00  0.00     0.054 A 
HETATM   31  C   UNK N   1      19.614   9.035   2.489  0.00  0.00     0.105 A 
HETATM   32  N   UNK N   1      19.867   8.112   1.523  0.00  0.00    -0.374 N 
HETATM   33  C   UNK N   1      20.930   8.240   0.686  0.00  0.00     0.087 A 
ATOM     34  HN  UNK N   1      19.247   7.310   1.425  1.00  0.00     0.164 HD
HETATM   35  C   UNK N   1      21.782   9.340   0.797  0.00  0.00     0.018 A 
HETATM   36  C   UNK N   1      21.534  10.304   1.777  0.00  0.00     0.020 A 
ENDBRANCH  28  30
ENDBRANCH  27  28
ENDBRANCH   6  27
BRANCH   3  37
HETATM   37  O   UNK N   1      22.333  16.429   6.071  0.00  0.00    -0.306 OA
BRANCH  37  38
HETATM   38  C   UNK N   1      21.506  17.503   6.005  0.00  0.00     0.295 C 
HETATM   39  O   UNK N   1      21.187  18.115   7.013  0.00  0.00    -0.259 OA
BRANCH  38  40
HETATM   40  C   UNK N   1      21.018  17.936   4.683  0.00  0.00     0.054 A 
HETATM   41  C   UNK N   1      19.886  17.358   4.098  0.00  0.00     0.105 A 
HETATM   42  N   UNK N   1      19.444  17.792   2.885  0.00  0.00    -0.374 N 
HETATM   43  C   UNK N   1      20.066  18.806   2.223  0.00  0.00     0.087 A 
ATOM     44  HN  UNK N   1      18.629  17.348   2.463  1.00  0.00     0.164 HD
HETATM   45  C   UNK N   1      21.191  19.419   2.776  0.00  0.00     0.018 A 
HETATM   46  C   UNK N   1      21.673  18.972   4.006  0.00  0.00     0.020 A 
ENDBRANCH  38  40
ENDBRANCH  37  38
ENDBRANCH   3  37
BRANCH   5  47
HETATM   47  O   UNK N   1      22.074  11.576   6.464  0.00  0.00    -0.306 OA
BRANCH  47  48
HETATM   48  C   UNK N   1      22.910  10.525   6.655  0.00  0.00     0.295 C 
HETATM   49  O   UNK N   1      23.684  10.505   7.606  0.00  0.00    -0.259 OA
BRANCH  48  50
HETATM   50  C   UNK N   1      22.919   9.415   5.683  0.00  0.00     0.054 A 
HETATM   51  C   UNK N   1      23.872   9.360   4.659  0.00  0.00     0.105 A 
HETATM   52  N   UNK N   1      23.845   8.349   3.749  0.00  0.00    -0.374 N 
HETATM   53  C   UNK N   1      22.893   7.376   3.797  0.00  0.00     0.087 A 
ATOM     54  HN  UNK N   1      24.554   8.317   3.017  1.00  0.00     0.164 HD
HETATM   55  C   UNK N   1      21.920   7.396   4.797  0.00  0.00     0.018 A 
HETATM   56  C   UNK N   1      21.937   8.418   5.747  0.00  0.00     0.020 A 
ENDBRANCH  48  50
ENDBRANCH  47  48
ENDBRANCH   5  47
BRANCH   4  57
HETATM   57  O   UNK N   1      22.186  14.149   7.608  0.00  0.00    -0.306 OA
BRANCH  57  58
HETATM   58  C   UNK N   1      21.476  13.725   8.687  0.00  0.00     0.295 C 
HETATM   59  O   UNK N   1      20.261  13.850   8.716  0.00  0.00    -0.259 OA
BRANCH  58  60
HETATM   60  C   UNK N   1      22.179  13.119   9.837  0.00  0.00     0.054 A 
HETATM   61  C   UNK N   1      23.578  13.119   9.903  0.00  0.00     0.105 A 
HETATM   62  N   UNK N   1      24.216  12.532  10.952  0.00  0.00    -0.374 N 
HETATM   63  C   UNK N   1      23.525  11.919  11.951  0.00  0.00     0.087 A 
ATOM     64  HN  UNK N   1      25.236  12.551  10.991  1.00  0.00     0.164 HD
HETATM   65  C   UNK N   1      22.130  11.891  11.921  0.00  0.00     0.018 A 
HETATM   66  C   UNK N   1      21.457  12.499  10.862  0.00  0.00     0.020 A 
ENDBRANCH  58  60
ENDBRANCH  57  58
ENDBRANCH   4  57
TORSDOF 18
ENDMDL
