MODEL 1
REMARK VINA RESULT:      -4.1      0.000      0.000
REMARK  4 active torsions:
REMARK  status: ('A' for Active; 'I' for Inactive)
REMARK    1  A    between atoms: C_3  and  C_1 
REMARK    2  A    between atoms: O_11  and  C_1 
REMARK    3  A    between atoms: C_4  and  C_2 
REMARK    4  A    between atoms: O_11  and  C_2 
ROOT
HETATM    1  O   UNK N   1      34.508  12.966  14.071  0.00  0.00    -0.374 OA
ENDROOT
BRANCH   1   2
HETATM    2  C   UNK N   1      34.857  11.795  13.394  0.00  0.00     0.285 C 
BRANCH   2   3
HETATM    3  C   UNK N   1      33.966  10.633  13.819  0.00  0.00     0.408 C 
HETATM    4  F   UNK N   1      34.739   9.607  14.331  0.00  0.00    -0.169 F 
HETATM    5  F   UNK N   1      33.091  11.070  14.794  0.00  0.00    -0.169 F 
HETATM    6  F   UNK N   1      33.243  10.169  12.736  0.00  0.00    -0.169 F 
ENDBRANCH   2   3
ENDBRANCH   1   2
BRANCH   1   7
HETATM    7  C   UNK N   1      35.629  13.278  14.845  0.00  0.00     0.285 C 
BRANCH   7   8
HETATM    8  C   UNK N   1      35.301  13.183  16.327  0.00  0.00     0.408 C 
HETATM    9  F   UNK N   1      33.948  13.391  16.507  0.00  0.00    -0.169 F 
HETATM   10  F   UNK N   1      35.638  11.934  16.815  0.00  0.00    -0.169 F 
HETATM   11  F   UNK N   1      36.003  14.153  17.020  0.00  0.00    -0.169 F 
ENDBRANCH   7   8
ENDBRANCH   1   7
TORSDOF 4
ENDMDL
MODEL 2
REMARK VINA RESULT:      -4.1      0.033      3.998
REMARK  4 active torsions:
REMARK  status: ('A' for Active; 'I' for Inactive)
REMARK    1  A    between atoms: C_3  and  C_1 
REMARK    2  A    between atoms: O_11  and  C_1 
REMARK    3  A    between atoms: C_4  and  C_2 
REMARK    4  A    between atoms: O_11  and  C_2 
ROOT
HETATM    1  O   UNK N   1      34.513  12.974  14.078  0.00  0.00    -0.374 OA
ENDROOT
BRANCH   1   2
HETATM    2  C   UNK N   1      35.636  13.237  14.867  0.00  0.00     0.285 C 
BRANCH   2   3
HETATM    3  C   UNK N   1      35.286  13.177  16.349  0.00  0.00     0.408 C 
HETATM    4  F   UNK N   1      35.985  14.150  17.041  0.00  0.00    -0.169 F 
HETATM    5  F   UNK N   1      33.932  13.397  16.502  0.00  0.00    -0.169 F 
HETATM    6  F   UNK N   1      35.604  11.931  16.861  0.00  0.00    -0.169 F 
ENDBRANCH   2   3
ENDBRANCH   1   2
BRANCH   1   7
HETATM    7  C   UNK N   1      34.838  11.813  13.371  0.00  0.00     0.285 C 
BRANCH   7   8
HETATM    8  C   UNK N   1      33.963  10.651  13.817  0.00  0.00     0.408 C 
HETATM    9  F   UNK N   1      34.765   9.646  14.320  0.00  0.00    -0.169 F 
HETATM   10  F   UNK N   1      33.081  11.063  14.798  0.00  0.00    -0.169 F 
HETATM   11  F   UNK N   1      33.254  10.164  12.734  0.00  0.00    -0.169 F 
ENDBRANCH   7   8
ENDBRANCH   1   7
TORSDOF 4
ENDMDL
MODEL 3
REMARK VINA RESULT:      -4.0     19.054     19.977
REMARK  4 active torsions:
REMARK  status: ('A' for Active; 'I' for Inactive)
REMARK    1  A    between atoms: C_3  and  C_1 
REMARK    2  A    between atoms: O_11  and  C_1 
REMARK    3  A    between atoms: C_4  and  C_2 
REMARK    4  A    between atoms: O_11  and  C_2 
ROOT
HETATM    1  O   UNK N   1      44.614  24.229   3.274  0.00  0.00    -0.374 OA
ENDROOT
BRANCH   1   2
HETATM    2  C   UNK N   1      43.778  23.113   3.210  0.00  0.00     0.285 C 
BRANCH   2   3
HETATM    3  C   UNK N   1      44.159  22.085   4.269  0.00  0.00     0.408 C 
HETATM    4  F   UNK N   1      43.697  22.488   5.509  0.00  0.00    -0.169 F 
HETATM    5  F   UNK N   1      43.587  20.871   3.945  0.00  0.00    -0.169 F 
HETATM    6  F   UNK N   1      45.534  21.939   4.315  0.00  0.00    -0.169 F 
ENDBRANCH   2   3
ENDBRANCH   1   2
BRANCH   1   7
HETATM    7  C   UNK N   1      45.087  24.396   1.970  0.00  0.00     0.285 C 
BRANCH   7   8
HETATM    8  C   UNK N   1      45.957  25.640   1.869  0.00  0.00     0.408 C 
HETATM    9  F   UNK N   1      45.887  26.140   0.583  0.00  0.00    -0.169 F 
HETATM   10  F   UNK N   1      45.518  26.605   2.756  0.00  0.00    -0.169 F 
HETATM   11  F   UNK N   1      47.269  25.312   2.156  0.00  0.00    -0.169 F 
ENDBRANCH   7   8
ENDBRANCH   1   7
TORSDOF 4
ENDMDL
MODEL 4
REMARK VINA RESULT:      -3.9      1.315      2.031
REMARK  4 active torsions:
REMARK  status: ('A' for Active; 'I' for Inactive)
REMARK    1  A    between atoms: C_3  and  C_1 
REMARK    2  A    between atoms: O_11  and  C_1 
REMARK    3  A    between atoms: C_4  and  C_2 
REMARK    4  A    between atoms: O_11  and  C_2 
ROOT
HETATM    1  O   UNK N   1      34.576  13.038  14.197  0.00  0.00    -0.374 OA
ENDROOT
BRANCH   1   2
HETATM    2  C   UNK N   1      34.670  11.907  13.384  0.00  0.00     0.285 C 
BRANCH   2   3
HETATM    3  C   UNK N   1      34.276  10.650  14.151  0.00  0.00     0.408 C 
HETATM    4  F   UNK N   1      34.239   9.565  13.295  0.00  0.00    -0.169 F 
HETATM    5  F   UNK N   1      35.209  10.415  15.140  0.00  0.00    -0.169 F 
HETATM    6  F   UNK N   1      33.032  10.820  14.733  0.00  0.00    -0.169 F 
ENDBRANCH   2   3
ENDBRANCH   1   2
BRANCH   1   7
HETATM    7  C   UNK N   1      35.797  13.698  14.033  0.00  0.00     0.285 C 
BRANCH   7   8
HETATM    8  C   UNK N   1      36.702  13.458  15.232  0.00  0.00     0.408 C 
HETATM    9  F   UNK N   1      37.587  12.440  14.936  0.00  0.00    -0.169 F 
HETATM   10  F   UNK N   1      37.413  14.605  15.533  0.00  0.00    -0.169 F 
HETATM   11  F   UNK N   1      35.938  13.089  16.323  0.00  0.00    -0.169 F 
ENDBRANCH   7   8
ENDBRANCH   1   7
TORSDOF 4
ENDMDL
MODEL 5
REMARK VINA RESULT:      -3.8     25.381     26.558
REMARK  4 active torsions:
REMARK  status: ('A' for Active; 'I' for Inactive)
REMARK    1  A    between atoms: C_3  and  C_1 
REMARK    2  A    between atoms: O_11  and  C_1 
REMARK    3  A    between atoms: C_4  and  C_2 
REMARK    4  A    between atoms: O_11  and  C_2 
ROOT
HETATM    1  O   UNK N   1      25.144  25.048  -5.512  0.00  0.00    -0.374 OA
ENDROOT
BRANCH   1   2
HETATM    2  C   UNK N   1      25.968  26.043  -4.980  0.00  0.00     0.285 C 
BRANCH   2   3
HETATM    3  C   UNK N   1      25.317  27.415  -5.110  0.00  0.00     0.408 C 
HETATM    4  F   UNK N   1      25.136  27.974  -3.857  0.00  0.00    -0.169 F 
HETATM    5  F   UNK N   1      26.140  28.235  -5.856  0.00  0.00    -0.169 F 
HETATM    6  F   UNK N   1      24.093  27.302  -5.744  0.00  0.00    -0.169 F 
ENDBRANCH   2   3
ENDBRANCH   1   2
BRANCH   1   7
HETATM    7  C   UNK N   1      25.843  23.856  -5.300  0.00  0.00     0.285 C 
BRANCH   7   8
HETATM    8  C   UNK N   1      25.821  22.991  -6.551  0.00  0.00     0.408 C 
HETATM    9  F   UNK N   1      25.440  23.763  -7.630  0.00  0.00    -0.169 F 
HETATM   10  F   UNK N   1      27.076  22.463  -6.791  0.00  0.00    -0.169 F 
HETATM   11  F   UNK N   1      24.912  21.962  -6.387  0.00  0.00    -0.169 F 
ENDBRANCH   7   8
ENDBRANCH   1   7
TORSDOF 4
ENDMDL
MODEL 6
REMARK VINA RESULT:      -3.8      9.173      9.960
REMARK  4 active torsions:
REMARK  status: ('A' for Active; 'I' for Inactive)
REMARK    1  A    between atoms: C_3  and  C_1 
REMARK    2  A    between atoms: O_11  and  C_1 
REMARK    3  A    between atoms: C_4  and  C_2 
REMARK    4  A    between atoms: O_11  and  C_2 
ROOT
HETATM    1  O   UNK N   1      31.618  18.215   8.583  0.00  0.00    -0.374 OA
ENDROOT
BRANCH   1   2
HETATM    2  C   UNK N   1      30.442  17.470   8.691  0.00  0.00     0.285 C 
BRANCH   2   3
HETATM    3  C   UNK N   1      29.324  18.303   9.308  0.00  0.00     0.408 C 
HETATM    4  F   UNK N   1      29.828  19.091  10.326  0.00  0.00    -0.169 F 
HETATM    5  F   UNK N   1      28.778  19.115   8.335  0.00  0.00    -0.169 F 
HETATM    6  F   UNK N   1      28.338  17.474   9.813  0.00  0.00    -0.169 F 
ENDBRANCH   2   3
ENDBRANCH   1   2
BRANCH   1   7
HETATM    7  C   UNK N   1      32.637  17.262   8.491  0.00  0.00     0.285 C 
BRANCH   7   8
HETATM    8  C   UNK N   1      33.804  17.801   7.679  0.00  0.00     0.408 C 
HETATM    9  F   UNK N   1      33.390  18.023   6.380  0.00  0.00    -0.169 F 
HETATM   10  F   UNK N   1      34.258  18.989   8.221  0.00  0.00    -0.169 F 
HETATM   11  F   UNK N   1      34.831  16.875   7.673  0.00  0.00    -0.169 F 
ENDBRANCH   7   8
ENDBRANCH   1   7
TORSDOF 4
ENDMDL
MODEL 7
REMARK VINA RESULT:      -3.8     11.695     12.423
REMARK  4 active torsions:
REMARK  status: ('A' for Active; 'I' for Inactive)
REMARK    1  A    between atoms: C_3  and  C_1 
REMARK    2  A    between atoms: O_11  and  C_1 
REMARK    3  A    between atoms: C_4  and  C_2 
REMARK    4  A    between atoms: O_11  and  C_2 
ROOT
HETATM    1  O   UNK N   1      28.570  19.391   7.745  0.00  0.00    -0.374 OA
ENDROOT
BRANCH   1   2
HETATM    2  C   UNK N   1      27.556  19.407   6.784  0.00  0.00     0.285 C 
BRANCH   2   3
HETATM    3  C   UNK N   1      27.018  20.819   6.583  0.00  0.00     0.408 C 
HETATM    4  F   UNK N   1      26.201  20.860   5.468  0.00  0.00    -0.169 F 
HETATM    5  F   UNK N   1      26.285  21.184   7.695  0.00  0.00    -0.169 F 
HETATM    6  F   UNK N   1      28.066  21.707   6.419  0.00  0.00    -0.169 F 
ENDBRANCH   2   3
ENDBRANCH   1   2
BRANCH   1   7
HETATM    7  C   UNK N   1      28.168  18.427   8.673  0.00  0.00     0.285 C 
BRANCH   7   8
HETATM    8  C   UNK N   1      29.337  18.005   9.550  0.00  0.00     0.408 C 
HETATM    9  F   UNK N   1      30.372  17.568   8.747  0.00  0.00    -0.169 F 
HETATM   10  F   UNK N   1      29.773  19.072  10.314  0.00  0.00    -0.169 F 
HETATM   11  F   UNK N   1      28.943  16.973  10.382  0.00  0.00    -0.169 F 
ENDBRANCH   7   8
ENDBRANCH   1   7
TORSDOF 4
ENDMDL
MODEL 8
REMARK VINA RESULT:      -3.7      1.838      2.351
REMARK  4 active torsions:
REMARK  status: ('A' for Active; 'I' for Inactive)
REMARK    1  A    between atoms: C_3  and  C_1 
REMARK    2  A    between atoms: O_11  and  C_1 
REMARK    3  A    between atoms: C_4  and  C_2 
REMARK    4  A    between atoms: O_11  and  C_2 
ROOT
HETATM    1  O   UNK N   1      34.437  13.153  15.333  0.00  0.00    -0.374 OA
ENDROOT
BRANCH   1   2
HETATM    2  C   UNK N   1      34.295  11.765  15.283  0.00  0.00     0.285 C 
BRANCH   2   3
HETATM    3  C   UNK N   1      34.412  11.256  13.851  0.00  0.00     0.408 C 
HETATM    4  F   UNK N   1      34.439  12.322  12.971  0.00  0.00    -0.169 F 
HETATM    5  F   UNK N   1      35.583  10.535  13.724  0.00  0.00    -0.169 F 
HETATM    6  F   UNK N   1      33.340  10.436  13.550  0.00  0.00    -0.169 F 
ENDBRANCH   2   3
ENDBRANCH   1   2
BRANCH   1   7
HETATM    7  C   UNK N   1      35.589  13.367  16.096  0.00  0.00     0.285 C 
BRANCH   7   8
HETATM    8  C   UNK N   1      36.747  13.797  15.209  0.00  0.00     0.408 C 
HETATM    9  F   UNK N   1      37.500  14.745  15.874  0.00  0.00    -0.169 F 
HETATM   10  F   UNK N   1      37.549  12.712  14.906  0.00  0.00    -0.169 F 
HETATM   11  F   UNK N   1      36.256  14.348  14.040  0.00  0.00    -0.169 F 
ENDBRANCH   7   8
ENDBRANCH   1   7
TORSDOF 4
ENDMDL
MODEL 9
REMARK VINA RESULT:      -3.7     24.600     25.605
REMARK  4 active torsions:
REMARK  status: ('A' for Active; 'I' for Inactive)
REMARK    1  A    between atoms: C_3  and  C_1 
REMARK    2  A    between atoms: O_11  and  C_1 
REMARK    3  A    between atoms: C_4  and  C_2 
REMARK    4  A    between atoms: O_11  and  C_2 
ROOT
HETATM    1  O   UNK N   1      27.520  26.329  -4.155  0.00  0.00    -0.374 OA
ENDROOT
BRANCH   1   2
HETATM    2  C   UNK N   1      27.344  25.432  -5.211  0.00  0.00     0.285 C 
BRANCH   2   3
HETATM    3  C   UNK N   1      26.264  24.407  -4.882  0.00  0.00     0.408 C 
HETATM    4  F   UNK N   1      25.018  24.915  -5.198  0.00  0.00    -0.169 F 
HETATM    5  F   UNK N   1      26.488  23.264  -5.622  0.00  0.00    -0.169 F 
HETATM    6  F   UNK N   1      26.305  24.091  -3.536  0.00  0.00    -0.169 F 
ENDBRANCH   2   3
ENDBRANCH   1   2
BRANCH   1   7
HETATM    7  C   UNK N   1      27.141  27.570  -4.675  0.00  0.00     0.285 C 
BRANCH   7   8
HETATM    8  C   UNK N   1      25.819  28.023  -4.073  0.00  0.00     0.408 C 
HETATM    9  F   UNK N   1      25.893  29.369  -3.775  0.00  0.00    -0.169 F 
HETATM   10  F   UNK N   1      24.787  27.812  -4.969  0.00  0.00    -0.169 F 
HETATM   11  F   UNK N   1      25.573  27.316  -2.911  0.00  0.00    -0.169 F 
ENDBRANCH   7   8
ENDBRANCH   1   7
TORSDOF 4
ENDMDL
