REMARK  3 active torsions:
REMARK  status: ('A' for Active; 'I' for Inactive)
REMARK    1  A    between atoms: C_8  and  C_7 
REMARK    2  A    between atoms: C_9  and  C_7 
REMARK    3  A    between atoms: N_10  and  C_8 
ROOT
HETATM    1  C   UNK N   1       0.275   1.932  -0.173  0.00  0.00     0.029 C 
ENDROOT
BRANCH   1   2
HETATM    2  C   UNK N   1       1.194   3.089   0.213  0.00  0.00     0.072 C 
HETATM    3  C   UNK N   1       2.592   2.856  -0.344  0.00  0.00     0.031 C 
BRANCH   2   4
HETATM    4  N   UNK N   1       0.650   4.327  -0.337  0.00  0.00    -0.422 N 
HETATM    5  C   UNK N   1       1.326   5.449   0.295  0.00  0.00     0.140 C 
HETATM    6  H   UNK N   1      -0.081   4.394  -1.046  0.00  0.00     0.153 HD
ENDBRANCH   2   4
ENDBRANCH   1   2
BRANCH   1   7
HETATM    7  C   UNK N   1       0.522   0.664   0.645  0.00  0.00    -0.013 C 
HETATM    8  C   UNK N   1       1.851   0.008   0.300  0.00  0.00     0.005 C 
HETATM    9  C   UNK N   1       1.526  -1.104  -0.667  0.00  0.00     0.000 C 
HETATM   10  C   UNK N   1       0.164  -1.588  -0.233  0.00  0.00     0.000 C 
HETATM   11  C   UNK N   1      -0.549  -0.360   0.302  0.00  0.00     0.005 C 
ENDBRANCH   1   7
TORSDOF 3
