REMARK  3 active torsions:
REMARK  status: ('A' for Active; 'I' for Inactive)
REMARK    1  A    between atoms: C_19  and  C_12 
REMARK    2  A    between atoms: O_22  and  C_12 
REMARK    3  A    between atoms: C_18  and  C_19 
ROOT
HETATM    1  C   UNK N   1       5.923   0.378   1.562  0.00  0.00     0.016 C 
HETATM    2  C   UNK N   1       1.720   0.788   1.954  0.00  0.00     0.016 C 
HETATM    3  C   UNK N   1       5.408  -1.980  -0.393  0.00  0.00     0.006 C 
HETATM    4  C   UNK N   1       3.979  -1.661  -0.834  0.00  0.00     0.006 C 
HETATM    5  C   UNK N   1       0.969  -1.169  -0.136  0.00  0.00     0.006 C 
HETATM    6  C   UNK N   1      -0.355  -0.392  -0.077  0.00  0.00     0.013 C 
HETATM    7  C   UNK N   1       8.233   1.437  -0.121  0.00  0.00     0.079 C 
HETATM    8  C   UNK N   1       3.828   2.076   0.306  0.00  0.00     0.006 C 
HETATM    9  C   UNK N   1       6.747   1.645  -0.437  0.00  0.00     0.017 C 
HETATM   10  C   UNK N   1       2.320   2.324   0.080  0.00  0.00     0.011 C 
HETATM   11  C   UNK N   1       7.753  -1.166  -0.211  0.00  0.00     0.083 C 
HETATM   12  C   UNK N   1       6.339  -0.793  -0.660  0.00  0.00     0.001 C 
HETATM   13  C   UNK N   1       8.699   0.001  -0.080  0.00  0.00     0.127 C 
HETATM   14  C   UNK N   1       3.468  -0.440  -0.069  0.00  0.00    -0.005 C 
HETATM   15  C   UNK N   1       2.004  -0.096  -0.412  0.00  0.00    -0.001 C 
HETATM   16  C   UNK N   1       4.365   0.793  -0.389  0.00  0.00    -0.002 C 
HETATM   17  C   UNK N   1      -0.004   1.080   0.206  0.00  0.00     0.066 C 
HETATM   18  C   UNK N   1       5.837   0.502   0.032  0.00  0.00    -0.036 C 
HETATM   19  C   UNK N   1       1.519   1.070   0.451  0.00  0.00    -0.030 C 
HETATM   20  O   UNK N   1       9.874  -0.223   0.149  0.00  0.00    -0.298 OA
ENDROOT
BRANCH  17  21
HETATM   21  C   UNK N   1      -0.488   1.972  -0.915  0.00  0.00     0.154 C 
HETATM   22  O   UNK N   1      -0.077   1.828  -2.055  0.00  0.00    -0.295 OA
BRANCH  21  23
HETATM   23  C   UNK N   1      -1.488   3.051  -0.623  0.00  0.00     0.242 C 
BRANCH  23  24
HETATM   24  O   UNK N   1      -2.655   2.492  -0.097  0.00  0.00    -0.394 OA
HETATM   25  H   UNK N   1      -3.397   3.000   0.269  0.00  0.00     0.209 HD
ENDBRANCH  23  24
ENDBRANCH  21  23
ENDBRANCH  17  21
TORSDOF 3
