MODEL 1
REMARK VINA RESULT:      -6.9      0.000      0.000
REMARK  10 active torsions:
REMARK  status: ('A' for Active; 'I' for Inactive)
REMARK       I    between atoms: N_6  and  C_19 
REMARK       I    between atoms: N_7  and  C_18 
REMARK    1  A    between atoms: N_7  and  C_22 
REMARK    2  A    between atoms: C_20  and  N_8 
REMARK       I    between atoms: N_8  and  C_32 
REMARK       I    between atoms: N_9  and  C_32 
REMARK    3  A    between atoms: N_9  and  C_34 
REMARK       I    between atoms: N_10  and  C_33 
REMARK    4  A    between atoms: C_14  and  C_18 
REMARK    5  A    between atoms: C_19  and  C_20 
REMARK    6  A    between atoms: C_20  and  C_21 
REMARK    7  A    between atoms: C_22  and  C_23 
REMARK    8  A    between atoms: C_22  and  C_28 
REMARK    9  A    between atoms: C_23  and  C_24 
REMARK   10  A    between atoms: C_28  and  C_33 
ROOT
HETATM    1  O   UNK N   1      24.004  15.036   4.710  0.00  0.00    -0.271 OA
HETATM    2  N   UNK N   1      24.834  16.909   3.839  0.00  0.00    -0.336 N 
HETATM    3  C   UNK N   1      25.317  18.809   5.173  0.00  0.00     0.032 A 
HETATM    4  C   UNK N   1      25.852  19.899   4.265  0.00  0.00    -0.036 A 
HETATM    5  C   UNK N   1      26.445  18.516   4.118  0.00  0.00     0.019 A 
HETATM    6  C   UNK N   1      24.296  17.704   4.894  0.00  0.00     0.184 C 
HETATM    7  C   UNK N   1      25.773  17.629   3.066  0.00  0.00     0.132 C 
HETATM    8  C   UNK N   1      26.854  20.858   4.884  0.00  0.00     0.016 C 
HETATM    9  C   UNK N   1      25.004  20.402   3.108  0.00  0.00     0.016 C 
HETATM   10  C   UNK N   1      24.762  15.545   3.892  0.00  0.00     0.244 C 
ENDROOT
BRANCH   6  11
HETATM   11  C   UNK N   1      22.859  18.104   4.757  0.00  0.00     0.241 C 
HETATM   12  O   UNK N   1      22.186  18.373   5.742  0.00  0.00    -0.271 OA
HETATM   13  N   UNK N   1      22.330  18.170   3.506  0.00  0.00    -0.347 N 
HETATM   14  H   UNK N   1      22.922  17.951   2.751  0.00  0.00     0.163 HD
BRANCH  13  15
HETATM   15  C   UNK N   1      20.961  18.539   3.195  0.00  0.00     0.165 C 
BRANCH  15  16
HETATM   16  C   UNK N   1      20.363  17.588   2.164  0.00  0.00     0.038 C 
BRANCH  16  17
HETATM   17  C   UNK N   1      20.968  16.202   2.297  0.00  0.00    -0.012 A 
HETATM   18  C   UNK N   1      20.074  15.350   3.178  0.00  0.00     0.005 A 
HETATM   19  C   UNK N   1      19.638  14.548   1.968  0.00  0.00     0.001 A 
HETATM   20  C   UNK N   1      20.562  15.371   1.097  0.00  0.00     0.005 A 
ENDBRANCH  16  17
ENDBRANCH  15  16
BRANCH  15  21
HETATM   21  C   UNK N   1      20.737  20.000   2.843  0.00  0.00     0.238 C 
HETATM   22  O   UNK N   1      20.270  20.724   3.710  0.00  0.00    -0.285 OA
BRANCH  21  23
HETATM   23  C   UNK N   1      21.085  20.615   1.530  0.00  0.00     0.287 C 
HETATM   24  O   UNK N   1      22.217  20.561   1.082  0.00  0.00    -0.265 OA
HETATM   25  N   UNK N   1      20.134  21.260   0.825  0.00  0.00    -0.363 N 
HETATM   26  H   UNK N   1      20.198  21.547  -0.115  0.00  0.00     0.159 HD
HETATM   27  H   UNK N   1      19.294  21.465   1.296  0.00  0.00     0.159 HD
ENDBRANCH  21  23
ENDBRANCH  15  21
ENDBRANCH  13  15
ENDBRANCH   6  11
BRANCH  10  28
HETATM   28  C   UNK N   1      25.549  14.608   2.958  0.00  0.00     0.185 C 
BRANCH  28  29
HETATM   29  N   UNK N   1      24.828  13.350   2.918  0.00  0.00    -0.329 N 
HETATM   30  C   UNK N   1      24.023  12.979   1.906  0.00  0.00     0.317 C 
HETATM   31  O   UNK N   1      23.768  13.755   1.003  0.00  0.00    -0.247 OA
HETATM   32  N   UNK N   1      23.598  11.688   1.864  0.00  0.00    -0.335 N 
HETATM   33  H   UNK N   1      23.786  11.112   2.640  0.00  0.00     0.165 HD
HETATM   34  H   UNK N   1      24.933  12.731   3.678  0.00  0.00     0.165 HD
BRANCH  32  35
HETATM   35  C   UNK N   1      22.884  11.116   0.744  0.00  0.00     0.023 C 
HETATM   36  C   UNK N   1      22.928   9.607   0.861  0.00  0.00     0.037 C 
HETATM   37  C   UNK N   1      21.437  11.568   0.742  0.00  0.00     0.037 C 
HETATM   38  C   UNK N   1      23.558  11.510  -0.561  0.00  0.00     0.037 C 
ENDBRANCH  32  35
ENDBRANCH  28  29
BRANCH  28  39
HETATM   39  C   UNK N   1      27.054  14.212   3.221  0.00  0.00    -0.022 C 
HETATM   40  C   UNK N   1      28.005  14.886   2.240  0.00  0.00     0.017 C 
HETATM   41  C   UNK N   1      27.408  14.694   4.617  0.00  0.00     0.017 C 
HETATM   42  C   UNK N   1      27.419  12.750   3.224  0.00  0.00     0.017 C 
ENDBRANCH  28  39
ENDBRANCH  10  28
TORSDOF 10
ENDMDL
MODEL 2
REMARK VINA RESULT:      -6.8      3.912      5.290
REMARK  10 active torsions:
REMARK  status: ('A' for Active; 'I' for Inactive)
REMARK       I    between atoms: N_6  and  C_19 
REMARK       I    between atoms: N_7  and  C_18 
REMARK    1  A    between atoms: N_7  and  C_22 
REMARK    2  A    between atoms: C_20  and  N_8 
REMARK       I    between atoms: N_8  and  C_32 
REMARK       I    between atoms: N_9  and  C_32 
REMARK    3  A    between atoms: N_9  and  C_34 
REMARK       I    between atoms: N_10  and  C_33 
REMARK    4  A    between atoms: C_14  and  C_18 
REMARK    5  A    between atoms: C_19  and  C_20 
REMARK    6  A    between atoms: C_20  and  C_21 
REMARK    7  A    between atoms: C_22  and  C_23 
REMARK    8  A    between atoms: C_22  and  C_28 
REMARK    9  A    between atoms: C_23  and  C_24 
REMARK   10  A    between atoms: C_28  and  C_33 
ROOT
HETATM    1  O   UNK N   1      24.323  16.048   6.113  0.00  0.00    -0.271 OA
HETATM    2  N   UNK N   1      22.696  16.508   4.665  0.00  0.00    -0.336 N 
HETATM    3  C   UNK N   1      22.065  18.735   4.149  0.00  0.00     0.032 A 
HETATM    4  C   UNK N   1      20.929  18.683   3.146  0.00  0.00    -0.036 A 
HETATM    5  C   UNK N   1      22.142  17.823   2.870  0.00  0.00     0.019 A 
HETATM    6  C   UNK N   1      22.432  17.769   5.277  0.00  0.00     0.184 C 
HETATM    7  C   UNK N   1      22.060  16.391   3.408  0.00  0.00     0.132 C 
HETATM    8  C   UNK N   1      20.846  19.838   2.163  0.00  0.00     0.016 C 
HETATM    9  C   UNK N   1      19.643  17.951   3.498  0.00  0.00     0.016 C 
HETATM   10  C   UNK N   1      23.766  15.756   5.061  0.00  0.00     0.244 C 
ENDROOT
BRANCH   6  11
HETATM   11  C   UNK N   1      21.548  17.745   6.487  0.00  0.00     0.241 C 
HETATM   12  O   UNK N   1      21.047  18.775   6.917  0.00  0.00    -0.271 OA
HETATM   13  N   UNK N   1      21.310  16.547   7.083  0.00  0.00    -0.347 N 
HETATM   14  H   UNK N   1      21.733  15.751   6.686  0.00  0.00     0.163 HD
BRANCH  13  15
HETATM   15  C   UNK N   1      20.480  16.346   8.257  0.00  0.00     0.165 C 
BRANCH  15  16
HETATM   16  C   UNK N   1      20.868  15.062   8.982  0.00  0.00     0.038 C 
BRANCH  16  17
HETATM   17  C   UNK N   1      21.709  14.171   8.085  0.00  0.00    -0.012 A 
HETATM   18  C   UNK N   1      22.919  13.685   8.860  0.00  0.00     0.005 A 
HETATM   19  C   UNK N   1      22.326  12.291   8.922  0.00  0.00     0.001 A 
HETATM   20  C   UNK N   1      21.139  12.767   8.113  0.00  0.00     0.005 A 
ENDBRANCH  16  17
ENDBRANCH  15  16
BRANCH  15  21
HETATM   21  C   UNK N   1      18.982  16.463   8.033  0.00  0.00     0.238 C 
HETATM   22  O   UNK N   1      18.534  16.032   6.981  0.00  0.00    -0.285 OA
BRANCH  21  23
HETATM   23  C   UNK N   1      18.023  17.030   9.024  0.00  0.00     0.287 C 
HETATM   24  O   UNK N   1      16.965  16.479   9.272  0.00  0.00    -0.265 OA
HETATM   25  N   UNK N   1      18.319  18.186   9.650  0.00  0.00    -0.363 N 
HETATM   26  H   UNK N   1      17.857  18.559  10.436  0.00  0.00     0.159 HD
HETATM   27  H   UNK N   1      19.070  18.708   9.287  0.00  0.00     0.159 HD
ENDBRANCH  21  23
ENDBRANCH  15  21
ENDBRANCH  13  15
ENDBRANCH   6  11
BRANCH  10  28
HETATM   28  C   UNK N   1      24.291  14.536   4.282  0.00  0.00     0.185 C 
BRANCH  28  29
HETATM   29  N   UNK N   1      24.425  13.452   5.238  0.00  0.00    -0.329 N 
HETATM   30  C   UNK N   1      23.716  12.310   5.180  0.00  0.00     0.317 C 
HETATM   31  O   UNK N   1      22.822  12.178   4.364  0.00  0.00    -0.247 OA
HETATM   32  N   UNK N   1      24.098  11.277   5.978  0.00  0.00    -0.335 N 
HETATM   33  H   UNK N   1      24.790  11.446   6.657  0.00  0.00     0.165 HD
HETATM   34  H   UNK N   1      25.073  13.559   5.973  0.00  0.00     0.165 HD
BRANCH  32  35
HETATM   35  C   UNK N   1      23.541   9.945   5.885  0.00  0.00     0.023 C 
HETATM   36  C   UNK N   1      23.941   9.165   7.119  0.00  0.00     0.037 C 
HETATM   37  C   UNK N   1      22.028  10.000   5.806  0.00  0.00     0.037 C 
HETATM   38  C   UNK N   1      24.104   9.229   4.668  0.00  0.00     0.037 C 
ENDBRANCH  32  35
ENDBRANCH  28  29
BRANCH  28  39
HETATM   39  C   UNK N   1      25.656  14.555   3.488  0.00  0.00    -0.022 C 
HETATM   40  C   UNK N   1      25.644  13.598   2.304  0.00  0.00     0.017 C 
HETATM   41  C   UNK N   1      25.839  15.962   2.946  0.00  0.00     0.017 C 
HETATM   42  C   UNK N   1      26.927  14.274   4.246  0.00  0.00     0.017 C 
ENDBRANCH  28  39
ENDBRANCH  10  28
TORSDOF 10
ENDMDL
MODEL 3
REMARK VINA RESULT:      -6.7      3.397      7.973
REMARK  10 active torsions:
REMARK  status: ('A' for Active; 'I' for Inactive)
REMARK       I    between atoms: N_6  and  C_19 
REMARK       I    between atoms: N_7  and  C_18 
REMARK    1  A    between atoms: N_7  and  C_22 
REMARK    2  A    between atoms: C_20  and  N_8 
REMARK       I    between atoms: N_8  and  C_32 
REMARK       I    between atoms: N_9  and  C_32 
REMARK    3  A    between atoms: N_9  and  C_34 
REMARK       I    between atoms: N_10  and  C_33 
REMARK    4  A    between atoms: C_14  and  C_18 
REMARK    5  A    between atoms: C_19  and  C_20 
REMARK    6  A    between atoms: C_20  and  C_21 
REMARK    7  A    between atoms: C_22  and  C_23 
REMARK    8  A    between atoms: C_22  and  C_28 
REMARK    9  A    between atoms: C_23  and  C_24 
REMARK   10  A    between atoms: C_28  and  C_33 
ROOT
HETATM    1  O   UNK N   1      21.069  17.177   5.386  0.00  0.00    -0.271 OA
HETATM    2  N   UNK N   1      21.369  15.777   3.681  0.00  0.00    -0.336 N 
HETATM    3  C   UNK N   1      19.728  14.179   3.064  0.00  0.00     0.032 A 
HETATM    4  C   UNK N   1      20.258  13.391   1.882  0.00  0.00    -0.036 A 
HETATM    5  C   UNK N   1      20.361  14.899   1.818  0.00  0.00     0.019 A 
HETATM    6  C   UNK N   1      20.472  14.818   4.239  0.00  0.00     0.184 C 
HETATM    7  C   UNK N   1      21.680  15.483   2.333  0.00  0.00     0.132 C 
HETATM    8  C   UNK N   1      19.222  12.875   0.900  0.00  0.00     0.016 C 
HETATM    9  C   UNK N   1      21.565  12.626   2.009  0.00  0.00     0.016 C 
HETATM   10  C   UNK N   1      21.510  17.010   4.254  0.00  0.00     0.244 C 
ENDROOT
BRANCH   6  11
HETATM   11  C   UNK N   1      21.043  13.904   5.279  0.00  0.00     0.241 C 
HETATM   12  O   UNK N   1      20.531  12.816   5.507  0.00  0.00    -0.271 OA
HETATM   13  N   UNK N   1      22.151  14.313   5.953  0.00  0.00    -0.347 N 
HETATM   14  H   UNK N   1      22.524  15.194   5.719  0.00  0.00     0.163 HD
BRANCH  13  15
HETATM   15  C   UNK N   1      22.830  13.554   6.986  0.00  0.00     0.165 C 
BRANCH  15  16
HETATM   16  C   UNK N   1      22.256  13.876   8.362  0.00  0.00     0.038 C 
BRANCH  16  17
HETATM   17  C   UNK N   1      21.585  12.655   8.964  0.00  0.00    -0.012 A 
HETATM   18  C   UNK N   1      22.606  11.869   9.765  0.00  0.00     0.005 A 
HETATM   19  C   UNK N   1      21.939  12.308  11.054  0.00  0.00     0.001 A 
HETATM   20  C   UNK N   1      20.897  13.057  10.253  0.00  0.00     0.005 A 
ENDBRANCH  16  17
ENDBRANCH  15  16
BRANCH  15  21
HETATM   21  C   UNK N   1      24.348  13.612   6.957  0.00  0.00     0.238 C 
HETATM   22  O   UNK N   1      24.958  12.613   7.308  0.00  0.00    -0.285 OA
BRANCH  21  23
HETATM   23  C   UNK N   1      25.138  14.788   6.493  0.00  0.00     0.287 C 
HETATM   24  O   UNK N   1      25.101  15.163   5.334  0.00  0.00    -0.265 OA
HETATM   25  N   UNK N   1      25.927  15.447   7.366  0.00  0.00    -0.363 N 
HETATM   26  H   UNK N   1      26.350  16.324   7.224  0.00  0.00     0.159 HD
HETATM   27  H   UNK N   1      26.096  15.007   8.231  0.00  0.00     0.159 HD
ENDBRANCH  21  23
ENDBRANCH  15  21
ENDBRANCH  13  15
ENDBRANCH   6  11
BRANCH  10  28
HETATM   28  C   UNK N   1      22.226  18.193   3.577  0.00  0.00     0.185 C 
BRANCH  28  29
HETATM   29  N   UNK N   1      23.131  18.756   4.561  0.00  0.00    -0.329 N 
HETATM   30  C   UNK N   1      24.472  18.663   4.486  0.00  0.00     0.317 C 
HETATM   31  O   UNK N   1      24.997  17.984   3.622  0.00  0.00    -0.247 OA
HETATM   32  N   UNK N   1      25.216  19.431   5.325  0.00  0.00    -0.335 N 
HETATM   33  H   UNK N   1      24.750  19.924   6.039  0.00  0.00     0.165 HD
HETATM   34  H   UNK N   1      22.742  19.234   5.330  0.00  0.00     0.165 HD
BRANCH  32  35
HETATM   35  C   UNK N   1      26.653  19.563   5.228  0.00  0.00     0.023 C 
HETATM   36  C   UNK N   1      27.114  20.597   6.233  0.00  0.00     0.037 C 
HETATM   37  C   UNK N   1      27.335  18.243   5.531  0.00  0.00     0.037 C 
HETATM   38  C   UNK N   1      27.039  20.046   3.839  0.00  0.00     0.037 C 
ENDBRANCH  32  35
ENDBRANCH  28  29
BRANCH  28  39
HETATM   39  C   UNK N   1      21.448  19.429   2.978  0.00  0.00    -0.022 C 
HETATM   40  C   UNK N   1      22.392  20.518   2.489  0.00  0.00     0.017 C 
HETATM   41  C   UNK N   1      20.658  18.926   1.782  0.00  0.00     0.017 C 
HETATM   42  C   UNK N   1      20.423  20.115   3.843  0.00  0.00     0.017 C 
ENDBRANCH  28  39
ENDBRANCH  10  28
TORSDOF 10
ENDMDL
MODEL 4
REMARK VINA RESULT:      -6.7      3.681      8.701
REMARK  10 active torsions:
REMARK  status: ('A' for Active; 'I' for Inactive)
REMARK       I    between atoms: N_6  and  C_19 
REMARK       I    between atoms: N_7  and  C_18 
REMARK    1  A    between atoms: N_7  and  C_22 
REMARK    2  A    between atoms: C_20  and  N_8 
REMARK       I    between atoms: N_8  and  C_32 
REMARK       I    between atoms: N_9  and  C_32 
REMARK    3  A    between atoms: N_9  and  C_34 
REMARK       I    between atoms: N_10  and  C_33 
REMARK    4  A    between atoms: C_14  and  C_18 
REMARK    5  A    between atoms: C_19  and  C_20 
REMARK    6  A    between atoms: C_20  and  C_21 
REMARK    7  A    between atoms: C_22  and  C_23 
REMARK    8  A    between atoms: C_22  and  C_28 
REMARK    9  A    between atoms: C_23  and  C_24 
REMARK   10  A    between atoms: C_28  and  C_33 
ROOT
HETATM    1  O   UNK N   1      26.428  14.545   6.234  0.00  0.00    -0.271 OA
HETATM    2  N   UNK N   1      27.014  14.234   4.109  0.00  0.00    -0.336 N 
HETATM    3  C   UNK N   1      27.872  12.165   3.332  0.00  0.00     0.032 A 
HETATM    4  C   UNK N   1      28.175  12.305   1.853  0.00  0.00    -0.036 A 
HETATM    5  C   UNK N   1      26.827  12.790   2.338  0.00  0.00     0.019 A 
HETATM    6  C   UNK N   1      27.934  13.201   4.456  0.00  0.00     0.184 C 
HETATM    7  C   UNK N   1      26.768  14.272   2.717  0.00  0.00     0.132 C 
HETATM    8  C   UNK N   1      28.031  11.047   1.015  0.00  0.00     0.016 C 
HETATM    9  C   UNK N   1      29.151  13.370   1.380  0.00  0.00     0.016 C 
HETATM   10  C   UNK N   1      26.184  14.769   5.054  0.00  0.00     0.244 C 
ENDROOT
BRANCH   6  11
HETATM   11  C   UNK N   1      29.288  13.647   4.916  0.00  0.00     0.241 C 
HETATM   12  O   UNK N   1      30.232  12.869   4.932  0.00  0.00    -0.271 OA
HETATM   13  N   UNK N   1      29.438  14.942   5.303  0.00  0.00    -0.347 N 
HETATM   14  H   UNK N   1      28.645  15.523   5.260  0.00  0.00     0.163 HD
BRANCH  13  15
HETATM   15  C   UNK N   1      30.676  15.536   5.773  0.00  0.00     0.165 C 
BRANCH  15  16
HETATM   16  C   UNK N   1      30.489  16.160   7.152  0.00  0.00     0.038 C 
BRANCH  16  17
HETATM   17  C   UNK N   1      29.652  17.423   7.061  0.00  0.00    -0.012 A 
HETATM   18  C   UNK N   1      28.290  17.163   7.677  0.00  0.00     0.005 A 
HETATM   19  C   UNK N   1      28.654  18.034   8.863  0.00  0.00     0.001 A 
HETATM   20  C   UNK N   1      29.996  18.326   8.228  0.00  0.00     0.005 A 
ENDBRANCH  16  17
ENDBRANCH  15  16
BRANCH  15  21
HETATM   21  C   UNK N   1      31.371  16.470   4.797  0.00  0.00     0.238 C 
HETATM   22  O   UNK N   1      32.392  17.024   5.175  0.00  0.00    -0.285 OA
BRANCH  21  23
HETATM   23  C   UNK N   1      30.912  16.723   3.401  0.00  0.00     0.287 C 
HETATM   24  O   UNK N   1      29.740  16.619   3.087  0.00  0.00    -0.265 OA
HETATM   25  N   UNK N   1      31.813  17.059   2.455  0.00  0.00    -0.363 N 
HETATM   26  H   UNK N   1      31.614  17.415   1.559  0.00  0.00     0.159 HD
HETATM   27  H   UNK N   1      32.763  16.936   2.683  0.00  0.00     0.159 HD
ENDBRANCH  21  23
ENDBRANCH  15  21
ENDBRANCH  13  15
ENDBRANCH   6  11
BRANCH  10  28
HETATM   28  C   UNK N   1      24.981  15.673   4.726  0.00  0.00     0.185 C 
BRANCH  28  29
HETATM   29  N   UNK N   1      25.194  16.927   5.423  0.00  0.00    -0.329 N 
HETATM   30  C   UNK N   1      26.014  17.899   4.983  0.00  0.00     0.317 C 
HETATM   31  O   UNK N   1      26.723  17.716   4.010  0.00  0.00    -0.247 OA
HETATM   32  N   UNK N   1      25.948  19.116   5.585  0.00  0.00    -0.335 N 
HETATM   33  H   UNK N   1      25.400  19.202   6.399  0.00  0.00     0.165 HD
HETATM   34  H   UNK N   1      24.710  17.077   6.268  0.00  0.00     0.165 HD
BRANCH  32  35
HETATM   35  C   UNK N   1      26.637  20.290   5.097  0.00  0.00     0.023 C 
HETATM   36  C   UNK N   1      26.040  20.683   3.763  0.00  0.00     0.037 C 
HETATM   37  C   UNK N   1      26.482  21.446   6.066  0.00  0.00     0.037 C 
HETATM   38  C   UNK N   1      28.110  19.979   4.884  0.00  0.00     0.037 C 
ENDBRANCH  32  35
ENDBRANCH  28  29
BRANCH  28  39
HETATM   39  C   UNK N   1      23.493  15.264   5.060  0.00  0.00    -0.022 C 
HETATM   40  C   UNK N   1      23.103  15.635   6.484  0.00  0.00     0.017 C 
HETATM   41  C   UNK N   1      22.592  16.039   4.114  0.00  0.00     0.017 C 
HETATM   42  C   UNK N   1      23.088  13.825   4.872  0.00  0.00     0.017 C 
ENDBRANCH  28  39
ENDBRANCH  10  28
TORSDOF 10
ENDMDL
MODEL 5
REMARK VINA RESULT:      -6.6      5.104      8.819
REMARK  10 active torsions:
REMARK  status: ('A' for Active; 'I' for Inactive)
REMARK       I    between atoms: N_6  and  C_19 
REMARK       I    between atoms: N_7  and  C_18 
REMARK    1  A    between atoms: N_7  and  C_22 
REMARK    2  A    between atoms: C_20  and  N_8 
REMARK       I    between atoms: N_8  and  C_32 
REMARK       I    between atoms: N_9  and  C_32 
REMARK    3  A    between atoms: N_9  and  C_34 
REMARK       I    between atoms: N_10  and  C_33 
REMARK    4  A    between atoms: C_14  and  C_18 
REMARK    5  A    between atoms: C_19  and  C_20 
REMARK    6  A    between atoms: C_20  and  C_21 
REMARK    7  A    between atoms: C_22  and  C_23 
REMARK    8  A    between atoms: C_22  and  C_28 
REMARK    9  A    between atoms: C_23  and  C_24 
REMARK   10  A    between atoms: C_28  and  C_33 
ROOT
HETATM    1  O   UNK N   1      27.954  15.074   3.444  0.00  0.00    -0.271 OA
HETATM    2  N   UNK N   1      27.486  16.607   4.989  0.00  0.00    -0.336 N 
HETATM    3  C   UNK N   1      28.425  18.784   4.924  0.00  0.00     0.032 A 
HETATM    4  C   UNK N   1      27.907  19.557   6.121  0.00  0.00    -0.036 A 
HETATM    5  C   UNK N   1      26.895  18.802   5.288  0.00  0.00     0.019 A 
HETATM    6  C   UNK N   1      28.718  17.291   4.763  0.00  0.00     0.184 C 
HETATM    7  C   UNK N   1      26.592  17.379   5.765  0.00  0.00     0.132 C 
HETATM    8  C   UNK N   1      27.752  21.057   5.938  0.00  0.00     0.016 C 
HETATM    9  C   UNK N   1      28.159  19.032   7.525  0.00  0.00     0.016 C 
HETATM   10  C   UNK N   1      27.110  15.572   4.180  0.00  0.00     0.244 C 
ENDROOT
BRANCH   6  11
HETATM   11  C   UNK N   1      29.920  16.740   5.465  0.00  0.00     0.241 C 
HETATM   12  O   UNK N   1      29.805  16.127   6.518  0.00  0.00    -0.271 OA
HETATM   13  N   UNK N   1      31.139  16.929   4.893  0.00  0.00    -0.347 N 
HETATM   14  H   UNK N   1      31.168  17.422   4.041  0.00  0.00     0.163 HD
BRANCH  13  15
HETATM   15  C   UNK N   1      32.401  16.462   5.437  0.00  0.00     0.165 C 
BRANCH  15  16
HETATM   16  C   UNK N   1      33.226  17.627   5.973  0.00  0.00     0.038 C 
BRANCH  16  17
HETATM   17  C   UNK N   1      32.959  17.839   7.452  0.00  0.00    -0.012 A 
HETATM   18  C   UNK N   1      33.083  16.512   8.177  0.00  0.00     0.005 A 
HETATM   19  C   UNK N   1      34.381  16.973   8.810  0.00  0.00     0.001 A 
HETATM   20  C   UNK N   1      34.235  18.312   8.120  0.00  0.00     0.005 A 
ENDBRANCH  16  17
ENDBRANCH  15  16
BRANCH  15  21
HETATM   21  C   UNK N   1      33.205  15.540   4.537  0.00  0.00     0.238 C 
HETATM   22  O   UNK N   1      33.771  14.593   5.060  0.00  0.00    -0.285 OA
BRANCH  21  23
HETATM   23  C   UNK N   1      33.316  15.692   3.058  0.00  0.00     0.287 C 
HETATM   24  O   UNK N   1      32.787  16.620   2.472  0.00  0.00    -0.265 OA
HETATM   25  N   UNK N   1      34.002  14.776   2.344  0.00  0.00    -0.363 N 
HETATM   26  H   UNK N   1      34.288  14.862   1.406  0.00  0.00     0.159 HD
HETATM   27  H   UNK N   1      34.240  13.941   2.807  0.00  0.00     0.159 HD
ENDBRANCH  21  23
ENDBRANCH  15  21
ENDBRANCH  13  15
ENDBRANCH   6  11
BRANCH  10  28
HETATM   28  C   UNK N   1      25.694  14.966   4.167  0.00  0.00     0.185 C 
BRANCH  28  29
HETATM   29  N   UNK N   1      25.701  13.860   5.108  0.00  0.00    -0.329 N 
HETATM   30  C   UNK N   1      25.038  13.869   6.279  0.00  0.00     0.317 C 
HETATM   31  O   UNK N   1      24.479  14.880   6.665  0.00  0.00    -0.247 OA
HETATM   32  N   UNK N   1      24.920  12.697   6.958  0.00  0.00    -0.335 N 
HETATM   33  H   UNK N   1      25.431  11.920   6.635  0.00  0.00     0.165 HD
HETATM   34  H   UNK N   1      26.222  13.057   4.876  0.00  0.00     0.165 HD
BRANCH  32  35
HETATM   35  C   UNK N   1      24.085  12.530   8.127  0.00  0.00     0.023 C 
HETATM   36  C   UNK N   1      22.768  13.238   7.888  0.00  0.00     0.037 C 
HETATM   37  C   UNK N   1      23.815  11.061   8.388  0.00  0.00     0.037 C 
HETATM   38  C   UNK N   1      24.751  13.163   9.338  0.00  0.00     0.037 C 
ENDBRANCH  32  35
ENDBRANCH  28  29
BRANCH  28  39
HETATM   39  C   UNK N   1      25.028  14.388   2.858  0.00  0.00    -0.022 C 
HETATM   40  C   UNK N   1      25.323  12.905   2.671  0.00  0.00     0.017 C 
HETATM   41  C   UNK N   1      23.525  14.546   3.011  0.00  0.00     0.017 C 
HETATM   42  C   UNK N   1      25.345  15.050   1.542  0.00  0.00     0.017 C 
ENDBRANCH  28  39
ENDBRANCH  10  28
TORSDOF 10
ENDMDL
MODEL 6
REMARK VINA RESULT:      -6.6      5.092      9.546
REMARK  10 active torsions:
REMARK  status: ('A' for Active; 'I' for Inactive)
REMARK       I    between atoms: N_6  and  C_19 
REMARK       I    between atoms: N_7  and  C_18 
REMARK    1  A    between atoms: N_7  and  C_22 
REMARK    2  A    between atoms: C_20  and  N_8 
REMARK       I    between atoms: N_8  and  C_32 
REMARK       I    between atoms: N_9  and  C_32 
REMARK    3  A    between atoms: N_9  and  C_34 
REMARK       I    between atoms: N_10  and  C_33 
REMARK    4  A    between atoms: C_14  and  C_18 
REMARK    5  A    between atoms: C_19  and  C_20 
REMARK    6  A    between atoms: C_20  and  C_21 
REMARK    7  A    between atoms: C_22  and  C_23 
REMARK    8  A    between atoms: C_22  and  C_28 
REMARK    9  A    between atoms: C_23  and  C_24 
REMARK   10  A    between atoms: C_28  and  C_33 
ROOT
HETATM    1  O   UNK N   1      28.297  14.260   5.680  0.00  0.00    -0.271 OA
HETATM    2  N   UNK N   1      29.995  14.833   4.358  0.00  0.00    -0.336 N 
HETATM    3  C   UNK N   1      31.814  13.369   3.943  0.00  0.00     0.032 A 
HETATM    4  C   UNK N   1      32.786  14.075   3.019  0.00  0.00    -0.036 A 
HETATM    5  C   UNK N   1      31.322  14.098   2.639  0.00  0.00     0.019 A 
HETATM    6  C   UNK N   1      30.884  13.935   5.019  0.00  0.00     0.184 C 
HETATM    7  C   UNK N   1      30.538  15.312   3.145  0.00  0.00     0.132 C 
HETATM    8  C   UNK N   1      33.580  13.190   2.074  0.00  0.00     0.016 C 
HETATM    9  C   UNK N   1      33.400  15.401   3.439  0.00  0.00     0.016 C 
HETATM   10  C   UNK N   1      28.662  14.836   4.661  0.00  0.00     0.244 C 
ENDROOT
BRANCH   6  11
HETATM   11  C   UNK N   1      31.511  14.434   6.285  0.00  0.00     0.241 C 
HETATM   12  O   UNK N   1      32.336  13.759   6.885  0.00  0.00    -0.271 OA
HETATM   13  N   UNK N   1      31.144  15.662   6.739  0.00  0.00    -0.347 N 
HETATM   14  H   UNK N   1      30.483  16.163   6.209  0.00  0.00     0.163 HD
BRANCH  13  15
HETATM   15  C   UNK N   1      31.652  16.295   7.943  0.00  0.00     0.165 C 
BRANCH  15  16
HETATM   16  C   UNK N   1      30.510  16.859   8.782  0.00  0.00     0.038 C 
BRANCH  16  17
HETATM   17  C   UNK N   1      29.311  17.182   7.910  0.00  0.00    -0.012 A 
HETATM   18  C   UNK N   1      28.059  17.190   8.767  0.00  0.00     0.005 A 
HETATM   19  C   UNK N   1      27.979  18.699   8.646  0.00  0.00     0.001 A 
HETATM   20  C   UNK N   1      29.203  18.686   7.756  0.00  0.00     0.005 A 
ENDBRANCH  16  17
ENDBRANCH  15  16
BRANCH  15  21
HETATM   21  C   UNK N   1      32.777  17.294   7.737  0.00  0.00     0.238 C 
HETATM   22  O   UNK N   1      32.725  18.340   8.366  0.00  0.00    -0.285 OA
BRANCH  21  23
HETATM   23  C   UNK N   1      33.957  17.066   6.854  0.00  0.00     0.287 C 
HETATM   24  O   UNK N   1      34.252  17.854   5.972  0.00  0.00    -0.265 OA
HETATM   25  N   UNK N   1      34.706  15.958   7.017  0.00  0.00    -0.363 N 
HETATM   26  H   UNK N   1      35.592  15.789   6.621  0.00  0.00     0.159 HD
HETATM   27  H   UNK N   1      34.332  15.249   7.588  0.00  0.00     0.159 HD
ENDBRANCH  21  23
ENDBRANCH  15  21
ENDBRANCH  13  15
ENDBRANCH   6  11
BRANCH  10  28
HETATM   28  C   UNK N   1      27.593  15.555   3.817  0.00  0.00     0.185 C 
BRANCH  28  29
HETATM   29  N   UNK N   1      26.957  16.529   4.686  0.00  0.00    -0.329 N 
HETATM   30  C   UNK N   1      27.198  17.852   4.631  0.00  0.00     0.317 C 
HETATM   31  O   UNK N   1      28.072  18.292   3.906  0.00  0.00    -0.247 OA
HETATM   32  N   UNK N   1      26.372  18.683   5.320  0.00  0.00    -0.335 N 
HETATM   33  H   UNK N   1      25.714  18.282   5.932  0.00  0.00     0.165 HD
HETATM   34  H   UNK N   1      26.312  16.203   5.354  0.00  0.00     0.165 HD
BRANCH  32  35
HETATM   35  C   UNK N   1      26.407  20.124   5.203  0.00  0.00     0.023 C 
HETATM   36  C   UNK N   1      27.835  20.555   4.946  0.00  0.00     0.037 C 
HETATM   37  C   UNK N   1      25.537  20.591   4.051  0.00  0.00     0.037 C 
HETATM   38  C   UNK N   1      25.944  20.765   6.502  0.00  0.00     0.037 C 
ENDBRANCH  32  35
ENDBRANCH  28  29
BRANCH  28  39
HETATM   39  C   UNK N   1      26.404  14.790   3.117  0.00  0.00    -0.022 C 
HETATM   40  C   UNK N   1      26.769  13.351   2.778  0.00  0.00     0.017 C 
HETATM   41  C   UNK N   1      25.249  14.756   4.104  0.00  0.00     0.017 C 
HETATM   42  C   UNK N   1      25.811  15.381   1.865  0.00  0.00     0.017 C 
ENDBRANCH  28  39
ENDBRANCH  10  28
TORSDOF 10
ENDMDL
MODEL 7
REMARK VINA RESULT:      -6.5      4.121      8.654
REMARK  10 active torsions:
REMARK  status: ('A' for Active; 'I' for Inactive)
REMARK       I    between atoms: N_6  and  C_19 
REMARK       I    between atoms: N_7  and  C_18 
REMARK    1  A    between atoms: N_7  and  C_22 
REMARK    2  A    between atoms: C_20  and  N_8 
REMARK       I    between atoms: N_8  and  C_32 
REMARK       I    between atoms: N_9  and  C_32 
REMARK    3  A    between atoms: N_9  and  C_34 
REMARK       I    between atoms: N_10  and  C_33 
REMARK    4  A    between atoms: C_14  and  C_18 
REMARK    5  A    between atoms: C_19  and  C_20 
REMARK    6  A    between atoms: C_20  and  C_21 
REMARK    7  A    between atoms: C_22  and  C_23 
REMARK    8  A    between atoms: C_22  and  C_28 
REMARK    9  A    between atoms: C_23  and  C_24 
REMARK   10  A    between atoms: C_28  and  C_33 
ROOT
HETATM    1  O   UNK N   1      26.836  17.016   6.710  0.00  0.00    -0.271 OA
HETATM    2  N   UNK N   1      27.155  16.370   4.604  0.00  0.00    -0.336 N 
HETATM    3  C   UNK N   1      27.149  14.083   3.976  0.00  0.00     0.032 A 
HETATM    4  C   UNK N   1      27.405  14.003   2.484  0.00  0.00    -0.036 A 
HETATM    5  C   UNK N   1      26.358  14.985   2.960  0.00  0.00     0.019 A 
HETATM    6  C   UNK N   1      27.646  15.094   5.011  0.00  0.00     0.184 C 
HETATM    7  C   UNK N   1      26.869  16.405   3.220  0.00  0.00     0.132 C 
HETATM    8  C   UNK N   1      26.765  12.836   1.754  0.00  0.00     0.016 C 
HETATM    9  C   UNK N   1      28.679  14.595   1.904  0.00  0.00     0.016 C 
HETATM   10  C   UNK N   1      26.631  17.237   5.522  0.00  0.00     0.244 C 
ENDROOT
BRANCH   6  11
HETATM   11  C   UNK N   1      29.091  15.035   5.402  0.00  0.00     0.241 C 
HETATM   12  O   UNK N   1      29.760  14.036   5.178  0.00  0.00    -0.271 OA
HETATM   13  N   UNK N   1      29.638  16.126   6.002  0.00  0.00    -0.347 N 
HETATM   14  H   UNK N   1      29.052  16.904   6.148  0.00  0.00     0.163 HD
BRANCH  13  15
HETATM   15  C   UNK N   1      31.016  16.236   6.442  0.00  0.00     0.165 C 
BRANCH  15  16
HETATM   16  C   UNK N   1      31.091  16.806   7.854  0.00  0.00     0.038 C 
BRANCH  16  17
HETATM   17  C   UNK N   1      29.977  17.811   8.088  0.00  0.00    -0.012 A 
HETATM   18  C   UNK N   1      29.146  17.365   9.277  0.00  0.00     0.005 A 
HETATM   19  C   UNK N   1      29.721  18.493  10.109  0.00  0.00     0.001 A 
HETATM   20  C   UNK N   1      30.518  18.962   8.911  0.00  0.00     0.005 A 
ENDBRANCH  16  17
ENDBRANCH  15  16
BRANCH  15  21
HETATM   21  C   UNK N   1      31.962  16.933   5.478  0.00  0.00     0.238 C 
HETATM   22  O   UNK N   1      31.464  17.582   4.571  0.00  0.00    -0.285 OA
BRANCH  21  23
HETATM   23  C   UNK N   1      33.448  16.909   5.589  0.00  0.00     0.287 C 
HETATM   24  O   UNK N   1      34.072  17.873   5.997  0.00  0.00    -0.265 OA
HETATM   25  N   UNK N   1      34.126  15.804   5.216  0.00  0.00    -0.363 N 
HETATM   26  H   UNK N   1      35.072  15.608   5.404  0.00  0.00     0.159 HD
HETATM   27  H   UNK N   1      33.625  15.128   4.706  0.00  0.00     0.159 HD
ENDBRANCH  21  23
ENDBRANCH  15  21
ENDBRANCH  13  15
ENDBRANCH   6  11
BRANCH  10  28
HETATM   28  C   UNK N   1      25.831  18.498   5.150  0.00  0.00     0.185 C 
BRANCH  28  29
HETATM   29  N   UNK N   1      24.810  18.085   4.205  0.00  0.00    -0.329 N 
HETATM   30  C   UNK N   1      23.495  18.051   4.490  0.00  0.00     0.317 C 
HETATM   31  O   UNK N   1      23.102  18.264   5.623  0.00  0.00    -0.247 OA
HETATM   32  N   UNK N   1      22.620  17.884   3.463  0.00  0.00    -0.335 N 
HETATM   33  H   UNK N   1      22.983  17.665   2.574  0.00  0.00     0.165 HD
HETATM   34  H   UNK N   1      25.095  17.813   3.302  0.00  0.00     0.165 HD
BRANCH  32  35
HETATM   35  C   UNK N   1      21.186  18.010   3.603  0.00  0.00     0.023 C 
HETATM   36  C   UNK N   1      20.530  17.545   2.320  0.00  0.00     0.037 C 
HETATM   37  C   UNK N   1      20.683  17.156   4.751  0.00  0.00     0.037 C 
HETATM   38  C   UNK N   1      20.809  19.466   3.828  0.00  0.00     0.037 C 
ENDBRANCH  32  35
ENDBRANCH  28  29
BRANCH  28  39
HETATM   39  C   UNK N   1      26.501  19.771   4.500  0.00  0.00    -0.022 C 
HETATM   40  C   UNK N   1      25.875  20.128   3.159  0.00  0.00     0.017 C 
HETATM   41  C   UNK N   1      26.265  20.935   5.448  0.00  0.00     0.017 C 
HETATM   42  C   UNK N   1      27.992  19.761   4.281  0.00  0.00     0.017 C 
ENDBRANCH  28  39
ENDBRANCH  10  28
TORSDOF 10
ENDMDL
MODEL 8
REMARK VINA RESULT:      -6.5      4.397      8.234
REMARK  10 active torsions:
REMARK  status: ('A' for Active; 'I' for Inactive)
REMARK       I    between atoms: N_6  and  C_19 
REMARK       I    between atoms: N_7  and  C_18 
REMARK    1  A    between atoms: N_7  and  C_22 
REMARK    2  A    between atoms: C_20  and  N_8 
REMARK       I    between atoms: N_8  and  C_32 
REMARK       I    between atoms: N_9  and  C_32 
REMARK    3  A    between atoms: N_9  and  C_34 
REMARK       I    between atoms: N_10  and  C_33 
REMARK    4  A    between atoms: C_14  and  C_18 
REMARK    5  A    between atoms: C_19  and  C_20 
REMARK    6  A    between atoms: C_20  and  C_21 
REMARK    7  A    between atoms: C_22  and  C_23 
REMARK    8  A    between atoms: C_22  and  C_28 
REMARK    9  A    between atoms: C_23  and  C_24 
REMARK   10  A    between atoms: C_28  and  C_33 
ROOT
HETATM    1  O   UNK N   1      25.531  13.885   7.821  0.00  0.00    -0.271 OA
HETATM    2  N   UNK N   1      25.638  14.211   5.621  0.00  0.00    -0.336 N 
HETATM    3  C   UNK N   1      27.623  13.812   4.386  0.00  0.00     0.032 A 
HETATM    4  C   UNK N   1      27.349  14.143   2.933  0.00  0.00    -0.036 A 
HETATM    5  C   UNK N   1      26.342  13.273   3.651  0.00  0.00     0.019 A 
HETATM    6  C   UNK N   1      27.048  14.424   5.665  0.00  0.00     0.184 C 
HETATM    7  C   UNK N   1      25.176  14.026   4.298  0.00  0.00     0.132 C 
HETATM    8  C   UNK N   1      28.125  13.341   1.902  0.00  0.00     0.016 C 
HETATM    9  C   UNK N   1      26.889  15.541   2.551  0.00  0.00     0.016 C 
HETATM   10  C   UNK N   1      24.963  13.803   6.738  0.00  0.00     0.244 C 
ENDROOT
BRANCH   6  11
HETATM   11  C   UNK N   1      27.498  15.804   6.038  0.00  0.00     0.241 C 
HETATM   12  O   UNK N   1      26.684  16.675   6.314  0.00  0.00    -0.271 OA
HETATM   13  N   UNK N   1      28.833  16.054   6.073  0.00  0.00    -0.347 N 
HETATM   14  H   UNK N   1      29.440  15.311   5.851  0.00  0.00     0.163 HD
BRANCH  13  15
HETATM   15  C   UNK N   1      29.437  17.329   6.414  0.00  0.00     0.165 C 
BRANCH  15  16
HETATM   16  C   UNK N   1      30.554  17.679   5.436  0.00  0.00     0.038 C 
BRANCH  16  17
HETATM   17  C   UNK N   1      31.032  16.441   4.701  0.00  0.00    -0.012 A 
HETATM   18  C   UNK N   1      30.807  16.628   3.211  0.00  0.00     0.005 A 
HETATM   19  C   UNK N   1      32.301  16.775   2.999  0.00  0.00     0.001 A 
HETATM   20  C   UNK N   1      32.527  16.547   4.478  0.00  0.00     0.005 A 
ENDBRANCH  16  17
ENDBRANCH  15  16
BRANCH  15  21
HETATM   21  C   UNK N   1      29.856  17.493   7.865  0.00  0.00     0.238 C 
HETATM   22  O   UNK N   1      30.920  16.998   8.204  0.00  0.00    -0.285 OA
BRANCH  21  23
HETATM   23  C   UNK N   1      29.078  18.248   8.888  0.00  0.00     0.287 C 
HETATM   24  O   UNK N   1      29.608  18.693   9.891  0.00  0.00    -0.265 OA
HETATM   25  N   UNK N   1      27.753  18.432   8.714  0.00  0.00    -0.363 N 
HETATM   26  H   UNK N   1      27.178  19.051   9.220  0.00  0.00     0.159 HD
HETATM   27  H   UNK N   1      27.319  17.895   8.013  0.00  0.00     0.159 HD
ENDBRANCH  21  23
ENDBRANCH  15  21
ENDBRANCH  13  15
ENDBRANCH   6  11
BRANCH  10  28
HETATM   28  C   UNK N   1      23.515  13.281   6.721  0.00  0.00     0.185 C 
BRANCH  28  29
HETATM   29  N   UNK N   1      22.733  14.183   7.547  0.00  0.00    -0.329 N 
HETATM   30  C   UNK N   1      22.057  15.243   7.068  0.00  0.00     0.317 C 
HETATM   31  O   UNK N   1      22.167  15.568   5.899  0.00  0.00    -0.247 OA
HETATM   32  N   UNK N   1      21.172  15.865   7.891  0.00  0.00    -0.335 N 
HETATM   33  H   UNK N   1      21.155  15.601   8.839  0.00  0.00     0.165 HD
HETATM   34  H   UNK N   1      22.696  14.009   8.516  0.00  0.00     0.165 HD
BRANCH  32  35
HETATM   35  C   UNK N   1      20.255  16.893   7.450  0.00  0.00     0.023 C 
HETATM   36  C   UNK N   1      19.513  17.430   8.656  0.00  0.00     0.037 C 
HETATM   37  C   UNK N   1      21.005  18.032   6.785  0.00  0.00     0.037 C 
HETATM   38  C   UNK N   1      19.235  16.305   6.488  0.00  0.00     0.037 C 
ENDBRANCH  32  35
ENDBRANCH  28  29
BRANCH  28  39
HETATM   39  C   UNK N   1      23.126  11.832   7.212  0.00  0.00    -0.022 C 
HETATM   40  C   UNK N   1      23.013  11.752   8.728  0.00  0.00     0.017 C 
HETATM   41  C   UNK N   1      21.762  11.511   6.626  0.00  0.00     0.017 C 
HETATM   42  C   UNK N   1      23.998  10.677   6.792  0.00  0.00     0.017 C 
ENDBRANCH  28  39
ENDBRANCH  10  28
TORSDOF 10
ENDMDL
MODEL 9
REMARK VINA RESULT:      -6.5     11.458     13.621
REMARK  10 active torsions:
REMARK  status: ('A' for Active; 'I' for Inactive)
REMARK       I    between atoms: N_6  and  C_19 
REMARK       I    between atoms: N_7  and  C_18 
REMARK    1  A    between atoms: N_7  and  C_22 
REMARK    2  A    between atoms: C_20  and  N_8 
REMARK       I    between atoms: N_8  and  C_32 
REMARK       I    between atoms: N_9  and  C_32 
REMARK    3  A    between atoms: N_9  and  C_34 
REMARK       I    between atoms: N_10  and  C_33 
REMARK    4  A    between atoms: C_14  and  C_18 
REMARK    5  A    between atoms: C_19  and  C_20 
REMARK    6  A    between atoms: C_20  and  C_21 
REMARK    7  A    between atoms: C_22  and  C_23 
REMARK    8  A    between atoms: C_22  and  C_28 
REMARK    9  A    between atoms: C_23  and  C_24 
REMARK   10  A    between atoms: C_28  and  C_33 
ROOT
HETATM    1  O   UNK N   1      27.247  23.739  -4.852  0.00  0.00    -0.271 OA
HETATM    2  N   UNK N   1      28.130  25.611  -5.672  0.00  0.00    -0.336 N 
HETATM    3  C   UNK N   1      27.292  27.753  -5.096  0.00  0.00     0.032 A 
HETATM    4  C   UNK N   1      28.110  28.794  -5.836  0.00  0.00    -0.036 A 
HETATM    5  C   UNK N   1      28.864  27.706  -5.103  0.00  0.00     0.019 A 
HETATM    6  C   UNK N   1      26.909  26.328  -5.499  0.00  0.00     0.184 C 
HETATM    7  C   UNK N   1      29.213  26.476  -5.945  0.00  0.00     0.132 C 
HETATM    8  C   UNK N   1      28.278  30.134  -5.142  0.00  0.00     0.016 C 
HETATM    9  C   UNK N   1      28.177  28.762  -7.354  0.00  0.00     0.016 C 
HETATM   10  C   UNK N   1      28.261  24.339  -5.188  0.00  0.00     0.244 C 
ENDROOT
BRANCH   6  11
HETATM   11  C   UNK N   1      25.885  26.164  -6.581  0.00  0.00     0.241 C 
HETATM   12  O   UNK N   1      24.881  26.862  -6.605  0.00  0.00    -0.271 OA
HETATM   13  N   UNK N   1      26.111  25.226  -7.539  0.00  0.00    -0.347 N 
HETATM   14  H   UNK N   1      26.941  24.701  -7.473  0.00  0.00     0.163 HD
BRANCH  13  15
HETATM   15  C   UNK N   1      25.227  24.939  -8.654  0.00  0.00     0.165 C 
BRANCH  15  16
HETATM   16  C   UNK N   1      25.129  23.436  -8.895  0.00  0.00     0.038 C 
BRANCH  16  17
HETATM   17  C   UNK N   1      25.768  22.666  -7.754  0.00  0.00    -0.012 A 
HETATM   18  C   UNK N   1      24.777  21.645  -7.225  0.00  0.00     0.005 A 
HETATM   19  C   UNK N   1      25.596  20.525  -7.837  0.00  0.00     0.001 A 
HETATM   20  C   UNK N   1      26.605  21.541  -8.328  0.00  0.00     0.005 A 
ENDBRANCH  16  17
ENDBRANCH  15  16
BRANCH  15  21
HETATM   21  C   UNK N   1      25.498  25.720  -9.928  0.00  0.00     0.238 C 
HETATM   22  O   UNK N   1      26.609  26.209 -10.064  0.00  0.00    -0.285 OA
BRANCH  21  23
HETATM   23  C   UNK N   1      24.515  25.894 -11.036  0.00  0.00     0.287 C 
HETATM   24  O   UNK N   1      24.249  24.983 -11.800  0.00  0.00    -0.265 OA
HETATM   25  N   UNK N   1      23.917  27.090 -11.212  0.00  0.00    -0.363 N 
HETATM   26  H   UNK N   1      23.137  27.273 -11.785  0.00  0.00     0.159 HD
HETATM   27  H   UNK N   1      24.296  27.853 -10.720  0.00  0.00     0.159 HD
ENDBRANCH  21  23
ENDBRANCH  15  21
ENDBRANCH  13  15
ENDBRANCH   6  11
BRANCH  10  28
HETATM   28  C   UNK N   1      29.607  23.600  -5.076  0.00  0.00     0.185 C 
BRANCH  28  29
HETATM   29  N   UNK N   1      29.375  22.235  -5.512  0.00  0.00    -0.329 N 
HETATM   30  C   UNK N   1      29.804  21.741  -6.688  0.00  0.00     0.317 C 
HETATM   31  O   UNK N   1      30.323  22.472  -7.513  0.00  0.00    -0.247 OA
HETATM   32  N   UNK N   1      29.742  20.397  -6.881  0.00  0.00    -0.335 N 
HETATM   33  H   UNK N   1      29.268  19.854  -6.210  0.00  0.00     0.165 HD
HETATM   34  H   UNK N   1      28.874  21.635  -4.913  0.00  0.00     0.165 HD
BRANCH  32  35
HETATM   35  C   UNK N   1      30.331  19.722  -8.015  0.00  0.00     0.023 C 
HETATM   36  C   UNK N   1      29.744  18.330  -8.111  0.00  0.00     0.037 C 
HETATM   37  C   UNK N   1      30.034  20.472  -9.300  0.00  0.00     0.037 C 
HETATM   38  C   UNK N   1      31.834  19.590  -7.822  0.00  0.00     0.037 C 
ENDBRANCH  32  35
ENDBRANCH  28  29
BRANCH  28  39
HETATM   39  C   UNK N   1      30.395  23.468  -3.715  0.00  0.00    -0.022 C 
HETATM   40  C   UNK N   1      31.625  22.580  -3.848  0.00  0.00     0.017 C 
HETATM   41  C   UNK N   1      30.867  24.861  -3.333  0.00  0.00     0.017 C 
HETATM   42  C   UNK N   1      29.649  22.978  -2.501  0.00  0.00     0.017 C 
ENDBRANCH  28  39
ENDBRANCH  10  28
TORSDOF 10
ENDMDL
