REMARK  4 active torsions:
REMARK  status: ('A' for Active; 'I' for Inactive)
REMARK    1  A    between atoms: O_19  and  C_3 
REMARK    2  A    between atoms: C_16  and  C_14 
REMARK    3  A    between atoms: C_16  and  C_15 
REMARK    4  A    between atoms: O_19  and  C_15 
ROOT
HETATM    1  C   UNK N   1      -0.568   3.209  -0.005  0.00  0.00     0.309 C 
HETATM    2  C   UNK N   1      -0.822   0.808   1.572  0.00  0.00     0.032 C 
HETATM    3  C   UNK N   1       0.705   0.624   1.589  0.00  0.00     0.026 C 
HETATM    4  C   UNK N   1       1.420   1.188  -0.763  0.00  0.00     0.055 C 
HETATM    5  C   UNK N   1      -1.524   0.956   0.217  0.00  0.00     0.272 C 
HETATM    6  C   UNK N   1       0.097   1.398  -1.499  0.00  0.00     0.273 C 
HETATM    7  C   UNK N   1       1.448   0.105   0.338  0.00  0.00     0.076 C 
HETATM    8  N   UNK N   1      -0.963   1.971  -0.674  0.00  0.00     0.084 N 
ENDROOT
BRANCH   7   9
HETATM    9  C   UNK N   1       0.957  -1.247  -0.177  0.00  0.00    -0.040 A 
HETATM   10  C   UNK N   1       1.619  -1.858  -1.259  0.00  0.00     0.008 A 
HETATM   11  C   UNK N   1       1.241  -3.130  -1.697  0.00  0.00     0.001 A 
HETATM   12  C   UNK N   1       0.199  -3.807  -1.062  0.00  0.00     0.000 A 
HETATM   13  C   UNK N   1      -0.469  -3.212   0.010  0.00  0.00     0.001 A 
HETATM   14  C   UNK N   1      -0.088  -1.943   0.455  0.00  0.00     0.008 A 
ENDBRANCH   7   9
BRANCH   7  15
HETATM   15  C   UNK N   1       2.892  -0.117   0.758  0.00  0.00     0.272 C 
HETATM   16  O   UNK N   1       3.797   0.540   0.254  0.00  0.00    -0.264 OA
BRANCH  15  17
HETATM   17  O   UNK N   1       3.183  -1.117   1.630  0.00  0.00    -0.321 OA
BRANCH  17  18
HETATM   18  C   UNK N   1       4.462  -1.608   1.769  0.00  0.00     0.174 C 
HETATM   19  C   UNK N   1       4.930  -1.462   3.198  0.00  0.00     0.034 C 
ENDBRANCH  17  18
ENDBRANCH  15  17
ENDBRANCH   7  15
TORSDOF 4
