REMARK  9 active torsions:
REMARK  status: ('A' for Active; 'I' for Inactive)
REMARK    1  A    between atoms: C_13  and  C_11 
REMARK    2  A    between atoms: N_22  and  C_11 
REMARK    3  A    between atoms: C_14  and  C_12 
REMARK    4  A    between atoms: N_22  and  C_12 
REMARK    5  A    between atoms: O_23  and  C_13 
REMARK    6  A    between atoms: O_24  and  C_14 
REMARK    7  A    between atoms: C_17  and  C_15 
REMARK    8  A    between atoms: C_18  and  C_16 
REMARK    9  A    between atoms: N_22  and  C_19 
ROOT
HETATM    1  C   UNK N   1       5.571  -1.394  -0.227  0.00  0.00     0.080 A 
HETATM    2  C   UNK N   1       6.977  -1.381  -0.107  0.00  0.00     0.117 A 
HETATM    3  C   UNK N   1       6.284   0.620  -0.272  0.00  0.00     0.227 A 
HETATM    4  N   UNK N   1       5.158  -0.113  -0.335  0.00  0.00    -0.319 N 
ATOM      5  HN  UNK N   1       4.202   0.224  -0.442  1.00  0.00     0.169 HD
HETATM    6  O   UNK N   1       7.352  -0.123  -0.131  0.00  0.00    -0.276 OA
ENDROOT
BRANCH   3   7
HETATM    7  N   UNK N   1       6.315   2.030  -0.407  0.00  0.00    -0.343 N 
BRANCH   7   8
HETATM    8  C   UNK N   1       5.111   2.733  -0.779  0.00  0.00     0.152 C 
BRANCH   8   9
HETATM    9  C   UNK N   1       4.564   3.524   0.391  0.00  0.00     0.184 C 
BRANCH   9  10
HETATM   10  O   UNK N   1       3.385   4.158   0.001  0.00  0.00    -0.399 OA
HETATM   11  H   UNK N   1       3.357   5.089  -0.270  0.00  0.00     0.209 HD
ENDBRANCH   9  10
ENDBRANCH   8   9
ENDBRANCH   7   8
BRANCH   7  12
HETATM   12  C   UNK N   1       7.591   2.693  -0.531  0.00  0.00     0.152 C 
BRANCH  12  13
HETATM   13  C   UNK N   1       7.948   3.419   0.749  0.00  0.00     0.184 C 
BRANCH  13  14
HETATM   14  O   UNK N   1       9.266   3.868   0.667  0.00  0.00    -0.399 OA
HETATM   15  H   UNK N   1       9.994   3.230   0.610  0.00  0.00     0.209 HD
ENDBRANCH  13  14
ENDBRANCH  12  13
ENDBRANCH   7  12
ENDBRANCH   3   7
BRANCH   1  16
HETATM   16  C   UNK N   1       4.580  -2.503  -0.253  0.00  0.00    -0.006 A 
HETATM   17  C   UNK N   1       4.920  -3.835   0.007  0.00  0.00     0.014 A 
HETATM   18  C   UNK N   1       3.950  -4.841  -0.019  0.00  0.00     0.001 A 
HETATM   19  C   UNK N   1       2.621  -4.522  -0.305  0.00  0.00     0.000 A 
HETATM   20  C   UNK N   1       2.263  -3.197  -0.558  0.00  0.00     0.001 A 
HETATM   21  C   UNK N   1       3.236  -2.195  -0.527  0.00  0.00     0.014 A 
ENDBRANCH   1  16
BRANCH   2  22
HETATM   22  C   UNK N   1       7.996  -2.460  -0.037  0.00  0.00     0.000 A 
HETATM   23  C   UNK N   1       9.335  -2.098   0.181  0.00  0.00     0.014 A 
HETATM   24  C   UNK N   1      10.344  -3.065   0.197  0.00  0.00     0.001 A 
HETATM   25  C   UNK N   1      10.026  -4.407  -0.021  0.00  0.00     0.000 A 
HETATM   26  C   UNK N   1       8.699  -4.778  -0.248  0.00  0.00     0.001 A 
HETATM   27  C   UNK N   1       7.693  -3.808  -0.257  0.00  0.00     0.014 A 
ENDBRANCH   2  22
TORSDOF 9
