REMARK  6 active torsions:
REMARK  status: ('A' for Active; 'I' for Inactive)
REMARK    1  A    between atoms: C_5  and  C_2 
REMARK    2  A    between atoms: C_5  and  C_3 
REMARK    3  A    between atoms: C_6  and  C_3 
REMARK    4  A    between atoms: C_11  and  C_5 
REMARK    5  A    between atoms: N_15  and  C_10 
REMARK    6  A    between atoms: O_17  and  C_11 
ROOT
HETATM    1  C   UNK N   1       2.426   1.396  -0.262  0.00  0.00     0.039 A 
HETATM    2  C   UNK N   1       0.168   0.821   0.438  0.00  0.00    -0.022 A 
HETATM    3  C   UNK N   1       1.135   1.791   0.093  0.00  0.00     0.015 A 
HETATM    4  C   UNK N   1       2.777   0.048  -0.282  0.00  0.00     0.035 A 
HETATM    5  C   UNK N   1       0.530  -0.546   0.434  0.00  0.00     0.041 A 
HETATM    6  C   UNK N   1       1.833  -0.926   0.066  0.00  0.00     0.059 A 
HETATM    7  I   UNK N   1       0.732   3.868   0.125  0.00  0.00    -0.044 I 
HETATM    8  I   UNK N   1       4.751  -0.481  -0.825  0.00  0.00    -0.042 I 
HETATM    9  I   UNK N   1      -0.851  -2.067   0.995  0.00  0.00    -0.042 I 
ENDROOT
BRANCH   2  10
HETATM   10  C   UNK N   1      -1.223   1.246   0.833  0.00  0.00     0.056 C 
BRANCH  10  11
HETATM   11  C   UNK N   1      -2.102   1.533  -0.391  0.00  0.00     0.087 C 
BRANCH  11  12
HETATM   12  C   UNK N   1      -2.745   0.248  -0.929  0.00  0.00     0.011 C 
HETATM   13  C   UNK N   1      -3.716  -0.386   0.061  0.00  0.00     0.006 C 
ENDBRANCH  11  12
BRANCH  11  14
HETATM   14  C   UNK N   1      -3.112   2.623  -0.113  0.00  0.00     0.144 C 
HETATM   15  O   UNK N   1      -2.729   3.729   0.227  0.00  0.00    -0.650 OA
BRANCH  14  16
HETATM   16  O   UNK N   1      -4.433   2.402  -0.270  0.00  0.00    -0.776 OA
HETATM   17  H   UNK N   1      -5.025   3.120  -0.379  0.00  0.00     0.167 HD
ENDBRANCH  14  16
ENDBRANCH  11  14
ENDBRANCH  10  11
ENDBRANCH   2  10
BRANCH   6  18
HETATM   18  N   UNK N   1       2.195  -2.290   0.051  0.00  0.00    -0.397 N 
HETATM   19  H   UNK N   1       1.498  -2.985   0.041  0.00  0.00     0.156 HD
HETATM   20  H   UNK N   1       3.146  -2.547   0.051  0.00  0.00     0.156 HD
ENDBRANCH   6  18
TORSDOF 6
