MODEL 1
REMARK VINA RESULT:      -6.9      0.000      0.000
REMARK  3 active torsions:
REMARK  status: ('A' for Active; 'I' for Inactive)
REMARK    1  A    between atoms: C_9  and  C_1 
REMARK    2  A    between atoms: N_11  and  C_5 
REMARK    3  A    between atoms: C_18  and  N_11 
ROOT
HETATM    1  C   UNK N   1      28.054  25.127  -5.266  0.00  0.00     0.123 C 
HETATM    2  C   UNK N   1      27.298  26.337  -4.751  0.00  0.00     0.009 A 
HETATM    3  N   UNK N   1      25.335  25.578  -5.975  0.00  0.00    -0.322 N 
ATOM      4  HN  UNK N   1      24.381  25.751  -6.293  1.00  0.00     0.169 HD
HETATM    5  C   UNK N   1      25.945  24.512  -6.364  0.00  0.00     0.221 C 
HETATM    6  O   UNK N   1      27.224  24.247  -5.959  0.00  0.00    -0.301 OA
HETATM    7  C   UNK N   1      25.955  26.513  -5.116  0.00  0.00     0.045 A 
HETATM    8  C   UNK N   1      27.919  27.285  -3.923  0.00  0.00     0.036 A 
HETATM    9  C   UNK N   1      25.246  27.630  -4.667  0.00  0.00     0.032 A 
HETATM   10  C   UNK N   1      27.201  28.388  -3.457  0.00  0.00     0.034 A 
HETATM   11  C   UNK N   1      29.083  25.627  -6.278  0.00  0.00     0.058 C 
HETATM   12  C   UNK N   1      25.865  28.563  -3.832  0.00  0.00     0.026 A 
HETATM   13 Cl   UNK N   1      27.969  29.541  -2.390  0.00  0.00    -0.084 Cl
ENDROOT
BRANCH   1  14
HETATM   14  C   UNK N   1      28.743  24.406  -4.107  0.00  0.00    -0.019 A 
HETATM   15  C   UNK N   1      30.143  24.292  -4.062  0.00  0.00     0.010 A 
HETATM   16  C   UNK N   1      30.760  23.570  -3.031  0.00  0.00     0.001 A 
HETATM   17  C   UNK N   1      29.990  22.968  -2.032  0.00  0.00     0.000 A 
HETATM   18  C   UNK N   1      28.601  23.086  -2.059  0.00  0.00     0.001 A 
HETATM   19  C   UNK N   1      27.983  23.792  -3.091  0.00  0.00     0.010 A 
ENDBRANCH   1  14
BRANCH   5  20
HETATM   20  N   UNK N   1      25.321  23.626  -7.280  0.00  0.00    -0.356 N 
HETATM   21  H   UNK N   1      24.568  23.951  -7.826  0.00  0.00     0.163 HD
BRANCH  20  22
HETATM   22  C   UNK N   1      25.761  22.260  -7.432  0.00  0.00     0.118 C 
HETATM   23  C   UNK N   1      24.604  21.324  -7.149  0.00  0.00     0.026 C 
ENDBRANCH  20  22
ENDBRANCH   5  20
TORSDOF 3
ENDMDL
MODEL 2
REMARK VINA RESULT:      -6.6     13.709     16.122
REMARK  3 active torsions:
REMARK  status: ('A' for Active; 'I' for Inactive)
REMARK    1  A    between atoms: C_9  and  C_1 
REMARK    2  A    between atoms: N_11  and  C_5 
REMARK    3  A    between atoms: C_18  and  N_11 
ROOT
HETATM    1  C   UNK N   1      32.552  16.044   7.114  0.00  0.00     0.123 C 
HETATM    2  C   UNK N   1      31.338  16.850   7.535  0.00  0.00     0.009 A 
HETATM    3  N   UNK N   1      32.706  17.951   9.221  0.00  0.00    -0.322 N 
ATOM      4  HN  UNK N   1      32.770  18.583  10.020  1.00  0.00     0.169 HD
HETATM    5  C   UNK N   1      33.760  17.323   8.829  0.00  0.00     0.221 C 
HETATM    6  O   UNK N   1      33.712  16.468   7.762  0.00  0.00    -0.301 OA
HETATM    7  C   UNK N   1      31.462  17.787   8.571  0.00  0.00     0.045 A 
HETATM    8  C   UNK N   1      30.093  16.669   6.913  0.00  0.00     0.036 A 
HETATM    9  C   UNK N   1      30.351  18.526   8.986  0.00  0.00     0.032 A 
HETATM   10  C   UNK N   1      28.990  17.425   7.315  0.00  0.00     0.034 A 
HETATM   11  C   UNK N   1      32.321  14.601   7.556  0.00  0.00     0.058 C 
HETATM   12  C   UNK N   1      29.118  18.351   8.353  0.00  0.00     0.026 A 
HETATM   13 Cl   UNK N   1      27.453  17.225   6.504  0.00  0.00    -0.084 Cl
ENDROOT
BRANCH   1  14
HETATM   14  C   UNK N   1      32.734  16.122   5.598  0.00  0.00    -0.019 A 
HETATM   15  C   UNK N   1      32.755  17.364   4.939  0.00  0.00     0.010 A 
HETATM   16  C   UNK N   1      32.853  17.421   3.542  0.00  0.00     0.001 A 
HETATM   17  C   UNK N   1      32.944  16.245   2.792  0.00  0.00     0.000 A 
HETATM   18  C   UNK N   1      32.938  15.007   3.436  0.00  0.00     0.001 A 
HETATM   19  C   UNK N   1      32.826  14.947   4.825  0.00  0.00     0.010 A 
ENDBRANCH   1  14
BRANCH   5  20
HETATM   20  N   UNK N   1      34.978  17.456   9.543  0.00  0.00    -0.356 N 
HETATM   21  H   UNK N   1      35.626  18.144   9.263  0.00  0.00     0.163 HD
BRANCH  20  22
HETATM   22  C   UNK N   1      35.295  16.610  10.667  0.00  0.00     0.118 C 
HETATM   23  C   UNK N   1      36.003  15.364  10.177  0.00  0.00     0.026 C 
ENDBRANCH  20  22
ENDBRANCH   5  20
TORSDOF 3
ENDMDL
MODEL 3
REMARK VINA RESULT:      -6.6     21.472     24.678
REMARK  3 active torsions:
REMARK  status: ('A' for Active; 'I' for Inactive)
REMARK    1  A    between atoms: C_9  and  C_1 
REMARK    2  A    between atoms: N_11  and  C_5 
REMARK    3  A    between atoms: C_18  and  N_11 
ROOT
HETATM    1  C   UNK N   1      35.135  12.439  14.420  0.00  0.00     0.123 C 
HETATM    2  C   UNK N   1      36.214  11.466  13.985  0.00  0.00     0.009 A 
HETATM    3  N   UNK N   1      35.856  12.164  11.680  0.00  0.00    -0.322 N 
ATOM      4  HN  UNK N   1      36.052  12.038  10.687  1.00  0.00     0.169 HD
HETATM    5  C   UNK N   1      34.985  13.041  12.043  0.00  0.00     0.221 C 
HETATM    6  O   UNK N   1      34.695  13.238  13.365  0.00  0.00    -0.301 OA
HETATM    7  C   UNK N   1      36.545  11.372  12.626  0.00  0.00     0.045 A 
HETATM    8  C   UNK N   1      36.882  10.655  14.917  0.00  0.00     0.036 A 
HETATM    9  C   UNK N   1      37.524  10.469  12.202  0.00  0.00     0.032 A 
HETATM   10  C   UNK N   1      37.875   9.770  14.493  0.00  0.00     0.034 A 
HETATM   11  C   UNK N   1      33.927  11.616  14.863  0.00  0.00     0.058 C 
HETATM   12  C   UNK N   1      38.194   9.674  13.136  0.00  0.00     0.026 A 
HETATM   13 Cl   UNK N   1      38.732   8.795  15.666  0.00  0.00    -0.084 Cl
ENDROOT
BRANCH   1  14
HETATM   14  C   UNK N   1      35.645  13.310  15.568  0.00  0.00    -0.019 A 
HETATM   15  C   UNK N   1      35.037  13.257  16.835  0.00  0.00     0.010 A 
HETATM   16  C   UNK N   1      35.468  14.109  17.861  0.00  0.00     0.001 A 
HETATM   17  C   UNK N   1      36.514  15.010  17.638  0.00  0.00     0.000 A 
HETATM   18  C   UNK N   1      37.134  15.061  16.390  0.00  0.00     0.001 A 
HETATM   19  C   UNK N   1      36.698  14.225  15.363  0.00  0.00     0.010 A 
ENDBRANCH   1  14
BRANCH   5  20
HETATM   20  N   UNK N   1      34.260  13.774  11.069  0.00  0.00    -0.356 N 
HETATM   21  H   UNK N   1      33.314  13.550  10.905  0.00  0.00     0.163 HD
BRANCH  20  22
HETATM   22  C   UNK N   1      34.870  14.839  10.311  0.00  0.00     0.118 C 
HETATM   23  C   UNK N   1      35.383  15.902  11.260  0.00  0.00     0.026 C 
ENDBRANCH  20  22
ENDBRANCH   5  20
TORSDOF 3
ENDMDL
MODEL 4
REMARK VINA RESULT:      -6.1      2.647      5.743
REMARK  3 active torsions:
REMARK  status: ('A' for Active; 'I' for Inactive)
REMARK    1  A    between atoms: C_9  and  C_1 
REMARK    2  A    between atoms: N_11  and  C_5 
REMARK    3  A    between atoms: C_18  and  N_11 
ROOT
HETATM    1  C   UNK N   1      27.513  24.070  -6.441  0.00  0.00     0.123 C 
HETATM    2  C   UNK N   1      28.367  23.502  -5.324  0.00  0.00     0.009 A 
HETATM    3  N   UNK N   1      27.385  25.127  -3.801  0.00  0.00    -0.322 N 
ATOM      4  HN  UNK N   1      27.367  25.564  -2.879  1.00  0.00     0.169 HD
HETATM    5  C   UNK N   1      26.605  25.575  -4.724  0.00  0.00     0.221 C 
HETATM    6  O   UNK N   1      26.601  25.016  -5.972  0.00  0.00    -0.301 OA
HETATM    7  C   UNK N   1      28.264  24.046  -4.036  0.00  0.00     0.045 A 
HETATM    8  C   UNK N   1      29.264  22.447  -5.558  0.00  0.00     0.036 A 
HETATM    9  C   UNK N   1      29.055  23.548  -2.997  0.00  0.00     0.032 A 
HETATM   10  C   UNK N   1      30.037  21.938  -4.514  0.00  0.00     0.034 A 
HETATM   11  C   UNK N   1      28.443  24.814  -7.397  0.00  0.00     0.058 C 
HETATM   12  C   UNK N   1      29.936  22.490  -3.233  0.00  0.00     0.026 A 
HETATM   13 Cl   UNK N   1      31.120  20.594  -4.804  0.00  0.00    -0.084 Cl
ENDROOT
BRANCH   1  14
HETATM   14  C   UNK N   1      26.781  22.942  -7.168  0.00  0.00    -0.019 A 
HETATM   15  C   UNK N   1      25.531  22.486  -6.714  0.00  0.00     0.010 A 
HETATM   16  C   UNK N   1      24.901  21.405  -7.346  0.00  0.00     0.001 A 
HETATM   17  C   UNK N   1      25.503  20.781  -8.443  0.00  0.00     0.000 A 
HETATM   18  C   UNK N   1      26.735  21.234  -8.912  0.00  0.00     0.001 A 
HETATM   19  C   UNK N   1      27.372  22.300  -8.275  0.00  0.00     0.010 A 
ENDBRANCH   1  14
BRANCH   5  20
HETATM   20  N   UNK N   1      25.783  26.705  -4.480  0.00  0.00    -0.356 N 
HETATM   21  H   UNK N   1      25.058  26.917  -5.112  0.00  0.00     0.163 HD
BRANCH  20  22
HETATM   22  C   UNK N   1      25.981  27.552  -3.329  0.00  0.00     0.118 C 
HETATM   23  C   UNK N   1      26.111  28.992  -3.780  0.00  0.00     0.026 C 
ENDBRANCH  20  22
ENDBRANCH   5  20
TORSDOF 3
ENDMDL
MODEL 5
REMARK VINA RESULT:      -6.1     27.582     30.725
REMARK  3 active torsions:
REMARK  status: ('A' for Active; 'I' for Inactive)
REMARK    1  A    between atoms: C_9  and  C_1 
REMARK    2  A    between atoms: N_11  and  C_5 
REMARK    3  A    between atoms: C_18  and  N_11 
ROOT
HETATM    1  C   UNK N   1      36.128  10.049  19.695  0.00  0.00     0.123 C 
HETATM    2  C   UNK N   1      34.945   9.602  20.533  0.00  0.00     0.009 A 
HETATM    3  N   UNK N   1      36.337   9.787  22.521  0.00  0.00    -0.322 N 
ATOM      4  HN  UNK N   1      36.455   9.640  23.524  1.00  0.00     0.169 HD
HETATM    5  C   UNK N   1      37.329  10.232  21.830  0.00  0.00     0.221 C 
HETATM    6  O   UNK N   1      37.209  10.441  20.483  0.00  0.00    -0.301 OA
HETATM    7  C   UNK N   1      35.090   9.498  21.924  0.00  0.00     0.045 A 
HETATM    8  C   UNK N   1      33.712   9.284  19.941  0.00  0.00     0.036 A 
HETATM    9  C   UNK N   1      34.018   9.070  22.712  0.00  0.00     0.032 A 
HETATM   10  C   UNK N   1      32.637   8.879  20.733  0.00  0.00     0.034 A 
HETATM   11  C   UNK N   1      36.603   8.841  18.891  0.00  0.00     0.058 C 
HETATM   12  C   UNK N   1      32.790   8.768  22.118  0.00  0.00     0.026 A 
HETATM   13 Cl   UNK N   1      31.091   8.528  19.992  0.00  0.00    -0.084 Cl
ENDROOT
BRANCH   1  14
HETATM   14  C   UNK N   1      35.711  11.188  18.764  0.00  0.00    -0.019 A 
HETATM   15  C   UNK N   1      35.673  11.000  17.371  0.00  0.00     0.010 A 
HETATM   16  C   UNK N   1      35.356  12.069  16.522  0.00  0.00     0.001 A 
HETATM   17  C   UNK N   1      35.061  13.328  17.054  0.00  0.00     0.000 A 
HETATM   18  C   UNK N   1      35.081  13.523  18.434  0.00  0.00     0.001 A 
HETATM   19  C   UNK N   1      35.410  12.465  19.281  0.00  0.00     0.010 A 
ENDBRANCH   1  14
BRANCH   5  20
HETATM   20  N   UNK N   1      38.589  10.449  22.445  0.00  0.00    -0.356 N 
HETATM   21  H   UNK N   1      39.238   9.709  22.484  0.00  0.00     0.163 HD
BRANCH  20  22
HETATM   22  C   UNK N   1      38.945  11.726  23.014  0.00  0.00     0.118 C 
HETATM   23  C   UNK N   1      40.369  11.671  23.524  0.00  0.00     0.026 C 
ENDBRANCH  20  22
ENDBRANCH   5  20
TORSDOF 3
ENDMDL
MODEL 6
REMARK VINA RESULT:      -6.1     11.705     13.597
REMARK  3 active torsions:
REMARK  status: ('A' for Active; 'I' for Inactive)
REMARK    1  A    between atoms: C_9  and  C_1 
REMARK    2  A    between atoms: N_11  and  C_5 
REMARK    3  A    between atoms: C_18  and  N_11 
ROOT
HETATM    1  C   UNK N   1      29.237  17.343   5.696  0.00  0.00     0.123 C 
HETATM    2  C   UNK N   1      28.666  16.199   4.880  0.00  0.00     0.009 A 
HETATM    3  N   UNK N   1      27.218  17.789   3.739  0.00  0.00    -0.322 N 
ATOM      4  HN  UNK N   1      26.451  17.965   3.089  1.00  0.00     0.169 HD
HETATM    5  C   UNK N   1      27.742  18.778   4.377  0.00  0.00     0.221 C 
HETATM    6  O   UNK N   1      28.770  18.582   5.257  0.00  0.00    -0.301 OA
HETATM    7  C   UNK N   1      27.680  16.466   3.919  0.00  0.00     0.045 A 
HETATM    8  C   UNK N   1      29.100  14.878   5.076  0.00  0.00     0.036 A 
HETATM    9  C   UNK N   1      27.129  15.424   3.170  0.00  0.00     0.032 A 
HETATM   10  C   UNK N   1      28.563  13.842   4.310  0.00  0.00     0.034 A 
HETATM   11  C   UNK N   1      28.733  17.182   7.128  0.00  0.00     0.058 C 
HETATM   12  C   UNK N   1      27.575  14.113   3.360  0.00  0.00     0.026 A 
HETATM   13 Cl   UNK N   1      29.141  12.205   4.529  0.00  0.00    -0.084 Cl
ENDROOT
BRANCH   1  14
HETATM   14  C   UNK N   1      30.765  17.307   5.654  0.00  0.00    -0.019 A 
HETATM   15  C   UNK N   1      31.512  17.106   6.827  0.00  0.00     0.010 A 
HETATM   16  C   UNK N   1      32.912  17.142   6.789  0.00  0.00     0.001 A 
HETATM   17  C   UNK N   1      33.579  17.366   5.580  0.00  0.00     0.000 A 
HETATM   18  C   UNK N   1      32.849  17.551   4.407  0.00  0.00     0.001 A 
HETATM   19  C   UNK N   1      31.455  17.530   4.445  0.00  0.00     0.010 A 
ENDBRANCH   1  14
BRANCH   5  20
HETATM   20  N   UNK N   1      27.212  20.086   4.228  0.00  0.00    -0.356 N 
HETATM   21  H   UNK N   1      27.472  20.622   3.443  0.00  0.00     0.163 HD
BRANCH  20  22
HETATM   22  C   UNK N   1      26.304  20.652   5.195  0.00  0.00     0.118 C 
HETATM   23  C   UNK N   1      27.073  21.542   6.148  0.00  0.00     0.026 C 
ENDBRANCH  20  22
ENDBRANCH   5  20
TORSDOF 3
ENDMDL
MODEL 7
REMARK VINA RESULT:      -6.1     11.179     13.282
REMARK  3 active torsions:
REMARK  status: ('A' for Active; 'I' for Inactive)
REMARK    1  A    between atoms: C_9  and  C_1 
REMARK    2  A    between atoms: N_11  and  C_5 
REMARK    3  A    between atoms: C_18  and  N_11 
ROOT
HETATM    1  C   UNK N   1      27.812  17.345   5.840  0.00  0.00     0.123 C 
HETATM    2  C   UNK N   1      27.227  18.709   5.525  0.00  0.00     0.009 A 
HETATM    3  N   UNK N   1      27.614  19.363   7.837  0.00  0.00    -0.322 N 
ATOM      4  HN  UNK N   1      27.495  20.047   8.585  1.00  0.00     0.169 HD
HETATM    5  C   UNK N   1      28.174  18.233   8.101  0.00  0.00     0.221 C 
HETATM    6  O   UNK N   1      28.349  17.291   7.126  0.00  0.00    -0.301 OA
HETATM    7  C   UNK N   1      27.159  19.677   6.537  0.00  0.00     0.045 A 
HETATM    8  C   UNK N   1      26.745  19.016   4.242  0.00  0.00     0.036 A 
HETATM    9  C   UNK N   1      26.607  20.933   6.272  0.00  0.00     0.032 A 
HETATM   10  C   UNK N   1      26.215  20.279   3.975  0.00  0.00     0.034 A 
HETATM   11  C   UNK N   1      26.665  16.337   5.814  0.00  0.00     0.058 C 
HETATM   12  C   UNK N   1      26.142  21.237   4.990  0.00  0.00     0.026 A 
HETATM   13 Cl   UNK N   1      25.659  20.668   2.362  0.00  0.00    -0.084 Cl
ENDROOT
BRANCH   1  14
HETATM   14  C   UNK N   1      28.876  16.979   4.805  0.00  0.00    -0.019 A 
HETATM   15  C   UNK N   1      30.183  17.485   4.907  0.00  0.00     0.010 A 
HETATM   16  C   UNK N   1      31.132  17.199   3.915  0.00  0.00     0.001 A 
HETATM   17  C   UNK N   1      30.790  16.396   2.823  0.00  0.00     0.000 A 
HETATM   18  C   UNK N   1      29.500  15.875   2.718  0.00  0.00     0.001 A 
HETATM   19  C   UNK N   1      28.550  16.171   3.696  0.00  0.00     0.010 A 
ENDBRANCH   1  14
BRANCH   5  20
HETATM   20  N   UNK N   1      28.559  17.919   9.430  0.00  0.00    -0.356 N 
HETATM   21  H   UNK N   1      27.983  17.329   9.970  0.00  0.00     0.163 HD
BRANCH  20  22
HETATM   22  C   UNK N   1      29.771  18.441  10.011  0.00  0.00     0.118 C 
HETATM   23  C   UNK N   1      30.875  18.426   8.974  0.00  0.00     0.026 C 
ENDBRANCH  20  22
ENDBRANCH   5  20
TORSDOF 3
ENDMDL
MODEL 8
REMARK VINA RESULT:      -6.0     11.341     12.945
REMARK  3 active torsions:
REMARK  status: ('A' for Active; 'I' for Inactive)
REMARK    1  A    between atoms: C_9  and  C_1 
REMARK    2  A    between atoms: N_11  and  C_5 
REMARK    3  A    between atoms: C_18  and  N_11 
ROOT
HETATM    1  C   UNK N   1      28.535  16.871   5.011  0.00  0.00     0.123 C 
HETATM    2  C   UNK N   1      30.003  16.784   4.643  0.00  0.00     0.009 A 
HETATM    3  N   UNK N   1      29.369  15.755   2.530  0.00  0.00    -0.322 N 
ATOM      4  HN  UNK N   1      29.646  15.294   1.663  1.00  0.00     0.169 HD
HETATM    5  C   UNK N   1      28.117  15.885   2.801  0.00  0.00     0.221 C 
HETATM    6  O   UNK N   1      27.707  16.496   3.954  0.00  0.00    -0.301 OA
HETATM    7  C   UNK N   1      30.369  16.237   3.405  0.00  0.00     0.045 A 
HETATM    8  C   UNK N   1      31.002  17.233   5.522  0.00  0.00     0.036 A 
HETATM    9  C   UNK N   1      31.717  16.131   3.054  0.00  0.00     0.032 A 
HETATM   10  C   UNK N   1      32.347  17.146   5.159  0.00  0.00     0.034 A 
HETATM   11  C   UNK N   1      28.281  15.861   6.129  0.00  0.00     0.058 C 
HETATM   12  C   UNK N   1      32.706  16.592   3.927  0.00  0.00     0.026 A 
HETATM   13 Cl   UNK N   1      33.583  17.749   6.241  0.00  0.00    -0.084 Cl
ENDROOT
BRANCH   1  14
HETATM   14  C   UNK N   1      28.193  18.287   5.476  0.00  0.00    -0.019 A 
HETATM   15  C   UNK N   1      28.039  18.577   6.843  0.00  0.00     0.010 A 
HETATM   16  C   UNK N   1      27.658  19.862   7.254  0.00  0.00     0.001 A 
HETATM   17  C   UNK N   1      27.443  20.870   6.309  0.00  0.00     0.000 A 
HETATM   18  C   UNK N   1      27.607  20.598   4.952  0.00  0.00     0.001 A 
HETATM   19  C   UNK N   1      27.971  19.316   4.539  0.00  0.00     0.010 A 
ENDBRANCH   1  14
BRANCH   5  20
HETATM   20  N   UNK N   1      27.137  15.332   1.937  0.00  0.00    -0.356 N 
HETATM   21  H   UNK N   1      27.427  14.801   1.159  0.00  0.00     0.163 HD
BRANCH  20  22
HETATM   22  C   UNK N   1      25.726  15.525   2.167  0.00  0.00     0.118 C 
HETATM   23  C   UNK N   1      24.952  14.388   1.534  0.00  0.00     0.026 C 
ENDBRANCH  20  22
ENDBRANCH   5  20
TORSDOF 3
ENDMDL
MODEL 9
REMARK VINA RESULT:      -5.7     22.254     25.378
REMARK  3 active torsions:
REMARK  status: ('A' for Active; 'I' for Inactive)
REMARK    1  A    between atoms: C_9  and  C_1 
REMARK    2  A    between atoms: N_11  and  C_5 
REMARK    3  A    between atoms: C_18  and  N_11 
ROOT
HETATM    1  C   UNK N   1      36.879  11.422  14.143  0.00  0.00     0.123 C 
HETATM    2  C   UNK N   1      36.287  11.625  15.524  0.00  0.00     0.009 A 
HETATM    3  N   UNK N   1      35.912  13.966  14.974  0.00  0.00    -0.322 N 
ATOM      4  HN  UNK N   1      35.631  14.901  15.272  1.00  0.00     0.169 HD
HETATM    5  C   UNK N   1      36.351  13.792  13.776  0.00  0.00     0.221 C 
HETATM    6  O   UNK N   1      36.739  12.554  13.342  0.00  0.00    -0.301 OA
HETATM    7  C   UNK N   1      35.812  12.893  15.888  0.00  0.00     0.045 A 
HETATM    8  C   UNK N   1      36.212  10.568  16.447  0.00  0.00     0.036 A 
HETATM    9  C   UNK N   1      35.279  13.105  17.162  0.00  0.00     0.032 A 
HETATM   10  C   UNK N   1      35.659  10.778  17.711  0.00  0.00     0.034 A 
HETATM   11  C   UNK N   1      38.382  11.206  14.316  0.00  0.00     0.058 C 
HETATM   12  C   UNK N   1      35.195  12.047  18.071  0.00  0.00     0.026 A 
HETATM   13 Cl   UNK N   1      35.529   9.446  18.838  0.00  0.00    -0.084 Cl
ENDROOT
BRANCH   1  14
HETATM   14  C   UNK N   1      36.235  10.211  13.468  0.00  0.00    -0.019 A 
HETATM   15  C   UNK N   1      34.956  10.306  12.891  0.00  0.00     0.010 A 
HETATM   16  C   UNK N   1      34.346   9.173  12.336  0.00  0.00     0.001 A 
HETATM   17  C   UNK N   1      35.008   7.942  12.338  0.00  0.00     0.000 A 
HETATM   18  C   UNK N   1      36.283   7.839  12.894  0.00  0.00     0.001 A 
HETATM   19  C   UNK N   1      36.887   8.961  13.461  0.00  0.00     0.010 A 
ENDBRANCH   1  14
BRANCH   5  20
HETATM   20  N   UNK N   1      36.505  14.900  12.903  0.00  0.00    -0.356 N 
HETATM   21  H   UNK N   1      37.325  15.443  12.956  0.00  0.00     0.163 HD
BRANCH  20  22
HETATM   22  C   UNK N   1      35.491  15.252  11.940  0.00  0.00     0.118 C 
HETATM   23  C   UNK N   1      36.126  16.014  10.795  0.00  0.00     0.026 C 
ENDBRANCH  20  22
ENDBRANCH   5  20
TORSDOF 3
ENDMDL
