MODEL 1
REMARK VINA RESULT:      -6.5      0.000      0.000
REMARK  9 active torsions:
REMARK  status: ('A' for Active; 'I' for Inactive)
REMARK    1  A    between atoms: C_2  and  C_3 
REMARK    2  A    between atoms: C_2  and  N_11 
REMARK    3  A    between atoms: C_3  and  O_4 
REMARK    4  A    between atoms: O_4  and  C_5 
REMARK    5  A    between atoms: N_11  and  C_12 
REMARK    6  A    between atoms: C_12  and  C_14 
REMARK    7  A    between atoms: C_14  and  O_15 
REMARK    8  A    between atoms: C_14  and  C_16 
REMARK    9  A    between atoms: C_19  and  O_20 
ROOT
HETATM    1  C   UNK N   1      28.357  22.460  -7.496  0.00  0.00     0.106 C 
HETATM    2  C   UNK N   1      28.704  23.042  -8.862  0.00  0.00     0.035 C 
ENDROOT
BRANCH   1   3
HETATM    3  N   UNK N   1      27.174  21.612  -7.573  0.00  0.00    -0.409 N 
HETATM    4  H   UNK N   1      27.168  20.593  -7.621  0.00  0.00     0.154 HD
BRANCH   3   5
HETATM    5  C   UNK N   1      25.999  22.479  -7.571  0.00  0.00     0.097 C 
HETATM    6  C   UNK N   1      24.765  21.642  -7.828  0.00  0.00     0.034 C 
BRANCH   5   7
HETATM    7  C   UNK N   1      25.843  23.176  -6.225  0.00  0.00     0.200 C 
BRANCH   7   8
HETATM    8  O   UNK N   1      25.335  24.449  -6.384  0.00  0.00    -0.349 OA
BRANCH   8   9
HETATM    9  C   UNK N   1      25.535  25.440  -5.482  0.00  0.00     0.068 A 
HETATM   10  C   UNK N   1      26.254  25.223  -4.291  0.00  0.00     0.037 A 
HETATM   11  C   UNK N   1      26.446  26.266  -3.380  0.00  0.00     0.003 A 
HETATM   12  C   UNK N   1      25.926  27.534  -3.650  0.00  0.00     0.000 A 
HETATM   13  C   UNK N   1      25.211  27.758  -4.831  0.00  0.00     0.003 A 
HETATM   14  C   UNK N   1      25.017  26.716  -5.742  0.00  0.00     0.037 A 
ENDBRANCH   8   9
ENDBRANCH   7   8
ENDBRANCH   5   7
ENDBRANCH   3   5
ENDBRANCH   1   3
BRANCH   1  15
HETATM   15  C   UNK N   1      29.537  21.724  -6.850  0.00  0.00     0.173 C 
BRANCH  15  16
HETATM   16  O   UNK N   1      29.358  20.348  -7.022  0.00  0.00    -0.389 OA
HETATM   17  H   UNK N   1      28.958  19.735  -6.384  0.00  0.00     0.210 HD
ENDBRANCH  15  16
BRANCH  15  18
HETATM   18  C   UNK N   1      29.777  22.059  -5.391  0.00  0.00    -0.028 A 
HETATM   19  C   UNK N   1      30.496  21.175  -4.569  0.00  0.00     0.012 A 
HETATM   20  C   UNK N   1      30.736  21.487  -3.228  0.00  0.00     0.037 A 
HETATM   21  C   UNK N   1      30.260  22.687  -2.696  0.00  0.00     0.065 A 
HETATM   22  C   UNK N   1      29.544  23.575  -3.504  0.00  0.00     0.037 A 
HETATM   23  C   UNK N   1      29.305  23.264  -4.849  0.00  0.00     0.012 A 
BRANCH  21  24
HETATM   24  O   UNK N   1      30.491  22.985  -1.407  0.00  0.00    -0.361 OA
HETATM   25  H   UNK N   1      31.359  23.200  -1.124  0.00  0.00     0.217 HD
ENDBRANCH  21  24
ENDBRANCH  15  18
ENDBRANCH   1  15
TORSDOF 9
ENDMDL
MODEL 2
REMARK VINA RESULT:      -6.3     18.847     22.639
REMARK  9 active torsions:
REMARK  status: ('A' for Active; 'I' for Inactive)
REMARK    1  A    between atoms: C_2  and  C_3 
REMARK    2  A    between atoms: C_2  and  N_11 
REMARK    3  A    between atoms: C_3  and  O_4 
REMARK    4  A    between atoms: O_4  and  C_5 
REMARK    5  A    between atoms: N_11  and  C_12 
REMARK    6  A    between atoms: C_12  and  C_14 
REMARK    7  A    between atoms: C_14  and  O_15 
REMARK    8  A    between atoms: C_14  and  C_16 
REMARK    9  A    between atoms: C_19  and  O_20 
ROOT
HETATM    1  C   UNK N   1      36.632  13.717  10.964  0.00  0.00     0.106 C 
HETATM    2  C   UNK N   1      37.586  12.682  10.377  0.00  0.00     0.035 C 
ENDROOT
BRANCH   1   3
HETATM    3  N   UNK N   1      36.971  14.016  12.348  0.00  0.00    -0.409 N 
HETATM    4  H   UNK N   1      37.896  14.264  12.700  0.00  0.00     0.154 HD
BRANCH   3   5
HETATM    5  C   UNK N   1      35.753  13.899  13.145  0.00  0.00     0.097 C 
HETATM    6  C   UNK N   1      35.009  12.648  12.733  0.00  0.00     0.034 C 
BRANCH   5   7
HETATM    7  C   UNK N   1      36.085  13.802  14.629  0.00  0.00     0.200 C 
BRANCH   7   8
HETATM    8  O   UNK N   1      35.002  13.337  15.347  0.00  0.00    -0.349 OA
BRANCH   8   9
HETATM    9  C   UNK N   1      35.119  12.774  16.575  0.00  0.00     0.068 A 
HETATM   10  C   UNK N   1      35.083  13.549  17.750  0.00  0.00     0.037 A 
HETATM   11  C   UNK N   1      35.204  12.939  19.003  0.00  0.00     0.003 A 
HETATM   12  C   UNK N   1      35.358  11.554  19.094  0.00  0.00     0.000 A 
HETATM   13  C   UNK N   1      35.395  10.778  17.931  0.00  0.00     0.003 A 
HETATM   14  C   UNK N   1      35.275  11.386  16.678  0.00  0.00     0.037 A 
ENDBRANCH   8   9
ENDBRANCH   7   8
ENDBRANCH   5   7
ENDBRANCH   3   5
ENDBRANCH   1   3
BRANCH   1  15
HETATM   15  C   UNK N   1      36.549  14.992  10.115  0.00  0.00     0.173 C 
BRANCH  15  16
HETATM   16  O   UNK N   1      37.116  16.048  10.834  0.00  0.00    -0.389 OA
HETATM   17  H   UNK N   1      36.802  16.967  10.853  0.00  0.00     0.210 HD
ENDBRANCH  15  16
BRANCH  15  18
HETATM   18  C   UNK N   1      35.156  15.351   9.637  0.00  0.00    -0.028 A 
HETATM   19  C   UNK N   1      34.165  14.360   9.527  0.00  0.00     0.012 A 
HETATM   20  C   UNK N   1      32.875  14.689   9.106  0.00  0.00     0.037 A 
HETATM   21  C   UNK N   1      32.560  16.012   8.789  0.00  0.00     0.065 A 
HETATM   22  C   UNK N   1      33.537  17.007   8.896  0.00  0.00     0.037 A 
HETATM   23  C   UNK N   1      34.830  16.679   9.321  0.00  0.00     0.012 A 
BRANCH  21  24
HETATM   24  O   UNK N   1      31.319  16.326   8.384  0.00  0.00    -0.361 OA
HETATM   25  H   UNK N   1      30.870  17.053   8.769  0.00  0.00     0.217 HD
ENDBRANCH  21  24
ENDBRANCH  15  18
ENDBRANCH   1  15
TORSDOF 9
ENDMDL
MODEL 3
REMARK VINA RESULT:      -6.1     10.577     14.039
REMARK  9 active torsions:
REMARK  status: ('A' for Active; 'I' for Inactive)
REMARK    1  A    between atoms: C_2  and  C_3 
REMARK    2  A    between atoms: C_2  and  N_11 
REMARK    3  A    between atoms: C_3  and  O_4 
REMARK    4  A    between atoms: O_4  and  C_5 
REMARK    5  A    between atoms: N_11  and  C_12 
REMARK    6  A    between atoms: C_12  and  C_14 
REMARK    7  A    between atoms: C_14  and  O_15 
REMARK    8  A    between atoms: C_14  and  C_16 
REMARK    9  A    between atoms: C_19  and  O_20 
ROOT
HETATM    1  C   UNK N   1      27.593  19.802   6.063  0.00  0.00     0.106 C 
HETATM    2  C   UNK N   1      26.881  21.123   6.330  0.00  0.00     0.035 C 
ENDROOT
BRANCH   1   3
HETATM    3  N   UNK N   1      27.297  18.828   7.105  0.00  0.00    -0.409 N 
HETATM    4  H   UNK N   1      26.372  18.478   7.355  0.00  0.00     0.154 HD
BRANCH   3   5
HETATM    5  C   UNK N   1      28.559  18.440   7.730  0.00  0.00     0.097 C 
HETATM    6  C   UNK N   1      28.344  18.268   9.217  0.00  0.00     0.034 C 
BRANCH   5   7
HETATM    7  C   UNK N   1      29.065  17.123   7.155  0.00  0.00     0.200 C 
BRANCH   7   8
HETATM    8  O   UNK N   1      30.184  16.686   7.834  0.00  0.00    -0.349 OA
BRANCH   8   9
HETATM    9  C   UNK N   1      31.441  17.079   7.513  0.00  0.00     0.068 A 
HETATM   10  C   UNK N   1      32.298  17.665   8.465  0.00  0.00     0.037 A 
HETATM   11  C   UNK N   1      33.590  18.059   8.105  0.00  0.00     0.003 A 
HETATM   12  C   UNK N   1      34.039  17.870   6.795  0.00  0.00     0.000 A 
HETATM   13  C   UNK N   1      33.194  17.288   5.845  0.00  0.00     0.003 A 
HETATM   14  C   UNK N   1      31.901  16.895   6.203  0.00  0.00     0.037 A 
ENDBRANCH   8   9
ENDBRANCH   7   8
ENDBRANCH   5   7
ENDBRANCH   3   5
ENDBRANCH   1   3
BRANCH   1  15
HETATM   15  C   UNK N   1      27.296  19.242   4.666  0.00  0.00     0.173 C 
BRANCH  15  16
HETATM   16  O   UNK N   1      28.224  19.770   3.763  0.00  0.00    -0.389 OA
HETATM   17  H   UNK N   1      28.260  20.687   3.444  0.00  0.00     0.210 HD
ENDBRANCH  15  16
BRANCH  15  18
HETATM   18  C   UNK N   1      25.879  19.467   4.177  0.00  0.00    -0.028 A 
HETATM   19  C   UNK N   1      25.609  20.452   3.212  0.00  0.00     0.012 A 
HETATM   20  C   UNK N   1      24.308  20.651   2.744  0.00  0.00     0.037 A 
HETATM   21  C   UNK N   1      23.263  19.866   3.234  0.00  0.00     0.065 A 
HETATM   22  C   UNK N   1      23.519  18.881   4.193  0.00  0.00     0.037 A 
HETATM   23  C   UNK N   1      24.824  18.679   4.661  0.00  0.00     0.012 A 
BRANCH  21  24
HETATM   24  O   UNK N   1      22.012  20.058   2.783  0.00  0.00    -0.361 OA
HETATM   25  H   UNK N   1      21.655  19.482   2.135  0.00  0.00     0.217 HD
ENDBRANCH  21  24
ENDBRANCH  15  18
ENDBRANCH   1  15
TORSDOF 9
ENDMDL
MODEL 4
REMARK VINA RESULT:      -6.0     17.653     21.581
REMARK  9 active torsions:
REMARK  status: ('A' for Active; 'I' for Inactive)
REMARK    1  A    between atoms: C_2  and  C_3 
REMARK    2  A    between atoms: C_2  and  N_11 
REMARK    3  A    between atoms: C_3  and  O_4 
REMARK    4  A    between atoms: O_4  and  C_5 
REMARK    5  A    between atoms: N_11  and  C_12 
REMARK    6  A    between atoms: C_12  and  C_14 
REMARK    7  A    between atoms: C_14  and  O_15 
REMARK    8  A    between atoms: C_14  and  C_16 
REMARK    9  A    between atoms: C_19  and  O_20 
ROOT
HETATM    1  C   UNK N   1      35.717  14.960  10.255  0.00  0.00     0.106 C 
HETATM    2  C   UNK N   1      36.363  14.399   8.993  0.00  0.00     0.035 C 
ENDROOT
BRANCH   1   3
HETATM    3  N   UNK N   1      36.582  14.776  11.412  0.00  0.00    -0.409 N 
HETATM    4  H   UNK N   1      37.382  15.357  11.662  0.00  0.00     0.154 HD
BRANCH   3   5
HETATM    5  C   UNK N   1      36.102  13.612  12.152  0.00  0.00     0.097 C 
HETATM    6  C   UNK N   1      37.186  12.557  12.176  0.00  0.00     0.034 C 
BRANCH   5   7
HETATM    7  C   UNK N   1      35.757  13.988  13.588  0.00  0.00     0.200 C 
BRANCH   7   8
HETATM    8  O   UNK N   1      34.741  13.193  14.076  0.00  0.00    -0.349 OA
BRANCH   8   9
HETATM    9  C   UNK N   1      34.869  12.435  15.193  0.00  0.00     0.068 A 
HETATM   10  C   UNK N   1      34.835  11.028  15.139  0.00  0.00     0.037 A 
HETATM   11  C   UNK N   1      34.973  10.272  16.307  0.00  0.00     0.003 A 
HETATM   12  C   UNK N   1      35.147  10.912  17.537  0.00  0.00     0.000 A 
HETATM   13  C   UNK N   1      35.181  12.309  17.598  0.00  0.00     0.003 A 
HETATM   14  C   UNK N   1      35.043  13.066  16.431  0.00  0.00     0.037 A 
ENDBRANCH   8   9
ENDBRANCH   7   8
ENDBRANCH   5   7
ENDBRANCH   3   5
ENDBRANCH   1   3
BRANCH   1  15
HETATM   15  C   UNK N   1      35.288  16.424  10.099  0.00  0.00     0.173 C 
BRANCH  15  16
HETATM   16  O   UNK N   1      34.872  16.906  11.344  0.00  0.00    -0.389 OA
HETATM   17  H   UNK N   1      35.265  17.645  11.837  0.00  0.00     0.210 HD
ENDBRANCH  15  16
BRANCH  15  18
HETATM   18  C   UNK N   1      34.226  16.669   9.044  0.00  0.00    -0.028 A 
HETATM   19  C   UNK N   1      34.426  17.639   8.047  0.00  0.00     0.012 A 
HETATM   20  C   UNK N   1      33.459  17.855   7.062  0.00  0.00     0.037 A 
HETATM   21  C   UNK N   1      32.282  17.105   7.064  0.00  0.00     0.065 A 
HETATM   22  C   UNK N   1      32.072  16.136   8.050  0.00  0.00     0.037 A 
HETATM   23  C   UNK N   1      33.042  15.916   9.036  0.00  0.00     0.012 A 
BRANCH  21  24
HETATM   24  O   UNK N   1      31.354  17.314   6.116  0.00  0.00    -0.361 OA
HETATM   25  H   UNK N   1      30.444  17.301   6.340  0.00  0.00     0.217 HD
ENDBRANCH  21  24
ENDBRANCH  15  18
ENDBRANCH   1  15
TORSDOF 9
ENDMDL
MODEL 5
REMARK VINA RESULT:      -5.9      3.405      7.115
REMARK  9 active torsions:
REMARK  status: ('A' for Active; 'I' for Inactive)
REMARK    1  A    between atoms: C_2  and  C_3 
REMARK    2  A    between atoms: C_2  and  N_11 
REMARK    3  A    between atoms: C_3  and  O_4 
REMARK    4  A    between atoms: O_4  and  C_5 
REMARK    5  A    between atoms: N_11  and  C_12 
REMARK    6  A    between atoms: C_12  and  C_14 
REMARK    7  A    between atoms: C_14  and  O_15 
REMARK    8  A    between atoms: C_14  and  C_16 
REMARK    9  A    between atoms: C_19  and  O_20 
ROOT
HETATM    1  C   UNK N   1      27.917  29.591  -3.790  0.00  0.00     0.106 C 
HETATM    2  C   UNK N   1      27.915  30.983  -3.166  0.00  0.00     0.035 C 
ENDROOT
BRANCH   1   3
HETATM    3  N   UNK N   1      28.667  28.650  -2.968  0.00  0.00    -0.409 N 
HETATM    4  H   UNK N   1      28.323  28.175  -2.134  0.00  0.00     0.154 HD
BRANCH   3   5
HETATM    5  C   UNK N   1      29.999  28.508  -3.549  0.00  0.00     0.097 C 
HETATM    6  C   UNK N   1      31.027  28.504  -2.440  0.00  0.00     0.034 C 
BRANCH   5   7
HETATM    7  C   UNK N   1      30.114  27.201  -4.325  0.00  0.00     0.200 C 
BRANCH   7   8
HETATM    8  O   UNK N   1      29.521  26.164  -3.635  0.00  0.00    -0.349 OA
BRANCH   8   9
HETATM    9  C   UNK N   1      28.611  25.330  -4.197  0.00  0.00     0.068 A 
HETATM   10  C   UNK N   1      28.853  24.696  -5.430  0.00  0.00     0.037 A 
HETATM   11  C   UNK N   1      27.897  23.839  -5.984  0.00  0.00     0.003 A 
HETATM   12  C   UNK N   1      26.694  23.606  -5.311  0.00  0.00     0.000 A 
HETATM   13  C   UNK N   1      26.447  24.232  -4.086  0.00  0.00     0.003 A 
HETATM   14  C   UNK N   1      27.402  25.090  -3.531  0.00  0.00     0.037 A 
ENDBRANCH   8   9
ENDBRANCH   7   8
ENDBRANCH   5   7
ENDBRANCH   3   5
ENDBRANCH   1   3
BRANCH   1  15
HETATM   15  C   UNK N   1      26.504  29.076  -4.090  0.00  0.00     0.173 C 
BRANCH  15  16
HETATM   16  O   UNK N   1      26.014  28.421  -2.956  0.00  0.00    -0.389 OA
HETATM   17  H   UNK N   1      26.505  27.806  -2.388  0.00  0.00     0.210 HD
ENDBRANCH  15  16
BRANCH  15  18
HETATM   18  C   UNK N   1      26.394  28.189  -5.314  0.00  0.00    -0.028 A 
HETATM   19  C   UNK N   1      25.280  27.350  -5.486  0.00  0.00     0.012 A 
HETATM   20  C   UNK N   1      25.165  26.545  -6.621  0.00  0.00     0.037 A 
HETATM   21  C   UNK N   1      26.162  26.570  -7.598  0.00  0.00     0.065 A 
HETATM   22  C   UNK N   1      27.274  27.403  -7.440  0.00  0.00     0.037 A 
HETATM   23  C   UNK N   1      27.389  28.212  -6.303  0.00  0.00     0.012 A 
BRANCH  21  24
HETATM   24  O   UNK N   1      26.049  25.795  -8.690  0.00  0.00    -0.361 OA
HETATM   25  H   UNK N   1      25.203  25.518  -8.982  0.00  0.00     0.217 HD
ENDBRANCH  21  24
ENDBRANCH  15  18
ENDBRANCH   1  15
TORSDOF 9
ENDMDL
MODEL 6
REMARK VINA RESULT:      -5.9     14.779     16.470
REMARK  9 active torsions:
REMARK  status: ('A' for Active; 'I' for Inactive)
REMARK    1  A    between atoms: C_2  and  C_3 
REMARK    2  A    between atoms: C_2  and  N_11 
REMARK    3  A    between atoms: C_3  and  O_4 
REMARK    4  A    between atoms: O_4  and  C_5 
REMARK    5  A    between atoms: N_11  and  C_12 
REMARK    6  A    between atoms: C_12  and  C_14 
REMARK    7  A    between atoms: C_14  and  O_15 
REMARK    8  A    between atoms: C_14  and  C_16 
REMARK    9  A    between atoms: C_19  and  O_20 
ROOT
HETATM    1  C   UNK N   1      20.130  15.867   5.005  0.00  0.00     0.106 C 
HETATM    2  C   UNK N   1      18.764  15.190   4.986  0.00  0.00     0.035 C 
ENDROOT
BRANCH   1   3
HETATM    3  N   UNK N   1      21.089  15.090   5.779  0.00  0.00    -0.409 N 
HETATM    4  H   UNK N   1      21.562  14.241   5.470  0.00  0.00     0.154 HD
BRANCH   3   5
HETATM    5  C   UNK N   1      21.254  15.742   7.075  0.00  0.00     0.097 C 
HETATM    6  C   UNK N   1      20.949  17.216   6.932  0.00  0.00     0.034 C 
BRANCH   5   7
HETATM    7  C   UNK N   1      20.304  15.145   8.106  0.00  0.00     0.200 C 
BRANCH   7   8
HETATM    8  O   UNK N   1      20.363  13.766   8.092  0.00  0.00    -0.349 OA
BRANCH   8   9
HETATM    9  C   UNK N   1      21.199  13.056   8.889  0.00  0.00     0.068 A 
HETATM   10  C   UNK N   1      21.069  13.065  10.290  0.00  0.00     0.037 A 
HETATM   11  C   UNK N   1      21.945  12.320  11.087  0.00  0.00     0.003 A 
HETATM   12  C   UNK N   1      22.955  11.560  10.492  0.00  0.00     0.000 A 
HETATM   13  C   UNK N   1      23.090  11.546   9.100  0.00  0.00     0.003 A 
HETATM   14  C   UNK N   1      22.215  12.291   8.303  0.00  0.00     0.037 A 
ENDBRANCH   8   9
ENDBRANCH   7   8
ENDBRANCH   5   7
ENDBRANCH   3   5
ENDBRANCH   1   3
BRANCH   1  15
HETATM   15  C   UNK N   1      20.657  16.175   3.598  0.00  0.00     0.173 C 
BRANCH  15  16
HETATM   16  O   UNK N   1      21.807  15.412   3.373  0.00  0.00    -0.389 OA
HETATM   17  H   UNK N   1      22.715  15.649   3.625  0.00  0.00     0.210 HD
ENDBRANCH  15  16
BRANCH  15  18
HETATM   18  C   UNK N   1      20.920  17.642   3.321  0.00  0.00    -0.028 A 
HETATM   19  C   UNK N   1      19.929  18.440   2.725  0.00  0.00     0.012 A 
HETATM   20  C   UNK N   1      20.159  19.797   2.484  0.00  0.00     0.037 A 
HETATM   21  C   UNK N   1      21.382  20.370   2.838  0.00  0.00     0.065 A 
HETATM   22  C   UNK N   1      22.375  19.586   3.433  0.00  0.00     0.037 A 
HETATM   23  C   UNK N   1      22.144  18.227   3.677  0.00  0.00     0.012 A 
BRANCH  21  24
HETATM   24  O   UNK N   1      21.601  21.675   2.606  0.00  0.00    -0.361 OA
HETATM   25  H   UNK N   1      20.906  22.217   2.285  0.00  0.00     0.217 HD
ENDBRANCH  21  24
ENDBRANCH  15  18
ENDBRANCH   1  15
TORSDOF 9
ENDMDL
MODEL 7
REMARK VINA RESULT:      -5.9      2.935      4.667
REMARK  9 active torsions:
REMARK  status: ('A' for Active; 'I' for Inactive)
REMARK    1  A    between atoms: C_2  and  C_3 
REMARK    2  A    between atoms: C_2  and  N_11 
REMARK    3  A    between atoms: C_3  and  O_4 
REMARK    4  A    between atoms: O_4  and  C_5 
REMARK    5  A    between atoms: N_11  and  C_12 
REMARK    6  A    between atoms: C_12  and  C_14 
REMARK    7  A    between atoms: C_14  and  O_15 
REMARK    8  A    between atoms: C_14  and  C_16 
REMARK    9  A    between atoms: C_19  and  O_20 
ROOT
HETATM    1  C   UNK N   1      27.275  23.696  -6.957  0.00  0.00     0.106 C 
HETATM    2  C   UNK N   1      28.216  22.498  -6.892  0.00  0.00     0.035 C 
ENDROOT
BRANCH   1   3
HETATM    3  N   UNK N   1      26.643  23.794  -8.265  0.00  0.00    -0.409 N 
HETATM    4  H   UNK N   1      25.770  23.347  -8.545  0.00  0.00     0.154 HD
BRANCH   3   5
HETATM    5  C   UNK N   1      27.478  24.647  -9.106  0.00  0.00     0.097 C 
HETATM    6  C   UNK N   1      27.273  24.267 -10.556  0.00  0.00     0.034 C 
BRANCH   5   7
HETATM    7  C   UNK N   1      27.106  26.114  -8.929  0.00  0.00     0.200 C 
BRANCH   7   8
HETATM    8  O   UNK N   1      28.223  26.877  -8.658  0.00  0.00    -0.349 OA
BRANCH   8   9
HETATM    9  C   UNK N   1      28.475  27.405  -7.435  0.00  0.00     0.068 A 
HETATM   10  C   UNK N   1      29.219  26.703  -6.467  0.00  0.00     0.037 A 
HETATM   11  C   UNK N   1      29.465  27.273  -5.214  0.00  0.00     0.003 A 
HETATM   12  C   UNK N   1      28.975  28.548  -4.918  0.00  0.00     0.000 A 
HETATM   13  C   UNK N   1      28.236  29.251  -5.875  0.00  0.00     0.003 A 
HETATM   14  C   UNK N   1      27.988  28.681  -7.127  0.00  0.00     0.037 A 
ENDBRANCH   8   9
ENDBRANCH   7   8
ENDBRANCH   5   7
ENDBRANCH   3   5
ENDBRANCH   1   3
BRANCH   1  15
HETATM   15  C   UNK N   1      26.238  23.695  -5.827  0.00  0.00     0.173 C 
BRANCH  15  16
HETATM   16  O   UNK N   1      25.038  23.172  -6.319  0.00  0.00    -0.389 OA
HETATM   17  H   UNK N   1      24.628  22.330  -6.063  0.00  0.00     0.210 HD
ENDBRANCH  15  16
BRANCH  15  18
HETATM   18  C   UNK N   1      26.010  25.041  -5.168  0.00  0.00    -0.028 A 
HETATM   19  C   UNK N   1      26.535  25.306  -3.893  0.00  0.00     0.012 A 
HETATM   20  C   UNK N   1      26.344  26.551  -3.289  0.00  0.00     0.037 A 
HETATM   21  C   UNK N   1      25.625  27.545  -3.955  0.00  0.00     0.065 A 
HETATM   22  C   UNK N   1      25.098  27.294  -5.226  0.00  0.00     0.037 A 
HETATM   23  C   UNK N   1      25.292  26.047  -5.833  0.00  0.00     0.012 A 
BRANCH  21  24
HETATM   24  O   UNK N   1      25.442  28.742  -3.373  0.00  0.00    -0.361 OA
HETATM   25  H   UNK N   1      26.180  29.286  -3.178  0.00  0.00     0.217 HD
ENDBRANCH  21  24
ENDBRANCH  15  18
ENDBRANCH   1  15
TORSDOF 9
ENDMDL
MODEL 8
REMARK VINA RESULT:      -5.8      2.559      4.915
REMARK  9 active torsions:
REMARK  status: ('A' for Active; 'I' for Inactive)
REMARK    1  A    between atoms: C_2  and  C_3 
REMARK    2  A    between atoms: C_2  and  N_11 
REMARK    3  A    between atoms: C_3  and  O_4 
REMARK    4  A    between atoms: O_4  and  C_5 
REMARK    5  A    between atoms: N_11  and  C_12 
REMARK    6  A    between atoms: C_12  and  C_14 
REMARK    7  A    between atoms: C_14  and  O_15 
REMARK    8  A    between atoms: C_14  and  C_16 
REMARK    9  A    between atoms: C_19  and  O_20 
ROOT
HETATM    1  C   UNK N   1      26.316  23.111  -6.738  0.00  0.00     0.106 C 
HETATM    2  C   UNK N   1      25.564  21.887  -7.250  0.00  0.00     0.035 C 
ENDROOT
BRANCH   1   3
HETATM    3  N   UNK N   1      27.648  23.189  -7.322  0.00  0.00    -0.409 N 
HETATM    4  H   UNK N   1      27.866  23.406  -8.295  0.00  0.00     0.154 HD
BRANCH   3   5
HETATM    5  C   UNK N   1      28.619  22.902  -6.269  0.00  0.00     0.097 C 
HETATM    6  C   UNK N   1      29.490  21.743  -6.701  0.00  0.00     0.034 C 
BRANCH   5   7
HETATM    7  C   UNK N   1      29.509  24.111  -6.009  0.00  0.00     0.200 C 
BRANCH   7   8
HETATM    8  O   UNK N   1      29.348  25.063  -6.995  0.00  0.00    -0.349 OA
BRANCH   8   9
HETATM    9  C   UNK N   1      29.067  26.362  -6.726  0.00  0.00     0.068 A 
HETATM   10  C   UNK N   1      28.436  27.192  -7.671  0.00  0.00     0.037 A 
HETATM   11  C   UNK N   1      28.156  28.528  -7.364  0.00  0.00     0.003 A 
HETATM   12  C   UNK N   1      28.502  29.044  -6.113  0.00  0.00     0.000 A 
HETATM   13  C   UNK N   1      29.129  28.225  -5.169  0.00  0.00     0.003 A 
HETATM   14  C   UNK N   1      29.410  26.890  -5.474  0.00  0.00     0.037 A 
ENDBRANCH   8   9
ENDBRANCH   7   8
ENDBRANCH   5   7
ENDBRANCH   3   5
ENDBRANCH   1   3
BRANCH   1  15
HETATM   15  C   UNK N   1      25.533  24.414  -6.943  0.00  0.00     0.173 C 
BRANCH  15  16
HETATM   16  O   UNK N   1      25.909  24.977  -8.166  0.00  0.00    -0.389 OA
HETATM   17  H   UNK N   1      26.107  24.496  -8.986  0.00  0.00     0.210 HD
ENDBRANCH  15  16
BRANCH  15  18
HETATM   18  C   UNK N   1      25.670  25.424  -5.820  0.00  0.00    -0.028 A 
HETATM   19  C   UNK N   1      25.174  26.729  -5.976  0.00  0.00     0.012 A 
HETATM   20  C   UNK N   1      25.281  27.658  -4.938  0.00  0.00     0.037 A 
HETATM   21  C   UNK N   1      25.883  27.292  -3.733  0.00  0.00     0.065 A 
HETATM   22  C   UNK N   1      26.378  25.995  -3.566  0.00  0.00     0.037 A 
HETATM   23  C   UNK N   1      26.270  25.062  -4.605  0.00  0.00     0.012 A 
BRANCH  21  24
HETATM   24  O   UNK N   1      25.984  28.186  -2.736  0.00  0.00    -0.361 OA
HETATM   25  H   UNK N   1      26.766  28.695  -2.641  0.00  0.00     0.217 HD
ENDBRANCH  21  24
ENDBRANCH  15  18
ENDBRANCH   1  15
TORSDOF 9
ENDMDL
MODEL 9
REMARK VINA RESULT:      -5.8     15.086     18.639
REMARK  9 active torsions:
REMARK  status: ('A' for Active; 'I' for Inactive)
REMARK    1  A    between atoms: C_2  and  C_3 
REMARK    2  A    between atoms: C_2  and  N_11 
REMARK    3  A    between atoms: C_3  and  O_4 
REMARK    4  A    between atoms: O_4  and  C_5 
REMARK    5  A    between atoms: N_11  and  C_12 
REMARK    6  A    between atoms: C_12  and  C_14 
REMARK    7  A    between atoms: C_14  and  O_15 
REMARK    8  A    between atoms: C_14  and  C_16 
REMARK    9  A    between atoms: C_19  and  O_20 
ROOT
HETATM    1  C   UNK N   1      34.789  15.659  10.234  0.00  0.00     0.106 C 
HETATM    2  C   UNK N   1      33.667  14.681  10.566  0.00  0.00     0.035 C 
ENDROOT
BRANCH   1   3
HETATM    3  N   UNK N   1      34.257  16.978   9.917  0.00  0.00    -0.409 N 
HETATM    4  H   UNK N   1      34.317  17.808  10.507  0.00  0.00     0.154 HD
BRANCH   3   5
HETATM    5  C   UNK N   1      33.621  16.903   8.605  0.00  0.00     0.097 C 
HETATM    6  C   UNK N   1      32.595  18.009   8.486  0.00  0.00     0.034 C 
BRANCH   5   7
HETATM    7  C   UNK N   1      34.650  17.071   7.494  0.00  0.00     0.200 C 
BRANCH   7   8
HETATM    8  O   UNK N   1      34.103  17.724   6.409  0.00  0.00    -0.349 OA
BRANCH   8   9
HETATM    9  C   UNK N   1      33.698  17.079   5.287  0.00  0.00     0.068 A 
HETATM   10  C   UNK N   1      32.859  17.698   4.341  0.00  0.00     0.037 A 
HETATM   11  C   UNK N   1      32.459  17.008   3.193  0.00  0.00     0.003 A 
HETATM   12  C   UNK N   1      32.895  15.698   2.977  0.00  0.00     0.000 A 
HETATM   13  C   UNK N   1      33.729  15.077   3.912  0.00  0.00     0.003 A 
HETATM   14  C   UNK N   1      34.128  15.765   5.062  0.00  0.00     0.037 A 
ENDBRANCH   8   9
ENDBRANCH   7   8
ENDBRANCH   5   7
ENDBRANCH   3   5
ENDBRANCH   1   3
BRANCH   1  15
HETATM   15  C   UNK N   1      35.856  15.731  11.334  0.00  0.00     0.173 C 
BRANCH  15  16
HETATM   16  O   UNK N   1      36.985  16.378  10.824  0.00  0.00    -0.389 OA
HETATM   17  H   UNK N   1      37.911  16.155  11.010  0.00  0.00     0.210 HD
ENDBRANCH  15  16
BRANCH  15  18
HETATM   18  C   UNK N   1      36.231  14.396  11.947  0.00  0.00    -0.028 A 
HETATM   19  C   UNK N   1      35.883  14.102  13.276  0.00  0.00     0.012 A 
HETATM   20  C   UNK N   1      36.210  12.866  13.839  0.00  0.00     0.037 A 
HETATM   21  C   UNK N   1      36.888  11.910  13.080  0.00  0.00     0.065 A 
HETATM   22  C   UNK N   1      37.238  12.191  11.755  0.00  0.00     0.037 A 
HETATM   23  C   UNK N   1      36.908  13.428  11.188  0.00  0.00     0.012 A 
BRANCH  21  24
HETATM   24  O   UNK N   1      37.201  10.723  13.623  0.00  0.00    -0.361 OA
HETATM   25  H   UNK N   1      36.588  10.288  14.184  0.00  0.00     0.217 HD
ENDBRANCH  21  24
ENDBRANCH  15  18
ENDBRANCH   1  15
TORSDOF 9
ENDMDL
