MODEL 1
REMARK VINA RESULT:      -7.2      0.000      0.000
REMARK  3 active torsions:
REMARK  status: ('A' for Active; 'I' for Inactive)
REMARK    1  A    between atoms: C_19  and  C_12 
REMARK    2  A    between atoms: O_22  and  C_12 
REMARK    3  A    between atoms: C_18  and  C_19 
ROOT
HETATM    1  C   UNK N   1      28.280  27.006  -4.343  0.00  0.00     0.016 C 
HETATM    2  C   UNK N   1      28.331  23.157  -6.123  0.00  0.00     0.016 C 
HETATM    3  C   UNK N   1      28.198  28.215  -7.203  0.00  0.00     0.006 C 
HETATM    4  C   UNK N   1      27.652  27.021  -7.988  0.00  0.00     0.006 C 
HETATM    5  C   UNK N   1      27.895  24.042  -8.914  0.00  0.00     0.006 C 
HETATM    6  C   UNK N   1      27.460  22.578  -9.078  0.00  0.00     0.013 C 
HETATM    7  C   UNK N   1      26.305  29.067  -3.276  0.00  0.00     0.079 C 
HETATM    8  C   UNK N   1      26.242  24.939  -4.994  0.00  0.00     0.006 C 
HETATM    9  C   UNK N   1      25.926  27.831  -4.100  0.00  0.00     0.017 C 
HETATM   10  C   UNK N   1      25.909  23.637  -5.757  0.00  0.00     0.011 C 
HETATM   11  C   UNK N   1      27.841  29.790  -5.309  0.00  0.00     0.083 C 
HETATM   12  C   UNK N   1      27.256  28.589  -6.054  0.00  0.00     0.001 C 
HETATM   13  C   UNK N   1      27.224  30.052  -3.958  0.00  0.00     0.127 C 
HETATM   14  C   UNK N   1      27.500  25.821  -7.053  0.00  0.00    -0.005 C 
HETATM   15  C   UNK N   1      27.016  24.555  -7.789  0.00  0.00    -0.001 C 
HETATM   16  C   UNK N   1      26.488  26.164  -5.920  0.00  0.00    -0.002 C 
HETATM   17  C   UNK N   1      26.774  22.159  -7.765  0.00  0.00     0.066 C 
HETATM   18  C   UNK N   1      27.000  27.389  -5.104  0.00  0.00    -0.036 C 
HETATM   19  C   UNK N   1      26.974  23.367  -6.826  0.00  0.00    -0.030 C 
HETATM   20  O   UNK N   1      27.544  31.062  -3.357  0.00  0.00    -0.298 OA
ENDROOT
BRANCH  17  21
HETATM   21  C   UNK N   1      25.341  21.747  -8.016  0.00  0.00     0.154 C 
HETATM   22  O   UNK N   1      24.721  22.179  -8.974  0.00  0.00    -0.295 OA
BRANCH  21  23
HETATM   23  C   UNK N   1      24.669  20.793  -7.073  0.00  0.00     0.242 C 
BRANCH  23  24
HETATM   24  O   UNK N   1      23.471  21.342  -6.610  0.00  0.00    -0.394 OA
HETATM   25  H   UNK N   1      23.296  22.292  -6.517  0.00  0.00     0.209 HD
ENDBRANCH  23  24
ENDBRANCH  21  23
ENDBRANCH  17  21
TORSDOF 3
ENDMDL
MODEL 2
REMARK VINA RESULT:      -7.2      3.433      6.845
REMARK  3 active torsions:
REMARK  status: ('A' for Active; 'I' for Inactive)
REMARK    1  A    between atoms: C_19  and  C_12 
REMARK    2  A    between atoms: O_22  and  C_12 
REMARK    3  A    between atoms: C_18  and  C_19 
ROOT
HETATM    1  C   UNK N   1      30.067  21.727  -3.573  0.00  0.00     0.016 C 
HETATM    2  C   UNK N   1      26.689  24.281  -3.348  0.00  0.00     0.016 C 
HETATM    3  C   UNK N   1      29.345  21.203  -6.548  0.00  0.00     0.006 C 
HETATM    4  C   UNK N   1      28.495  22.439  -6.844  0.00  0.00     0.006 C 
HETATM    5  C   UNK N   1      26.005  24.231  -6.228  0.00  0.00     0.006 C 
HETATM    6  C   UNK N   1      25.253  25.515  -5.846  0.00  0.00     0.013 C 
HETATM    7  C   UNK N   1      33.051  21.838  -4.183  0.00  0.00     0.079 C 
HETATM    8  C   UNK N   1      29.598  24.654  -3.817  0.00  0.00     0.006 C 
HETATM    9  C   UNK N   1      32.058  22.977  -4.443  0.00  0.00     0.017 C 
HETATM   10  C   UNK N   1      28.570  25.796  -3.981  0.00  0.00     0.011 C 
HETATM   11  C   UNK N   1      31.541  20.337  -5.758  0.00  0.00     0.083 C 
HETATM   12  C   UNK N   1      30.729  21.605  -6.028  0.00  0.00     0.001 C 
HETATM   13  C   UNK N   1      32.777  20.549  -4.920  0.00  0.00     0.127 C 
HETATM   14  C   UNK N   1      28.331  23.265  -5.568  0.00  0.00    -0.005 C 
HETATM   15  C   UNK N   1      27.426  24.497  -5.771  0.00  0.00    -0.001 C 
HETATM   16  C   UNK N   1      29.728  23.741  -5.068  0.00  0.00    -0.002 C 
HETATM   17  C   UNK N   1      26.084  26.220  -4.758  0.00  0.00     0.066 C 
HETATM   18  C   UNK N   1      30.634  22.508  -4.770  0.00  0.00    -0.036 C 
HETATM   19  C   UNK N   1      27.222  25.228  -4.443  0.00  0.00    -0.030 C 
HETATM   20  O   UNK N   1      33.544  19.616  -4.766  0.00  0.00    -0.298 OA
ENDROOT
BRANCH  17  21
HETATM   21  C   UNK N   1      26.512  27.595  -5.218  0.00  0.00     0.154 C 
HETATM   22  O   UNK N   1      26.974  27.769  -6.334  0.00  0.00    -0.295 OA
BRANCH  21  23
HETATM   23  C   UNK N   1      26.369  28.764  -4.289  0.00  0.00     0.242 C 
BRANCH  23  24
HETATM   24  O   UNK N   1      25.481  28.450  -3.258  0.00  0.00    -0.394 OA
HETATM   25  H   UNK N   1      25.282  29.026  -2.502  0.00  0.00     0.209 HD
ENDBRANCH  23  24
ENDBRANCH  21  23
ENDBRANCH  17  21
TORSDOF 3
ENDMDL
MODEL 3
REMARK VINA RESULT:      -7.1     15.760     17.821
REMARK  3 active torsions:
REMARK  status: ('A' for Active; 'I' for Inactive)
REMARK    1  A    between atoms: C_19  and  C_12 
REMARK    2  A    between atoms: O_22  and  C_12 
REMARK    3  A    between atoms: C_18  and  C_19 
ROOT
HETATM    1  C   UNK N   1      29.896  17.516   4.851  0.00  0.00     0.016 C 
HETATM    2  C   UNK N   1      33.849  17.513   6.386  0.00  0.00     0.016 C 
HETATM    3  C   UNK N   1      30.037  14.414   4.762  0.00  0.00     0.006 C 
HETATM    4  C   UNK N   1      31.150  14.163   5.780  0.00  0.00     0.006 C 
HETATM    5  C   UNK N   1      34.099  14.585   6.737  0.00  0.00     0.006 C 
HETATM    6  C   UNK N   1      35.223  15.017   7.691  0.00  0.00     0.013 C 
HETATM    7  C   UNK N   1      27.006  17.485   5.820  0.00  0.00     0.079 C 
HETATM    8  C   UNK N   1      31.124  17.646   7.557  0.00  0.00     0.006 C 
HETATM    9  C   UNK N   1      28.233  17.228   6.704  0.00  0.00     0.017 C 
HETATM   10  C   UNK N   1      32.397  17.475   8.416  0.00  0.00     0.011 C 
HETATM   11  C   UNK N   1      27.814  15.448   4.332  0.00  0.00     0.083 C 
HETATM   12  C   UNK N   1      28.902  15.234   5.386  0.00  0.00     0.001 C 
HETATM   13  C   UNK N   1      26.810  16.520   4.675  0.00  0.00     0.127 C 
HETATM   14  C   UNK N   1      31.706  15.500   6.270  0.00  0.00    -0.005 C 
HETATM   15  C   UNK N   1      32.883  15.328   7.253  0.00  0.00    -0.001 C 
HETATM   16  C   UNK N   1      30.577  16.314   6.971  0.00  0.00    -0.002 C 
HETATM   17  C   UNK N   1      34.775  16.333   8.351  0.00  0.00     0.066 C 
HETATM   18  C   UNK N   1      29.413  16.578   5.969  0.00  0.00    -0.036 C 
HETATM   19  C   UNK N   1      33.458  16.694   7.633  0.00  0.00    -0.030 C 
HETATM   20  O   UNK N   1      25.842  16.666   3.951  0.00  0.00    -0.298 OA
ENDROOT
BRANCH  17  21
HETATM   21  C   UNK N   1      34.688  16.178   9.853  0.00  0.00     0.154 C 
HETATM   22  O   UNK N   1      35.005  17.090  10.599  0.00  0.00    -0.295 OA
BRANCH  21  23
HETATM   23  C   UNK N   1      34.204  14.883  10.436  0.00  0.00     0.242 C 
BRANCH  23  24
HETATM   24  O   UNK N   1      32.952  15.064  11.030  0.00  0.00    -0.394 OA
HETATM   25  H   UNK N   1      32.805  15.217  11.977  0.00  0.00     0.209 HD
ENDBRANCH  23  24
ENDBRANCH  21  23
ENDBRANCH  17  21
TORSDOF 3
ENDMDL
MODEL 4
REMARK VINA RESULT:      -7.0     26.908     28.695
REMARK  3 active torsions:
REMARK  status: ('A' for Active; 'I' for Inactive)
REMARK    1  A    between atoms: C_19  and  C_12 
REMARK    2  A    between atoms: O_22  and  C_12 
REMARK    3  A    between atoms: C_18  and  C_19 
ROOT
HETATM    1  C   UNK N   1      36.498   9.558  18.570  0.00  0.00     0.016 C 
HETATM    2  C   UNK N   1      37.704  11.396  14.943  0.00  0.00     0.016 C 
HETATM    3  C   UNK N   1      35.447  12.327  19.505  0.00  0.00     0.006 C 
HETATM    4  C   UNK N   1      35.271  13.022  18.154  0.00  0.00     0.006 C 
HETATM    5  C   UNK N   1      36.469  14.038  15.449  0.00  0.00     0.006 C 
HETATM    6  C   UNK N   1      36.609  14.149  13.923  0.00  0.00     0.013 C 
HETATM    7  C   UNK N   1      34.108   8.100  19.775  0.00  0.00     0.079 C 
HETATM    8  C   UNK N   1      35.329   9.862  15.851  0.00  0.00     0.006 C 
HETATM    9  C   UNK N   1      34.093   8.865  18.446  0.00  0.00     0.017 C 
HETATM   10  C   UNK N   1      35.392  10.577  14.483  0.00  0.00     0.011 C 
HETATM   11  C   UNK N   1      34.857  10.367  20.921  0.00  0.00     0.083 C 
HETATM   12  C   UNK N   1      34.656  11.016  19.551  0.00  0.00     0.001 C 
HETATM   13  C   UNK N   1      34.440   8.920  20.999  0.00  0.00     0.127 C 
HETATM   14  C   UNK N   1      35.761  12.100  17.037  0.00  0.00    -0.005 C 
HETATM   15  C   UNK N   1      35.678  12.760  15.645  0.00  0.00    -0.001 C 
HETATM   16  C   UNK N   1      34.916  10.792  17.027  0.00  0.00    -0.002 C 
HETATM   17  C   UNK N   1      36.384  12.741  13.343  0.00  0.00     0.066 C 
HETATM   18  C   UNK N   1      35.055  10.059  18.396  0.00  0.00    -0.036 C 
HETATM   19  C   UNK N   1      36.269  11.831  14.584  0.00  0.00    -0.030 C 
HETATM   20  O   UNK N   1      34.449   8.368  22.085  0.00  0.00    -0.298 OA
ENDROOT
BRANCH  17  21
HETATM   21  C   UNK N   1      35.199  12.731  12.404  0.00  0.00     0.154 C 
HETATM   22  O   UNK N   1      34.336  13.591  12.470  0.00  0.00    -0.295 OA
BRANCH  21  23
HETATM   23  C   UNK N   1      35.081  11.647  11.374  0.00  0.00     0.242 C 
BRANCH  23  24
HETATM   24  O   UNK N   1      33.771  11.164  11.335  0.00  0.00    -0.394 OA
HETATM   25  H   UNK N   1      33.461  10.364  11.791  0.00  0.00     0.209 HD
ENDBRANCH  23  24
ENDBRANCH  21  23
ENDBRANCH  17  21
TORSDOF 3
ENDMDL
MODEL 5
REMARK VINA RESULT:      -6.9     15.521     17.384
REMARK  3 active torsions:
REMARK  status: ('A' for Active; 'I' for Inactive)
REMARK    1  A    between atoms: C_19  and  C_12 
REMARK    2  A    between atoms: O_22  and  C_12 
REMARK    3  A    between atoms: C_18  and  C_19 
ROOT
HETATM    1  C   UNK N   1      31.934  15.538   9.385  0.00  0.00     0.016 C 
HETATM    2  C   UNK N   1      28.069  16.922   8.321  0.00  0.00     0.016 C 
HETATM    3  C   UNK N   1      32.332  14.685   6.425  0.00  0.00     0.006 C 
HETATM    4  C   UNK N   1      31.297  15.580   5.742  0.00  0.00     0.006 C 
HETATM    5  C   UNK N   1      28.337  16.534   5.398  0.00  0.00     0.006 C 
HETATM    6  C   UNK N   1      27.173  17.536   5.381  0.00  0.00     0.013 C 
HETATM    7  C   UNK N   1      34.801  16.545   9.614  0.00  0.00     0.079 C 
HETATM    8  C   UNK N   1      30.750  18.160   8.628  0.00  0.00     0.006 C 
HETATM    9  C   UNK N   1      33.654  17.305   8.939  0.00  0.00     0.017 C 
HETATM   10  C   UNK N   1      29.541  18.917   8.034  0.00  0.00     0.011 C 
HETATM   11  C   UNK N   1      34.333  14.580   7.901  0.00  0.00     0.083 C 
HETATM   12  C   UNK N   1      33.317  15.520   7.248  0.00  0.00     0.001 C 
HETATM   13  C   UNK N   1      35.142  15.203   9.011  0.00  0.00     0.127 C 
HETATM   14  C   UNK N   1      30.526  16.370   6.800  0.00  0.00    -0.005 C 
HETATM   15  C   UNK N   1      29.415  17.249   6.190  0.00  0.00    -0.001 C 
HETATM   16  C   UNK N   1      31.509  17.278   7.597  0.00  0.00    -0.002 C 
HETATM   17  C   UNK N   1      27.397  18.512   6.550  0.00  0.00     0.066 C 
HETATM   18  C   UNK N   1      32.591  16.403   8.297  0.00  0.00    -0.036 C 
HETATM   19  C   UNK N   1      28.618  17.938   7.298  0.00  0.00    -0.030 C 
HETATM   20  O   UNK N   1      36.057  14.563   9.496  0.00  0.00    -0.298 OA
ENDROOT
BRANCH  17  21
HETATM   21  C   UNK N   1      27.536  19.930   6.046  0.00  0.00     0.154 C 
HETATM   22  O   UNK N   1      28.143  20.174   5.015  0.00  0.00    -0.295 OA
BRANCH  21  23
HETATM   23  C   UNK N   1      26.921  21.056   6.823  0.00  0.00     0.242 C 
BRANCH  23  24
HETATM   24  O   UNK N   1      26.292  20.560   7.967  0.00  0.00    -0.394 OA
HETATM   25  H   UNK N   1      26.299  19.629   8.244  0.00  0.00     0.209 HD
ENDBRANCH  23  24
ENDBRANCH  21  23
ENDBRANCH  17  21
TORSDOF 3
ENDMDL
MODEL 6
REMARK VINA RESULT:      -6.8      4.259      7.081
REMARK  3 active torsions:
REMARK  status: ('A' for Active; 'I' for Inactive)
REMARK    1  A    between atoms: C_19  and  C_12 
REMARK    2  A    between atoms: O_22  and  C_12 
REMARK    3  A    between atoms: C_18  and  C_19 
ROOT
HETATM    1  C   UNK N   1      32.745  22.827  -5.344  0.00  0.00     0.016 C 
HETATM    2  C   UNK N   1      29.321  25.179  -6.198  0.00  0.00     0.016 C 
HETATM    3  C   UNK N   1      31.452  22.119  -2.610  0.00  0.00     0.006 C 
HETATM    4  C   UNK N   1      29.982  22.401  -2.924  0.00  0.00     0.006 C 
HETATM    5  C   UNK N   1      27.730  24.374  -3.834  0.00  0.00     0.006 C 
HETATM    6  C   UNK N   1      26.578  24.889  -4.710  0.00  0.00     0.013 C 
HETATM    7  C   UNK N   1      33.794  19.991  -5.727  0.00  0.00     0.079 C 
HETATM    8  C   UNK N   1      30.200  22.414  -6.827  0.00  0.00     0.006 C 
HETATM    9  C   UNK N   1      32.346  20.434  -5.971  0.00  0.00     0.017 C 
HETATM   10  C   UNK N   1      28.777  22.930  -7.135  0.00  0.00     0.011 C 
HETATM   11  C   UNK N   1      33.502  20.857  -3.241  0.00  0.00     0.083 C 
HETATM   12  C   UNK N   1      32.037  21.110  -3.603  0.00  0.00     0.001 C 
HETATM   13  C   UNK N   1      34.305  20.171  -4.317  0.00  0.00     0.127 C 
HETATM   14  C   UNK N   1      29.859  22.961  -4.341  0.00  0.00    -0.005 C 
HETATM   15  C   UNK N   1      28.407  23.335  -4.706  0.00  0.00    -0.001 C 
HETATM   16  C   UNK N   1      30.385  21.914  -5.367  0.00  0.00    -0.002 C 
HETATM   17  C   UNK N   1      26.930  24.549  -6.169  0.00  0.00     0.066 C 
HETATM   18  C   UNK N   1      31.880  21.586  -5.072  0.00  0.00    -0.036 C 
HETATM   19  C   UNK N   1      28.361  23.976  -6.094  0.00  0.00    -0.030 C 
HETATM   20  O   UNK N   1      35.443  19.820  -4.062  0.00  0.00    -0.298 OA
ENDROOT
BRANCH  17  21
HETATM   21  C   UNK N   1      25.885  23.640  -6.776  0.00  0.00     0.154 C 
HETATM   22  O   UNK N   1      25.208  22.905  -6.075  0.00  0.00    -0.295 OA
BRANCH  21  23
HETATM   23  C   UNK N   1      25.675  23.641  -8.261  0.00  0.00     0.242 C 
BRANCH  23  24
HETATM   24  O   UNK N   1      24.397  23.166  -8.564  0.00  0.00    -0.394 OA
HETATM   25  H   UNK N   1      24.071  22.986  -9.460  0.00  0.00     0.209 HD
ENDBRANCH  23  24
ENDBRANCH  21  23
ENDBRANCH  17  21
TORSDOF 3
ENDMDL
MODEL 7
REMARK VINA RESULT:      -6.8     25.152     26.967
REMARK  3 active torsions:
REMARK  status: ('A' for Active; 'I' for Inactive)
REMARK    1  A    between atoms: C_19  and  C_12 
REMARK    2  A    between atoms: O_22  and  C_12 
REMARK    3  A    between atoms: C_18  and  C_19 
ROOT
HETATM    1  C   UNK N   1      34.319  10.988  16.085  0.00  0.00     0.016 C 
HETATM    2  C   UNK N   1      34.822  11.360  11.890  0.00  0.00     0.016 C 
HETATM    3  C   UNK N   1      36.955   9.347  16.153  0.00  0.00     0.006 C 
HETATM    4  C   UNK N   1      37.603   9.818  14.850  0.00  0.00     0.006 C 
HETATM    5  C   UNK N   1      37.518  10.147  11.740  0.00  0.00     0.006 C 
HETATM    6  C   UNK N   1      37.542  10.900  10.401  0.00  0.00     0.013 C 
HETATM    7  C   UNK N   1      35.014  12.453  18.666  0.00  0.00     0.079 C 
HETATM    8  C   UNK N   1      35.464  13.036  14.256  0.00  0.00     0.006 C 
HETATM    9  C   UNK N   1      35.594  12.782  17.285  0.00  0.00     0.017 C 
HETATM   10  C   UNK N   1      35.953  13.377  12.830  0.00  0.00     0.011 C 
HETATM   11  C   UNK N   1      35.991  10.012  18.349  0.00  0.00     0.083 C 
HETATM   12  C   UNK N   1      36.627  10.537  17.060  0.00  0.00     0.001 C 
HETATM   13  C   UNK N   1      35.298  11.061  19.180  0.00  0.00     0.127 C 
HETATM   14  C   UNK N   1      36.650  10.762  14.117  0.00  0.00    -0.005 C 
HETATM   15  C   UNK N   1      37.208  11.228  12.756  0.00  0.00    -0.001 C 
HETATM   16  C   UNK N   1      36.365  12.012  15.001  0.00  0.00    -0.002 C 
HETATM   17  C   UNK N   1      36.756  12.209  10.604  0.00  0.00     0.066 C 
HETATM   18  C   UNK N   1      35.717  11.572  16.349  0.00  0.00    -0.036 C 
HETATM   19  C   UNK N   1      36.174  12.089  12.028  0.00  0.00    -0.030 C 
HETATM   20  O   UNK N   1      34.877  10.751  20.280  0.00  0.00    -0.298 OA
ENDROOT
BRANCH  17  21
HETATM   21  C   UNK N   1      37.638  13.410  10.349  0.00  0.00     0.154 C 
HETATM   22  O   UNK N   1      38.837  13.368  10.576  0.00  0.00    -0.295 OA
BRANCH  21  23
HETATM   23  C   UNK N   1      37.033  14.671   9.810  0.00  0.00     0.242 C 
BRANCH  23  24
HETATM   24  O   UNK N   1      37.298  15.736  10.674  0.00  0.00    -0.394 OA
HETATM   25  H   UNK N   1      38.005  15.747  11.340  0.00  0.00     0.209 HD
ENDBRANCH  23  24
ENDBRANCH  21  23
ENDBRANCH  17  21
TORSDOF 3
ENDMDL
MODEL 8
REMARK VINA RESULT:      -6.7     26.427     28.232
REMARK  3 active torsions:
REMARK  status: ('A' for Active; 'I' for Inactive)
REMARK    1  A    between atoms: C_19  and  C_12 
REMARK    2  A    between atoms: O_22  and  C_12 
REMARK    3  A    between atoms: C_18  and  C_19 
ROOT
HETATM    1  C   UNK N   1      34.367   9.773  17.790  0.00  0.00     0.016 C 
HETATM    2  C   UNK N   1      33.905  10.721  13.682  0.00  0.00     0.016 C 
HETATM    3  C   UNK N   1      37.175   8.634  17.107  0.00  0.00     0.006 C 
HETATM    4  C   UNK N   1      37.452   9.364  15.792  0.00  0.00     0.006 C 
HETATM    5  C   UNK N   1      36.659  10.037  12.841  0.00  0.00     0.006 C 
HETATM    6  C   UNK N   1      36.283  10.935  11.653  0.00  0.00     0.013 C 
HETATM    7  C   UNK N   1      35.365  11.024  20.385  0.00  0.00     0.079 C 
HETATM    8  C   UNK N   1      34.773  12.194  16.110  0.00  0.00     0.006 C 
HETATM    9  C   UNK N   1      35.580  11.612  18.985  0.00  0.00     0.017 C 
HETATM   10  C   UNK N   1      34.890  12.783  14.686  0.00  0.00     0.011 C 
HETATM   11  C   UNK N   1      36.610   8.852  19.521  0.00  0.00     0.083 C 
HETATM   12  C   UNK N   1      36.870   9.631  18.230  0.00  0.00     0.001 C 
HETATM   13  C   UNK N   1      35.958   9.655  20.619  0.00  0.00     0.127 C 
HETATM   14  C   UNK N   1      36.233  10.202  15.405  0.00  0.00    -0.005 C 
HETATM   15  C   UNK N   1      36.412  10.917  14.050  0.00  0.00    -0.001 C 
HETATM   16  C   UNK N   1      35.956  11.267  16.507  0.00  0.00    -0.002 C 
HETATM   17  C   UNK N   1      35.370  12.048  12.197  0.00  0.00     0.066 C 
HETATM   18  C   UNK N   1      35.684  10.563  17.870  0.00  0.00    -0.036 C 
HETATM   19  C   UNK N   1      35.129  11.659  13.670  0.00  0.00    -0.030 C 
HETATM   20  O   UNK N   1      35.833   9.147  21.718  0.00  0.00    -0.298 OA
ENDROOT
BRANCH  17  21
HETATM   21  C   UNK N   1      35.986  13.409  11.965  0.00  0.00     0.154 C 
HETATM   22  O   UNK N   1      37.197  13.558  11.954  0.00  0.00    -0.295 OA
BRANCH  21  23
HETATM   23  C   UNK N   1      35.096  14.596  11.743  0.00  0.00     0.242 C 
BRANCH  23  24
HETATM   24  O   UNK N   1      33.813  14.172  11.387  0.00  0.00    -0.394 OA
HETATM   25  H   UNK N   1      33.011  14.714  11.458  0.00  0.00     0.209 HD
ENDBRANCH  23  24
ENDBRANCH  21  23
ENDBRANCH  17  21
TORSDOF 3
ENDMDL
MODEL 9
REMARK VINA RESULT:      -6.7     17.974     20.033
REMARK  3 active torsions:
REMARK  status: ('A' for Active; 'I' for Inactive)
REMARK    1  A    between atoms: C_19  and  C_12 
REMARK    2  A    between atoms: O_22  and  C_12 
REMARK    3  A    between atoms: C_18  and  C_19 
ROOT
HETATM    1  C   UNK N   1      32.395  15.103   6.076  0.00  0.00     0.016 C 
HETATM    2  C   UNK N   1      33.756  13.775   9.867  0.00  0.00     0.016 C 
HETATM    3  C   UNK N   1      33.438  17.936   6.807  0.00  0.00     0.006 C 
HETATM    4  C   UNK N   1      34.458  17.579   7.889  0.00  0.00     0.006 C 
HETATM    5  C   UNK N   1      35.144  16.271  10.647  0.00  0.00     0.006 C 
HETATM    6  C   UNK N   1      35.856  15.312  11.614  0.00  0.00     0.013 C 
HETATM    7  C   UNK N   1      33.360  15.351   3.195  0.00  0.00     0.079 C 
HETATM    8  C   UNK N   1      34.847  13.769   7.105  0.00  0.00     0.006 C 
HETATM    9  C   UNK N   1      34.255  15.026   4.398  0.00  0.00     0.017 C 
HETATM   10  C   UNK N   1      35.686  13.365   8.337  0.00  0.00     0.011 C 
HETATM   11  C   UNK N   1      32.700  17.585   4.456  0.00  0.00     0.083 C 
HETATM   12  C   UNK N   1      33.740  17.187   5.505  0.00  0.00     0.001 C 
HETATM   13  C   UNK N   1      32.648  16.682   3.249  0.00  0.00     0.127 C 
HETATM   14  C   UNK N   1      34.418  16.074   8.154  0.00  0.00    -0.005 C 
HETATM   15  C   UNK N   1      35.375  15.646   9.285  0.00  0.00    -0.001 C 
HETATM   16  C   UNK N   1      34.795  15.303   6.854  0.00  0.00    -0.002 C 
HETATM   17  C   UNK N   1      36.000  13.962  10.889  0.00  0.00     0.066 C 
HETATM   18  C   UNK N   1      33.786  15.651   5.719  0.00  0.00    -0.036 C 
HETATM   19  C   UNK N   1      35.222  14.151   9.570  0.00  0.00    -0.030 C 
HETATM   20  O   UNK N   1      31.938  17.000   2.313  0.00  0.00    -0.298 OA
ENDROOT
BRANCH  17  21
HETATM   21  C   UNK N   1      37.457  13.581  10.749  0.00  0.00     0.154 C 
HETATM   22  O   UNK N   1      38.248  14.318  10.184  0.00  0.00    -0.295 OA
BRANCH  21  23
HETATM   23  C   UNK N   1      37.937  12.277  11.312  0.00  0.00     0.242 C 
BRANCH  23  24
HETATM   24  O   UNK N   1      37.892  12.313  12.708  0.00  0.00    -0.394 OA
HETATM   25  H   UNK N   1      37.417  12.978  13.230  0.00  0.00     0.209 HD
ENDBRANCH  23  24
ENDBRANCH  21  23
ENDBRANCH  17  21
TORSDOF 3
ENDMDL
