MODEL 1
REMARK VINA RESULT:      -7.2      0.000      0.000
REMARK  3 active torsions:
REMARK  status: ('A' for Active; 'I' for Inactive)
REMARK    1  A    between atoms: N_15  and  C_11 
REMARK    2  A    between atoms: C_14  and  C_12 
REMARK    3  A    between atoms: O_19  and  C_13 
REMARK       I    between atoms: N_15  and  C_14 
ROOT
HETATM    1  C   UNK N   1      34.943  11.390  10.817  0.00  0.00     0.170 C 
HETATM    2  C   UNK N   1      35.537  12.242  17.519  0.00  0.00     0.001 A 
HETATM    3  C   UNK N   1      35.042  10.944  17.380  0.00  0.00     0.002 A 
HETATM    4  C   UNK N   1      35.758  13.030  16.385  0.00  0.00     0.016 A 
HETATM    5  C   UNK N   1      34.778  10.435  16.110  0.00  0.00     0.026 A 
HETATM    6  C   UNK N   1      35.494  12.533  15.095  0.00  0.00     0.023 A 
HETATM    7  C   UNK N   1      35.005  11.227  14.979  0.00  0.00     0.093 A 
HETATM    8  C   UNK N   1      35.496  13.121  12.588  0.00  0.00     0.146 A 
HETATM    9  C   UNK N   1      35.720  13.445  13.919  0.00  0.00     0.110 A 
HETATM   10  N   UNK N   1      35.038  11.800  12.197  0.00  0.00    -0.268 N 
HETATM   11  O   UNK N   1      33.250  10.135  13.108  0.00  0.00    -0.200 OA
HETATM   12  O   UNK N   1      35.573   9.388  13.000  0.00  0.00    -0.200 OA
HETATM   13  S   UNK N   1      34.692  10.585  13.389  0.00  0.00     0.266 S 
ENDROOT
BRANCH   8  14
HETATM   14  C   UNK N   1      35.696  14.189  11.520  0.00  0.00     0.277 C 
HETATM   15  N   UNK N   1      34.657  15.004  11.176  0.00  0.00    -0.306 N 
ATOM     16  HN  UNK N   1      33.750  14.783  11.586  1.00  0.00     0.170 HD
HETATM   17  O   UNK N   1      36.797  14.359  11.014  0.00  0.00    -0.266 OA
BRANCH  15  18
HETATM   18  C   UNK N   1      34.697  16.026  10.386  0.00  0.00     0.131 A 
HETATM   19  C   UNK N   1      34.044  16.188   9.175  0.00  0.00     0.084 A 
HETATM   20  C   UNK N   1      34.486  17.427   8.755  0.00  0.00     0.076 A 
HETATM   21  C   UNK N   1      34.111  18.109   7.489  0.00  0.00     0.079 C 
HETATM   22  O   UNK N   1      35.314  17.922   9.646  0.00  0.00    -0.241 OA
HETATM   23  N   UNK N   1      35.464  17.101  10.642  0.00  0.00    -0.245 N 
HETATM   24  H   UNK N   1      36.031  17.240  11.434  0.00  0.00     0.196 HD
ENDBRANCH  15  18
ENDBRANCH   8  14
BRANCH   9  25
HETATM   25  O   UNK N   1      36.154  14.688  14.222  0.00  0.00    -0.357 OA
HETATM   26  H   UNK N   1      36.621  14.840  15.019  0.00  0.00     0.217 HD
ENDBRANCH   9  25
TORSDOF 3
ENDMDL
MODEL 2
REMARK VINA RESULT:      -6.9      4.288      8.929
REMARK  3 active torsions:
REMARK  status: ('A' for Active; 'I' for Inactive)
REMARK    1  A    between atoms: N_15  and  C_11 
REMARK    2  A    between atoms: C_14  and  C_12 
REMARK    3  A    between atoms: O_19  and  C_13 
REMARK       I    between atoms: N_15  and  C_14 
ROOT
HETATM    1  C   UNK N   1      34.501  15.922   6.286  0.00  0.00     0.170 C 
HETATM    2  C   UNK N   1      28.075  18.070   6.585  0.00  0.00     0.001 A 
HETATM    3  C   UNK N   1      28.319  17.903   5.221  0.00  0.00     0.002 A 
HETATM    4  C   UNK N   1      29.093  17.820   7.511  0.00  0.00     0.016 A 
HETATM    5  C   UNK N   1      29.574  17.480   4.787  0.00  0.00     0.026 A 
HETATM    6  C   UNK N   1      30.366  17.395   7.091  0.00  0.00     0.023 A 
HETATM    7  C   UNK N   1      30.586  17.228   5.719  0.00  0.00     0.093 A 
HETATM    8  C   UNK N   1      32.734  16.778   7.894  0.00  0.00     0.146 A 
HETATM    9  C   UNK N   1      31.428  17.179   8.137  0.00  0.00     0.110 A 
HETATM   10  N   UNK N   1      33.199  16.484   6.550  0.00  0.00    -0.268 N 
HETATM   11  O   UNK N   1      32.905  17.616   4.220  0.00  0.00    -0.200 OA
HETATM   12  O   UNK N   1      32.143  15.311   4.486  0.00  0.00    -0.200 OA
HETATM   13  S   UNK N   1      32.151  16.682   5.179  0.00  0.00     0.266 S 
ENDROOT
BRANCH   8  14
HETATM   14  C   UNK N   1      33.711  16.685   9.060  0.00  0.00     0.277 C 
HETATM   15  N   UNK N   1      33.692  15.587   9.871  0.00  0.00    -0.306 N 
ATOM     16  HN  UNK N   1      32.938  14.918   9.714  1.00  0.00     0.170 HD
HETATM   17  O   UNK N   1      34.549  17.558   9.236  0.00  0.00    -0.266 OA
BRANCH  15  18
HETATM   18  C   UNK N   1      34.525  15.304  10.816  0.00  0.00     0.131 A 
HETATM   19  C   UNK N   1      34.858  14.051  11.306  0.00  0.00     0.084 A 
HETATM   20  C   UNK N   1      35.741  14.347  12.326  0.00  0.00     0.076 A 
HETATM   21  C   UNK N   1      36.413  13.366  13.217  0.00  0.00     0.079 C 
HETATM   22  O   UNK N   1      35.894  15.649  12.407  0.00  0.00    -0.241 OA
HETATM   23  N   UNK N   1      35.174  16.255  11.512  0.00  0.00    -0.245 N 
HETATM   24  H   UNK N   1      35.114  17.227  11.369  0.00  0.00     0.196 HD
ENDBRANCH  15  18
ENDBRANCH   8  14
BRANCH   9  25
HETATM   25  O   UNK N   1      31.050  17.430   9.409  0.00  0.00    -0.357 OA
HETATM   26  H   UNK N   1      30.650  16.756   9.921  0.00  0.00     0.217 HD
ENDBRANCH   9  25
TORSDOF 3
ENDMDL
MODEL 3
REMARK VINA RESULT:      -6.9      3.074      7.881
REMARK  3 active torsions:
REMARK  status: ('A' for Active; 'I' for Inactive)
REMARK    1  A    between atoms: N_15  and  C_11 
REMARK    2  A    between atoms: C_14  and  C_12 
REMARK    3  A    between atoms: O_19  and  C_13 
REMARK       I    between atoms: N_15  and  C_14 
ROOT
HETATM    1  C   UNK N   1      37.105  13.543   8.424  0.00  0.00     0.170 C 
HETATM    2  C   UNK N   1      32.283  17.417   5.641  0.00  0.00     0.001 A 
HETATM    3  C   UNK N   1      32.850  16.742   4.559  0.00  0.00     0.002 A 
HETATM    4  C   UNK N   1      32.782  17.209   6.931  0.00  0.00     0.016 A 
HETATM    5  C   UNK N   1      33.906  15.857   4.769  0.00  0.00     0.026 A 
HETATM    6  C   UNK N   1      33.849  16.322   7.162  0.00  0.00     0.023 A 
HETATM    7  C   UNK N   1      34.397  15.651   6.062  0.00  0.00     0.093 A 
HETATM    8  C   UNK N   1      35.413  15.356   8.965  0.00  0.00     0.146 A 
HETATM    9  C   UNK N   1      34.362  16.172   8.569  0.00  0.00     0.110 A 
HETATM   10  N   UNK N   1      36.115  14.510   8.017  0.00  0.00    -0.268 N 
HETATM   11  O   UNK N   1      37.022  14.835   5.594  0.00  0.00    -0.200 OA
HETATM   12  O   UNK N   1      35.377  13.072   5.983  0.00  0.00    -0.200 OA
HETATM   13  S   UNK N   1      35.707  14.532   6.328  0.00  0.00     0.266 S 
ENDROOT
BRANCH   8  14
HETATM   14  C   UNK N   1      35.863  15.380  10.421  0.00  0.00     0.277 C 
HETATM   15  N   UNK N   1      35.346  14.476  11.303  0.00  0.00    -0.306 N 
ATOM     16  HN  UNK N   1      34.591  13.885  10.959  1.00  0.00     0.170 HD
HETATM   17  O   UNK N   1      36.727  16.165  10.788  0.00  0.00    -0.266 OA
BRANCH  15  18
HETATM   18  C   UNK N   1      35.711  14.289  12.529  0.00  0.00     0.131 A 
HETATM   19  C   UNK N   1      35.396  13.220  13.353  0.00  0.00     0.084 A 
HETATM   20  C   UNK N   1      36.001  13.567  14.545  0.00  0.00     0.076 A 
HETATM   21  C   UNK N   1      35.976  12.778  15.803  0.00  0.00     0.079 C 
HETATM   22  O   UNK N   1      36.603  14.727  14.409  0.00  0.00    -0.241 OA
HETATM   23  N   UNK N   1      36.446  15.190  13.205  0.00  0.00    -0.245 N 
HETATM   24  H   UNK N   1      36.799  16.039  12.854  0.00  0.00     0.196 HD
ENDBRANCH  15  18
ENDBRANCH   8  14
BRANCH   9  25
HETATM   25  O   UNK N   1      33.741  16.930   9.498  0.00  0.00    -0.357 OA
HETATM   26  H   UNK N   1      32.842  17.168   9.384  0.00  0.00     0.217 HD
ENDBRANCH   9  25
TORSDOF 3
ENDMDL
MODEL 4
REMARK VINA RESULT:      -6.8      3.093      3.556
REMARK  3 active torsions:
REMARK  status: ('A' for Active; 'I' for Inactive)
REMARK    1  A    between atoms: N_15  and  C_11 
REMARK    2  A    between atoms: C_14  and  C_12 
REMARK    3  A    between atoms: O_19  and  C_13 
REMARK       I    between atoms: N_15  and  C_14 
ROOT
HETATM    1  C   UNK N   1      35.780  10.379  12.659  0.00  0.00     0.170 C 
HETATM    2  C   UNK N   1      35.778  14.450  18.083  0.00  0.00     0.001 A 
HETATM    3  C   UNK N   1      35.191  13.269  18.539  0.00  0.00     0.002 A 
HETATM    4  C   UNK N   1      36.177  14.560  16.747  0.00  0.00     0.016 A 
HETATM    5  C   UNK N   1      35.012  12.200  17.663  0.00  0.00     0.026 A 
HETATM    6  C   UNK N   1      36.001  13.493  15.848  0.00  0.00     0.023 A 
HETATM    7  C   UNK N   1      35.416  12.315  16.329  0.00  0.00     0.093 A 
HETATM    8  C   UNK N   1      36.300  12.749  13.401  0.00  0.00     0.146 A 
HETATM    9  C   UNK N   1      36.418  13.689  14.415  0.00  0.00     0.110 A 
HETATM   10  N   UNK N   1      35.773  11.421  13.656  0.00  0.00    -0.268 N 
HETATM   11  O   UNK N   1      33.768  10.479  15.032  0.00  0.00    -0.200 OA
HETATM   12  O   UNK N   1      36.018   9.720  15.605  0.00  0.00    -0.200 OA
HETATM   13  S   UNK N   1      35.208  10.973  15.237  0.00  0.00     0.266 S 
ENDROOT
BRANCH   8  14
HETATM   14  C   UNK N   1      36.695  13.136  11.981  0.00  0.00     0.277 C 
HETATM   15  N   UNK N   1      37.999  13.031  11.590  0.00  0.00    -0.306 N 
ATOM     16  HN  UNK N   1      38.674  12.793  12.316  1.00  0.00     0.170 HD
HETATM   17  O   UNK N   1      35.843  13.482  11.174  0.00  0.00    -0.266 OA
BRANCH  15  18
HETATM   18  C   UNK N   1      38.470  13.202  10.399  0.00  0.00     0.131 A 
HETATM   19  C   UNK N   1      39.074  12.258   9.583  0.00  0.00     0.084 A 
HETATM   20  C   UNK N   1      39.420  12.997   8.469  0.00  0.00     0.076 A 
HETATM   21  C   UNK N   1      40.120  12.486   7.262  0.00  0.00     0.079 C 
HETATM   22  O   UNK N   1      39.048  14.245   8.638  0.00  0.00    -0.241 OA
HETATM   23  N   UNK N   1      38.473  14.402   9.793  0.00  0.00    -0.245 N 
HETATM   24  H   UNK N   1      38.108  15.241  10.155  0.00  0.00     0.196 HD
ENDBRANCH  15  18
ENDBRANCH   8  14
BRANCH   9  25
HETATM   25  O   UNK N   1      36.925  14.906  14.119  0.00  0.00    -0.357 OA
HETATM   26  H   UNK N   1      37.003  15.556  14.789  0.00  0.00     0.217 HD
ENDBRANCH   9  25
TORSDOF 3
ENDMDL
MODEL 5
REMARK VINA RESULT:      -6.8     13.316     15.186
REMARK  3 active torsions:
REMARK  status: ('A' for Active; 'I' for Inactive)
REMARK    1  A    between atoms: N_15  and  C_11 
REMARK    2  A    between atoms: C_14  and  C_12 
REMARK    3  A    between atoms: O_19  and  C_13 
REMARK       I    between atoms: N_15  and  C_14 
ROOT
HETATM    1  C   UNK N   1      19.371  16.092   6.093  0.00  0.00     0.170 C 
HETATM    2  C   UNK N   1      25.057  12.950   8.043  0.00  0.00     0.001 A 
HETATM    3  C   UNK N   1      24.031  12.135   8.523  0.00  0.00     0.002 A 
HETATM    4  C   UNK N   1      24.747  14.132   7.360  0.00  0.00     0.016 A 
HETATM    5  C   UNK N   1      22.702  12.497   8.314  0.00  0.00     0.026 A 
HETATM    6  C   UNK N   1      23.412  14.514   7.142  0.00  0.00     0.023 A 
HETATM    7  C   UNK N   1      22.399  13.677   7.627  0.00  0.00     0.093 A 
HETATM    8  C   UNK N   1      21.896  16.346   6.153  0.00  0.00     0.146 A 
HETATM    9  C   UNK N   1      23.147  15.815   6.433  0.00  0.00     0.110 A 
HETATM   10  N   UNK N   1      20.677  15.639   6.505  0.00  0.00    -0.268 N 
HETATM   11  O   UNK N   1      19.866  14.317   8.601  0.00  0.00    -0.200 OA
HETATM   12  O   UNK N   1      19.955  13.143   6.460  0.00  0.00    -0.200 OA
HETATM   13  S   UNK N   1      20.737  14.122   7.350  0.00  0.00     0.266 S 
ENDROOT
BRANCH   8  14
HETATM   14  C   UNK N   1      21.801  17.718   5.498  0.00  0.00     0.277 C 
HETATM   15  N   UNK N   1      22.093  17.856   4.172  0.00  0.00    -0.306 N 
ATOM     16  HN  UNK N   1      22.468  17.034   3.701  1.00  0.00     0.170 HD
HETATM   17  O   UNK N   1      21.408  18.684   6.140  0.00  0.00    -0.266 OA
BRANCH  15  18
HETATM   18  C   UNK N   1      21.945  18.917   3.449  0.00  0.00     0.131 A 
HETATM   19  C   UNK N   1      20.935  19.189   2.540  0.00  0.00     0.084 A 
HETATM   20  C   UNK N   1      21.306  20.419   2.033  0.00  0.00     0.076 A 
HETATM   21  C   UNK N   1      20.580  21.194   0.994  0.00  0.00     0.079 C 
HETATM   22  O   UNK N   1      22.424  20.808   2.602  0.00  0.00    -0.241 OA
HETATM   23  N   UNK N   1      22.836  19.924   3.460  0.00  0.00    -0.245 N 
HETATM   24  H   UNK N   1      23.647  19.981   4.015  0.00  0.00     0.196 HD
ENDBRANCH  15  18
ENDBRANCH   8  14
BRANCH   9  25
HETATM   25  O   UNK N   1      24.246  16.514   6.074  0.00  0.00    -0.357 OA
HETATM   26  H   UNK N   1      24.798  16.199   5.386  0.00  0.00     0.217 HD
ENDBRANCH   9  25
TORSDOF 3
ENDMDL
MODEL 6
REMARK VINA RESULT:      -6.7      2.469      7.214
REMARK  3 active torsions:
REMARK  status: ('A' for Active; 'I' for Inactive)
REMARK    1  A    between atoms: N_15  and  C_11 
REMARK    2  A    between atoms: C_14  and  C_12 
REMARK    3  A    between atoms: O_19  and  C_13 
REMARK       I    between atoms: N_15  and  C_14 
ROOT
HETATM    1  C   UNK N   1      34.761  11.906   9.749  0.00  0.00     0.170 C 
HETATM    2  C   UNK N   1      34.014  18.235   7.430  0.00  0.00     0.001 A 
HETATM    3  C   UNK N   1      33.549  17.430   6.389  0.00  0.00     0.002 A 
HETATM    4  C   UNK N   1      34.512  17.647   8.598  0.00  0.00     0.016 A 
HETATM    5  C   UNK N   1      33.576  16.043   6.520  0.00  0.00     0.026 A 
HETATM    6  C   UNK N   1      34.549  16.249   8.746  0.00  0.00     0.023 A 
HETATM    7  C   UNK N   1      34.071  15.462   7.692  0.00  0.00     0.093 A 
HETATM    8  C   UNK N   1      35.256  14.331  10.311  0.00  0.00     0.146 A 
HETATM    9  C   UNK N   1      35.130  15.680  10.013  0.00  0.00     0.110 A 
HETATM   10  N   UNK N   1      34.781  13.305   9.400  0.00  0.00    -0.268 N 
HETATM   11  O   UNK N   1      34.904  12.948   6.820  0.00  0.00    -0.200 OA
HETATM   12  O   UNK N   1      32.699  13.073   7.863  0.00  0.00    -0.200 OA
HETATM   13  S   UNK N   1      34.089  13.727   7.863  0.00  0.00     0.266 S 
ENDROOT
BRANCH   8  14
HETATM   14  C   UNK N   1      35.945  13.918  11.607  0.00  0.00     0.277 C 
HETATM   15  N   UNK N   1      35.276  14.027  12.792  0.00  0.00    -0.306 N 
ATOM     16  HN  UNK N   1      34.367  14.487  12.760  1.00  0.00     0.170 HD
HETATM   17  O   UNK N   1      37.069  13.436  11.583  0.00  0.00    -0.266 OA
BRANCH  15  18
HETATM   18  C   UNK N   1      35.671  13.611  13.949  0.00  0.00     0.131 A 
HETATM   19  C   UNK N   1      35.023  12.730  14.800  0.00  0.00     0.084 A 
HETATM   20  C   UNK N   1      35.864  12.690  15.895  0.00  0.00     0.076 A 
HETATM   21  C   UNK N   1      35.650  11.901  17.136  0.00  0.00     0.079 C 
HETATM   22  O   UNK N   1      36.894  13.478  15.684  0.00  0.00    -0.241 OA
HETATM   23  N   UNK N   1      36.807  14.049  14.520  0.00  0.00    -0.245 N 
HETATM   24  H   UNK N   1      37.452  14.681  14.130  0.00  0.00     0.196 HD
ENDBRANCH  15  18
ENDBRANCH   8  14
BRANCH   9  25
HETATM   25  O   UNK N   1      35.582  16.589  10.904  0.00  0.00    -0.357 OA
HETATM   26  H   UNK N   1      35.091  16.768  11.681  0.00  0.00     0.217 HD
ENDBRANCH   9  25
TORSDOF 3
ENDMDL
MODEL 7
REMARK VINA RESULT:      -6.5      5.789     10.050
REMARK  3 active torsions:
REMARK  status: ('A' for Active; 'I' for Inactive)
REMARK    1  A    between atoms: N_15  and  C_11 
REMARK    2  A    between atoms: C_14  and  C_12 
REMARK    3  A    between atoms: O_19  and  C_13 
REMARK       I    between atoms: N_15  and  C_14 
ROOT
HETATM    1  C   UNK N   1      31.019  14.875   5.755  0.00  0.00     0.170 C 
HETATM    2  C   UNK N   1      26.884  20.235   6.177  0.00  0.00     0.001 A 
HETATM    3  C   UNK N   1      26.635  19.707   4.910  0.00  0.00     0.002 A 
HETATM    4  C   UNK N   1      27.847  19.644   7.002  0.00  0.00     0.016 A 
HETATM    5  C   UNK N   1      27.339  18.586   4.474  0.00  0.00     0.026 A 
HETATM    6  C   UNK N   1      28.569  18.514   6.578  0.00  0.00     0.023 A 
HETATM    7  C   UNK N   1      28.297  17.997   5.305  0.00  0.00     0.093 A 
HETATM    8  C   UNK N   1      30.425  16.853   7.231  0.00  0.00     0.146 A 
HETATM    9  C   UNK N   1      29.616  17.948   7.500  0.00  0.00     0.110 A 
HETATM   10  N   UNK N   1      30.299  16.103   5.994  0.00  0.00    -0.268 N 
HETATM   11  O   UNK N   1      29.997  16.743   3.485  0.00  0.00    -0.200 OA
HETATM   12  O   UNK N   1      28.288  15.347   4.532  0.00  0.00    -0.200 OA
HETATM   13  S   UNK N   1      29.167  16.585   4.768  0.00  0.00     0.266 S 
ENDROOT
BRANCH   8  14
HETATM   14  C   UNK N   1      31.496  16.456   8.240  0.00  0.00     0.277 C 
HETATM   15  N   UNK N   1      32.811  16.686   7.956  0.00  0.00    -0.306 N 
ATOM     16  HN  UNK N   1      33.021  17.025   7.017  1.00  0.00     0.170 HD
HETATM   17  O   UNK N   1      31.180  15.987   9.325  0.00  0.00    -0.266 OA
BRANCH  15  18
HETATM   18  C   UNK N   1      33.819  16.522   8.747  0.00  0.00     0.131 A 
HETATM   19  C   UNK N   1      34.665  15.427   8.826  0.00  0.00     0.084 A 
HETATM   20  C   UNK N   1      35.511  15.771   9.862  0.00  0.00     0.076 A 
HETATM   21  C   UNK N   1      36.625  14.945  10.396  0.00  0.00     0.079 C 
HETATM   22  O   UNK N   1      35.174  16.952  10.329  0.00  0.00    -0.241 OA
HETATM   23  N   UNK N   1      34.156  17.432   9.678  0.00  0.00    -0.245 N 
HETATM   24  H   UNK N   1      33.717  18.297   9.837  0.00  0.00     0.196 HD
ENDBRANCH  15  18
ENDBRANCH   8  14
BRANCH   9  25
HETATM   25  O   UNK N   1      29.773  18.601   8.671  0.00  0.00    -0.357 OA
HETATM   26  H   UNK N   1      29.024  18.823   9.188  0.00  0.00     0.217 HD
ENDBRANCH   9  25
TORSDOF 3
ENDMDL
MODEL 8
REMARK VINA RESULT:      -6.4      2.166      2.679
REMARK  3 active torsions:
REMARK  status: ('A' for Active; 'I' for Inactive)
REMARK    1  A    between atoms: N_15  and  C_11 
REMARK    2  A    between atoms: C_14  and  C_12 
REMARK    3  A    between atoms: O_19  and  C_13 
REMARK       I    between atoms: N_15  and  C_14 
ROOT
HETATM    1  C   UNK N   1      34.223  11.782   9.417  0.00  0.00     0.170 C 
HETATM    2  C   UNK N   1      36.878  13.894  15.289  0.00  0.00     0.001 A 
HETATM    3  C   UNK N   1      36.787  12.509  15.432  0.00  0.00     0.002 A 
HETATM    4  C   UNK N   1      36.428  14.506  14.115  0.00  0.00     0.016 A 
HETATM    5  C   UNK N   1      36.256  11.739  14.398  0.00  0.00     0.026 A 
HETATM    6  C   UNK N   1      35.887  13.745  13.063  0.00  0.00     0.023 A 
HETATM    7  C   UNK N   1      35.812  12.357  13.225  0.00  0.00     0.093 A 
HETATM    8  C   UNK N   1      34.815  13.874  10.725  0.00  0.00     0.146 A 
HETATM    9  C   UNK N   1      35.388  14.469  11.841  0.00  0.00     0.110 A 
HETATM   10  N   UNK N   1      34.674  12.433  10.623  0.00  0.00    -0.268 N 
HETATM   11  O   UNK N   1      33.927  10.544  12.258  0.00  0.00    -0.200 OA
HETATM   12  O   UNK N   1      36.168  10.416  11.294  0.00  0.00    -0.200 OA
HETATM   13  S   UNK N   1      35.164  11.393  11.925  0.00  0.00     0.266 S 
ENDROOT
BRANCH   8  14
HETATM   14  C   UNK N   1      34.285  14.759   9.603  0.00  0.00     0.277 C 
HETATM   15  N   UNK N   1      32.987  15.178   9.628  0.00  0.00    -0.306 N 
ATOM     16  HN  UNK N   1      32.395  14.783  10.359  1.00  0.00     0.170 HD
HETATM   17  O   UNK N   1      35.033  15.143   8.713  0.00  0.00    -0.266 OA
BRANCH  15  18
HETATM   18  C   UNK N   1      32.425  16.020   8.826  0.00  0.00     0.131 A 
HETATM   19  C   UNK N   1      31.593  15.744   7.752  0.00  0.00     0.084 A 
HETATM   20  C   UNK N   1      31.337  16.999   7.235  0.00  0.00     0.076 A 
HETATM   21  C   UNK N   1      30.498  17.303   6.047  0.00  0.00     0.079 C 
HETATM   22  O   UNK N   1      31.966  17.903   7.950  0.00  0.00    -0.241 OA
HETATM   23  N   UNK N   1      32.632  17.346   8.917  0.00  0.00    -0.245 N 
HETATM   24  H   UNK N   1      33.184  17.807   9.589  0.00  0.00     0.196 HD
ENDBRANCH  15  18
ENDBRANCH   8  14
BRANCH   9  25
HETATM   25  O   UNK N   1      35.501  15.814  11.876  0.00  0.00    -0.357 OA
HETATM   26  H   UNK N   1      35.248  16.286  12.644  0.00  0.00     0.217 HD
ENDBRANCH   9  25
TORSDOF 3
ENDMDL
MODEL 9
REMARK VINA RESULT:      -6.3     13.476     15.982
REMARK  3 active torsions:
REMARK  status: ('A' for Active; 'I' for Inactive)
REMARK    1  A    between atoms: N_15  and  C_11 
REMARK    2  A    between atoms: C_14  and  C_12 
REMARK    3  A    between atoms: O_19  and  C_13 
REMARK       I    between atoms: N_15  and  C_14 
ROOT
HETATM    1  C   UNK N   1      20.125  16.694   5.615  0.00  0.00     0.170 C 
HETATM    2  C   UNK N   1      26.117  19.335   3.849  0.00  0.00     0.001 A 
HETATM    3  C   UNK N   1      25.181  20.146   3.207  0.00  0.00     0.002 A 
HETATM    4  C   UNK N   1      25.688  18.246   4.616  0.00  0.00     0.016 A 
HETATM    5  C   UNK N   1      23.821  19.873   3.339  0.00  0.00     0.026 A 
HETATM    6  C   UNK N   1      24.320  17.955   4.758  0.00  0.00     0.023 A 
HETATM    7  C   UNK N   1      23.398  18.786   4.110  0.00  0.00     0.093 A 
HETATM    8  C   UNK N   1      22.628  16.311   5.791  0.00  0.00     0.146 A 
HETATM    9  C   UNK N   1      23.926  16.747   5.567  0.00  0.00     0.110 A 
HETATM   10  N   UNK N   1      21.484  17.037   5.271  0.00  0.00    -0.268 N 
HETATM   11  O   UNK N   1      20.916  18.176   2.995  0.00  0.00    -0.200 OA
HETATM   12  O   UNK N   1      20.905  19.557   5.010  0.00  0.00    -0.200 OA
HETATM   13  S   UNK N   1      21.696  18.454   4.289  0.00  0.00     0.266 S 
ENDROOT
BRANCH   8  14
HETATM   14  C   UNK N   1      22.403  15.019   6.567  0.00  0.00     0.277 C 
HETATM   15  N   UNK N   1      22.326  15.053   7.929  0.00  0.00    -0.306 N 
ATOM     16  HN  UNK N   1      22.531  15.948   8.374  1.00  0.00     0.170 HD
HETATM   17  O   UNK N   1      22.233  13.962   5.974  0.00  0.00    -0.266 OA
BRANCH  15  18
HETATM   18  C   UNK N   1      22.021  14.075   8.717  0.00  0.00     0.131 A 
HETATM   19  C   UNK N   1      21.032  14.044   9.686  0.00  0.00     0.084 A 
HETATM   20  C   UNK N   1      21.191  12.790  10.243  0.00  0.00     0.076 A 
HETATM   21  C   UNK N   1      20.392  12.217  11.357  0.00  0.00     0.079 C 
HETATM   22  O   UNK N   1      22.180  12.168   9.644  0.00  0.00    -0.241 OA
HETATM   23  N   UNK N   1      22.703  12.916   8.719  0.00  0.00    -0.245 N 
HETATM   24  H   UNK N   1      23.456  12.679   8.131  0.00  0.00     0.196 HD
ENDBRANCH  15  18
ENDBRANCH   8  14
BRANCH   9  25
HETATM   25  O   UNK N   1      24.951  16.036   6.083  0.00  0.00    -0.357 OA
HETATM   26  H   UNK N   1      24.782  15.351   6.700  0.00  0.00     0.217 HD
ENDBRANCH   9  25
TORSDOF 3
ENDMDL
