MODEL 1
REMARK VINA RESULT:      -5.8      0.000      0.000
REMARK  4 active torsions:
REMARK  status: ('A' for Active; 'I' for Inactive)
REMARK    1  A    between atoms: O_19  and  C_3 
REMARK    2  A    between atoms: C_16  and  C_14 
REMARK    3  A    between atoms: C_16  and  C_15 
REMARK    4  A    between atoms: O_19  and  C_15 
ROOT
HETATM    1  C   UNK N   1      27.211  28.435  -5.970  0.00  0.00     0.309 C 
HETATM    2  C   UNK N   1      25.197  26.380  -5.787  0.00  0.00     0.032 C 
HETATM    3  C   UNK N   1      25.933  25.724  -4.606  0.00  0.00     0.026 C 
HETATM    4  C   UNK N   1      28.366  25.833  -5.261  0.00  0.00     0.055 C 
HETATM    5  C   UNK N   1      25.974  26.628  -7.085  0.00  0.00     0.272 C 
HETATM    6  C   UNK N   1      28.330  26.388  -6.685  0.00  0.00     0.273 C 
HETATM    7  C   UNK N   1      27.214  24.893  -4.843  0.00  0.00     0.076 C 
HETATM    8  N   UNK N   1      27.245  27.334  -6.931  0.00  0.00     0.084 N 
ENDROOT
BRANCH   7   9
HETATM    9  C   UNK N   1      27.044  23.728  -5.816  0.00  0.00    -0.040 A 
HETATM   10  C   UNK N   1      25.750  23.272  -6.132  0.00  0.00     0.008 A 
HETATM   11  C   UNK N   1      25.563  22.262  -7.079  0.00  0.00     0.001 A 
HETATM   12  C   UNK N   1      26.664  21.695  -7.723  0.00  0.00     0.000 A 
HETATM   13  C   UNK N   1      27.954  22.134  -7.417  0.00  0.00     0.001 A 
HETATM   14  C   UNK N   1      28.143  23.150  -6.476  0.00  0.00     0.008 A 
ENDBRANCH   7   9
BRANCH   7  15
HETATM   15  C   UNK N   1      27.569  24.262  -3.507  0.00  0.00     0.272 C 
HETATM   16  O   UNK N   1      26.688  23.916  -2.726  0.00  0.00    -0.264 OA
BRANCH  15  17
HETATM   17  O   UNK N   1      28.874  24.169  -3.142  0.00  0.00    -0.321 OA
BRANCH  17  18
HETATM   18  C   UNK N   1      29.351  23.098  -2.420  0.00  0.00     0.174 C 
HETATM   19  C   UNK N   1      30.060  22.123  -3.331  0.00  0.00     0.034 C 
ENDBRANCH  17  18
ENDBRANCH  15  17
ENDBRANCH   7  15
TORSDOF 4
ENDMDL
MODEL 2
REMARK VINA RESULT:      -5.3      1.442      4.018
REMARK  4 active torsions:
REMARK  status: ('A' for Active; 'I' for Inactive)
REMARK    1  A    between atoms: O_19  and  C_3 
REMARK    2  A    between atoms: C_16  and  C_14 
REMARK    3  A    between atoms: C_16  and  C_15 
REMARK    4  A    between atoms: O_19  and  C_15 
ROOT
HETATM    1  C   UNK N   1      27.650  23.239  -8.142  0.00  0.00     0.309 C 
HETATM    2  C   UNK N   1      29.108  25.373  -6.862  0.00  0.00     0.032 C 
HETATM    3  C   UNK N   1      28.950  24.696  -5.490  0.00  0.00     0.026 C 
HETATM    4  C   UNK N   1      26.569  23.862  -5.486  0.00  0.00     0.055 C 
HETATM    5  C   UNK N   1      27.848  25.647  -7.691  0.00  0.00     0.272 C 
HETATM    6  C   UNK N   1      25.994  24.415  -6.789  0.00  0.00     0.273 C 
HETATM    7  C   UNK N   1      27.598  24.743  -4.743  0.00  0.00     0.076 C 
HETATM    8  N   UNK N   1      26.960  24.501  -7.881  0.00  0.00     0.084 N 
ENDROOT
BRANCH   7   9
HETATM    9  C   UNK N   1      27.065  26.150  -4.482  0.00  0.00    -0.040 A 
HETATM   10  C   UNK N   1      27.946  27.154  -4.039  0.00  0.00     0.008 A 
HETATM   11  C   UNK N   1      27.501  28.468  -3.870  0.00  0.00     0.001 A 
HETATM   12  C   UNK N   1      26.172  28.796  -4.141  0.00  0.00     0.000 A 
HETATM   13  C   UNK N   1      25.285  27.810  -4.578  0.00  0.00     0.001 A 
HETATM   14  C   UNK N   1      25.730  26.497  -4.755  0.00  0.00     0.008 A 
ENDBRANCH   7   9
BRANCH   7  15
HETATM   15  C   UNK N   1      27.847  24.139  -3.370  0.00  0.00     0.272 C 
HETATM   16  O   UNK N   1      26.909  23.881  -2.622  0.00  0.00    -0.264 OA
BRANCH  15  17
HETATM   17  O   UNK N   1      29.124  23.973  -2.939  0.00  0.00    -0.321 OA
BRANCH  17  18
HETATM   18  C   UNK N   1      29.534  22.816  -2.315  0.00  0.00     0.174 C 
HETATM   19  C   UNK N   1      30.231  21.906  -3.299  0.00  0.00     0.034 C 
ENDBRANCH  17  18
ENDBRANCH  15  17
ENDBRANCH   7  15
TORSDOF 4
ENDMDL
MODEL 3
REMARK VINA RESULT:      -5.3      1.960      4.389
REMARK  4 active torsions:
REMARK  status: ('A' for Active; 'I' for Inactive)
REMARK    1  A    between atoms: O_19  and  C_3 
REMARK    2  A    between atoms: C_16  and  C_14 
REMARK    3  A    between atoms: C_16  and  C_15 
REMARK    4  A    between atoms: O_19  and  C_15 
ROOT
HETATM    1  C   UNK N   1      25.611  24.927  -8.340  0.00  0.00     0.309 C 
HETATM    2  C   UNK N   1      25.914  23.442  -5.887  0.00  0.00     0.032 C 
HETATM    3  C   UNK N   1      25.672  24.712  -5.055  0.00  0.00     0.026 C 
HETATM    4  C   UNK N   1      26.970  26.501  -6.270  0.00  0.00     0.055 C 
HETATM    5  C   UNK N   1      27.017  23.466  -6.952  0.00  0.00     0.272 C 
HETATM    6  C   UNK N   1      27.700  25.730  -7.369  0.00  0.00     0.273 C 
HETATM    7  C   UNK N   1      26.777  25.783  -4.916  0.00  0.00     0.076 C 
HETATM    8  N   UNK N   1      26.959  24.585  -7.891  0.00  0.00     0.084 N 
ENDROOT
BRANCH   7   9
HETATM    9  C   UNK N   1      28.097  25.263  -4.351  0.00  0.00    -0.040 A 
HETATM   10  C   UNK N   1      29.245  26.076  -4.413  0.00  0.00     0.008 A 
HETATM   11  C   UNK N   1      30.445  25.658  -3.832  0.00  0.00     0.001 A 
HETATM   12  C   UNK N   1      30.515  24.424  -3.183  0.00  0.00     0.000 A 
HETATM   13  C   UNK N   1      29.385  23.605  -3.117  0.00  0.00     0.001 A 
HETATM   14  C   UNK N   1      28.182  24.025  -3.691  0.00  0.00     0.008 A 
ENDBRANCH   7   9
BRANCH   7  15
HETATM   15  C   UNK N   1      26.268  26.796  -3.903  0.00  0.00     0.272 C 
HETATM   16  O   UNK N   1      26.146  26.489  -2.721  0.00  0.00    -0.264 OA
BRANCH  15  17
HETATM   17  O   UNK N   1      25.859  28.017  -4.333  0.00  0.00    -0.321 OA
BRANCH  17  18
HETATM   18  C   UNK N   1      26.284  29.179  -3.728  0.00  0.00     0.174 C 
HETATM   19  C   UNK N   1      27.122  29.994  -4.684  0.00  0.00     0.034 C 
ENDBRANCH  17  18
ENDBRANCH  15  17
ENDBRANCH   7  15
TORSDOF 4
ENDMDL
MODEL 4
REMARK VINA RESULT:      -5.2      2.301      2.769
REMARK  4 active torsions:
REMARK  status: ('A' for Active; 'I' for Inactive)
REMARK    1  A    between atoms: O_19  and  C_3 
REMARK    2  A    between atoms: C_16  and  C_14 
REMARK    3  A    between atoms: C_16  and  C_15 
REMARK    4  A    between atoms: O_19  and  C_15 
ROOT
HETATM    1  C   UNK N   1      28.217  29.407  -2.464  0.00  0.00     0.309 C 
HETATM    2  C   UNK N   1      25.836  28.314  -3.671  0.00  0.00     0.032 C 
HETATM    3  C   UNK N   1      26.284  26.884  -3.326  0.00  0.00     0.026 C 
HETATM    4  C   UNK N   1      28.753  26.871  -3.839  0.00  0.00     0.055 C 
HETATM    5  C   UNK N   1      26.798  29.209  -4.462  0.00  0.00     0.272 C 
HETATM    6  C   UNK N   1      28.997  28.244  -4.462  0.00  0.00     0.273 C 
HETATM    7  C   UNK N   1      27.399  26.192  -4.140  0.00  0.00     0.076 C 
HETATM    8  N   UNK N   1      28.154  29.306  -3.921  0.00  0.00     0.084 N 
ENDROOT
BRANCH   7   9
HETATM    9  C   UNK N   1      27.127  26.100  -5.641  0.00  0.00    -0.040 A 
HETATM   10  C   UNK N   1      25.799  26.001  -6.099  0.00  0.00     0.008 A 
HETATM   11  C   UNK N   1      25.518  25.997  -7.468  0.00  0.00     0.001 A 
HETATM   12  C   UNK N   1      26.556  26.092  -8.395  0.00  0.00     0.000 A 
HETATM   13  C   UNK N   1      27.878  26.188  -7.955  0.00  0.00     0.001 A 
HETATM   14  C   UNK N   1      28.162  26.200  -6.587  0.00  0.00     0.008 A 
ENDBRANCH   7   9
BRANCH   7  15
HETATM   15  C   UNK N   1      27.461  24.755  -3.648  0.00  0.00     0.272 C 
HETATM   16  O   UNK N   1      26.579  24.305  -2.923  0.00  0.00    -0.264 OA
BRANCH  15  17
HETATM   17  O   UNK N   1      28.552  24.000  -3.940  0.00  0.00    -0.321 OA
BRANCH  17  18
HETATM   18  C   UNK N   1      29.169  23.219  -2.988  0.00  0.00     0.174 C 
HETATM   19  C   UNK N   1      30.629  23.586  -2.871  0.00  0.00     0.034 C 
ENDBRANCH  17  18
ENDBRANCH  15  17
ENDBRANCH   7  15
TORSDOF 4
ENDMDL
MODEL 5
REMARK VINA RESULT:      -5.2     13.810     15.856
REMARK  4 active torsions:
REMARK  status: ('A' for Active; 'I' for Inactive)
REMARK    1  A    between atoms: O_19  and  C_3 
REMARK    2  A    between atoms: C_16  and  C_14 
REMARK    3  A    between atoms: C_16  and  C_15 
REMARK    4  A    between atoms: O_19  and  C_15 
ROOT
HETATM    1  C   UNK N   1      32.446  14.197   2.888  0.00  0.00     0.309 C 
HETATM    2  C   UNK N   1      32.132  13.617   5.696  0.00  0.00     0.032 C 
HETATM    3  C   UNK N   1      31.099  14.747   5.842  0.00  0.00     0.026 C 
HETATM    4  C   UNK N   1      32.053  16.637   4.471  0.00  0.00     0.055 C 
HETATM    5  C   UNK N   1      33.502  13.954   5.094  0.00  0.00     0.272 C 
HETATM    6  C   UNK N   1      33.423  16.112   4.042  0.00  0.00     0.273 C 
HETATM    7  C   UNK N   1      31.550  16.225   5.872  0.00  0.00     0.076 C 
HETATM    8  N   UNK N   1      33.469  14.670   3.818  0.00  0.00     0.084 N 
ENDROOT
BRANCH   7   9
HETATM    9  C   UNK N   1      32.563  16.558   6.965  0.00  0.00    -0.040 A 
HETATM   10  C   UNK N   1      33.300  17.755   6.885  0.00  0.00     0.008 A 
HETATM   11  C   UNK N   1      34.174  18.122   7.911  0.00  0.00     0.001 A 
HETATM   12  C   UNK N   1      34.324  17.301   9.029  0.00  0.00     0.000 A 
HETATM   13  C   UNK N   1      33.602  16.109   9.121  0.00  0.00     0.001 A 
HETATM   14  C   UNK N   1      32.722  15.743   8.099  0.00  0.00     0.008 A 
ENDBRANCH   7   9
BRANCH   7  15
HETATM   15  C   UNK N   1      30.311  17.044   6.198  0.00  0.00     0.272 C 
HETATM   16  O   UNK N   1      29.826  17.801   5.364  0.00  0.00    -0.264 OA
BRANCH  15  17
HETATM   17  O   UNK N   1      29.801  17.003   7.456  0.00  0.00    -0.321 OA
BRANCH  17  18
HETATM   18  C   UNK N   1      29.324  18.132   8.082  0.00  0.00     0.174 C 
HETATM   19  C   UNK N   1      30.292  18.594   9.147  0.00  0.00     0.034 C 
ENDBRANCH  17  18
ENDBRANCH  15  17
ENDBRANCH   7  15
TORSDOF 4
ENDMDL
MODEL 6
REMARK VINA RESULT:      -5.1     21.666     25.284
REMARK  4 active torsions:
REMARK  status: ('A' for Active; 'I' for Inactive)
REMARK    1  A    between atoms: O_19  and  C_3 
REMARK    2  A    between atoms: C_16  and  C_14 
REMARK    3  A    between atoms: C_16  and  C_15 
REMARK    4  A    between atoms: O_19  and  C_15 
ROOT
HETATM    1  C   UNK N   1      37.016   8.729  13.611  0.00  0.00     0.309 C 
HETATM    2  C   UNK N   1      34.746  10.063  14.789  0.00  0.00     0.032 C 
HETATM    3  C   UNK N   1      34.847  11.202  13.761  0.00  0.00     0.026 C 
HETATM    4  C   UNK N   1      37.322  11.648  13.574  0.00  0.00     0.055 C 
HETATM    5  C   UNK N   1      35.990   9.714  15.615  0.00  0.00     0.272 C 
HETATM    6  C   UNK N   1      37.931  10.742  14.644  0.00  0.00     0.273 C 
HETATM    7  C   UNK N   1      35.947  12.279  13.886  0.00  0.00     0.076 C 
HETATM    8  N   UNK N   1      37.212   9.487  14.846  0.00  0.00     0.084 N 
ENDROOT
BRANCH   7   9
HETATM    9  C   UNK N   1      35.952  13.031  15.216  0.00  0.00    -0.040 A 
HETATM   10  C   UNK N   1      36.904  14.044  15.435  0.00  0.00     0.008 A 
HETATM   11  C   UNK N   1      36.879  14.801  16.610  0.00  0.00     0.001 A 
HETATM   12  C   UNK N   1      35.904  14.557  17.578  0.00  0.00     0.000 A 
HETATM   13  C   UNK N   1      34.955  13.553  17.375  0.00  0.00     0.001 A 
HETATM   14  C   UNK N   1      34.974  12.800  16.198  0.00  0.00     0.008 A 
ENDBRANCH   7   9
BRANCH   7  15
HETATM   15  C   UNK N   1      35.646  13.325  12.825  0.00  0.00     0.272 C 
HETATM   16  O   UNK N   1      34.527  13.818  12.733  0.00  0.00    -0.264 OA
BRANCH  15  17
HETATM   17  O   UNK N   1      36.604  13.643  11.916  0.00  0.00    -0.321 OA
BRANCH  17  18
HETATM   18  C   UNK N   1      36.465  14.711  11.059  0.00  0.00     0.174 C 
HETATM   19  C   UNK N   1      36.474  14.240   9.623  0.00  0.00     0.034 C 
ENDBRANCH  17  18
ENDBRANCH  15  17
ENDBRANCH   7  15
TORSDOF 4
ENDMDL
MODEL 7
REMARK VINA RESULT:      -5.1     11.379     13.627
REMARK  4 active torsions:
REMARK  status: ('A' for Active; 'I' for Inactive)
REMARK    1  A    between atoms: O_19  and  C_3 
REMARK    2  A    between atoms: C_16  and  C_14 
REMARK    3  A    between atoms: C_16  and  C_15 
REMARK    4  A    between atoms: O_19  and  C_15 
ROOT
HETATM    1  C   UNK N   1      26.262  14.055   4.727  0.00  0.00     0.309 C 
HETATM    2  C   UNK N   1      26.913  16.322   3.067  0.00  0.00     0.032 C 
HETATM    3  C   UNK N   1      28.299  16.440   3.722  0.00  0.00     0.026 C 
HETATM    4  C   UNK N   1      27.858  16.048   6.174  0.00  0.00     0.055 C 
HETATM    5  C   UNK N   1      25.676  16.320   3.973  0.00  0.00     0.272 C 
HETATM    6  C   UNK N   1      26.334  15.957   6.254  0.00  0.00     0.273 C 
HETATM    7  C   UNK N   1      28.451  17.031   5.141  0.00  0.00     0.076 C 
HETATM    8  N   UNK N   1      25.708  15.361   5.077  0.00  0.00     0.084 N 
ENDROOT
BRANCH   7   9
HETATM    9  C   UNK N   1      27.887  18.442   5.304  0.00  0.00    -0.040 A 
HETATM   10  C   UNK N   1      27.786  19.003   6.591  0.00  0.00     0.008 A 
HETATM   11  C   UNK N   1      27.349  20.319   6.761  0.00  0.00     0.001 A 
HETATM   12  C   UNK N   1      27.008  21.091   5.650  0.00  0.00     0.000 A 
HETATM   13  C   UNK N   1      27.099  20.547   4.368  0.00  0.00     0.001 A 
HETATM   14  C   UNK N   1      27.543  19.233   4.194  0.00  0.00     0.008 A 
ENDBRANCH   7   9
BRANCH   7  15
HETATM   15  C   UNK N   1      29.944  17.156   5.396  0.00  0.00     0.272 C 
HETATM   16  O   UNK N   1      30.664  17.764   4.611  0.00  0.00    -0.264 OA
BRANCH  15  17
HETATM   17  O   UNK N   1      30.492  16.506   6.456  0.00  0.00    -0.321 OA
BRANCH  17  18
HETATM   18  C   UNK N   1      31.408  17.115   7.284  0.00  0.00     0.174 C 
HETATM   19  C   UNK N   1      30.705  17.808   8.428  0.00  0.00     0.034 C 
ENDBRANCH  17  18
ENDBRANCH  15  17
ENDBRANCH   7  15
TORSDOF 4
ENDMDL
MODEL 8
REMARK VINA RESULT:      -5.1      2.184      4.352
REMARK  4 active torsions:
REMARK  status: ('A' for Active; 'I' for Inactive)
REMARK    1  A    between atoms: O_19  and  C_3 
REMARK    2  A    between atoms: C_16  and  C_14 
REMARK    3  A    between atoms: C_16  and  C_15 
REMARK    4  A    between atoms: O_19  and  C_15 
ROOT
HETATM    1  C   UNK N   1      26.444  28.979  -4.421  0.00  0.00     0.309 C 
HETATM    2  C   UNK N   1      28.676  27.409  -5.354  0.00  0.00     0.032 C 
HETATM    3  C   UNK N   1      27.725  26.412  -6.038  0.00  0.00     0.026 C 
HETATM    4  C   UNK N   1      25.854  26.105  -4.376  0.00  0.00     0.055 C 
HETATM    5  C   UNK N   1      28.471  27.707  -3.864  0.00  0.00     0.272 C 
HETATM    6  C   UNK N   1      26.324  26.896  -3.156  0.00  0.00     0.273 C 
HETATM    7  C   UNK N   1      26.937  25.379  -5.204  0.00  0.00     0.076 C 
HETATM    8  N   UNK N   1      27.111  28.083  -3.479  0.00  0.00     0.084 N 
ENDROOT
BRANCH   7   9
HETATM    9  C   UNK N   1      27.804  24.468  -4.337  0.00  0.00    -0.040 A 
HETATM   10  C   UNK N   1      29.079  24.084  -4.796  0.00  0.00     0.008 A 
HETATM   11  C   UNK N   1      29.924  23.318  -3.988  0.00  0.00     0.001 A 
HETATM   12  C   UNK N   1      29.508  22.925  -2.715  0.00  0.00     0.000 A 
HETATM   13  C   UNK N   1      28.245  23.295  -2.249  0.00  0.00     0.001 A 
HETATM   14  C   UNK N   1      27.401  24.068  -3.051  0.00  0.00     0.008 A 
ENDBRANCH   7   9
BRANCH   7  15
HETATM   15  C   UNK N   1      26.246  24.461  -6.199  0.00  0.00     0.272 C 
HETATM   16  O   UNK N   1      25.312  23.748  -5.848  0.00  0.00    -0.264 OA
BRANCH  15  17
HETATM   17  O   UNK N   1      26.734  24.366  -7.463  0.00  0.00    -0.321 OA
BRANCH  17  18
HETATM   18  C   UNK N   1      25.904  24.341  -8.561  0.00  0.00     0.174 C 
HETATM   19  C   UNK N   1      25.738  25.732  -9.127  0.00  0.00     0.034 C 
ENDBRANCH  17  18
ENDBRANCH  15  17
ENDBRANCH   7  15
TORSDOF 4
ENDMDL
MODEL 9
REMARK VINA RESULT:      -5.0     10.738     13.657
REMARK  4 active torsions:
REMARK  status: ('A' for Active; 'I' for Inactive)
REMARK    1  A    between atoms: O_19  and  C_3 
REMARK    2  A    between atoms: C_16  and  C_14 
REMARK    3  A    between atoms: C_16  and  C_15 
REMARK    4  A    between atoms: O_19  and  C_15 
ROOT
HETATM    1  C   UNK N   1      27.815  14.587   2.603  0.00  0.00     0.309 C 
HETATM    2  C   UNK N   1      28.902  14.478   5.272  0.00  0.00     0.032 C 
HETATM    3  C   UNK N   1      28.431  15.915   5.553  0.00  0.00     0.026 C 
HETATM    4  C   UNK N   1      28.955  17.163   3.425  0.00  0.00     0.055 C 
HETATM    5  C   UNK N   1      29.777  14.225   4.038  0.00  0.00     0.272 C 
HETATM    6  C   UNK N   1      29.703  16.132   2.580  0.00  0.00     0.273 C 
HETATM    7  C   UNK N   1      29.186  17.121   4.951  0.00  0.00     0.076 C 
HETATM    8  N   UNK N   1      29.256  14.756   2.779  0.00  0.00     0.084 N 
ENDROOT
BRANCH   7   9
HETATM    9  C   UNK N   1      30.670  17.184   5.308  0.00  0.00    -0.040 A 
HETATM   10  C   UNK N   1      31.604  17.558   4.323  0.00  0.00     0.008 A 
HETATM   11  C   UNK N   1      32.956  17.701   4.643  0.00  0.00     0.001 A 
HETATM   12  C   UNK N   1      33.394  17.472   5.949  0.00  0.00     0.000 A 
HETATM   13  C   UNK N   1      32.480  17.097   6.935  0.00  0.00     0.001 A 
HETATM   14  C   UNK N   1      31.125  16.960   6.619  0.00  0.00     0.008 A 
ENDBRANCH   7   9
BRANCH   7  15
HETATM   15  C   UNK N   1      28.565  18.365   5.566  0.00  0.00     0.272 C 
HETATM   16  O   UNK N   1      28.048  18.322   6.677  0.00  0.00    -0.264 OA
BRANCH  15  17
HETATM   17  O   UNK N   1      28.503  19.507   4.832  0.00  0.00    -0.321 OA
BRANCH  17  18
HETATM   18  C   UNK N   1      27.396  20.327   4.860  0.00  0.00     0.174 C 
HETATM   19  C   UNK N   1      26.612  20.196   3.575  0.00  0.00     0.034 C 
ENDBRANCH  17  18
ENDBRANCH  15  17
ENDBRANCH   7  15
TORSDOF 4
ENDMDL
