REMARK  3 active torsions:
REMARK  status: ('A' for Active; 'I' for Inactive)
REMARK    1  A    between atoms: C_9  and  C_1 
REMARK    2  A    between atoms: N_11  and  C_5 
REMARK    3  A    between atoms: C_18  and  N_11 
ROOT
HETATM    1  C   UNK N   1       0.668  -0.427   0.658  0.00  0.00     0.123 C 
HETATM    2  C   UNK N   1      -0.545   0.471   0.507  0.00  0.00     0.009 A 
HETATM    3  N   UNK N   1       0.914   2.231  -0.329  0.00  0.00    -0.322 N 
ATOM      4  HN  UNK N   1       1.036   3.200  -0.625  1.00  0.00     0.169 HD
HETATM    5  C   UNK N   1       1.942   1.457  -0.269  0.00  0.00     0.221 C 
HETATM    6  O   UNK N   1       1.818   0.153   0.124  0.00  0.00    -0.301 OA
HETATM    7  C   UNK N   1      -0.379   1.770   0.006  0.00  0.00     0.045 A 
HETATM    8  C   UNK N   1      -1.828   0.028   0.867  0.00  0.00     0.036 A 
HETATM    9  C   UNK N   1      -1.481   2.619  -0.124  0.00  0.00     0.032 A 
HETATM   10  C   UNK N   1      -2.930   0.871   0.715  0.00  0.00     0.034 A 
HETATM   11  C   UNK N   1       0.931  -0.595   2.153  0.00  0.00     0.058 C 
HETATM   12  C   UNK N   1      -2.757   2.168   0.223  0.00  0.00     0.026 A 
HETATM   13 Cl   UNK N   1      -4.531   0.296   1.124  0.00  0.00    -0.084 Cl
ENDROOT
BRANCH   1  14
HETATM   14  C   UNK N   1       0.403  -1.782   0.001  0.00  0.00    -0.019 A 
HETATM   15  C   UNK N   1       0.009  -1.863  -1.346  0.00  0.00     0.010 A 
HETATM   16  C   UNK N   1      -0.298  -3.105  -1.919  0.00  0.00     0.001 A 
HETATM   17  C   UNK N   1      -0.202  -4.275  -1.160  0.00  0.00     0.000 A 
HETATM   18  C   UNK N   1       0.202  -4.209   0.173  0.00  0.00     0.001 A 
HETATM   19  C   UNK N   1       0.494  -2.973   0.750  0.00  0.00     0.010 A 
ENDBRANCH   1  14
BRANCH   5  20
HETATM   20  N   UNK N   1       3.237   1.966  -0.546  0.00  0.00    -0.356 N 
HETATM   21  H   UNK N   1       3.998   1.342  -0.595  0.00  0.00     0.163 HD
BRANCH  20  22
HETATM   22  C   UNK N   1       3.469   3.374  -0.758  0.00  0.00     0.118 C 
HETATM   23  C   UNK N   1       4.959   3.645  -0.756  0.00  0.00     0.026 C 
ENDBRANCH  20  22
ENDBRANCH   5  20
TORSDOF 3
