MODEL 1
REMARK VINA RESULT:      -5.7      0.000      0.000
REMARK  5 active torsions:
REMARK  status: ('A' for Active; 'I' for Inactive)
REMARK    1  A    between atoms: C_6  and  C_3 
REMARK    2  A    between atoms: N_16  and  C_3 
REMARK    3  A    between atoms: O_20  and  C_4 
REMARK    4  A    between atoms: C_12  and  C_7 
REMARK    5  A    between atoms: O_23  and  C_12 
ROOT
HETATM    1  C   UNK N   1      31.964  19.055  -8.440  0.00  0.00     0.097 C 
HETATM    2  C   UNK N   1      31.855  19.867  -7.196  0.00  0.00     0.111 C 
HETATM    3  C   UNK N   1      28.092  22.894  -5.986  0.00  0.00    -0.004 A 
HETATM    4  C   UNK N   1      29.824  23.075  -4.211  0.00  0.00     0.073 A 
HETATM    5  C   UNK N   1      28.536  23.455  -4.751  0.00  0.00     0.034 A 
HETATM    6  C   UNK N   1      28.908  21.977  -6.658  0.00  0.00     0.043 A 
HETATM    7  C   UNK N   1      30.643  22.123  -4.945  0.00  0.00     0.052 A 
HETATM    8  C   UNK N   1      30.161  21.574  -6.183  0.00  0.00     0.069 A 
HETATM    9  I   UNK N   1      27.247  24.870  -3.728  0.00  0.00    -0.043 I 
HETATM   10  I   UNK N   1      28.223  21.131  -8.530  0.00  0.00    -0.042 I 
HETATM   11  I   UNK N   1      32.580  21.567  -4.178  0.00  0.00    -0.041 I 
HETATM   12  N   UNK N   1      30.820  20.630  -7.055  0.00  0.00    -0.339 N 
ATOM     13  HN  UNK N   1      30.240  20.521  -7.887  1.00  0.00     0.168 HD
HETATM   14  O   UNK N   1      32.821  19.746  -6.284  0.00  0.00    -0.350 OA
HETATM   15  H   UNK N   1      32.764  20.209  -5.471  0.00  0.00     0.219 HD
ENDROOT
BRANCH   3  16
HETATM   16  C   UNK N   1      26.773  23.181  -6.704  0.00  0.00     0.162 C 
BRANCH  16  17
HETATM   17  N   UNK N   1      26.639  24.327  -7.560  0.00  0.00    -0.370 N 
HETATM   18  C   UNK N   1      25.668  24.421  -8.400  0.00  0.00     0.107 C 
HETATM   19  C   UNK N   1      25.555  25.623  -9.272  0.00  0.00     0.097 C 
ATOM     20  HN  UNK N   1      27.325  25.080  -7.502  1.00  0.00     0.161 HD
BRANCH  18  21
HETATM   21  O   UNK N   1      24.744  23.441  -8.503  0.00  0.00    -0.350 OA
HETATM   22  H   UNK N   1      24.670  22.794  -7.829  0.00  0.00     0.219 HD
ENDBRANCH  18  21
ENDBRANCH  16  17
ENDBRANCH   3  16
BRANCH   4  23
HETATM   23  C   UNK N   1      30.311  23.675  -2.885  0.00  0.00     0.178 C 
HETATM   24  O   UNK N   1      30.797  24.786  -2.829  0.00  0.00    -0.646 OA
BRANCH  23  25
HETATM   25  O   UNK N   1      30.227  23.007  -1.727  0.00  0.00    -0.773 OA
HETATM   26  H   UNK N   1      29.418  22.987  -1.254  0.00  0.00     0.167 HD
ENDBRANCH  23  25
ENDBRANCH   4  23
TORSDOF 5
ENDMDL
MODEL 2
REMARK VINA RESULT:      -5.7     13.198     15.285
REMARK  5 active torsions:
REMARK  status: ('A' for Active; 'I' for Inactive)
REMARK    1  A    between atoms: C_6  and  C_3 
REMARK    2  A    between atoms: N_16  and  C_3 
REMARK    3  A    between atoms: O_20  and  C_4 
REMARK    4  A    between atoms: C_12  and  C_7 
REMARK    5  A    between atoms: O_23  and  C_12 
ROOT
HETATM    1  C   UNK N   1      32.517  13.537   2.539  0.00  0.00     0.097 C 
HETATM    2  C   UNK N   1      31.362  14.158   3.245  0.00  0.00     0.111 C 
HETATM    3  C   UNK N   1      31.603  17.042   7.296  0.00  0.00    -0.004 A 
HETATM    4  C   UNK N   1      29.204  16.707   6.735  0.00  0.00     0.073 A 
HETATM    5  C   UNK N   1      30.226  17.291   7.577  0.00  0.00     0.034 A 
HETATM    6  C   UNK N   1      31.949  16.238   6.205  0.00  0.00     0.043 A 
HETATM    7  C   UNK N   1      29.607  15.873   5.613  0.00  0.00     0.052 A 
HETATM    8  C   UNK N   1      31.004  15.649   5.358  0.00  0.00     0.069 A 
HETATM    9  I   UNK N   1      29.720  18.546   9.274  0.00  0.00    -0.043 I 
HETATM   10  I   UNK N   1      34.042  15.870   5.788  0.00  0.00    -0.042 I 
HETATM   11  I   UNK N   1      28.103  14.964   4.364  0.00  0.00    -0.041 I 
HETATM   12  N   UNK N   1      31.600  14.855   4.309  0.00  0.00    -0.339 N 
ATOM     13  HN  UNK N   1      32.607  14.839   4.469  1.00  0.00     0.168 HD
HETATM   14  O   UNK N   1      30.144  13.979   2.730  0.00  0.00    -0.350 OA
HETATM   15  H   UNK N   1      29.400  14.389   3.125  0.00  0.00     0.219 HD
ENDROOT
BRANCH   3  16
HETATM   16  C   UNK N   1      32.809  17.568   8.076  0.00  0.00     0.162 C 
BRANCH  16  17
HETATM   17  N   UNK N   1      33.387  16.796   9.140  0.00  0.00    -0.370 N 
HETATM   18  C   UNK N   1      34.545  17.088   9.622  0.00  0.00     0.107 C 
HETATM   19  C   UNK N   1      35.116  16.269  10.728  0.00  0.00     0.097 C 
ATOM     20  HN  UNK N   1      32.872  16.002   9.521  1.00  0.00     0.161 HD
BRANCH  18  21
HETATM   21  O   UNK N   1      35.253  18.131   9.139  0.00  0.00    -0.350 OA
HETATM   22  H   UNK N   1      35.833  18.605   9.702  0.00  0.00     0.219 HD
ENDBRANCH  18  21
ENDBRANCH  16  17
ENDBRANCH   3  16
BRANCH   4  23
HETATM   23  C   UNK N   1      27.721  16.967   7.030  0.00  0.00     0.178 C 
HETATM   24  O   UNK N   1      27.077  16.234   7.754  0.00  0.00    -0.646 OA
BRANCH  23  25
HETATM   25  O   UNK N   1      27.062  18.010   6.507  0.00  0.00    -0.773 OA
HETATM   26  H   UNK N   1      27.357  18.883   6.675  0.00  0.00     0.167 HD
ENDBRANCH  23  25
ENDBRANCH   4  23
TORSDOF 5
ENDMDL
MODEL 3
REMARK VINA RESULT:      -5.6     13.023     14.764
REMARK  5 active torsions:
REMARK  status: ('A' for Active; 'I' for Inactive)
REMARK    1  A    between atoms: C_6  and  C_3 
REMARK    2  A    between atoms: N_16  and  C_3 
REMARK    3  A    between atoms: O_20  and  C_4 
REMARK    4  A    between atoms: C_12  and  C_7 
REMARK    5  A    between atoms: O_23  and  C_12 
ROOT
HETATM    1  C   UNK N   1      20.705  20.532   2.298  0.00  0.00     0.097 C 
HETATM    2  C   UNK N   1      22.062  20.111   2.742  0.00  0.00     0.111 C 
HETATM    3  C   UNK N   1      23.135  16.114   5.510  0.00  0.00    -0.004 A 
HETATM    4  C   UNK N   1      25.249  17.359   5.110  0.00  0.00     0.073 A 
HETATM    5  C   UNK N   1      24.545  16.234   5.689  0.00  0.00     0.034 A 
HETATM    6  C   UNK N   1      22.448  17.084   4.773  0.00  0.00     0.043 A 
HETATM    7  C   UNK N   1      24.496  18.349   4.354  0.00  0.00     0.052 A 
HETATM    8  C   UNK N   1      23.076  18.191   4.191  0.00  0.00     0.069 A 
HETATM    9  I   UNK N   1      25.584  14.711   6.833  0.00  0.00    -0.043 I 
HETATM   10  I   UNK N   1      20.307  16.888   4.507  0.00  0.00    -0.042 I 
HETATM   11  I   UNK N   1      25.516  20.051   3.512  0.00  0.00    -0.041 I 
HETATM   12  N   UNK N   1      22.160  19.058   3.490  0.00  0.00    -0.339 N 
ATOM     13  HN  UNK N   1      21.217  18.700   3.643  1.00  0.00     0.168 HD
HETATM   14  O   UNK N   1      23.107  20.828   2.327  0.00  0.00    -0.350 OA
HETATM   15  H   UNK N   1      23.978  20.567   2.553  0.00  0.00     0.219 HD
ENDROOT
BRANCH   3  16
HETATM   16  C   UNK N   1      22.233  15.003   6.050  0.00  0.00     0.162 C 
BRANCH  16  17
HETATM   17  N   UNK N   1      21.858  14.972   7.437  0.00  0.00    -0.370 N 
HETATM   18  C   UNK N   1      20.889  14.230   7.849  0.00  0.00     0.107 C 
HETATM   19  C   UNK N   1      20.528  14.218   9.294  0.00  0.00     0.097 C 
ATOM     20  HN  UNK N   1      22.367  15.548   8.107  1.00  0.00     0.161 HD
BRANCH  18  21
HETATM   21  O   UNK N   1      20.194  13.457   6.987  0.00  0.00    -0.350 OA
HETATM   22  H   UNK N   1      19.316  13.688   6.755  0.00  0.00     0.219 HD
ENDBRANCH  18  21
ENDBRANCH  16  17
ENDBRANCH   3  16
BRANCH   4  23
HETATM   23  C   UNK N   1      26.766  17.499   5.298  0.00  0.00     0.178 C 
HETATM   24  O   UNK N   1      27.552  17.038   4.495  0.00  0.00    -0.646 OA
BRANCH  23  25
HETATM   25  O   UNK N   1      27.298  18.130   6.353  0.00  0.00    -0.773 OA
HETATM   26  H   UNK N   1      27.192  19.057   6.448  0.00  0.00     0.167 HD
ENDBRANCH  23  25
ENDBRANCH   4  23
TORSDOF 5
ENDMDL
MODEL 4
REMARK VINA RESULT:      -5.5     13.191     14.815
REMARK  5 active torsions:
REMARK  status: ('A' for Active; 'I' for Inactive)
REMARK    1  A    between atoms: C_6  and  C_3 
REMARK    2  A    between atoms: N_16  and  C_3 
REMARK    3  A    between atoms: O_20  and  C_4 
REMARK    4  A    between atoms: C_12  and  C_7 
REMARK    5  A    between atoms: O_23  and  C_12 
ROOT
HETATM    1  C   UNK N   1      28.475  17.934   4.971  0.00  0.00     0.097 C 
HETATM    2  C   UNK N   1      27.117  18.419   4.596  0.00  0.00     0.111 C 
HETATM    3  C   UNK N   1      22.814  16.082   5.493  0.00  0.00    -0.004 A 
HETATM    4  C   UNK N   1      22.312  18.140   4.190  0.00  0.00     0.073 A 
HETATM    5  C   UNK N   1      21.862  16.943   4.869  0.00  0.00     0.034 A 
HETATM    6  C   UNK N   1      24.173  16.408   5.443  0.00  0.00     0.043 A 
HETATM    7  C   UNK N   1      23.736  18.439   4.158  0.00  0.00     0.052 A 
HETATM    8  C   UNK N   1      24.664  17.551   4.803  0.00  0.00     0.069 A 
HETATM    9  I   UNK N   1      19.759  16.415   4.965  0.00  0.00    -0.043 I 
HETATM   10  I   UNK N   1      25.607  15.094   6.396  0.00  0.00    -0.042 I 
HETATM   11  I   UNK N   1      24.434  20.197   3.124  0.00  0.00    -0.041 I 
HETATM   12  N   UNK N   1      26.102  17.667   4.876  0.00  0.00    -0.339 N 
ATOM     13  HN  UNK N   1      26.457  16.825   5.329  1.00  0.00     0.168 HD
HETATM   14  O   UNK N   1      27.019  19.614   4.011  0.00  0.00    -0.350 OA
HETATM   15  H   UNK N   1      26.178  19.969   3.800  0.00  0.00     0.219 HD
ENDROOT
BRANCH   3  16
HETATM   16  C   UNK N   1      22.521  14.783   6.245  0.00  0.00     0.162 C 
BRANCH  16  17
HETATM   17  N   UNK N   1      22.114  14.810   7.622  0.00  0.00    -0.370 N 
HETATM   18  C   UNK N   1      21.092  14.138   8.028  0.00  0.00     0.107 C 
HETATM   19  C   UNK N   1      20.698  14.184   9.463  0.00  0.00     0.097 C 
ATOM     20  HN  UNK N   1      22.642  15.369   8.292  1.00  0.00     0.161 HD
BRANCH  18  21
HETATM   21  O   UNK N   1      20.370  13.389   7.167  0.00  0.00    -0.350 OA
HETATM   22  H   UNK N   1      20.763  12.648   6.748  0.00  0.00     0.219 HD
ENDBRANCH  18  21
ENDBRANCH  16  17
ENDBRANCH   3  16
BRANCH   4  23
HETATM   23  C   UNK N   1      21.296  19.071   3.514  0.00  0.00     0.178 C 
HETATM   24  O   UNK N   1      20.972  18.924   2.353  0.00  0.00    -0.646 OA
BRANCH  23  25
HETATM   25  O   UNK N   1      20.720  20.089   4.166  0.00  0.00    -0.773 OA
HETATM   26  H   UNK N   1      20.842  20.968   3.865  0.00  0.00     0.167 HD
ENDBRANCH  23  25
ENDBRANCH   4  23
TORSDOF 5
ENDMDL
MODEL 5
REMARK VINA RESULT:      -5.5     12.610     13.952
REMARK  5 active torsions:
REMARK  status: ('A' for Active; 'I' for Inactive)
REMARK    1  A    between atoms: C_6  and  C_3 
REMARK    2  A    between atoms: N_16  and  C_3 
REMARK    3  A    between atoms: O_20  and  C_4 
REMARK    4  A    between atoms: C_12  and  C_7 
REMARK    5  A    between atoms: O_23  and  C_12 
ROOT
HETATM    1  C   UNK N   1      31.096  13.258   2.309  0.00  0.00     0.097 C 
HETATM    2  C   UNK N   1      31.597  13.725   3.632  0.00  0.00     0.111 C 
HETATM    3  C   UNK N   1      29.356  17.012   6.625  0.00  0.00    -0.004 A 
HETATM    4  C   UNK N   1      31.526  16.384   7.664  0.00  0.00     0.073 A 
HETATM    5  C   UNK N   1      30.289  17.136   7.697  0.00  0.00     0.034 A 
HETATM    6  C   UNK N   1      29.646  16.160   5.554  0.00  0.00     0.043 A 
HETATM    7  C   UNK N   1      31.791  15.513   6.529  0.00  0.00     0.052 A 
HETATM    8  C   UNK N   1      30.824  15.410   5.470  0.00  0.00     0.069 A 
HETATM    9  I   UNK N   1      29.811  18.462   9.347  0.00  0.00    -0.043 I 
HETATM   10  I   UNK N   1      28.219  15.978   3.935  0.00  0.00    -0.042 I 
HETATM   11  I   UNK N   1      33.640  14.409   6.439  0.00  0.00    -0.041 I 
HETATM   12  N   UNK N   1      30.903  14.613   4.268  0.00  0.00    -0.339 N 
ATOM     13  HN  UNK N   1      30.091  14.840   3.694  1.00  0.00     0.168 HD
HETATM   14  O   UNK N   1      32.723  13.185   4.101  0.00  0.00    -0.350 OA
HETATM   15  H   UNK N   1      33.044  13.424   4.948  0.00  0.00     0.219 HD
ENDROOT
BRANCH   3  16
HETATM   16  C   UNK N   1      28.011  17.729   6.491  0.00  0.00     0.162 C 
BRANCH  16  17
HETATM   17  N   UNK N   1      27.937  19.046   5.924  0.00  0.00    -0.370 N 
HETATM   18  C   UNK N   1      27.435  20.030   6.587  0.00  0.00     0.107 C 
HETATM   19  C   UNK N   1      27.376  21.385   5.971  0.00  0.00     0.097 C 
ATOM     20  HN  UNK N   1      28.287  19.207   4.979  1.00  0.00     0.161 HD
BRANCH  18  21
HETATM   21  O   UNK N   1      26.961  19.851   7.839  0.00  0.00    -0.350 OA
HETATM   22  H   UNK N   1      27.406  20.237   8.567  0.00  0.00     0.219 HD
ENDBRANCH  18  21
ENDBRANCH  16  17
ENDBRANCH   3  16
BRANCH   4  23
HETATM   23  C   UNK N   1      32.537  16.513   8.811  0.00  0.00     0.178 C 
HETATM   24  O   UNK N   1      33.387  17.380   8.816  0.00  0.00    -0.646 OA
BRANCH  23  25
HETATM   25  O   UNK N   1      32.537  15.678   9.858  0.00  0.00    -0.773 OA
HETATM   26  H   UNK N   1      33.345  15.341  10.191  0.00  0.00     0.167 HD
ENDBRANCH  23  25
ENDBRANCH   4  23
TORSDOF 5
ENDMDL
MODEL 6
REMARK VINA RESULT:      -5.5      2.883      5.164
REMARK  5 active torsions:
REMARK  status: ('A' for Active; 'I' for Inactive)
REMARK    1  A    between atoms: C_6  and  C_3 
REMARK    2  A    between atoms: N_16  and  C_3 
REMARK    3  A    between atoms: O_20  and  C_4 
REMARK    4  A    between atoms: C_12  and  C_7 
REMARK    5  A    between atoms: O_23  and  C_12 
ROOT
HETATM    1  C   UNK N   1      31.369  20.200  -5.350  0.00  0.00     0.097 C 
HETATM    2  C   UNK N   1      30.277  20.805  -6.163  0.00  0.00     0.111 C 
HETATM    3  C   UNK N   1      27.652  24.870  -4.991  0.00  0.00    -0.004 A 
HETATM    4  C   UNK N   1      26.730  23.945  -7.108  0.00  0.00     0.073 A 
HETATM    5  C   UNK N   1      26.715  24.949  -6.065  0.00  0.00     0.034 A 
HETATM    6  C   UNK N   1      28.579  23.823  -4.963  0.00  0.00     0.043 A 
HETATM    7  C   UNK N   1      27.709  22.870  -7.037  0.00  0.00     0.052 A 
HETATM    8  C   UNK N   1      28.641  22.827  -5.943  0.00  0.00     0.069 A 
HETATM    9  I   UNK N   1      25.291  26.587  -6.086  0.00  0.00    -0.043 I 
HETATM   10  I   UNK N   1      29.998  23.715  -3.329  0.00  0.00    -0.042 I 
HETATM   11  I   UNK N   1      27.730  21.345  -8.560  0.00  0.00    -0.041 I 
HETATM   12  N   UNK N   1      29.672  21.848  -5.692  0.00  0.00    -0.339 N 
ATOM     13  HN  UNK N   1      30.091  22.066  -4.788  1.00  0.00     0.168 HD
HETATM   14  O   UNK N   1      29.995  20.250  -7.343  0.00  0.00    -0.350 OA
HETATM   15  H   UNK N   1      29.343  20.630  -7.899  0.00  0.00     0.219 HD
ENDROOT
BRANCH   3  16
HETATM   16  C   UNK N   1      27.777  25.832  -3.809  0.00  0.00     0.162 C 
BRANCH  16  17
HETATM   17  N   UNK N   1      28.247  27.175  -4.004  0.00  0.00    -0.370 N 
HETATM   18  C   UNK N   1      27.651  28.176  -3.455  0.00  0.00     0.107 C 
HETATM   19  C   UNK N   1      28.166  29.557  -3.674  0.00  0.00     0.097 C 
ATOM     20  HN  UNK N   1      29.068  27.340  -4.587  1.00  0.00     0.161 HD
BRANCH  18  21
HETATM   21  O   UNK N   1      26.561  27.992  -2.679  0.00  0.00    -0.350 OA
HETATM   22  H   UNK N   1      25.719  27.884  -3.074  0.00  0.00     0.219 HD
ENDBRANCH  18  21
ENDBRANCH  16  17
ENDBRANCH   3  16
BRANCH   4  23
HETATM   23  C   UNK N   1      25.726  24.021  -8.265  0.00  0.00     0.178 C 
HETATM   24  O   UNK N   1      25.924  24.724  -9.235  0.00  0.00    -0.646 OA
BRANCH  23  25
HETATM   25  O   UNK N   1      24.583  23.321  -8.264  0.00  0.00    -0.773 OA
HETATM   26  H   UNK N   1      23.977  23.410  -8.973  0.00  0.00     0.167 HD
ENDBRANCH  23  25
ENDBRANCH   4  23
TORSDOF 5
ENDMDL
MODEL 7
REMARK VINA RESULT:      -5.5     12.017     14.229
REMARK  5 active torsions:
REMARK  status: ('A' for Active; 'I' for Inactive)
REMARK    1  A    between atoms: C_6  and  C_3 
REMARK    2  A    between atoms: N_16  and  C_3 
REMARK    3  A    between atoms: O_20  and  C_4 
REMARK    4  A    between atoms: C_12  and  C_7 
REMARK    5  A    between atoms: O_23  and  C_12 
ROOT
HETATM    1  C   UNK N   1      18.895  15.483   4.931  0.00  0.00     0.097 C 
HETATM    2  C   UNK N   1      19.683  16.594   4.328  0.00  0.00     0.111 C 
HETATM    3  C   UNK N   1      24.540  17.453   5.002  0.00  0.00    -0.004 A 
HETATM    4  C   UNK N   1      23.627  19.283   3.587  0.00  0.00     0.073 A 
HETATM    5  C   UNK N   1      24.744  18.658   4.263  0.00  0.00     0.034 A 
HETATM    6  C   UNK N   1      23.262  16.888   5.059  0.00  0.00     0.043 A 
HETATM    7  C   UNK N   1      22.313  18.664   3.676  0.00  0.00     0.052 A 
HETATM    8  C   UNK N   1      22.147  17.448   4.425  0.00  0.00     0.069 A 
HETATM    9  I   UNK N   1      26.738  19.509   4.188  0.00  0.00    -0.043 I 
HETATM   10  I   UNK N   1      22.967  15.059   6.181  0.00  0.00    -0.042 I 
HETATM   11  I   UNK N   1      20.627  19.594   2.706  0.00  0.00    -0.041 I 
HETATM   12  N   UNK N   1      20.936  16.692   4.637  0.00  0.00    -0.339 N 
ATOM     13  HN  UNK N   1      21.154  15.934   5.284  1.00  0.00     0.168 HD
HETATM   14  O   UNK N   1      19.058  17.417   3.484  0.00  0.00    -0.350 OA
HETATM   15  H   UNK N   1      19.533  18.101   3.054  0.00  0.00     0.219 HD
ENDROOT
BRANCH   3  16
HETATM   16  C   UNK N   1      25.595  16.663   5.778  0.00  0.00     0.162 C 
BRANCH  16  17
HETATM   17  N   UNK N   1      26.536  15.824   5.088  0.00  0.00    -0.370 N 
HETATM   18  C   UNK N   1      27.755  15.721   5.490  0.00  0.00     0.107 C 
HETATM   19  C   UNK N   1      28.705  14.839   4.755  0.00  0.00     0.097 C 
ATOM     20  HN  UNK N   1      26.233  15.300   4.267  1.00  0.00     0.161 HD
BRANCH  18  21
HETATM   21  O   UNK N   1      28.188  16.402   6.572  0.00  0.00    -0.350 OA
HETATM   22  H   UNK N   1      27.593  16.602   7.268  0.00  0.00     0.219 HD
ENDBRANCH  18  21
ENDBRANCH  16  17
ENDBRANCH   3  16
BRANCH   4  23
HETATM   23  C   UNK N   1      23.835  20.579   2.792  0.00  0.00     0.178 C 
HETATM   24  O   UNK N   1      23.377  21.638   3.171  0.00  0.00    -0.646 OA
BRANCH  23  25
HETATM   25  O   UNK N   1      24.526  20.608   1.645  0.00  0.00    -0.773 OA
HETATM   26  H   UNK N   1      24.640  21.417   1.186  0.00  0.00     0.167 HD
ENDBRANCH  23  25
ENDBRANCH   4  23
TORSDOF 5
ENDMDL
MODEL 8
REMARK VINA RESULT:      -5.4     12.666     14.559
REMARK  5 active torsions:
REMARK  status: ('A' for Active; 'I' for Inactive)
REMARK    1  A    between atoms: C_6  and  C_3 
REMARK    2  A    between atoms: N_16  and  C_3 
REMARK    3  A    between atoms: O_20  and  C_4 
REMARK    4  A    between atoms: C_12  and  C_7 
REMARK    5  A    between atoms: O_23  and  C_12 
ROOT
HETATM    1  C   UNK N   1      22.419  12.812   7.415  0.00  0.00     0.097 C 
HETATM    2  C   UNK N   1      21.907  13.935   6.582  0.00  0.00     0.111 C 
HETATM    3  C   UNK N   1      24.601  17.708   4.767  0.00  0.00    -0.004 A 
HETATM    4  C   UNK N   1      22.223  18.096   4.150  0.00  0.00     0.073 A 
HETATM    5  C   UNK N   1      23.611  18.507   4.119  0.00  0.00     0.034 A 
HETATM    6  C   UNK N   1      24.217  16.533   5.421  0.00  0.00     0.043 A 
HETATM    7  C   UNK N   1      21.867  16.869   4.845  0.00  0.00     0.052 A 
HETATM    8  C   UNK N   1      22.892  16.087   5.481  0.00  0.00     0.069 A 
HETATM    9  I   UNK N   1      24.236  20.323   3.109  0.00  0.00    -0.043 I 
HETATM   10  I   UNK N   1      25.729  15.328   6.398  0.00  0.00    -0.042 I 
HETATM   11  I   UNK N   1      19.802  16.254   4.934  0.00  0.00    -0.041 I 
HETATM   12  N   UNK N   1      22.742  14.856   6.220  0.00  0.00    -0.339 N 
ATOM     13  HN  UNK N   1      23.654  14.616   6.609  1.00  0.00     0.168 HD
HETATM   14  O   UNK N   1      20.619  13.919   6.234  0.00  0.00    -0.350 OA
HETATM   15  H   UNK N   1      20.274  14.587   5.675  0.00  0.00     0.219 HD
ENDROOT
BRANCH   3  16
HETATM   16  C   UNK N   1      26.102  17.989   4.840  0.00  0.00     0.162 C 
BRANCH  16  17
HETATM   17  N   UNK N   1      26.614  19.018   5.702  0.00  0.00    -0.370 N 
HETATM   18  C   UNK N   1      27.448  19.898   5.266  0.00  0.00     0.107 C 
HETATM   19  C   UNK N   1      27.957  20.955   6.183  0.00  0.00     0.097 C 
ATOM     20  HN  UNK N   1      26.312  19.054   6.675  1.00  0.00     0.161 HD
BRANCH  18  21
HETATM   21  O   UNK N   1      27.869  19.877   3.983  0.00  0.00    -0.350 OA
HETATM   22  H   UNK N   1      28.632  19.386   3.749  0.00  0.00     0.219 HD
ENDBRANCH  18  21
ENDBRANCH  16  17
ENDBRANCH   3  16
BRANCH   4  23
HETATM   23  C   UNK N   1      21.152  18.950   3.458  0.00  0.00     0.178 C 
HETATM   24  O   UNK N   1      20.756  18.691   2.340  0.00  0.00    -0.646 OA
BRANCH  23  25
HETATM   25  O   UNK N   1      20.603  20.020   4.048  0.00  0.00    -0.773 OA
HETATM   26  H   UNK N   1      19.918  20.494   3.618  0.00  0.00     0.167 HD
ENDBRANCH  23  25
ENDBRANCH   4  23
TORSDOF 5
ENDMDL
MODEL 9
REMARK VINA RESULT:      -5.4      3.627      7.600
REMARK  5 active torsions:
REMARK  status: ('A' for Active; 'I' for Inactive)
REMARK    1  A    between atoms: C_6  and  C_3 
REMARK    2  A    between atoms: N_16  and  C_3 
REMARK    3  A    between atoms: O_20  and  C_4 
REMARK    4  A    between atoms: C_12  and  C_7 
REMARK    5  A    between atoms: O_23  and  C_12 
ROOT
HETATM    1  C   UNK N   1      27.720  30.285  -2.858  0.00  0.00     0.097 C 
HETATM    2  C   UNK N   1      27.147  29.128  -3.600  0.00  0.00     0.111 C 
HETATM    3  C   UNK N   1      29.628  25.084  -5.108  0.00  0.00    -0.004 A 
HETATM    4  C   UNK N   1      27.288  24.898  -5.929  0.00  0.00     0.073 A 
HETATM    5  C   UNK N   1      28.625  24.355  -5.814  0.00  0.00     0.034 A 
HETATM    6  C   UNK N   1      29.306  26.317  -4.531  0.00  0.00     0.043 A 
HETATM    7  C   UNK N   1      26.997  26.186  -5.318  0.00  0.00     0.052 A 
HETATM    8  C   UNK N   1      28.031  26.890  -4.610  0.00  0.00     0.069 A 
HETATM    9  I   UNK N   1      29.154  22.443  -6.696  0.00  0.00    -0.043 I 
HETATM   10  I   UNK N   1      30.837  27.413  -3.461  0.00  0.00    -0.042 I 
HETATM   11  I   UNK N   1      25.023  27.033  -5.504  0.00  0.00    -0.041 I 
HETATM   12  N   UNK N   1      27.944  28.169  -3.947  0.00  0.00    -0.339 N 
ATOM     13  HN  UNK N   1      28.880  28.414  -3.623  1.00  0.00     0.168 HD
HETATM   14  O   UNK N   1      25.836  29.133  -3.849  0.00  0.00    -0.350 OA
HETATM   15  H   UNK N   1      25.434  28.402  -4.277  0.00  0.00     0.219 HD
ENDROOT
BRANCH   3  16
HETATM   16  C   UNK N   1      31.085  24.669  -4.893  0.00  0.00     0.162 C 
BRANCH  16  17
HETATM   17  N   UNK N   1      31.414  23.325  -4.506  0.00  0.00    -0.370 N 
HETATM   18  C   UNK N   1      31.286  22.933  -3.286  0.00  0.00     0.107 C 
HETATM   19  C   UNK N   1      31.632  21.532  -2.917  0.00  0.00     0.097 C 
ATOM     20  HN  UNK N   1      31.754  22.669  -5.209  1.00  0.00     0.161 HD
BRANCH  18  21
HETATM   21  O   UNK N   1      30.839  23.777  -2.331  0.00  0.00    -0.350 OA
HETATM   22  H   UNK N   1      30.641  23.452  -1.474  0.00  0.00     0.219 HD
ENDBRANCH  18  21
ENDBRANCH  16  17
ENDBRANCH   3  16
BRANCH   4  23
HETATM   23  C   UNK N   1      26.203  24.122  -6.688  0.00  0.00     0.178 C 
HETATM   24  O   UNK N   1      26.040  24.261  -7.883  0.00  0.00    -0.646 OA
BRANCH  23  25
HETATM   25  O   UNK N   1      25.384  23.259  -6.073  0.00  0.00    -0.773 OA
HETATM   26  H   UNK N   1      24.813  22.713  -6.578  0.00  0.00     0.167 HD
ENDBRANCH  23  25
ENDBRANCH   4  23
TORSDOF 5
ENDMDL
