MODEL 1
REMARK VINA RESULT:      -6.4      0.000      0.000
REMARK  9 active torsions:
REMARK  status: ('A' for Active; 'I' for Inactive)
REMARK    1  A    between atoms: C_13  and  C_11 
REMARK    2  A    between atoms: N_22  and  C_11 
REMARK    3  A    between atoms: C_14  and  C_12 
REMARK    4  A    between atoms: N_22  and  C_12 
REMARK    5  A    between atoms: O_23  and  C_13 
REMARK    6  A    between atoms: O_24  and  C_14 
REMARK    7  A    between atoms: C_17  and  C_15 
REMARK    8  A    between atoms: C_18  and  C_16 
REMARK    9  A    between atoms: N_22  and  C_19 
ROOT
HETATM    1  C   UNK N   1      36.735  13.457  14.288  0.00  0.00     0.080 A 
HETATM    2  C   UNK N   1      37.085  12.145  13.906  0.00  0.00     0.117 A 
HETATM    3  C   UNK N   1      36.759  13.304  12.156  0.00  0.00     0.227 A 
HETATM    4  N   UNK N   1      36.528  14.170  13.160  0.00  0.00    -0.319 N 
ATOM      5  HN  UNK N   1      36.256  15.150  13.085  1.00  0.00     0.169 HD
HETATM    6  O   UNK N   1      37.093  12.117  12.593  0.00  0.00    -0.276 OA
ENDROOT
BRANCH   3   7
HETATM    7  N   UNK N   1      36.596  13.625  10.786  0.00  0.00    -0.343 N 
BRANCH   7   8
HETATM    8  C   UNK N   1      35.390  14.289  10.351  0.00  0.00     0.152 C 
BRANCH   8   9
HETATM    9  C   UNK N   1      35.666  15.738  10.007  0.00  0.00     0.184 C 
BRANCH   9  10
HETATM   10  O   UNK N   1      36.671  16.222  10.843  0.00  0.00    -0.399 OA
HETATM   11  H   UNK N   1      36.520  16.936  11.482  0.00  0.00     0.209 HD
ENDBRANCH   9  10
ENDBRANCH   8   9
ENDBRANCH   7   8
BRANCH   7  12
HETATM   12  C   UNK N   1      37.440  12.977   9.811  0.00  0.00     0.152 C 
BRANCH  12  13
HETATM   13  C   UNK N   1      38.875  13.439   9.948  0.00  0.00     0.184 C 
BRANCH  13  14
HETATM   14  O   UNK N   1      38.921  14.828   9.825  0.00  0.00    -0.399 OA
HETATM   15  H   UNK N   1      39.770  15.293   9.882  0.00  0.00     0.209 HD
ENDBRANCH  13  14
ENDBRANCH  12  13
ENDBRANCH   7  12
ENDBRANCH   3   7
BRANCH   1  16
HETATM   16  C   UNK N   1      36.572  14.102  15.618  0.00  0.00    -0.006 A 
HETATM   17  C   UNK N   1      37.295  15.234  16.010  0.00  0.00     0.014 A 
HETATM   18  C   UNK N   1      37.099  15.810  17.269  0.00  0.00     0.001 A 
HETATM   19  C   UNK N   1      36.171  15.256  18.153  0.00  0.00     0.000 A 
HETATM   20  C   UNK N   1      35.435  14.132  17.775  0.00  0.00     0.001 A 
HETATM   21  C   UNK N   1      35.632  13.563  16.514  0.00  0.00     0.014 A 
ENDBRANCH   1  16
BRANCH   2  22
HETATM   22  C   UNK N   1      37.349  10.903  14.678  0.00  0.00     0.000 A 
HETATM   23  C   UNK N   1      38.575  10.247  14.483  0.00  0.00     0.014 A 
HETATM   24  C   UNK N   1      38.854   9.043  15.138  0.00  0.00     0.001 A 
HETATM   25  C   UNK N   1      37.901   8.474  15.984  0.00  0.00     0.000 A 
HETATM   26  C   UNK N   1      36.674   9.113  16.179  0.00  0.00     0.001 A 
HETATM   27  C   UNK N   1      36.403  10.319  15.527  0.00  0.00     0.014 A 
ENDBRANCH   2  22
TORSDOF 9
ENDMDL
MODEL 2
REMARK VINA RESULT:      -6.3      5.197      9.760
REMARK  9 active torsions:
REMARK  status: ('A' for Active; 'I' for Inactive)
REMARK    1  A    between atoms: C_13  and  C_11 
REMARK    2  A    between atoms: N_22  and  C_11 
REMARK    3  A    between atoms: C_14  and  C_12 
REMARK    4  A    between atoms: N_22  and  C_12 
REMARK    5  A    between atoms: O_23  and  C_13 
REMARK    6  A    between atoms: O_24  and  C_14 
REMARK    7  A    between atoms: C_17  and  C_15 
REMARK    8  A    between atoms: C_18  and  C_16 
REMARK    9  A    between atoms: N_22  and  C_19 
ROOT
HETATM    1  C   UNK N   1      31.882  16.275   8.232  0.00  0.00     0.080 A 
HETATM    2  C   UNK N   1      32.750  15.868   7.197  0.00  0.00     0.117 A 
HETATM    3  C   UNK N   1      33.515  15.165   9.050  0.00  0.00     0.227 A 
HETATM    4  N   UNK N   1      32.392  15.820   9.397  0.00  0.00    -0.319 N 
ATOM      5  HN  UNK N   1      32.011  15.948  10.334  1.00  0.00     0.169 HD
HETATM    6  O   UNK N   1      33.722  15.186   7.758  0.00  0.00    -0.276 OA
ENDROOT
BRANCH   3   7
HETATM    7  N   UNK N   1      34.403  14.575   9.983  0.00  0.00    -0.343 N 
BRANCH   7   8
HETATM    8  C   UNK N   1      34.709  13.169   9.879  0.00  0.00     0.152 C 
BRANCH   8   9
HETATM    9  C   UNK N   1      36.154  12.959   9.477  0.00  0.00     0.184 C 
BRANCH   9  10
HETATM   10  O   UNK N   1      36.532  13.967   8.591  0.00  0.00    -0.399 OA
HETATM   11  H   UNK N   1      36.042  14.156   7.775  0.00  0.00     0.209 HD
ENDBRANCH   9  10
ENDBRANCH   8   9
ENDBRANCH   7   8
BRANCH   7  12
HETATM   12  C   UNK N   1      34.696  15.277  11.210  0.00  0.00     0.152 C 
BRANCH  12  13
HETATM   13  C   UNK N   1      35.544  16.502  10.942  0.00  0.00     0.184 C 
BRANCH  13  14
HETATM   14  O   UNK N   1      36.879  16.116  10.823  0.00  0.00    -0.399 OA
HETATM   15  H   UNK N   1      37.496  16.267  11.556  0.00  0.00     0.209 HD
ENDBRANCH  13  14
ENDBRANCH  12  13
ENDBRANCH   7  12
ENDBRANCH   3   7
BRANCH   1  16
HETATM   16  C   UNK N   1      30.616  17.056   8.226  0.00  0.00    -0.006 A 
HETATM   17  C   UNK N   1      29.651  16.936   7.220  0.00  0.00     0.014 A 
HETATM   18  C   UNK N   1      28.472  17.684   7.264  0.00  0.00     0.001 A 
HETATM   19  C   UNK N   1      28.243  18.564   8.324  0.00  0.00     0.000 A 
HETATM   20  C   UNK N   1      29.190  18.690   9.341  0.00  0.00     0.001 A 
HETATM   21  C   UNK N   1      30.366  17.936   9.293  0.00  0.00     0.014 A 
ENDBRANCH   1  16
BRANCH   2  22
HETATM   22  C   UNK N   1      32.770  16.125   5.734  0.00  0.00     0.000 A 
HETATM   23  C   UNK N   1      32.991  15.041   4.870  0.00  0.00     0.014 A 
HETATM   24  C   UNK N   1      33.079  15.233   3.489  0.00  0.00     0.001 A 
HETATM   25  C   UNK N   1      32.961  16.518   2.955  0.00  0.00     0.000 A 
HETATM   26  C   UNK N   1      32.750  17.606   3.805  0.00  0.00     0.001 A 
HETATM   27  C   UNK N   1      32.657  17.407   5.186  0.00  0.00     0.014 A 
ENDBRANCH   2  22
TORSDOF 9
ENDMDL
MODEL 3
REMARK VINA RESULT:      -6.3      5.239      9.779
REMARK  9 active torsions:
REMARK  status: ('A' for Active; 'I' for Inactive)
REMARK    1  A    between atoms: C_13  and  C_11 
REMARK    2  A    between atoms: N_22  and  C_11 
REMARK    3  A    between atoms: C_14  and  C_12 
REMARK    4  A    between atoms: N_22  and  C_12 
REMARK    5  A    between atoms: O_23  and  C_13 
REMARK    6  A    between atoms: O_24  and  C_14 
REMARK    7  A    between atoms: C_17  and  C_15 
REMARK    8  A    between atoms: C_18  and  C_16 
REMARK    9  A    between atoms: N_22  and  C_19 
ROOT
HETATM    1  C   UNK N   1      31.807  16.249   8.258  0.00  0.00     0.080 A 
HETATM    2  C   UNK N   1      32.693  15.818   7.248  0.00  0.00     0.117 A 
HETATM    3  C   UNK N   1      33.405  15.127   9.126  0.00  0.00     0.227 A 
HETATM    4  N   UNK N   1      32.285  15.801   9.439  0.00  0.00    -0.319 N 
ATOM      5  HN  UNK N   1      31.884  15.945  10.365  1.00  0.00     0.169 HD
HETATM    6  O   UNK N   1      33.642  15.130   7.839  0.00  0.00    -0.276 OA
ENDROOT
BRANCH   3   7
HETATM    7  N   UNK N   1      34.263  14.535  10.086  0.00  0.00    -0.343 N 
BRANCH   7   8
HETATM    8  C   UNK N   1      34.703  15.314  11.219  0.00  0.00     0.152 C 
BRANCH   8   9
HETATM    9  C   UNK N   1      35.563  16.478  10.773  0.00  0.00     0.184 C 
BRANCH   9  10
HETATM   10  O   UNK N   1      36.905  16.107  10.848  0.00  0.00    -0.399 OA
HETATM   11  H   UNK N   1      37.568  16.412  10.209  0.00  0.00     0.209 HD
ENDBRANCH   9  10
ENDBRANCH   8   9
ENDBRANCH   7   8
BRANCH   7  12
HETATM   12  C   UNK N   1      34.966  13.322   9.743  0.00  0.00     0.152 C 
BRANCH  12  13
HETATM   13  C   UNK N   1      35.321  12.535  10.987  0.00  0.00     0.184 C 
BRANCH  13  14
HETATM   14  O   UNK N   1      34.207  11.805  11.399  0.00  0.00    -0.399 OA
HETATM   15  H   UNK N   1      33.460  11.676  10.795  0.00  0.00     0.209 HD
ENDBRANCH  13  14
ENDBRANCH  12  13
ENDBRANCH   7  12
ENDBRANCH   3   7
BRANCH   1  16
HETATM   16  C   UNK N   1      30.553  17.048   8.214  0.00  0.00    -0.006 A 
HETATM   17  C   UNK N   1      29.651  16.991   7.146  0.00  0.00     0.014 A 
HETATM   18  C   UNK N   1      28.479  17.754   7.156  0.00  0.00     0.001 A 
HETATM   19  C   UNK N   1      28.196  18.584   8.242  0.00  0.00     0.000 A 
HETATM   20  C   UNK N   1      29.081  18.646   9.319  0.00  0.00     0.001 A 
HETATM   21  C   UNK N   1      30.248  17.879   9.306  0.00  0.00     0.014 A 
ENDBRANCH   1  16
BRANCH   2  22
HETATM   22  C   UNK N   1      32.750  16.058   5.783  0.00  0.00     0.000 A 
HETATM   23  C   UNK N   1      32.861  17.382   5.329  0.00  0.00     0.014 A 
HETATM   24  C   UNK N   1      32.859  17.672   3.962  0.00  0.00     0.001 A 
HETATM   25  C   UNK N   1      32.731  16.639   3.031  0.00  0.00     0.000 A 
HETATM   26  C   UNK N   1      32.610  15.319   3.471  0.00  0.00     0.001 A 
HETATM   27  C   UNK N   1      32.619  15.034   4.839  0.00  0.00     0.014 A 
ENDBRANCH   2  22
TORSDOF 9
ENDMDL
MODEL 4
REMARK VINA RESULT:      -6.1      1.187      4.556
REMARK  9 active torsions:
REMARK  status: ('A' for Active; 'I' for Inactive)
REMARK    1  A    between atoms: C_13  and  C_11 
REMARK    2  A    between atoms: N_22  and  C_11 
REMARK    3  A    between atoms: C_14  and  C_12 
REMARK    4  A    between atoms: N_22  and  C_12 
REMARK    5  A    between atoms: O_23  and  C_13 
REMARK    6  A    between atoms: O_24  and  C_14 
REMARK    7  A    between atoms: C_17  and  C_15 
REMARK    8  A    between atoms: C_18  and  C_16 
REMARK    9  A    between atoms: N_22  and  C_19 
ROOT
HETATM    1  C   UNK N   1      36.788  12.001  13.811  0.00  0.00     0.080 A 
HETATM    2  C   UNK N   1      36.425  13.299  14.232  0.00  0.00     0.117 A 
HETATM    3  C   UNK N   1      36.249  13.190  12.118  0.00  0.00     0.227 A 
HETATM    4  N   UNK N   1      36.672  11.961  12.466  0.00  0.00    -0.319 N 
ATOM      5  HN  UNK N   1      36.864  11.172  11.850  1.00  0.00     0.169 HD
HETATM    6  O   UNK N   1      36.097  13.974  13.155  0.00  0.00    -0.276 OA
ENDROOT
BRANCH   3   7
HETATM    7  N   UNK N   1      36.052  13.606  10.778  0.00  0.00    -0.343 N 
BRANCH   7   8
HETATM    8  C   UNK N   1      36.995  14.515  10.173  0.00  0.00     0.152 C 
BRANCH   8   9
HETATM    9  C   UNK N   1      38.206  13.770   9.651  0.00  0.00     0.184 C 
BRANCH   9  10
HETATM   10  O   UNK N   1      39.028  13.428  10.724  0.00  0.00    -0.399 OA
HETATM   11  H   UNK N   1      39.926  13.080  10.605  0.00  0.00     0.209 HD
ENDBRANCH   9  10
ENDBRANCH   8   9
ENDBRANCH   7   8
BRANCH   7  12
HETATM   12  C   UNK N   1      34.757  13.418  10.170  0.00  0.00     0.152 C 
BRANCH  12  13
HETATM   13  C   UNK N   1      34.035  14.740  10.020  0.00  0.00     0.184 C 
BRANCH  13  14
HETATM   14  O   UNK N   1      33.273  14.977  11.163  0.00  0.00    -0.399 OA
HETATM   15  H   UNK N   1      33.008  14.239  11.733  0.00  0.00     0.209 HD
ENDBRANCH  13  14
ENDBRANCH  12  13
ENDBRANCH   7  12
ENDBRANCH   3   7
BRANCH   1  16
HETATM   16  C   UNK N   1      37.237  10.796  14.558  0.00  0.00    -0.006 A 
HETATM   17  C   UNK N   1      38.502  10.222  14.388  0.00  0.00     0.014 A 
HETATM   18  C   UNK N   1      38.882   9.095  15.122  0.00  0.00     0.001 A 
HETATM   19  C   UNK N   1      37.996   8.529  16.041  0.00  0.00     0.000 A 
HETATM   20  C   UNK N   1      36.734   9.094  16.229  0.00  0.00     0.001 A 
HETATM   21  C   UNK N   1      36.361  10.223  15.495  0.00  0.00     0.014 A 
ENDBRANCH   1  16
BRANCH   2  22
HETATM   22  C   UNK N   1      36.427  13.968  15.558  0.00  0.00     0.000 A 
HETATM   23  C   UNK N   1      35.534  13.505  16.538  0.00  0.00     0.014 A 
HETATM   24  C   UNK N   1      35.449  14.135  17.783  0.00  0.00     0.001 A 
HETATM   25  C   UNK N   1      36.248  15.247  18.057  0.00  0.00     0.000 A 
HETATM   26  C   UNK N   1      37.133  15.722  17.087  0.00  0.00     0.001 A 
HETATM   27  C   UNK N   1      37.218  15.085  15.846  0.00  0.00     0.014 A 
ENDBRANCH   2  22
TORSDOF 9
ENDMDL
MODEL 5
REMARK VINA RESULT:      -6.1      5.201     10.183
REMARK  9 active torsions:
REMARK  status: ('A' for Active; 'I' for Inactive)
REMARK    1  A    between atoms: C_13  and  C_11 
REMARK    2  A    between atoms: N_22  and  C_11 
REMARK    3  A    between atoms: C_14  and  C_12 
REMARK    4  A    between atoms: N_22  and  C_12 
REMARK    5  A    between atoms: O_23  and  C_13 
REMARK    6  A    between atoms: O_24  and  C_14 
REMARK    7  A    between atoms: C_17  and  C_15 
REMARK    8  A    between atoms: C_18  and  C_16 
REMARK    9  A    between atoms: N_22  and  C_19 
ROOT
HETATM    1  C   UNK N   1      32.790  15.922   7.187  0.00  0.00     0.080 A 
HETATM    2  C   UNK N   1      31.903  16.336   8.203  0.00  0.00     0.117 A 
HETATM    3  C   UNK N   1      33.442  15.159   9.073  0.00  0.00     0.227 A 
HETATM    4  N   UNK N   1      33.754  15.174   7.765  0.00  0.00    -0.319 N 
ATOM      5  HN  UNK N   1      34.544  14.719   7.309  1.00  0.00     0.169 HD
HETATM    6  O   UNK N   1      32.360  15.847   9.333  0.00  0.00    -0.276 OA
ENDROOT
BRANCH   3   7
HETATM    7  N   UNK N   1      34.167  14.430  10.048  0.00  0.00    -0.343 N 
BRANCH   7   8
HETATM    8  C   UNK N   1      34.695  15.118  11.201  0.00  0.00     0.152 C 
BRANCH   8   9
HETATM    9  C   UNK N   1      35.361  16.417  10.797  0.00  0.00     0.184 C 
BRANCH   9  10
HETATM   10  O   UNK N   1      36.744  16.243  10.811  0.00  0.00    -0.399 OA
HETATM   11  H   UNK N   1      37.321  16.692  11.448  0.00  0.00     0.209 HD
ENDBRANCH   9  10
ENDBRANCH   8   9
ENDBRANCH   7   8
BRANCH   7  12
HETATM   12  C   UNK N   1      34.675  13.122   9.708  0.00  0.00     0.152 C 
BRANCH  12  13
HETATM   13  C   UNK N   1      36.188  13.129   9.649  0.00  0.00     0.184 C 
BRANCH  13  14
HETATM   14  O   UNK N   1      36.600  13.971   8.617  0.00  0.00    -0.399 OA
HETATM   15  H   UNK N   1      37.027  13.601   7.829  0.00  0.00     0.209 HD
ENDBRANCH  13  14
ENDBRANCH  12  13
ENDBRANCH   7  12
ENDBRANCH   3   7
BRANCH   1  16
HETATM   16  C   UNK N   1      32.812  16.165   5.719  0.00  0.00    -0.006 A 
HETATM   17  C   UNK N   1      32.767  17.445   5.158  0.00  0.00     0.014 A 
HETATM   18  C   UNK N   1      32.801  17.622   3.771  0.00  0.00     0.001 A 
HETATM   19  C   UNK N   1      32.884  16.512   2.928  0.00  0.00     0.000 A 
HETATM   20  C   UNK N   1      32.939  15.228   3.472  0.00  0.00     0.001 A 
HETATM   21  C   UNK N   1      32.908  15.058   4.858  0.00  0.00     0.014 A 
ENDBRANCH   1  16
BRANCH   2  22
HETATM   22  C   UNK N   1      30.628  17.098   8.184  0.00  0.00     0.000 A 
HETATM   23  C   UNK N   1      30.336  17.934   9.273  0.00  0.00     0.014 A 
HETATM   24  C   UNK N   1      29.125  18.629   9.337  0.00  0.00     0.001 A 
HETATM   25  C   UNK N   1      28.183  18.483   8.316  0.00  0.00     0.000 A 
HETATM   26  C   UNK N   1      28.459  17.647   7.232  0.00  0.00     0.001 A 
HETATM   27  C   UNK N   1      29.673  16.959   7.170  0.00  0.00     0.014 A 
ENDBRANCH   2  22
TORSDOF 9
ENDMDL
MODEL 6
REMARK VINA RESULT:      -5.9     21.524     25.239
REMARK  9 active torsions:
REMARK  status: ('A' for Active; 'I' for Inactive)
REMARK    1  A    between atoms: C_13  and  C_11 
REMARK    2  A    between atoms: N_22  and  C_11 
REMARK    3  A    between atoms: C_14  and  C_12 
REMARK    4  A    between atoms: N_22  and  C_12 
REMARK    5  A    between atoms: O_23  and  C_13 
REMARK    6  A    between atoms: O_24  and  C_14 
REMARK    7  A    between atoms: C_17  and  C_15 
REMARK    8  A    between atoms: C_18  and  C_16 
REMARK    9  A    between atoms: N_22  and  C_19 
ROOT
HETATM    1  C   UNK N   1      27.878  23.734  -5.577  0.00  0.00     0.080 A 
HETATM    2  C   UNK N   1      26.956  24.769  -5.840  0.00  0.00     0.117 A 
HETATM    3  C   UNK N   1      26.810  23.314  -7.380  0.00  0.00     0.227 A 
HETATM    4  N   UNK N   1      27.768  22.827  -6.572  0.00  0.00    -0.319 N 
ATOM      5  HN  UNK N   1      28.297  21.963  -6.685  1.00  0.00     0.169 HD
HETATM    6  O   UNK N   1      26.327  24.451  -6.948  0.00  0.00    -0.276 OA
ENDROOT
BRANCH   3   7
HETATM    7  N   UNK N   1      26.415  22.698  -8.594  0.00  0.00    -0.343 N 
BRANCH   7   8
HETATM    8  C   UNK N   1      25.799  21.394  -8.559  0.00  0.00     0.152 C 
BRANCH   8   9
HETATM    9  C   UNK N   1      24.643  21.369  -7.580  0.00  0.00     0.184 C 
BRANCH   9  10
HETATM   10  O   UNK N   1      23.580  22.098  -8.110  0.00  0.00    -0.399 OA
HETATM   11  H   UNK N   1      23.682  22.693  -8.870  0.00  0.00     0.209 HD
ENDBRANCH   9  10
ENDBRANCH   8   9
ENDBRANCH   7   8
BRANCH   7  12
HETATM   12  C   UNK N   1      26.949  23.198  -9.838  0.00  0.00     0.152 C 
BRANCH  12  13
HETATM   13  C   UNK N   1      25.896  23.969 -10.606  0.00  0.00     0.184 C 
BRANCH  13  14
HETATM   14  O   UNK N   1      24.885  24.360  -9.728  0.00  0.00    -0.399 OA
HETATM   15  H   UNK N   1      25.107  24.833  -8.911  0.00  0.00     0.209 HD
ENDBRANCH  13  14
ENDBRANCH  12  13
ENDBRANCH   7  12
ENDBRANCH   3   7
BRANCH   1  16
HETATM   16  C   UNK N   1      28.856  23.521  -4.477  0.00  0.00    -0.006 A 
HETATM   17  C   UNK N   1      28.476  23.355  -3.141  0.00  0.00     0.014 A 
HETATM   18  C   UNK N   1      29.433  23.147  -2.143  0.00  0.00     0.001 A 
HETATM   19  C   UNK N   1      30.788  23.101  -2.475  0.00  0.00     0.000 A 
HETATM   20  C   UNK N   1      31.184  23.256  -3.805  0.00  0.00     0.001 A 
HETATM   21  C   UNK N   1      30.223  23.460  -4.798  0.00  0.00     0.014 A 
ENDBRANCH   1  16
BRANCH   2  22
HETATM   22  C   UNK N   1      26.667  26.061  -5.166  0.00  0.00     0.000 A 
HETATM   23  C   UNK N   1      26.884  27.249  -5.883  0.00  0.00     0.014 A 
HETATM   24  C   UNK N   1      26.686  28.495  -5.280  0.00  0.00     0.001 A 
HETATM   25  C   UNK N   1      26.284  28.566  -3.945  0.00  0.00     0.000 A 
HETATM   26  C   UNK N   1      26.075  27.392  -3.219  0.00  0.00     0.001 A 
HETATM   27  C   UNK N   1      26.268  26.149  -3.828  0.00  0.00     0.014 A 
ENDBRANCH   2  22
TORSDOF 9
ENDMDL
MODEL 7
REMARK VINA RESULT:      -5.9      1.333      4.336
REMARK  9 active torsions:
REMARK  status: ('A' for Active; 'I' for Inactive)
REMARK    1  A    between atoms: C_13  and  C_11 
REMARK    2  A    between atoms: N_22  and  C_11 
REMARK    3  A    between atoms: C_14  and  C_12 
REMARK    4  A    between atoms: N_22  and  C_12 
REMARK    5  A    between atoms: O_23  and  C_13 
REMARK    6  A    between atoms: O_24  and  C_14 
REMARK    7  A    between atoms: C_17  and  C_15 
REMARK    8  A    between atoms: C_18  and  C_16 
REMARK    9  A    between atoms: N_22  and  C_19 
ROOT
HETATM    1  C   UNK N   1      36.165  11.699  13.989  0.00  0.00     0.080 A 
HETATM    2  C   UNK N   1      36.131  13.082  14.266  0.00  0.00     0.117 A 
HETATM    3  C   UNK N   1      35.922  12.797  12.172  0.00  0.00     0.227 A 
HETATM    4  N   UNK N   1      36.036  11.546  12.653  0.00  0.00    -0.319 N 
ATOM      5  HN  UNK N   1      36.027  10.674  12.126  1.00  0.00     0.169 HD
HETATM    6  O   UNK N   1      35.971  13.699  13.119  0.00  0.00    -0.276 OA
ENDROOT
BRANCH   3   7
HETATM    7  N   UNK N   1      35.825  13.104  10.792  0.00  0.00    -0.343 N 
BRANCH   7   8
HETATM    8  C   UNK N   1      34.535  13.416  10.225  0.00  0.00     0.152 C 
BRANCH   8   9
HETATM    9  C   UNK N   1      34.182  14.871  10.452  0.00  0.00     0.184 C 
BRANCH   9  10
HETATM   10  O   UNK N   1      32.923  14.946  11.047  0.00  0.00    -0.399 OA
HETATM   11  H   UNK N   1      32.641  15.706  11.580  0.00  0.00     0.209 HD
ENDBRANCH   9  10
ENDBRANCH   8   9
ENDBRANCH   7   8
BRANCH   7  12
HETATM   12  C   UNK N   1      36.918  12.754   9.918  0.00  0.00     0.152 C 
BRANCH  12  13
HETATM   13  C   UNK N   1      37.602  13.995   9.385  0.00  0.00     0.184 C 
BRANCH  13  14
HETATM   14  O   UNK N   1      38.639  14.351  10.245  0.00  0.00    -0.399 OA
HETATM   15  H   UNK N   1      39.399  13.759  10.362  0.00  0.00     0.209 HD
ENDBRANCH  13  14
ENDBRANCH  12  13
ENDBRANCH   7  12
ENDBRANCH   3   7
BRANCH   1  16
HETATM   16  C   UNK N   1      36.313  10.506  14.866  0.00  0.00    -0.006 A 
HETATM   17  C   UNK N   1      35.233   9.901  15.517  0.00  0.00     0.014 A 
HETATM   18  C   UNK N   1      35.421   8.775  16.323  0.00  0.00     0.001 A 
HETATM   19  C   UNK N   1      36.699   8.238  16.485  0.00  0.00     0.000 A 
HETATM   20  C   UNK N   1      37.787   8.824  15.835  0.00  0.00     0.001 A 
HETATM   21  C   UNK N   1      37.592   9.947  15.027  0.00  0.00     0.014 A 
ENDBRANCH   1  16
BRANCH   2  22
HETATM   22  C   UNK N   1      36.302  13.867  15.516  0.00  0.00     0.000 A 
HETATM   23  C   UNK N   1      35.506  13.537  16.624  0.00  0.00     0.014 A 
HETATM   24  C   UNK N   1      35.581  14.279  17.806  0.00  0.00     0.001 A 
HETATM   25  C   UNK N   1      36.446  15.372  17.888  0.00  0.00     0.000 A 
HETATM   26  C   UNK N   1      37.236  15.716  16.789  0.00  0.00     0.001 A 
HETATM   27  C   UNK N   1      37.161  14.967  15.612  0.00  0.00     0.014 A 
ENDBRANCH   2  22
TORSDOF 9
ENDMDL
MODEL 8
REMARK VINA RESULT:      -5.9     15.220     18.026
REMARK  9 active torsions:
REMARK  status: ('A' for Active; 'I' for Inactive)
REMARK    1  A    between atoms: C_13  and  C_11 
REMARK    2  A    between atoms: N_22  and  C_11 
REMARK    3  A    between atoms: C_14  and  C_12 
REMARK    4  A    between atoms: N_22  and  C_12 
REMARK    5  A    between atoms: O_23  and  C_13 
REMARK    6  A    between atoms: O_24  and  C_14 
REMARK    7  A    between atoms: C_17  and  C_15 
REMARK    8  A    between atoms: C_18  and  C_16 
REMARK    9  A    between atoms: N_22  and  C_19 
ROOT
HETATM    1  C   UNK N   1      23.123  17.421   4.817  0.00  0.00     0.080 A 
HETATM    2  C   UNK N   1      23.847  18.534   4.341  0.00  0.00     0.117 A 
HETATM    3  C   UNK N   1      21.877  18.609   3.551  0.00  0.00     0.227 A 
HETATM    4  N   UNK N   1      21.878  17.490   4.297  0.00  0.00    -0.319 N 
ATOM      5  HN  UNK N   1      21.109  16.836   4.439  1.00  0.00     0.169 HD
HETATM    6  O   UNK N   1      23.030  19.227   3.582  0.00  0.00    -0.276 OA
ENDROOT
BRANCH   3   7
HETATM    7  N   UNK N   1      20.773  19.035   2.772  0.00  0.00    -0.343 N 
BRANCH   7   8
HETATM    8  C   UNK N   1      20.425  20.435   2.742  0.00  0.00     0.152 C 
BRANCH   8   9
HETATM    9  C   UNK N   1      20.598  21.005   1.349  0.00  0.00     0.184 C 
BRANCH   9  10
HETATM   10  O   UNK N   1      21.799  20.543   0.814  0.00  0.00    -0.399 OA
HETATM   11  H   UNK N   1      22.246  20.983   0.073  0.00  0.00     0.209 HD
ENDBRANCH   9  10
ENDBRANCH   8   9
ENDBRANCH   7   8
BRANCH   7  12
HETATM   12  C   UNK N   1      19.812  18.055   2.325  0.00  0.00     0.152 C 
BRANCH  12  13
HETATM   13  C   UNK N   1      20.387  17.205   1.211  0.00  0.00     0.184 C 
BRANCH  13  14
HETATM   14  O   UNK N   1      20.316  17.914   0.012  0.00  0.00    -0.399 OA
HETATM   15  H   UNK N   1      20.179  18.874   0.023  0.00  0.00     0.209 HD
ENDBRANCH  13  14
ENDBRANCH  12  13
ENDBRANCH   7  12
ENDBRANCH   3   7
BRANCH   1  16
HETATM   16  C   UNK N   1      23.496  16.294   5.714  0.00  0.00    -0.006 A 
HETATM   17  C   UNK N   1      22.575  15.642   6.541  0.00  0.00     0.014 A 
HETATM   18  C   UNK N   1      22.973  14.580   7.359  0.00  0.00     0.001 A 
HETATM   19  C   UNK N   1      24.304  14.157   7.357  0.00  0.00     0.000 A 
HETATM   20  C   UNK N   1      25.233  14.792   6.531  0.00  0.00     0.001 A 
HETATM   21  C   UNK N   1      24.829  15.849   5.712  0.00  0.00     0.014 A 
ENDBRANCH   1  16
BRANCH   2  22
HETATM   22  C   UNK N   1      25.262  18.960   4.493  0.00  0.00     0.000 A 
HETATM   23  C   UNK N   1      25.542  20.057   5.324  0.00  0.00     0.014 A 
HETATM   24  C   UNK N   1      26.847  20.538   5.458  0.00  0.00     0.001 A 
HETATM   25  C   UNK N   1      27.888  19.936   4.748  0.00  0.00     0.000 A 
HETATM   26  C   UNK N   1      27.621  18.851   3.911  0.00  0.00     0.001 A 
HETATM   27  C   UNK N   1      26.315  18.369   3.786  0.00  0.00     0.014 A 
ENDBRANCH   2  22
TORSDOF 9
ENDMDL
MODEL 9
REMARK VINA RESULT:      -5.8      9.515     14.318
REMARK  9 active torsions:
REMARK  status: ('A' for Active; 'I' for Inactive)
REMARK    1  A    between atoms: C_13  and  C_11 
REMARK    2  A    between atoms: N_22  and  C_11 
REMARK    3  A    between atoms: C_14  and  C_12 
REMARK    4  A    between atoms: N_22  and  C_12 
REMARK    5  A    between atoms: O_23  and  C_13 
REMARK    6  A    between atoms: O_24  and  C_14 
REMARK    7  A    between atoms: C_17  and  C_15 
REMARK    8  A    between atoms: C_18  and  C_16 
REMARK    9  A    between atoms: N_22  and  C_19 
ROOT
HETATM    1  C   UNK N   1      28.681  16.473   5.073  0.00  0.00     0.080 A 
HETATM    2  C   UNK N   1      28.152  17.773   5.221  0.00  0.00     0.117 A 
HETATM    3  C   UNK N   1      29.586  17.438   6.751  0.00  0.00     0.227 A 
HETATM    4  N   UNK N   1      29.584  16.284   6.059  0.00  0.00    -0.319 N 
ATOM      5  HN  UNK N   1      30.141  15.450   6.240  1.00  0.00     0.169 HD
HETATM    6  O   UNK N   1      28.751  18.315   6.256  0.00  0.00    -0.276 OA
ENDROOT
BRANCH   3   7
HETATM    7  N   UNK N   1      30.357  17.654   7.920  0.00  0.00    -0.343 N 
BRANCH   7   8
HETATM    8  C   UNK N   1      31.506  16.819   8.176  0.00  0.00     0.152 C 
BRANCH   8   9
HETATM    9  C   UNK N   1      32.747  17.660   8.394  0.00  0.00     0.184 C 
BRANCH   9  10
HETATM   10  O   UNK N   1      33.500  17.102   9.426  0.00  0.00    -0.399 OA
HETATM   11  H   UNK N   1      34.299  17.525   9.778  0.00  0.00     0.209 HD
ENDBRANCH   9  10
ENDBRANCH   8   9
ENDBRANCH   7   8
BRANCH   7  12
HETATM   12  C   UNK N   1      29.793  18.434   8.996  0.00  0.00     0.152 C 
BRANCH  12  13
HETATM   13  C   UNK N   1      28.648  17.694   9.656  0.00  0.00     0.184 C 
BRANCH  13  14
HETATM   14  O   UNK N   1      27.443  18.282   9.272  0.00  0.00    -0.399 OA
HETATM   15  H   UNK N   1      26.792  18.539   9.943  0.00  0.00     0.209 HD
ENDBRANCH  13  14
ENDBRANCH  12  13
ENDBRANCH   7  12
ENDBRANCH   3   7
BRANCH   1  16
HETATM   16  C   UNK N   1      28.411  15.389   4.090  0.00  0.00    -0.006 A 
HETATM   17  C   UNK N   1      27.863  14.153   4.450  0.00  0.00     0.014 A 
HETATM   18  C   UNK N   1      27.617  13.170   3.488  0.00  0.00     0.001 A 
HETATM   19  C   UNK N   1      27.918  13.416   2.146  0.00  0.00     0.000 A 
HETATM   20  C   UNK N   1      28.457  14.646   1.769  0.00  0.00     0.001 A 
HETATM   21  C   UNK N   1      28.697  15.627   2.735  0.00  0.00     0.014 A 
ENDBRANCH   1  16
BRANCH   2  22
HETATM   22  C   UNK N   1      27.085  18.518   4.505  0.00  0.00     0.000 A 
HETATM   23  C   UNK N   1      27.397  19.776   3.966  0.00  0.00     0.014 A 
HETATM   24  C   UNK N   1      26.418  20.547   3.334  0.00  0.00     0.001 A 
HETATM   25  C   UNK N   1      25.107  20.073   3.247  0.00  0.00     0.000 A 
HETATM   26  C   UNK N   1      24.782  18.827   3.787  0.00  0.00     0.001 A 
HETATM   27  C   UNK N   1      25.767  18.057   4.413  0.00  0.00     0.014 A 
ENDBRANCH   2  22
TORSDOF 9
ENDMDL
