MODEL 1
REMARK VINA RESULT:      -7.5      0.000      0.000
REMARK  4 active torsions:
REMARK  status: ('A' for Active; 'I' for Inactive)
REMARK    1  A    between atoms: C_14  and  C_9 
REMARK    2  A    between atoms: C_14  and  C_10 
REMARK       I    between atoms: N_21  and  C_15 
REMARK    3  A    between atoms: O_24  and  C_16 
REMARK    4  A    between atoms: O_25  and  C_16 
ROOT
HETATM    1  C   UNK N   1      32.735  17.310   6.445  0.00  0.00     0.018 A 
HETATM    2  C   UNK N   1      33.867  17.248   7.269  0.00  0.00     0.033 A 
HETATM    3  C   UNK N   1      31.461  15.933   8.016  0.00  0.00     0.048 A 
HETATM    4  C   UNK N   1      31.524  16.658   6.799  0.00  0.00     0.017 A 
HETATM    5  C   UNK N   1      33.760  16.515   8.438  0.00  0.00     0.076 A 
HETATM    6  C   UNK N   1      32.613  15.881   8.801  0.00  0.00     0.077 A 
HETATM    7  C   UNK N   1      34.094  15.518  10.277  0.00  0.00     0.686 A 
HETATM    8  C   UNK N   1      35.942  15.308  11.801  0.00  0.00     0.276 C 
HETATM    9  N   UNK N   1      34.708  16.302   9.355  0.00  0.00    -0.189 N 
ATOM     10  HN  UNK N   1      35.667  16.649   9.361  1.00  0.00     0.184 HD
HETATM   11  N   UNK N   1      32.802  15.239   9.965  0.00  0.00    -0.189 N 
HETATM   12  N   UNK N   1      34.731  15.020  11.449  0.00  0.00    -0.149 N 
ATOM     13  HN  UNK N   1      34.197  14.395  12.052  1.00  0.00     0.188 HD
HETATM   14  H   UNK N   1      32.157  14.695  10.472  0.00  0.00     0.184 HD
ENDROOT
BRANCH   4  15
HETATM   15  C   UNK N   1      30.327  16.733   5.909  0.00  0.00     0.192 C 
HETATM   16  O   UNK N   1      30.173  15.865   5.060  0.00  0.00    -0.287 OA
BRANCH  15  17
HETATM   17  C   UNK N   1      29.320  17.838   5.993  0.00  0.00     0.015 A 
HETATM   18  C   UNK N   1      28.825  18.427   4.818  0.00  0.00     0.018 A 
HETATM   19  C   UNK N   1      27.908  19.483   4.886  0.00  0.00     0.043 A 
HETATM   20  C   UNK N   1      27.489  19.970   6.127  0.00  0.00     0.116 A 
HETATM   21  C   UNK N   1      27.980  19.399   7.300  0.00  0.00     0.043 A 
HETATM   22  F   UNK N   1      26.609  20.997   6.195  0.00  0.00    -0.206 F 
HETATM   23  C   UNK N   1      28.887  18.341   7.232  0.00  0.00     0.018 A 
ENDBRANCH  15  17
ENDBRANCH   4  15
BRANCH   8  24
HETATM   24  O   UNK N   1      36.704  16.144  11.057  0.00  0.00    -0.326 OA
HETATM   25  H   UNK N   1      37.638  16.089  11.075  0.00  0.00     0.221 HD
ENDBRANCH   8  24
BRANCH   8  26
HETATM   26  O   UNK N   1      36.444  14.769  12.934  0.00  0.00    -0.321 OA
HETATM   27  C   UNK N   1      35.752  13.827  13.656  0.00  0.00     0.213 C 
ENDBRANCH   8  26
TORSDOF 4
ENDMDL
MODEL 2
REMARK VINA RESULT:      -7.4      4.882      9.750
REMARK  4 active torsions:
REMARK  status: ('A' for Active; 'I' for Inactive)
REMARK    1  A    between atoms: C_14  and  C_9 
REMARK    2  A    between atoms: C_14  and  C_10 
REMARK       I    between atoms: N_21  and  C_15 
REMARK    3  A    between atoms: O_24  and  C_16 
REMARK    4  A    between atoms: O_25  and  C_16 
ROOT
HETATM    1  C   UNK N   1      37.034  12.744  11.806  0.00  0.00     0.018 A 
HETATM    2  C   UNK N   1      36.841  13.181  10.489  0.00  0.00     0.033 A 
HETATM    3  C   UNK N   1      35.663  14.580  12.664  0.00  0.00     0.048 A 
HETATM    4  C   UNK N   1      36.457  13.431  12.907  0.00  0.00     0.017 A 
HETATM    5  C   UNK N   1      36.073  14.317  10.305  0.00  0.00     0.076 A 
HETATM    6  C   UNK N   1      35.508  14.993  11.341  0.00  0.00     0.077 A 
HETATM    7  C   UNK N   1      35.019  15.983   9.527  0.00  0.00     0.686 A 
HETATM    8  C   UNK N   1      34.591  16.866   7.333  0.00  0.00     0.276 C 
HETATM    9  N   UNK N   1      35.776  14.921   9.151  0.00  0.00    -0.189 N 
ATOM     10  HN  UNK N   1      36.052  14.647   8.207  1.00  0.00     0.184 HD
HETATM   11  N   UNK N   1      34.835  16.057  10.871  0.00  0.00    -0.189 N 
HETATM   12  N   UNK N   1      34.478  16.936   8.620  0.00  0.00    -0.149 N 
ATOM     13  HN  UNK N   1      33.967  17.728   9.010  1.00  0.00     0.188 HD
HETATM   14  H   UNK N   1      34.329  16.730  11.380  0.00  0.00     0.184 HD
ENDROOT
BRANCH   4  15
HETATM   15  C   UNK N   1      36.673  12.952  14.306  0.00  0.00     0.192 C 
HETATM   16  O   UNK N   1      36.924  11.767  14.487  0.00  0.00    -0.287 OA
BRANCH  15  17
HETATM   17  C   UNK N   1      36.574  13.852  15.497  0.00  0.00     0.015 A 
HETATM   18  C   UNK N   1      35.686  13.540  16.540  0.00  0.00     0.018 A 
HETATM   19  C   UNK N   1      35.560  14.391  17.644  0.00  0.00     0.043 A 
HETATM   20  C   UNK N   1      36.308  15.570  17.709  0.00  0.00     0.116 A 
HETATM   21  C   UNK N   1      37.186  15.895  16.677  0.00  0.00     0.043 A 
HETATM   22  F   UNK N   1      36.182  16.400  18.772  0.00  0.00    -0.206 F 
HETATM   23  C   UNK N   1      37.317  15.042  15.581  0.00  0.00     0.018 A 
ENDBRANCH  15  17
ENDBRANCH   4  15
BRANCH   8  24
HETATM   24  O   UNK N   1      35.243  15.835   6.746  0.00  0.00    -0.326 OA
HETATM   25  H   UNK N   1      35.397  15.036   7.209  0.00  0.00     0.221 HD
ENDBRANCH   8  24
BRANCH   8  26
HETATM   26  O   UNK N   1      34.041  17.837   6.570  0.00  0.00    -0.321 OA
HETATM   27  C   UNK N   1      33.380  17.552   5.400  0.00  0.00     0.213 C 
ENDBRANCH   8  26
TORSDOF 4
ENDMDL
MODEL 3
REMARK VINA RESULT:      -7.3      2.301      3.366
REMARK  4 active torsions:
REMARK  status: ('A' for Active; 'I' for Inactive)
REMARK    1  A    between atoms: C_14  and  C_9 
REMARK    2  A    between atoms: C_14  and  C_10 
REMARK       I    between atoms: N_21  and  C_15 
REMARK    3  A    between atoms: O_24  and  C_16 
REMARK    4  A    between atoms: O_25  and  C_16 
ROOT
HETATM    1  C   UNK N   1      32.864  15.391   8.356  0.00  0.00     0.018 A 
HETATM    2  C   UNK N   1      33.079  14.641   9.519  0.00  0.00     0.033 A 
HETATM    3  C   UNK N   1      34.748  16.856   8.896  0.00  0.00     0.048 A 
HETATM    4  C   UNK N   1      33.684  16.503   8.027  0.00  0.00     0.017 A 
HETATM    5  C   UNK N   1      34.119  15.035  10.343  0.00  0.00     0.076 A 
HETATM    6  C   UNK N   1      34.920  16.096  10.052  0.00  0.00     0.077 A 
HETATM    7  C   UNK N   1      35.539  15.254  11.901  0.00  0.00     0.686 A 
HETATM    8  C   UNK N   1      36.043  14.078  13.936  0.00  0.00     0.276 C 
HETATM    9  N   UNK N   1      34.492  14.487  11.503  0.00  0.00    -0.189 N 
ATOM     10  HN  UNK N   1      34.086  13.680  11.978  1.00  0.00     0.184 HD
HETATM   11  N   UNK N   1      35.828  16.255  11.029  0.00  0.00    -0.189 N 
HETATM   12  N   UNK N   1      36.260  15.051  13.110  0.00  0.00    -0.149 N 
ATOM     13  HN  UNK N   1      36.997  15.716  13.343  1.00  0.00     0.188 HD
HETATM   14  H   UNK N   1      36.536  16.936  11.097  0.00  0.00     0.184 HD
ENDROOT
BRANCH   4  15
HETATM   15  C   UNK N   1      33.440  17.292   6.783  0.00  0.00     0.192 C 
HETATM   16  O   UNK N   1      34.341  18.000   6.352  0.00  0.00    -0.287 OA
BRANCH  15  17
HETATM   17  C   UNK N   1      32.133  17.275   6.053  0.00  0.00     0.015 A 
HETATM   18  C   UNK N   1      30.928  17.351   6.770  0.00  0.00     0.018 A 
HETATM   19  C   UNK N   1      29.699  17.303   6.100  0.00  0.00     0.043 A 
HETATM   20  C   UNK N   1      29.663  17.162   4.710  0.00  0.00     0.116 A 
HETATM   21  C   UNK N   1      30.853  17.076   3.988  0.00  0.00     0.043 A 
HETATM   22  F   UNK N   1      28.476  17.106   4.060  0.00  0.00    -0.206 F 
HETATM   23  C   UNK N   1      32.076  17.133   4.656  0.00  0.00     0.018 A 
ENDBRANCH  15  17
ENDBRANCH   4  15
BRANCH   8  24
HETATM   24  O   UNK N   1      35.091  13.150  13.683  0.00  0.00    -0.326 OA
HETATM   25  H   UNK N   1      35.322  12.262  13.492  0.00  0.00     0.221 HD
ENDBRANCH   8  24
BRANCH   8  26
HETATM   26  O   UNK N   1      36.788  13.991  15.060  0.00  0.00    -0.321 OA
HETATM   27  C   UNK N   1      37.247  15.108  15.714  0.00  0.00     0.213 C 
ENDBRANCH   8  26
TORSDOF 4
ENDMDL
MODEL 4
REMARK VINA RESULT:      -7.3      6.326     11.878
REMARK  4 active torsions:
REMARK  status: ('A' for Active; 'I' for Inactive)
REMARK    1  A    between atoms: C_14  and  C_9 
REMARK    2  A    between atoms: C_14  and  C_10 
REMARK       I    between atoms: N_21  and  C_15 
REMARK    3  A    between atoms: O_24  and  C_16 
REMARK    4  A    between atoms: O_25  and  C_16 
ROOT
HETATM    1  C   UNK N   1      34.688  10.808  14.901  0.00  0.00     0.018 A 
HETATM    2  C   UNK N   1      34.245  11.644  13.867  0.00  0.00     0.033 A 
HETATM    3  C   UNK N   1      36.631  12.244  15.290  0.00  0.00     0.048 A 
HETATM    4  C   UNK N   1      35.879  11.089  15.622  0.00  0.00     0.017 A 
HETATM    5  C   UNK N   1      35.022  12.750  13.570  0.00  0.00     0.076 A 
HETATM    6  C   UNK N   1      36.166  13.042  14.245  0.00  0.00     0.077 A 
HETATM    7  C   UNK N   1      35.861  14.511  12.743  0.00  0.00     0.686 A 
HETATM    8  C   UNK N   1      35.245  16.045  10.998  0.00  0.00     0.276 C 
HETATM    9  N   UNK N   1      34.807  13.664  12.619  0.00  0.00    -0.189 N 
ATOM     10  HN  UNK N   1      34.033  13.714  11.957  1.00  0.00     0.184 HD
HETATM   11  N   UNK N   1      36.717  14.156  13.735  0.00  0.00    -0.189 N 
HETATM   12  N   UNK N   1      36.066  15.651  11.916  0.00  0.00    -0.149 N 
ATOM     13  HN  UNK N   1      36.918  16.194  12.057  1.00  0.00     0.188 HD
HETATM   14  H   UNK N   1      37.546  14.608  14.015  0.00  0.00     0.184 HD
ENDROOT
BRANCH   4  15
HETATM   15  C   UNK N   1      36.337  10.187  16.721  0.00  0.00     0.192 C 
HETATM   16  O   UNK N   1      37.348   9.518  16.546  0.00  0.00    -0.287 OA
BRANCH  15  17
HETATM   17  C   UNK N   1      35.602  10.046  18.017  0.00  0.00     0.015 A 
HETATM   18  C   UNK N   1      34.667   9.012  18.185  0.00  0.00     0.018 A 
HETATM   19  C   UNK N   1      33.949   8.890  19.381  0.00  0.00     0.043 A 
HETATM   20  C   UNK N   1      34.148   9.810  20.414  0.00  0.00     0.116 A 
HETATM   21  C   UNK N   1      35.066  10.846  20.256  0.00  0.00     0.043 A 
HETATM   22  F   UNK N   1      33.449   9.700  21.569  0.00  0.00    -0.206 F 
HETATM   23  C   UNK N   1      35.787  10.961  19.068  0.00  0.00     0.018 A 
ENDBRANCH  15  17
ENDBRANCH   4  15
BRANCH   8  24
HETATM   24  O   UNK N   1      34.087  15.382  10.767  0.00  0.00    -0.326 OA
HETATM   25  H   UNK N   1      33.301  15.845  10.555  0.00  0.00     0.221 HD
ENDBRANCH   8  24
BRANCH   8  26
HETATM   26  O   UNK N   1      35.550  17.141  10.268  0.00  0.00    -0.321 OA
HETATM   27  C   UNK N   1      34.815  17.506   9.166  0.00  0.00     0.213 C 
ENDBRANCH   8  26
TORSDOF 4
ENDMDL
MODEL 5
REMARK VINA RESULT:      -7.3      6.288     10.703
REMARK  4 active torsions:
REMARK  status: ('A' for Active; 'I' for Inactive)
REMARK    1  A    between atoms: C_14  and  C_9 
REMARK    2  A    between atoms: C_14  and  C_10 
REMARK       I    between atoms: N_21  and  C_15 
REMARK    3  A    between atoms: O_24  and  C_16 
REMARK    4  A    between atoms: O_25  and  C_16 
ROOT
HETATM    1  C   UNK N   1      27.687  20.139   4.823  0.00  0.00     0.018 A 
HETATM    2  C   UNK N   1      26.566  20.812   4.319  0.00  0.00     0.033 A 
HETATM    3  C   UNK N   1      26.492  18.005   4.757  0.00  0.00     0.048 A 
HETATM    4  C   UNK N   1      27.670  18.737   5.051  0.00  0.00     0.017 A 
HETATM    5  C   UNK N   1      25.436  20.056   4.064  0.00  0.00     0.076 A 
HETATM    6  C   UNK N   1      25.392  18.712   4.274  0.00  0.00     0.077 A 
HETATM    7  C   UNK N   1      23.502  19.356   3.551  0.00  0.00     0.686 A 
HETATM    8  C   UNK N   1      21.493  20.355   2.688  0.00  0.00     0.276 C 
HETATM    9  N   UNK N   1      24.256  20.484   3.606  0.00  0.00    -0.189 N 
ATOM     10  HN  UNK N   1      23.985  21.435   3.355  1.00  0.00     0.184 HD
HETATM   11  N   UNK N   1      24.172  18.247   3.956  0.00  0.00    -0.189 N 
HETATM   12  N   UNK N   1      22.144  19.327   3.128  0.00  0.00    -0.149 N 
ATOM     13  HN  UNK N   1      21.651  18.436   3.173  1.00  0.00     0.188 HD
HETATM   14  H   UNK N   1      23.843  17.320   4.006  0.00  0.00     0.184 HD
ENDROOT
BRANCH   4  15
HETATM   15  C   UNK N   1      28.874  18.035   5.589  0.00  0.00     0.192 C 
HETATM   16  O   UNK N   1      29.724  17.642   4.799  0.00  0.00    -0.287 OA
BRANCH  15  17
HETATM   17  C   UNK N   1      29.076  17.769   7.048  0.00  0.00     0.015 A 
HETATM   18  C   UNK N   1      30.296  17.243   7.503  0.00  0.00     0.018 A 
HETATM   19  C   UNK N   1      30.484  16.958   8.861  0.00  0.00     0.043 A 
HETATM   20  C   UNK N   1      29.450  17.182   9.774  0.00  0.00     0.116 A 
HETATM   21  C   UNK N   1      28.231  17.696   9.333  0.00  0.00     0.043 A 
HETATM   22  F   UNK N   1      29.626  16.900  11.087  0.00  0.00    -0.206 F 
HETATM   23  C   UNK N   1      28.048  17.986   7.981  0.00  0.00     0.018 A 
ENDBRANCH  15  17
ENDBRANCH   4  15
BRANCH   8  24
HETATM   24  O   UNK N   1      22.090  21.566   2.585  0.00  0.00    -0.326 OA
HETATM   25  H   UNK N   1      22.638  21.893   3.271  0.00  0.00     0.221 HD
ENDBRANCH   8  24
BRANCH   8  26
HETATM   26  O   UNK N   1      20.201  20.208   2.320  0.00  0.00    -0.321 OA
HETATM   27  C   UNK N   1      19.438  19.154   2.761  0.00  0.00     0.213 C 
ENDBRANCH   8  26
TORSDOF 4
ENDMDL
MODEL 6
REMARK VINA RESULT:      -7.3      1.991      3.154
REMARK  4 active torsions:
REMARK  status: ('A' for Active; 'I' for Inactive)
REMARK    1  A    between atoms: C_14  and  C_9 
REMARK    2  A    between atoms: C_14  and  C_10 
REMARK       I    between atoms: N_21  and  C_15 
REMARK    3  A    between atoms: O_24  and  C_16 
REMARK    4  A    between atoms: O_25  and  C_16 
ROOT
HETATM    1  C   UNK N   1      34.548  17.121   9.282  0.00  0.00     0.018 A 
HETATM    2  C   UNK N   1      35.346  16.901  10.412  0.00  0.00     0.033 A 
HETATM    3  C   UNK N   1      33.386  14.996   9.633  0.00  0.00     0.048 A 
HETATM    4  C   UNK N   1      33.565  16.180   8.874  0.00  0.00     0.017 A 
HETATM    5  C   UNK N   1      35.146  15.722  11.109  0.00  0.00     0.076 A 
HETATM    6  C   UNK N   1      34.211  14.805  10.741  0.00  0.00     0.077 A 
HETATM    7  C   UNK N   1      35.231  14.093  12.462  0.00  0.00     0.686 A 
HETATM    8  C   UNK N   1      36.518  13.560  14.421  0.00  0.00     0.276 C 
HETATM    9  N   UNK N   1      35.800  15.296  12.194  0.00  0.00    -0.189 N 
ATOM     10  HN  UNK N   1      36.550  15.766  12.702  1.00  0.00     0.184 HD
HETATM   11  N   UNK N   1      34.249  13.760  11.585  0.00  0.00    -0.189 N 
HETATM   12  N   UNK N   1      35.623  13.251  13.539  0.00  0.00    -0.149 N 
ATOM     13  HN  UNK N   1      35.168  12.342  13.623  1.00  0.00     0.188 HD
HETATM   14  H   UNK N   1      33.696  12.946  11.571  0.00  0.00     0.184 HD
ENDROOT
BRANCH   4  15
HETATM   15  C   UNK N   1      32.722  16.430   7.666  0.00  0.00     0.192 C 
HETATM   16  O   UNK N   1      33.132  16.049   6.577  0.00  0.00    -0.287 OA
BRANCH  15  17
HETATM   17  C   UNK N   1      31.410  17.148   7.725  0.00  0.00     0.015 A 
HETATM   18  C   UNK N   1      31.124  17.999   8.805  0.00  0.00     0.018 A 
HETATM   19  C   UNK N   1      29.887  18.650   8.887  0.00  0.00     0.043 A 
HETATM   20  C   UNK N   1      28.919  18.444   7.900  0.00  0.00     0.116 A 
HETATM   21  C   UNK N   1      29.188  17.595   6.828  0.00  0.00     0.043 A 
HETATM   22  F   UNK N   1      27.719  19.066   7.982  0.00  0.00    -0.206 F 
HETATM   23  C   UNK N   1      30.424  16.954   6.743  0.00  0.00     0.018 A 
ENDBRANCH  15  17
ENDBRANCH   4  15
BRANCH   8  24
HETATM   24  O   UNK N   1      37.151  14.756  14.381  0.00  0.00    -0.326 OA
HETATM   25  H   UNK N   1      37.395  15.199  15.170  0.00  0.00     0.221 HD
ENDBRANCH   8  24
BRANCH   8  26
HETATM   26  O   UNK N   1      36.813  12.674  15.398  0.00  0.00    -0.321 OA
HETATM   27  C   UNK N   1      36.692  11.319  15.208  0.00  0.00     0.213 C 
ENDBRANCH   8  26
TORSDOF 4
ENDMDL
MODEL 7
REMARK VINA RESULT:      -7.2      4.881      9.631
REMARK  4 active torsions:
REMARK  status: ('A' for Active; 'I' for Inactive)
REMARK    1  A    between atoms: C_14  and  C_9 
REMARK    2  A    between atoms: C_14  and  C_10 
REMARK       I    between atoms: N_21  and  C_15 
REMARK    3  A    between atoms: O_24  and  C_16 
REMARK    4  A    between atoms: O_25  and  C_16 
ROOT
HETATM    1  C   UNK N   1      36.615  13.521  11.598  0.00  0.00     0.018 A 
HETATM    2  C   UNK N   1      36.440  13.772  10.230  0.00  0.00     0.033 A 
HETATM    3  C   UNK N   1      35.344  15.531  12.175  0.00  0.00     0.048 A 
HETATM    4  C   UNK N   1      36.077  14.389  12.585  0.00  0.00     0.017 A 
HETATM    5  C   UNK N   1      35.731  14.908   9.881  0.00  0.00     0.076 A 
HETATM    6  C   UNK N   1      35.206  15.755  10.806  0.00  0.00     0.077 A 
HETATM    7  C   UNK N   1      34.763  16.497   8.866  0.00  0.00     0.686 A 
HETATM    8  C   UNK N   1      34.375  17.075   6.565  0.00  0.00     0.276 C 
HETATM    9  N   UNK N   1      35.462  15.353   8.650  0.00  0.00    -0.189 N 
ATOM     10  HN  UNK N   1      35.721  14.932   7.757  1.00  0.00     0.184 HD
HETATM   11  N   UNK N   1      34.588  16.773  10.184  0.00  0.00    -0.189 N 
HETATM   12  N   UNK N   1      34.270  17.335   7.828  0.00  0.00    -0.149 N 
ATOM     13  HN  UNK N   1      33.802  18.200   8.097  1.00  0.00     0.188 HD
HETATM   14  H   UNK N   1      34.120  17.539  10.588  0.00  0.00     0.184 HD
ENDROOT
BRANCH   4  15
HETATM   15  C   UNK N   1      36.273  14.107  14.039  0.00  0.00     0.192 C 
HETATM   16  O   UNK N   1      36.892  14.919  14.715  0.00  0.00    -0.287 OA
BRANCH  15  17
HETATM   17  C   UNK N   1      35.768  12.863  14.701  0.00  0.00     0.015 A 
HETATM   18  C   UNK N   1      34.586  12.256  14.245  0.00  0.00     0.018 A 
HETATM   19  C   UNK N   1      34.086  11.112  14.878  0.00  0.00     0.043 A 
HETATM   20  C   UNK N   1      34.754  10.572  15.981  0.00  0.00     0.116 A 
HETATM   21  C   UNK N   1      35.923  11.170  16.448  0.00  0.00     0.043 A 
HETATM   22  F   UNK N   1      34.268   9.470  16.600  0.00  0.00    -0.206 F 
HETATM   23  C   UNK N   1      36.425  12.306  15.811  0.00  0.00     0.018 A 
ENDBRANCH  15  17
ENDBRANCH   4  15
BRANCH   8  24
HETATM   24  O   UNK N   1      34.970  15.937   6.136  0.00  0.00    -0.326 OA
HETATM   25  H   UNK N   1      35.864  15.751   6.347  0.00  0.00     0.221 HD
ENDBRANCH   8  24
BRANCH   8  26
HETATM   26  O   UNK N   1      33.874  17.952   5.668  0.00  0.00    -0.321 OA
HETATM   27  C   UNK N   1      32.979  17.566   4.700  0.00  0.00     0.213 C 
ENDBRANCH   8  26
TORSDOF 4
ENDMDL
MODEL 8
REMARK VINA RESULT:      -7.2      4.567      6.821
REMARK  4 active torsions:
REMARK  status: ('A' for Active; 'I' for Inactive)
REMARK    1  A    between atoms: C_14  and  C_9 
REMARK    2  A    between atoms: C_14  and  C_10 
REMARK       I    between atoms: N_21  and  C_15 
REMARK    3  A    between atoms: O_24  and  C_16 
REMARK    4  A    between atoms: O_25  and  C_16 
ROOT
HETATM    1  C   UNK N   1      26.243  20.774   5.569  0.00  0.00     0.018 A 
HETATM    2  C   UNK N   1      27.094  20.469   6.640  0.00  0.00     0.033 A 
HETATM    3  C   UNK N   1      26.927  18.743   4.389  0.00  0.00     0.048 A 
HETATM    4  C   UNK N   1      26.147  19.926   4.433  0.00  0.00     0.017 A 
HETATM    5  C   UNK N   1      27.846  19.312   6.541  0.00  0.00     0.076 A 
HETATM    6  C   UNK N   1      27.773  18.482   5.466  0.00  0.00     0.077 A 
HETATM    7  C   UNK N   1      29.189  17.700   6.842  0.00  0.00     0.686 A 
HETATM    8  C   UNK N   1      30.698  17.032   8.589  0.00  0.00     0.276 C 
HETATM    9  N   UNK N   1      28.730  18.838   7.424  0.00  0.00    -0.189 N 
ATOM     10  HN  UNK N   1      28.997  19.237   8.324  1.00  0.00     0.184 HD
HETATM   11  N   UNK N   1      28.619  17.452   5.634  0.00  0.00    -0.189 N 
HETATM   12  N   UNK N   1      30.174  16.852   7.420  0.00  0.00    -0.149 N 
ATOM     13  HN  UNK N   1      30.488  16.048   6.877  1.00  0.00     0.188 HD
HETATM   14  H   UNK N   1      28.787  16.697   5.025  0.00  0.00     0.184 HD
ENDROOT
BRANCH   4  15
HETATM   15  C   UNK N   1      25.236  20.267   3.300  0.00  0.00     0.192 C 
HETATM   16  O   UNK N   1      25.705  20.837   2.323  0.00  0.00    -0.287 OA
BRANCH  15  17
HETATM   17  C   UNK N   1      23.771  19.964   3.316  0.00  0.00     0.015 A 
HETATM   18  C   UNK N   1      23.297  18.825   3.987  0.00  0.00     0.018 A 
HETATM   19  C   UNK N   1      21.932  18.514   3.981  0.00  0.00     0.043 A 
HETATM   20  C   UNK N   1      21.030  19.329   3.292  0.00  0.00     0.116 A 
HETATM   21  C   UNK N   1      21.489  20.457   2.614  0.00  0.00     0.043 A 
HETATM   22  F   UNK N   1      19.710  19.026   3.277  0.00  0.00    -0.206 F 
HETATM   23  C   UNK N   1      22.848  20.771   2.628  0.00  0.00     0.018 A 
ENDBRANCH  15  17
ENDBRANCH   4  15
BRANCH   8  24
HETATM   24  O   UNK N   1      30.316  18.069   9.372  0.00  0.00    -0.326 OA
HETATM   25  H   UNK N   1      30.782  18.276  10.157  0.00  0.00     0.221 HD
ENDBRANCH   8  24
BRANCH   8  26
HETATM   26  O   UNK N   1      31.633  16.162   9.032  0.00  0.00    -0.321 OA
HETATM   27  C   UNK N   1      32.903  16.135   8.507  0.00  0.00     0.213 C 
ENDBRANCH   8  26
TORSDOF 4
ENDMDL
MODEL 9
REMARK VINA RESULT:      -7.1      2.106      3.006
REMARK  4 active torsions:
REMARK  status: ('A' for Active; 'I' for Inactive)
REMARK    1  A    between atoms: C_14  and  C_9 
REMARK    2  A    between atoms: C_14  and  C_10 
REMARK       I    between atoms: N_21  and  C_15 
REMARK    3  A    between atoms: O_24  and  C_16 
REMARK    4  A    between atoms: O_25  and  C_16 
ROOT
HETATM    1  C   UNK N   1      29.000  18.218   8.164  0.00  0.00     0.018 A 
HETATM    2  C   UNK N   1      30.183  18.271   8.914  0.00  0.00     0.033 A 
HETATM    3  C   UNK N   1      29.876  16.363   6.829  0.00  0.00     0.048 A 
HETATM    4  C   UNK N   1      28.828  17.274   7.116  0.00  0.00     0.017 A 
HETATM    5  C   UNK N   1      31.182  17.372   8.584  0.00  0.00     0.076 A 
HETATM    6  C   UNK N   1      31.043  16.458   7.586  0.00  0.00     0.077 A 
HETATM    7  C   UNK N   1      32.973  16.247   8.447  0.00  0.00     0.686 A 
HETATM    8  C   UNK N   1      35.064  16.205   9.632  0.00  0.00     0.276 C 
HETATM    9  N   UNK N   1      32.390  17.256   9.143  0.00  0.00    -0.189 N 
ATOM     10  HN  UNK N   1      32.782  17.798   9.914  1.00  0.00     0.184 HD
HETATM   11  N   UNK N   1      32.169  15.733   7.480  0.00  0.00    -0.189 N 
HETATM   12  N   UNK N   1      34.293  15.774   8.687  0.00  0.00    -0.149 N 
ATOM     13  HN  UNK N   1      34.656  15.045   8.073  1.00  0.00     0.188 HD
HETATM   14  H   UNK N   1      32.366  15.003   6.850  0.00  0.00     0.184 HD
ENDROOT
BRANCH   4  15
HETATM   15  C   UNK N   1      27.561  17.232   6.326  0.00  0.00     0.192 C 
HETATM   16  O   UNK N   1      26.802  16.284   6.488  0.00  0.00    -0.287 OA
BRANCH  15  17
HETATM   17  C   UNK N   1      27.189  18.284   5.329  0.00  0.00     0.015 A 
HETATM   18  C   UNK N   1      26.058  18.110   4.515  0.00  0.00     0.018 A 
HETATM   19  C   UNK N   1      25.720  19.072   3.555  0.00  0.00     0.043 A 
HETATM   20  C   UNK N   1      26.517  20.208   3.390  0.00  0.00     0.116 A 
HETATM   21  C   UNK N   1      27.647  20.387   4.185  0.00  0.00     0.043 A 
HETATM   22  F   UNK N   1      26.197  21.136   2.456  0.00  0.00    -0.206 F 
HETATM   23  C   UNK N   1      27.978  19.432   5.147  0.00  0.00     0.018 A 
ENDBRANCH  15  17
ENDBRANCH   4  15
BRANCH   8  24
HETATM   24  O   UNK N   1      34.641  17.160  10.494  0.00  0.00    -0.326 OA
HETATM   25  H   UNK N   1      35.215  17.505  11.149  0.00  0.00     0.221 HD
ENDBRANCH   8  24
BRANCH   8  26
HETATM   26  O   UNK N   1      36.305  15.685   9.759  0.00  0.00    -0.321 OA
HETATM   27  C   UNK N   1      36.573  14.371   9.460  0.00  0.00     0.213 C 
ENDBRANCH   8  26
TORSDOF 4
ENDMDL
