MODEL 1
REMARK VINA RESULT:      -7.3      0.000      0.000
REMARK  4 active torsions:
REMARK  status: ('A' for Active; 'I' for Inactive)
REMARK    1  A    between atoms: C_18  and  C_10 
REMARK    2  A    between atoms: O_24  and  C_10 
REMARK    3  A    between atoms: C_17  and  O_26 
REMARK    4  A    between atoms: C_19  and  C_18 
ROOT
HETATM    1  C   UNK N   1      35.726  13.065   7.583  0.00  0.00     0.011 C 
HETATM    2  C   UNK N   1      31.348  15.003   6.609  0.00  0.00     0.025 C 
HETATM    3  C   UNK N   1      34.942  17.647   9.183  0.00  0.00     0.016 C 
HETATM    4  C   UNK N   1      28.527  16.999   5.885  0.00  0.00     0.052 A 
HETATM    5  C   UNK N   1      29.526  16.628   6.695  0.00  0.00    -0.008 A 
HETATM    6  C   UNK N   1      34.472  15.050   6.609  0.00  0.00     0.011 C 
HETATM    7  C   UNK N   1      30.124  17.006   3.921  0.00  0.00     0.061 A 
HETATM    8  C   UNK N   1      33.424  17.523   4.830  0.00  0.00     0.047 C 
HETATM    9  C   UNK N   1      32.764  16.382   9.032  0.00  0.00     0.042 C 
HETATM   10  C   UNK N   1      35.513  14.570   7.627  0.00  0.00    -0.006 C 
HETATM   11  C   UNK N   1      28.779  17.232   4.461  0.00  0.00     0.172 A 
HETATM   12  C   UNK N   1      33.353  17.507   6.372  0.00  0.00     0.001 C 
HETATM   13  C   UNK N   1      34.350  16.507   7.029  0.00  0.00    -0.001 C 
HETATM   14  C   UNK N   1      31.137  16.624   4.720  0.00  0.00    -0.030 A 
HETATM   15  C   UNK N   1      32.517  16.499   4.136  0.00  0.00     0.200 C 
HETATM   16  C   UNK N   1      31.933  17.528   8.467  0.00  0.00     0.124 C 
HETATM   17  C   UNK N   1      34.898  15.061   8.941  0.00  0.00     0.070 C 
HETATM   18  C   UNK N   1      31.888  17.497   6.913  0.00  0.00     0.035 C 
HETATM   19  C   UNK N   1      30.966  16.428   6.235  0.00  0.00     0.006 A 
HETATM   20  C   UNK N   1      34.239  16.429   8.573  0.00  0.00    -0.027 C 
HETATM   21  F   UNK N   1      32.992  15.211   4.293  0.00  0.00    -0.245 F 
HETATM   22  O   UNK N   1      27.884  17.628   3.734  0.00  0.00    -0.289 OA
ENDROOT
BRANCH  17  23
HETATM   23  C   UNK N   1      35.783  15.086  10.173  0.00  0.00     0.155 C 
HETATM   24  O   UNK N   1      36.988  15.246  10.034  0.00  0.00    -0.295 OA
BRANCH  23  25
HETATM   25  C   UNK N   1      35.212  14.885  11.547  0.00  0.00     0.242 C 
BRANCH  25  26
HETATM   26  O   UNK N   1      33.968  14.254  11.487  0.00  0.00    -0.394 OA
HETATM   27  H   UNK N   1      33.342  14.455  10.773  0.00  0.00     0.209 HD
ENDBRANCH  25  26
ENDBRANCH  23  25
ENDBRANCH  17  23
BRANCH  16  28
HETATM   28  O   UNK N   1      30.657  17.502   9.030  0.00  0.00    -0.395 OA
HETATM   29  H   UNK N   1      30.367  17.893   9.870  0.00  0.00     0.210 HD
ENDBRANCH  16  28
TORSDOF 4
ENDMDL
MODEL 2
REMARK VINA RESULT:      -7.1      6.946      9.971
REMARK  4 active torsions:
REMARK  status: ('A' for Active; 'I' for Inactive)
REMARK    1  A    between atoms: C_18  and  C_10 
REMARK    2  A    between atoms: O_24  and  C_10 
REMARK    3  A    between atoms: C_17  and  O_26 
REMARK    4  A    between atoms: C_19  and  C_18 
ROOT
HETATM    1  C   UNK N   1      38.247   8.804  11.582  0.00  0.00     0.011 C 
HETATM    2  C   UNK N   1      37.506  12.271  14.944  0.00  0.00     0.025 C 
HETATM    3  C   UNK N   1      35.160  12.430  10.361  0.00  0.00     0.016 C 
HETATM    4  C   UNK N   1      36.342  14.817  17.095  0.00  0.00     0.052 A 
HETATM    5  C   UNK N   1      36.685  14.373  15.880  0.00  0.00    -0.008 A 
HETATM    6  C   UNK N   1      36.520  10.126  12.898  0.00  0.00     0.011 C 
HETATM    7  C   UNK N   1      35.068  12.672  17.519  0.00  0.00     0.061 A 
HETATM    8  C   UNK N   1      33.986  11.116  14.623  0.00  0.00     0.047 C 
HETATM    9  C   UNK N   1      36.853  13.244  12.045  0.00  0.00     0.042 C 
HETATM   10  C   UNK N   1      37.027   9.709  11.512  0.00  0.00    -0.006 C 
HETATM   11  C   UNK N   1      35.496  14.002  17.968  0.00  0.00     0.172 A 
HETATM   12  C   UNK N   1      34.638  11.974  13.518  0.00  0.00     0.001 C 
HETATM   13  C   UNK N   1      35.464  11.143  12.492  0.00  0.00    -0.001 C 
HETATM   14  C   UNK N   1      35.412  12.207  16.305  0.00  0.00    -0.030 A 
HETATM   15  C   UNK N   1      34.869  10.878  15.854  0.00  0.00     0.200 C 
HETATM   16  C   UNK N   1      35.887  14.081  12.877  0.00  0.00     0.124 C 
HETATM   17  C   UNK N   1      37.314  11.071  10.874  0.00  0.00     0.070 C 
HETATM   18  C   UNK N   1      35.306  13.273  14.072  0.00  0.00     0.035 C 
HETATM   19  C   UNK N   1      36.239  13.032  15.307  0.00  0.00     0.006 A 
HETATM   20  C   UNK N   1      36.182  12.000  11.420  0.00  0.00    -0.027 C 
HETATM   21  F   UNK N   1      35.902  10.004  15.578  0.00  0.00    -0.245 F 
HETATM   22  O   UNK N   1      35.132  14.431  19.050  0.00  0.00    -0.289 OA
ENDROOT
BRANCH  17  23
HETATM   23  C   UNK N   1      37.517  11.122   9.372  0.00  0.00     0.155 C 
HETATM   24  O   UNK N   1      36.931  10.312   8.666  0.00  0.00    -0.295 OA
BRANCH  23  25
HETATM   25  C   UNK N   1      38.445  12.122   8.743  0.00  0.00     0.242 C 
BRANCH  25  26
HETATM   26  O   UNK N   1      39.350  12.626   9.681  0.00  0.00    -0.394 OA
HETATM   27  H   UNK N   1      40.213  12.970   9.405  0.00  0.00     0.209 HD
ENDBRANCH  25  26
ENDBRANCH  23  25
ENDBRANCH  17  23
BRANCH  16  28
HETATM   28  O   UNK N   1      36.521  15.251  13.292  0.00  0.00    -0.395 OA
HETATM   29  H   UNK N   1      36.136  15.997  13.780  0.00  0.00     0.210 HD
ENDBRANCH  16  28
TORSDOF 4
ENDMDL
MODEL 3
REMARK VINA RESULT:      -7.0     15.914     17.795
REMARK  4 active torsions:
REMARK  status: ('A' for Active; 'I' for Inactive)
REMARK    1  A    between atoms: C_18  and  C_10 
REMARK    2  A    between atoms: O_24  and  C_10 
REMARK    3  A    between atoms: C_17  and  O_26 
REMARK    4  A    between atoms: C_19  and  C_18 
ROOT
HETATM    1  C   UNK N   1      31.594  28.523  -2.195  0.00  0.00     0.011 C 
HETATM    2  C   UNK N   1      28.156  26.440  -4.972  0.00  0.00     0.025 C 
HETATM    3  C   UNK N   1      27.431  31.062  -2.817  0.00  0.00     0.016 C 
HETATM    4  C   UNK N   1      25.508  25.583  -7.144  0.00  0.00     0.052 A 
HETATM    5  C   UNK N   1      25.969  26.148  -6.022  0.00  0.00    -0.008 A 
HETATM    6  C   UNK N   1      30.021  28.814  -4.170  0.00  0.00     0.011 C 
HETATM    7  C   UNK N   1      27.397  26.642  -8.453  0.00  0.00     0.061 A 
HETATM    8  C   UNK N   1      28.641  29.524  -6.993  0.00  0.00     0.047 C 
HETATM    9  C   UNK N   1      26.991  28.586  -3.019  0.00  0.00     0.042 C 
HETATM   10  C   UNK N   1      30.481  29.355  -2.810  0.00  0.00    -0.006 C 
HETATM   11  C   UNK N   1      26.182  25.821  -8.422  0.00  0.00     0.172 A 
HETATM   12  C   UNK N   1      27.881  29.573  -5.650  0.00  0.00     0.001 C 
HETATM   13  C   UNK N   1      28.817  29.712  -4.413  0.00  0.00    -0.001 C 
HETATM   14  C   UNK N   1      27.880  27.209  -7.333  0.00  0.00    -0.030 A 
HETATM   15  C   UNK N   1      29.073  28.120  -7.434  0.00  0.00     0.200 C 
HETATM   16  C   UNK N   1      26.018  28.675  -4.190  0.00  0.00     0.124 C 
HETATM   17  C   UNK N   1      29.174  29.312  -2.013  0.00  0.00     0.070 C 
HETATM   18  C   UNK N   1      26.743  28.507  -5.556  0.00  0.00     0.035 C 
HETATM   19  C   UNK N   1      27.188  27.062  -5.969  0.00  0.00     0.006 A 
HETATM   20  C   UNK N   1      28.072  29.690  -3.054  0.00  0.00    -0.027 C 
HETATM   21  F   UNK N   1      30.111  27.641  -6.659  0.00  0.00    -0.245 F 
HETATM   22  O   UNK N   1      25.728  25.357  -9.454  0.00  0.00    -0.289 OA
ENDROOT
BRANCH  17  23
HETATM   23  C   UNK N   1      29.115  30.083  -0.708  0.00  0.00     0.155 C 
HETATM   24  O   UNK N   1      29.849  31.049  -0.555  0.00  0.00    -0.295 OA
BRANCH  23  25
HETATM   25  C   UNK N   1      28.199  29.661   0.406  0.00  0.00     0.242 C 
BRANCH  25  26
HETATM   26  O   UNK N   1      28.554  30.276   1.608  0.00  0.00    -0.394 OA
HETATM   27  H   UNK N   1      27.909  30.797   2.112  0.00  0.00     0.209 HD
ENDBRANCH  25  26
ENDBRANCH  23  25
ENDBRANCH  17  23
BRANCH  16  28
HETATM   28  O   UNK N   1      24.996  27.741  -4.020  0.00  0.00    -0.395 OA
HETATM   29  H   UNK N   1      24.666  27.363  -3.190  0.00  0.00     0.210 HD
ENDBRANCH  16  28
TORSDOF 4
ENDMDL
MODEL 4
REMARK VINA RESULT:      -7.0      3.076      4.954
REMARK  4 active torsions:
REMARK  status: ('A' for Active; 'I' for Inactive)
REMARK    1  A    between atoms: C_18  and  C_10 
REMARK    2  A    between atoms: O_24  and  C_10 
REMARK    3  A    between atoms: C_17  and  O_26 
REMARK    4  A    between atoms: C_19  and  C_18 
ROOT
HETATM    1  C   UNK N   1      33.435  10.046  11.245  0.00  0.00     0.011 C 
HETATM    2  C   UNK N   1      33.140  14.488   9.230  0.00  0.00     0.025 C 
HETATM    3  C   UNK N   1      37.074  13.182  12.288  0.00  0.00     0.016 C 
HETATM    4  C   UNK N   1      33.615  17.671   7.780  0.00  0.00     0.052 A 
HETATM    5  C   UNK N   1      33.727  16.821   8.807  0.00  0.00    -0.008 A 
HETATM    6  C   UNK N   1      34.635  11.823   9.880  0.00  0.00     0.011 C 
HETATM    7  C   UNK N   1      34.423  15.867   6.199  0.00  0.00     0.061 A 
HETATM    8  C   UNK N   1      36.389  13.468   7.736  0.00  0.00     0.047 C 
HETATM    9  C   UNK N   1      34.946  14.439  11.782  0.00  0.00     0.042 C 
HETATM   10  C   UNK N   1      34.665  10.931  11.128  0.00  0.00    -0.006 C 
HETATM   11  C   UNK N   1      33.981  17.247   6.427  0.00  0.00     0.172 A 
HETATM   12  C   UNK N   1      36.295  13.862   9.226  0.00  0.00     0.001 C 
HETATM   13  C   UNK N   1      35.855  12.690  10.152  0.00  0.00    -0.001 C 
HETATM   14  C   UNK N   1      34.533  14.997   7.219  0.00  0.00    -0.030 A 
HETATM   15  C   UNK N   1      35.082  13.624   6.949  0.00  0.00     0.200 C 
HETATM   16  C   UNK N   1      35.590  15.557  10.969  0.00  0.00     0.124 C 
HETATM   17  C   UNK N   1      34.773  11.977  12.241  0.00  0.00     0.070 C 
HETATM   18  C   UNK N   1      35.589  15.238   9.447  0.00  0.00     0.035 C 
HETATM   19  C   UNK N   1      34.234  15.389   8.675  0.00  0.00     0.006 A 
HETATM   20  C   UNK N   1      35.689  13.091  11.639  0.00  0.00    -0.027 C 
HETATM   21  F   UNK N   1      34.159  12.658   7.300  0.00  0.00    -0.245 F 
HETATM   22  O   UNK N   1      33.937  18.038   5.500  0.00  0.00    -0.289 OA
ENDROOT
BRANCH  17  23
HETATM   23  C   UNK N   1      35.171  11.499  13.625  0.00  0.00     0.155 C 
HETATM   24  O   UNK N   1      36.045  10.650  13.732  0.00  0.00    -0.295 OA
BRANCH  23  25
HETATM   25  C   UNK N   1      34.489  12.024  14.857  0.00  0.00     0.242 C 
BRANCH  25  26
HETATM   26  O   UNK N   1      34.840  13.354  15.097  0.00  0.00    -0.394 OA
HETATM   27  H   UNK N   1      35.573  13.576  15.692  0.00  0.00     0.209 HD
ENDBRANCH  25  26
ENDBRANCH  23  25
ENDBRANCH  17  23
BRANCH  16  28
HETATM   28  O   UNK N   1      34.956  16.766  11.253  0.00  0.00    -0.395 OA
HETATM   29  H   UNK N   1      34.138  17.115  10.866  0.00  0.00     0.210 HD
ENDBRANCH  16  28
TORSDOF 4
ENDMDL
MODEL 5
REMARK VINA RESULT:      -6.9     15.960     17.963
REMARK  4 active torsions:
REMARK  status: ('A' for Active; 'I' for Inactive)
REMARK    1  A    between atoms: C_18  and  C_10 
REMARK    2  A    between atoms: O_24  and  C_10 
REMARK    3  A    between atoms: C_17  and  O_26 
REMARK    4  A    between atoms: C_19  and  C_18 
ROOT
HETATM    1  C   UNK N   1      29.049  30.398  -6.251  0.00  0.00     0.011 C 
HETATM    2  C   UNK N   1      29.076  25.526  -6.623  0.00  0.00     0.025 C 
HETATM    3  C   UNK N   1      25.608  27.977  -3.709  0.00  0.00     0.016 C 
HETATM    4  C   UNK N   1      28.416  22.063  -6.804  0.00  0.00     0.052 A 
HETATM    5  C   UNK N   1      28.446  23.218  -6.129  0.00  0.00    -0.008 A 
HETATM    6  C   UNK N   1      27.676  28.316  -6.742  0.00  0.00     0.011 C 
HETATM    7  C   UNK N   1      27.385  23.249  -8.788  0.00  0.00     0.061 A 
HETATM    8  C   UNK N   1      25.645  26.115  -7.928  0.00  0.00     0.047 C 
HETATM    9  C   UNK N   1      27.649  26.529  -4.028  0.00  0.00     0.042 C 
HETATM   10  C   UNK N   1      27.818  29.582  -5.888  0.00  0.00    -0.006 C 
HETATM   11  C   UNK N   1      27.861  22.012  -8.158  0.00  0.00     0.172 A 
HETATM   12  C   UNK N   1      25.950  26.253  -6.421  0.00  0.00     0.001 C 
HETATM   13  C   UNK N   1      26.511  27.650  -6.026  0.00  0.00    -0.001 C 
HETATM   14  C   UNK N   1      27.416  24.420  -8.127  0.00  0.00    -0.030 A 
HETATM   15  C   UNK N   1      26.828  25.640  -8.780  0.00  0.00     0.200 C 
HETATM   16  C   UNK N   1      26.901  25.230  -4.310  0.00  0.00     0.124 C 
HETATM   17  C   UNK N   1      27.873  28.989  -4.478  0.00  0.00     0.070 C 
HETATM   18  C   UNK N   1      26.686  25.006  -5.834  0.00  0.00     0.035 C 
HETATM   19  C   UNK N   1      27.920  24.539  -6.680  0.00  0.00     0.006 A 
HETATM   20  C   UNK N   1      26.887  27.777  -4.528  0.00  0.00    -0.027 C 
HETATM   21  F   UNK N   1      27.787  26.626  -8.912  0.00  0.00    -0.245 F 
HETATM   22  O   UNK N   1      27.777  20.950  -8.750  0.00  0.00    -0.289 OA
ENDROOT
BRANCH  17  23
HETATM   23  C   UNK N   1      27.673  29.930  -3.304  0.00  0.00     0.155 C 
HETATM   24  O   UNK N   1      26.811  30.794  -3.378  0.00  0.00    -0.295 OA
BRANCH  23  25
HETATM   25  C   UNK N   1      28.534  29.839  -2.077  0.00  0.00     0.242 C 
BRANCH  25  26
HETATM   26  O   UNK N   1      27.779  29.473  -0.960  0.00  0.00    -0.394 OA
HETATM   27  H   UNK N   1      27.374  28.593  -0.900  0.00  0.00     0.209 HD
ENDBRANCH  25  26
ENDBRANCH  23  25
ENDBRANCH  17  23
BRANCH  16  28
HETATM   28  O   UNK N   1      27.575  24.164  -3.712  0.00  0.00    -0.395 OA
HETATM   29  H   UNK N   1      27.688  23.986  -2.766  0.00  0.00     0.210 HD
ENDBRANCH  16  28
TORSDOF 4
ENDMDL
MODEL 6
REMARK VINA RESULT:      -6.8      3.230      7.930
REMARK  4 active torsions:
REMARK  status: ('A' for Active; 'I' for Inactive)
REMARK    1  A    between atoms: C_18  and  C_10 
REMARK    2  A    between atoms: O_24  and  C_10 
REMARK    3  A    between atoms: C_17  and  O_26 
REMARK    4  A    between atoms: C_19  and  C_18 
ROOT
HETATM    1  C   UNK N   1      25.424  14.103   6.862  0.00  0.00     0.011 C 
HETATM    2  C   UNK N   1      30.054  15.334   5.901  0.00  0.00     0.025 C 
HETATM    3  C   UNK N   1      26.107  17.796   3.689  0.00  0.00     0.016 C 
HETATM    4  C   UNK N   1      33.142  16.857   5.123  0.00  0.00     0.052 A 
HETATM    5  C   UNK N   1      31.904  16.476   4.787  0.00  0.00    -0.008 A 
HETATM    6  C   UNK N   1      27.118  15.994   6.743  0.00  0.00     0.011 C 
HETATM    7  C   UNK N   1      32.273  17.734   7.332  0.00  0.00     0.061 A 
HETATM    8  C   UNK N   1      28.926  18.612   7.246  0.00  0.00     0.047 C 
HETATM    9  C   UNK N   1      28.077  16.222   3.646  0.00  0.00     0.042 C 
HETATM   10  C   UNK N   1      25.761  15.461   6.267  0.00  0.00    -0.006 C 
HETATM   11  C   UNK N   1      33.388  17.528   6.401  0.00  0.00     0.172 A 
HETATM   12  C   UNK N   1      28.494  18.147   5.838  0.00  0.00     0.001 C 
HETATM   13  C   UNK N   1      27.244  17.219   5.849  0.00  0.00    -0.001 C 
HETATM   14  C   UNK N   1      31.025  17.349   7.014  0.00  0.00    -0.030 A 
HETATM   15  C   UNK N   1      29.901  17.669   7.961  0.00  0.00     0.200 C 
HETATM   16  C   UNK N   1      29.158  17.294   3.549  0.00  0.00     0.124 C 
HETATM   17  C   UNK N   1      25.966  15.428   4.750  0.00  0.00     0.070 C 
HETATM   18  C   UNK N   1      29.698  17.696   4.951  0.00  0.00     0.035 C 
HETATM   19  C   UNK N   1      30.677  16.702   5.664  0.00  0.00     0.006 A 
HETATM   20  C   UNK N   1      26.842  16.687   4.450  0.00  0.00    -0.027 C 
HETATM   21  F   UNK N   1      29.274  16.510   8.375  0.00  0.00    -0.245 F 
HETATM   22  O   UNK N   1      34.505  17.930   6.681  0.00  0.00    -0.289 OA
ENDROOT
BRANCH  17  23
HETATM   23  C   UNK N   1      24.738  15.278   3.872  0.00  0.00     0.155 C 
HETATM   24  O   UNK N   1      23.694  15.816   4.214  0.00  0.00    -0.295 OA
BRANCH  23  25
HETATM   25  C   UNK N   1      24.775  14.456   2.614  0.00  0.00     0.242 C 
BRANCH  25  26
HETATM   26  O   UNK N   1      25.385  15.159   1.573  0.00  0.00    -0.394 OA
HETATM   27  H   UNK N   1      26.238  15.602   1.704  0.00  0.00     0.209 HD
ENDBRANCH  25  26
ENDBRANCH  23  25
ENDBRANCH  17  23
BRANCH  16  28
HETATM   28  O   UNK N   1      30.174  16.858   2.700  0.00  0.00    -0.395 OA
HETATM   29  H   UNK N   1      30.964  17.345   2.416  0.00  0.00     0.210 HD
ENDBRANCH  16  28
TORSDOF 4
ENDMDL
MODEL 7
REMARK VINA RESULT:      -6.5      8.752     11.452
REMARK  4 active torsions:
REMARK  status: ('A' for Active; 'I' for Inactive)
REMARK    1  A    between atoms: C_18  and  C_10 
REMARK    2  A    between atoms: O_24  and  C_10 
REMARK    3  A    between atoms: C_17  and  O_26 
REMARK    4  A    between atoms: C_19  and  C_18 
ROOT
HETATM    1  C   UNK N   1      33.670   9.619  11.008  0.00  0.00     0.011 C 
HETATM    2  C   UNK N   1      34.208  10.452  15.793  0.00  0.00     0.025 C 
HETATM    3  C   UNK N   1      38.118   8.740  12.909  0.00  0.00     0.016 C 
HETATM    4  C   UNK N   1      35.246  11.210  19.081  0.00  0.00     0.052 A 
HETATM    5  C   UNK N   1      35.302  10.455  17.977  0.00  0.00    -0.008 A 
HETATM    6  C   UNK N   1      35.048  10.779  12.801  0.00  0.00     0.011 C 
HETATM    7  C   UNK N   1      35.288  13.299  17.653  0.00  0.00     0.061 A 
HETATM    8  C   UNK N   1      36.791  12.832  14.570  0.00  0.00     0.047 C 
HETATM    9  C   UNK N   1      36.335   8.452  14.670  0.00  0.00     0.042 C 
HETATM   10  C   UNK N   1      35.052   9.807  11.616  0.00  0.00    -0.006 C 
HETATM   11  C   UNK N   1      35.261  12.670  18.979  0.00  0.00     0.172 A 
HETATM   12  C   UNK N   1      37.049  11.310  14.551  0.00  0.00     0.001 C 
HETATM   13  C   UNK N   1      36.479  10.600  13.288  0.00  0.00    -0.001 C 
HETATM   14  C   UNK N   1      35.335  12.555  16.534  0.00  0.00    -0.030 A 
HETATM   15  C   UNK N   1      35.458  13.247  15.204  0.00  0.00     0.200 C 
HETATM   16  C   UNK N   1      37.103   9.114  15.810  0.00  0.00     0.124 C 
HETATM   17  C   UNK N   1      35.608   8.538  12.269  0.00  0.00     0.070 C 
HETATM   18  C   UNK N   1      36.769  10.629  15.928  0.00  0.00     0.035 C 
HETATM   19  C   UNK N   1      35.391  11.019  16.564  0.00  0.00     0.006 A 
HETATM   20  C   UNK N   1      36.669   9.062  13.290  0.00  0.00    -0.027 C 
HETATM   21  F   UNK N   1      34.387  12.926  14.393  0.00  0.00    -0.245 F 
HETATM   22  O   UNK N   1      35.272  13.358  19.985  0.00  0.00    -0.289 OA
ENDROOT
BRANCH  17  23
HETATM   23  C   UNK N   1      36.091   7.425  11.358  0.00  0.00     0.155 C 
HETATM   24  O   UNK N   1      36.513   7.710  10.245  0.00  0.00    -0.295 OA
BRANCH  23  25
HETATM   25  C   UNK N   1      36.027   5.986  11.784  0.00  0.00     0.242 C 
BRANCH  25  26
HETATM   26  O   UNK N   1      34.834   5.714  12.457  0.00  0.00    -0.394 OA
HETATM   27  H   UNK N   1      34.014   6.176  12.223  0.00  0.00     0.209 HD
ENDBRANCH  25  26
ENDBRANCH  23  25
ENDBRANCH  17  23
BRANCH  16  28
HETATM   28  O   UNK N   1      36.860   8.427  16.999  0.00  0.00    -0.395 OA
HETATM   29  H   UNK N   1      37.275   8.568  17.864  0.00  0.00     0.210 HD
ENDBRANCH  16  28
TORSDOF 4
ENDMDL
MODEL 8
REMARK VINA RESULT:      -6.3      5.559     10.315
REMARK  4 active torsions:
REMARK  status: ('A' for Active; 'I' for Inactive)
REMARK    1  A    between atoms: C_18  and  C_10 
REMARK    2  A    between atoms: O_24  and  C_10 
REMARK    3  A    between atoms: C_17  and  O_26 
REMARK    4  A    between atoms: C_19  and  C_18 
ROOT
HETATM    1  C   UNK N   1      33.831  14.600  10.819  0.00  0.00     0.011 C 
HETATM    2  C   UNK N   1      34.185  11.245  14.354  0.00  0.00     0.025 C 
HETATM    3  C   UNK N   1      38.079  12.142  11.103  0.00  0.00     0.016 C 
HETATM    4  C   UNK N   1      35.109   8.988  16.906  0.00  0.00     0.052 A 
HETATM    5  C   UNK N   1      35.158   9.407  15.636  0.00  0.00    -0.008 A 
HETATM    6  C   UNK N   1      35.207  13.740  12.775  0.00  0.00     0.011 C 
HETATM    7  C   UNK N   1      35.407  11.371  17.704  0.00  0.00     0.061 A 
HETATM    8  C   UNK N   1      37.024  13.400  15.413  0.00  0.00     0.047 C 
HETATM    9  C   UNK N   1      36.187  10.738  12.005  0.00  0.00     0.042 C 
HETATM   10  C   UNK N   1      35.189  14.099  11.284  0.00  0.00    -0.006 C 
HETATM   11  C   UNK N   1      35.256   9.943  18.006  0.00  0.00     0.172 A 
HETATM   12  C   UNK N   1      37.151  12.479  14.180  0.00  0.00     0.001 C 
HETATM   13  C   UNK N   1      36.589  13.111  12.873  0.00  0.00    -0.001 C 
HETATM   14  C   UNK N   1      35.449  11.810  16.433  0.00  0.00    -0.030 A 
HETATM   15  C   UNK N   1      35.701  13.271  16.176  0.00  0.00     0.200 C 
HETATM   16  C   UNK N   1      36.949  10.157  13.192  0.00  0.00     0.124 C 
HETATM   17  C   UNK N   1      35.599  12.768  10.649  0.00  0.00     0.070 C 
HETATM   18  C   UNK N   1      36.741  11.002  14.481  0.00  0.00     0.035 C 
HETATM   19  C   UNK N   1      35.370  10.861  15.227  0.00  0.00     0.006 A 
HETATM   20  C   UNK N   1      36.645  12.170  11.643  0.00  0.00    -0.027 C 
HETATM   21  F   UNK N   1      34.651  13.824  15.470  0.00  0.00    -0.245 F 
HETATM   22  O   UNK N   1      35.274   9.555  19.161  0.00  0.00    -0.289 OA
ENDROOT
BRANCH  17  23
HETATM   23  C   UNK N   1      36.031  12.779   9.194  0.00  0.00     0.155 C 
HETATM   24  O   UNK N   1      35.929  11.752   8.537  0.00  0.00    -0.295 OA
BRANCH  23  25
HETATM   25  C   UNK N   1      36.609  14.013   8.563  0.00  0.00     0.242 C 
BRANCH  25  26
HETATM   26  O   UNK N   1      35.674  14.639   7.735  0.00  0.00    -0.394 OA
HETATM   27  H   UNK N   1      35.481  15.585   7.828  0.00  0.00     0.209 HD
ENDBRANCH  25  26
ENDBRANCH  23  25
ENDBRANCH  17  23
BRANCH  16  28
HETATM   28  O   UNK N   1      36.584   8.823  13.373  0.00  0.00    -0.395 OA
HETATM   29  H   UNK N   1      36.572   8.316  14.200  0.00  0.00     0.210 HD
ENDBRANCH  16  28
TORSDOF 4
ENDMDL
MODEL 9
REMARK VINA RESULT:      -6.3     12.805     14.424
REMARK  4 active torsions:
REMARK  status: ('A' for Active; 'I' for Inactive)
REMARK    1  A    between atoms: C_18  and  C_10 
REMARK    2  A    between atoms: O_24  and  C_10 
REMARK    3  A    between atoms: C_17  and  O_26 
REMARK    4  A    between atoms: C_19  and  C_18 
ROOT
HETATM    1  C   UNK N   1      35.126  23.914  -5.561  0.00  0.00     0.011 C 
HETATM    2  C   UNK N   1      30.322  23.736  -6.436  0.00  0.00     0.025 C 
HETATM    3  C   UNK N   1      32.877  19.642  -4.635  0.00  0.00     0.016 C 
HETATM    4  C   UNK N   1      26.841  23.157  -6.549  0.00  0.00     0.052 A 
HETATM    5  C   UNK N   1      28.106  22.739  -6.685  0.00  0.00    -0.008 A 
HETATM    6  C   UNK N   1      32.836  23.329  -4.627  0.00  0.00     0.011 C 
HETATM    7  C   UNK N   1      27.459  24.321  -4.388  0.00  0.00     0.061 A 
HETATM    8  C   UNK N   1      30.207  22.929  -2.808  0.00  0.00     0.047 C 
HETATM    9  C   UNK N   1      31.655  20.907  -6.443  0.00  0.00     0.042 C 
HETATM   10  C   UNK N   1      34.258  22.839  -4.926  0.00  0.00    -0.006 C 
HETATM   11  C   UNK N   1      26.446  23.948  -5.381  0.00  0.00     0.172 A 
HETATM   12  C   UNK N   1      30.687  21.880  -3.835  0.00  0.00     0.001 C 
HETATM   13  C   UNK N   1      32.194  22.016  -4.202  0.00  0.00    -0.001 C 
HETATM   14  C   UNK N   1      28.736  23.918  -4.515  0.00  0.00    -0.030 A 
HETATM   15  C   UNK N   1      29.715  24.246  -3.421  0.00  0.00     0.200 C 
HETATM   16  C   UNK N   1      30.244  20.583  -5.963  0.00  0.00     0.124 C 
HETATM   17  C   UNK N   1      33.978  21.654  -5.855  0.00  0.00     0.070 C 
HETATM   18  C   UNK N   1      29.688  21.688  -5.019  0.00  0.00     0.035 C 
HETATM   19  C   UNK N   1      29.211  23.028  -5.675  0.00  0.00     0.006 A 
HETATM   20  C   UNK N   1      32.671  21.015  -5.284  0.00  0.00    -0.027 C 
HETATM   21  F   UNK N   1      30.762  24.996  -3.920  0.00  0.00    -0.245 F 
HETATM   22  O   UNK N   1      25.283  24.277  -5.225  0.00  0.00    -0.289 OA
ENDROOT
BRANCH  17  23
HETATM   23  C   UNK N   1      35.109  20.676  -6.116  0.00  0.00     0.155 C 
HETATM   24  O   UNK N   1      35.100  20.022  -7.150  0.00  0.00    -0.295 OA
BRANCH  23  25
HETATM   25  C   UNK N   1      36.212  20.475  -5.116  0.00  0.00     0.242 C 
BRANCH  25  26
HETATM   26  O   UNK N   1      36.373  19.121  -4.812  0.00  0.00    -0.394 OA
HETATM   27  H   UNK N   1      36.204  18.789  -3.917  0.00  0.00     0.209 HD
ENDBRANCH  25  26
ENDBRANCH  23  25
ENDBRANCH  17  23
BRANCH  16  28
HETATM   28  O   UNK N   1      29.414  20.364  -7.062  0.00  0.00    -0.395 OA
HETATM   29  H   UNK N   1      29.414  19.606  -7.668  0.00  0.00     0.210 HD
ENDBRANCH  16  28
TORSDOF 4
ENDMDL
