MODEL 1
REMARK VINA RESULT:      -6.4      0.000      0.000
REMARK  19 active torsions:
REMARK  status: ('A' for Active; 'I' for Inactive)
REMARK    1  A    between atoms: C_2  and  C_1 
REMARK    2  A    between atoms: C_3  and  C_1 
REMARK    3  A    between atoms: C_4  and  C_2 
REMARK    4  A    between atoms: C_9  and  C_3 
REMARK    5  A    between atoms: C_10  and  C_4 
REMARK    6  A    between atoms: N_23  and  C_9 
REMARK    7  A    between atoms: N_24  and  C_10 
REMARK    8  A    between atoms: C_21  and  C_13 
REMARK    9  A    between atoms: N_23  and  C_13 
REMARK   10  A    between atoms: C_22  and  C_14 
REMARK   11  A    between atoms: N_24  and  C_14 
REMARK   12  A    between atoms: C_21  and  C_15 
REMARK   13  A    between atoms: C_22  and  C_16 
REMARK   14  A    between atoms: O_25  and  C_17 
REMARK   15  A    between atoms: O_26  and  C_18 
REMARK   16  A    between atoms: O_27  and  C_19 
REMARK   17  A    between atoms: O_28  and  C_20 
REMARK   18  A    between atoms: O_29  and  C_21 
REMARK   19  A    between atoms: O_30  and  C_22 
ROOT
HETATM    1  C   UNK N   1      22.386  14.976   4.070  0.00  0.00     0.002 C 
ENDROOT
BRANCH   1   2
HETATM    2  C   UNK N   1      21.996  15.379   2.654  0.00  0.00     0.002 C 
BRANCH   2   3
HETATM    3  C   UNK N   1      20.536  15.789   2.593  0.00  0.00     0.019 C 
BRANCH   3   4
HETATM    4  C   UNK N   1      20.298  16.678   1.387  0.00  0.00     0.113 C 
BRANCH   4   5
HETATM    5  N   UNK N   1      19.378  17.752   1.724  0.00  0.00    -0.418 N 
HETATM    6  H   UNK N   1      18.611  18.092   1.143  0.00  0.00     0.153 HD
BRANCH   5   7
HETATM    7  C   UNK N   1      19.747  18.256   3.036  0.00  0.00     0.150 C 
BRANCH   7   8
HETATM    8  C   UNK N   1      20.329  19.654   2.901  0.00  0.00     0.168 C 
BRANCH   8   9
HETATM    9  C   UNK N   1      21.801  19.660   3.218  0.00  0.00    -0.025 A 
HETATM   10  C   UNK N   1      22.667  20.580   2.609  0.00  0.00     0.013 A 
HETATM   11  C   UNK N   1      24.030  20.577   2.920  0.00  0.00     0.040 A 
HETATM   12  C   UNK N   1      24.537  19.654   3.839  0.00  0.00     0.098 A 
HETATM   13  C   UNK N   1      23.679  18.732   4.451  0.00  0.00     0.099 A 
HETATM   14  C   UNK N   1      22.318  18.742   4.143  0.00  0.00     0.049 A 
BRANCH  12  15
HETATM   15  O   UNK N   1      25.850  19.658   4.131  0.00  0.00    -0.358 OA
HETATM   16  H   UNK N   1      26.170  20.157   4.855  0.00  0.00     0.217 HD
ENDBRANCH  12  15
BRANCH  13  17
HETATM   17  O   UNK N   1      24.156  17.838   5.332  0.00  0.00    -0.358 OA
HETATM   18  H   UNK N   1      24.439  16.993   5.041  0.00  0.00     0.217 HD
ENDBRANCH  13  17
ENDBRANCH   8   9
BRANCH   8  19
HETATM   19  O   UNK N   1      20.076  20.133   1.614  0.00  0.00    -0.389 OA
HETATM   20  H   UNK N   1      19.176  20.391   1.356  0.00  0.00     0.210 HD
ENDBRANCH   8  19
ENDBRANCH   7   8
ENDBRANCH   5   7
ENDBRANCH   4   5
ENDBRANCH   3   4
ENDBRANCH   2   3
ENDBRANCH   1   2
BRANCH   1  21
HETATM   21  C   UNK N   1      21.166  14.936   4.973  0.00  0.00     0.019 C 
BRANCH  21  22
HETATM   22  C   UNK N   1      21.352  15.887   6.138  0.00  0.00     0.113 C 
BRANCH  22  23
HETATM   23  N   UNK N   1      20.840  15.292   7.364  0.00  0.00    -0.418 N 
HETATM   24  H   UNK N   1      20.348  15.783   8.110  0.00  0.00     0.153 HD
BRANCH  23  25
HETATM   25  C   UNK N   1      21.156  13.874   7.333  0.00  0.00     0.150 C 
BRANCH  25  26
HETATM   26  C   UNK N   1      20.735  13.229   8.643  0.00  0.00     0.168 C 
BRANCH  26  27
HETATM   27  C   UNK N   1      21.933  12.869   9.479  0.00  0.00    -0.025 A 
HETATM   28  C   UNK N   1      23.236  13.055   8.993  0.00  0.00     0.013 A 
HETATM   29  C   UNK N   1      24.338  12.723   9.787  0.00  0.00     0.040 A 
HETATM   30  C   UNK N   1      24.148  12.201  11.070  0.00  0.00     0.098 A 
HETATM   31  C   UNK N   1      22.851  12.013  11.561  0.00  0.00     0.099 A 
HETATM   32  C   UNK N   1      21.751  12.351  10.770  0.00  0.00     0.049 A 
BRANCH  30  33
HETATM   33  O   UNK N   1      25.213  11.882  11.825  0.00  0.00    -0.358 OA
HETATM   34  H   UNK N   1      25.958  12.450  11.852  0.00  0.00     0.217 HD
ENDBRANCH  30  33
BRANCH  31  35
HETATM   35  O   UNK N   1      22.655  11.508  12.792  0.00  0.00    -0.358 OA
HETATM   36  H   UNK N   1      23.097  10.726  13.058  0.00  0.00     0.217 HD
ENDBRANCH  31  35
ENDBRANCH  26  27
BRANCH  26  37
HETATM   37  O   UNK N   1      19.873  14.094   9.321  0.00  0.00    -0.389 OA
HETATM   38  H   UNK N   1      19.541  13.863  10.202  0.00  0.00     0.210 HD
ENDBRANCH  26  37
ENDBRANCH  25  26
ENDBRANCH  23  25
ENDBRANCH  22  23
ENDBRANCH  21  22
ENDBRANCH   1  21
TORSDOF 19
ENDMDL
MODEL 2
REMARK VINA RESULT:      -6.2     11.117     16.225
REMARK  19 active torsions:
REMARK  status: ('A' for Active; 'I' for Inactive)
REMARK    1  A    between atoms: C_2  and  C_1 
REMARK    2  A    between atoms: C_3  and  C_1 
REMARK    3  A    between atoms: C_4  and  C_2 
REMARK    4  A    between atoms: C_9  and  C_3 
REMARK    5  A    between atoms: C_10  and  C_4 
REMARK    6  A    between atoms: N_23  and  C_9 
REMARK    7  A    between atoms: N_24  and  C_10 
REMARK    8  A    between atoms: C_21  and  C_13 
REMARK    9  A    between atoms: N_23  and  C_13 
REMARK   10  A    between atoms: C_22  and  C_14 
REMARK   11  A    between atoms: N_24  and  C_14 
REMARK   12  A    between atoms: C_21  and  C_15 
REMARK   13  A    between atoms: C_22  and  C_16 
REMARK   14  A    between atoms: O_25  and  C_17 
REMARK   15  A    between atoms: O_26  and  C_18 
REMARK   16  A    between atoms: O_27  and  C_19 
REMARK   17  A    between atoms: O_28  and  C_20 
REMARK   18  A    between atoms: O_29  and  C_21 
REMARK   19  A    between atoms: O_30  and  C_22 
ROOT
HETATM    1  C   UNK N   1      34.745  15.122  11.549  0.00  0.00     0.002 C 
ENDROOT
BRANCH   1   2
HETATM    2  C   UNK N   1      36.164  14.631  11.805  0.00  0.00     0.002 C 
BRANCH   2   3
HETATM    3  C   UNK N   1      36.314  13.179  11.391  0.00  0.00     0.019 C 
BRANCH   3   4
HETATM    4  C   UNK N   1      37.510  12.562  12.091  0.00  0.00     0.113 C 
BRANCH   4   5
HETATM    5  N   UNK N   1      37.072  11.677  13.158  0.00  0.00    -0.418 N 
HETATM    6  H   UNK N   1      37.022  10.659  13.113  0.00  0.00     0.153 HD
BRANCH   5   7
HETATM    7  C   UNK N   1      36.716  12.502  14.299  0.00  0.00     0.150 C 
BRANCH   7   8
HETATM    8  C   UNK N   1      35.412  12.004  14.902  0.00  0.00     0.168 C 
BRANCH   8   9
HETATM    9  C   UNK N   1      35.365  12.272  16.383  0.00  0.00    -0.025 A 
HETATM   10  C   UNK N   1      35.393  11.219  17.309  0.00  0.00     0.013 A 
HETATM   11  C   UNK N   1      35.357  11.486  18.681  0.00  0.00     0.040 A 
HETATM   12  C   UNK N   1      35.290  12.805  19.137  0.00  0.00     0.098 A 
HETATM   13  C   UNK N   1      35.262  13.862  18.219  0.00  0.00     0.099 A 
HETATM   14  C   UNK N   1      35.305  13.593  16.850  0.00  0.00     0.049 A 
BRANCH  12  15
HETATM   15  O   UNK N   1      35.254  13.052  20.458  0.00  0.00    -0.358 OA
HETATM   16  H   UNK N   1      34.788  12.477  21.033  0.00  0.00     0.217 HD
ENDBRANCH  12  15
BRANCH  13  17
HETATM   17  O   UNK N   1      35.194  15.134  18.646  0.00  0.00    -0.358 OA
HETATM   18  H   UNK N   1      35.979  15.608  18.843  0.00  0.00     0.217 HD
ENDBRANCH  13  17
ENDBRANCH   8   9
BRANCH   8  19
HETATM   19  O   UNK N   1      34.341  12.603  14.235  0.00  0.00    -0.389 OA
HETATM   20  H   UNK N   1      33.430  12.332  14.430  0.00  0.00     0.210 HD
ENDBRANCH   8  19
ENDBRANCH   7   8
ENDBRANCH   5   7
ENDBRANCH   4   5
ENDBRANCH   3   4
ENDBRANCH   2   3
ENDBRANCH   1   2
BRANCH   1  21
HETATM   21  C   UNK N   1      34.482  15.254  10.059  0.00  0.00     0.019 C 
BRANCH  21  22
HETATM   22  C   UNK N   1      34.674  16.693   9.624  0.00  0.00     0.113 C 
BRANCH  22  23
HETATM   23  N   UNK N   1      34.349  16.843   8.214  0.00  0.00    -0.418 N 
HETATM   24  H   UNK N   1      34.849  17.422   7.540  0.00  0.00     0.153 HD
BRANCH  23  25
HETATM   25  C   UNK N   1      33.183  16.020   7.938  0.00  0.00     0.150 C 
BRANCH  25  26
HETATM   26  C   UNK N   1      32.312  16.701   6.896  0.00  0.00     0.168 C 
BRANCH  26  27
HETATM   27  C   UNK N   1      31.011  17.162   7.495  0.00  0.00    -0.025 A 
HETATM   28  C   UNK N   1      29.797  16.980   6.816  0.00  0.00     0.013 A 
HETATM   29  C   UNK N   1      28.596  17.406   7.392  0.00  0.00     0.040 A 
HETATM   30  C   UNK N   1      28.599  18.019   8.648  0.00  0.00     0.098 A 
HETATM   31  C   UNK N   1      29.806  18.204   9.332  0.00  0.00     0.099 A 
HETATM   32  C   UNK N   1      31.004  17.772   8.758  0.00  0.00     0.049 A 
BRANCH  30  33
HETATM   33  O   UNK N   1      27.440  18.428   9.193  0.00  0.00    -0.358 OA
HETATM   34  H   UNK N   1      27.442  19.063   9.882  0.00  0.00     0.217 HD
ENDBRANCH  30  33
BRANCH  31  35
HETATM   35  O   UNK N   1      29.822  18.796  10.539  0.00  0.00    -0.358 OA
HETATM   36  H   UNK N   1      29.798  18.279  11.319  0.00  0.00     0.217 HD
ENDBRANCH  31  35
ENDBRANCH  26  27
BRANCH  26  37
HETATM   37  O   UNK N   1      33.024  17.762   6.330  0.00  0.00    -0.389 OA
HETATM   38  H   UNK N   1      33.956  17.902   6.556  0.00  0.00     0.210 HD
ENDBRANCH  26  37
ENDBRANCH  25  26
ENDBRANCH  23  25
ENDBRANCH  22  23
ENDBRANCH  21  22
ENDBRANCH   1  21
TORSDOF 19
ENDMDL
MODEL 3
REMARK VINA RESULT:      -6.2      5.352      7.793
REMARK  19 active torsions:
REMARK  status: ('A' for Active; 'I' for Inactive)
REMARK    1  A    between atoms: C_2  and  C_1 
REMARK    2  A    between atoms: C_3  and  C_1 
REMARK    3  A    between atoms: C_4  and  C_2 
REMARK    4  A    between atoms: C_9  and  C_3 
REMARK    5  A    between atoms: C_10  and  C_4 
REMARK    6  A    between atoms: N_23  and  C_9 
REMARK    7  A    between atoms: N_24  and  C_10 
REMARK    8  A    between atoms: C_21  and  C_13 
REMARK    9  A    between atoms: N_23  and  C_13 
REMARK   10  A    between atoms: C_22  and  C_14 
REMARK   11  A    between atoms: N_24  and  C_14 
REMARK   12  A    between atoms: C_21  and  C_15 
REMARK   13  A    between atoms: C_22  and  C_16 
REMARK   14  A    between atoms: O_25  and  C_17 
REMARK   15  A    between atoms: O_26  and  C_18 
REMARK   16  A    between atoms: O_27  and  C_19 
REMARK   17  A    between atoms: O_28  and  C_20 
REMARK   18  A    between atoms: O_29  and  C_21 
REMARK   19  A    between atoms: O_30  and  C_22 
ROOT
HETATM    1  C   UNK N   1      26.343  19.393   3.898  0.00  0.00     0.002 C 
ENDROOT
BRANCH   1   2
HETATM    2  C   UNK N   1      26.229  17.885   3.720  0.00  0.00     0.002 C 
BRANCH   2   3
HETATM    3  C   UNK N   1      24.813  17.415   4.002  0.00  0.00     0.019 C 
BRANCH   3   4
HETATM    4  C   UNK N   1      24.168  18.310   5.043  0.00  0.00     0.113 C 
BRANCH   4   5
HETATM    5  N   UNK N   1      23.143  17.580   5.772  0.00  0.00    -0.418 N 
HETATM    6  H   UNK N   1      23.019  17.568   6.784  0.00  0.00     0.153 HD
BRANCH   5   7
HETATM    7  C   UNK N   1      22.330  16.870   4.801  0.00  0.00     0.150 C 
BRANCH   7   8
HETATM    8  C   UNK N   1      20.971  17.542   4.683  0.00  0.00     0.168 C 
BRANCH   8   9
HETATM    9  C   UNK N   1      20.895  18.393   3.443  0.00  0.00    -0.025 A 
HETATM   10  C   UNK N   1      20.430  17.863   2.231  0.00  0.00     0.013 A 
HETATM   11  C   UNK N   1      20.358  18.669   1.091  0.00  0.00     0.040 A 
HETATM   12  C   UNK N   1      20.752  20.008   1.153  0.00  0.00     0.098 A 
HETATM   13  C   UNK N   1      21.217  20.545   2.360  0.00  0.00     0.099 A 
HETATM   14  C   UNK N   1      21.281  19.740   3.498  0.00  0.00     0.049 A 
BRANCH  12  15
HETATM   15  O   UNK N   1      20.681  20.776   0.051  0.00  0.00    -0.358 OA
HETATM   16  H   UNK N   1      20.954  21.671   0.082  0.00  0.00     0.217 HD
ENDBRANCH  12  15
BRANCH  13  17
HETATM   17  O   UNK N   1      21.602  21.830   2.431  0.00  0.00    -0.358 OA
HETATM   18  H   UNK N   1      21.520  22.390   1.683  0.00  0.00     0.217 HD
ENDBRANCH  13  17
ENDBRANCH   8   9
BRANCH   8  19
HETATM   19  O   UNK N   1      19.974  16.564   4.700  0.00  0.00    -0.389 OA
HETATM   20  H   UNK N   1      19.040  16.819   4.759  0.00  0.00     0.210 HD
ENDBRANCH   8  19
ENDBRANCH   7   8
ENDBRANCH   5   7
ENDBRANCH   4   5
ENDBRANCH   3   4
ENDBRANCH   2   3
ENDBRANCH   1   2
BRANCH   1  21
HETATM   21  C   UNK N   1      27.561  19.746   4.734  0.00  0.00     0.019 C 
BRANCH  21  22
HETATM   22  C   UNK N   1      27.963  18.562   5.591  0.00  0.00     0.113 C 
BRANCH  22  23
HETATM   23  N   UNK N   1      27.428  18.707   6.937  0.00  0.00    -0.418 N 
HETATM   24  H   UNK N   1      26.442  18.701   7.195  0.00  0.00     0.153 HD
BRANCH  23  25
HETATM   25  C   UNK N   1      28.552  18.865   7.845  0.00  0.00     0.150 C 
BRANCH  25  26
HETATM   26  C   UNK N   1      29.214  17.516   8.075  0.00  0.00     0.168 C 
BRANCH  26  27
HETATM   27  C   UNK N   1      30.658  17.543   7.650  0.00  0.00    -0.025 A 
HETATM   28  C   UNK N   1      31.656  18.021   8.512  0.00  0.00     0.013 A 
HETATM   29  C   UNK N   1      32.993  18.031   8.104  0.00  0.00     0.040 A 
HETATM   30  C   UNK N   1      33.343  17.566   6.833  0.00  0.00     0.098 A 
HETATM   31  C   UNK N   1      32.352  17.088   5.968  0.00  0.00     0.099 A 
HETATM   32  C   UNK N   1      31.018  17.072   6.380  0.00  0.00     0.049 A 
BRANCH  30  33
HETATM   33  O   UNK N   1      34.631  17.581   6.448  0.00  0.00    -0.358 OA
HETATM   34  H   UNK N   1      35.188  16.853   6.638  0.00  0.00     0.217 HD
ENDBRANCH  30  33
BRANCH  31  35
HETATM   35  O   UNK N   1      32.676  16.642   4.741  0.00  0.00    -0.358 OA
HETATM   36  H   UNK N   1      33.346  17.068   4.245  0.00  0.00     0.217 HD
ENDBRANCH  31  35
ENDBRANCH  26  27
BRANCH  26  37
HETATM   37  O   UNK N   1      29.079  17.166   9.421  0.00  0.00    -0.389 OA
HETATM   38  H   UNK N   1      29.087  17.849  10.108  0.00  0.00     0.210 HD
ENDBRANCH  26  37
ENDBRANCH  25  26
ENDBRANCH  23  25
ENDBRANCH  22  23
ENDBRANCH  21  22
ENDBRANCH   1  21
TORSDOF 19
ENDMDL
MODEL 4
REMARK VINA RESULT:      -6.2     11.495     14.279
REMARK  19 active torsions:
REMARK  status: ('A' for Active; 'I' for Inactive)
REMARK    1  A    between atoms: C_2  and  C_1 
REMARK    2  A    between atoms: C_3  and  C_1 
REMARK    3  A    between atoms: C_4  and  C_2 
REMARK    4  A    between atoms: C_9  and  C_3 
REMARK    5  A    between atoms: C_10  and  C_4 
REMARK    6  A    between atoms: N_23  and  C_9 
REMARK    7  A    between atoms: N_24  and  C_10 
REMARK    8  A    between atoms: C_21  and  C_13 
REMARK    9  A    between atoms: N_23  and  C_13 
REMARK   10  A    between atoms: C_22  and  C_14 
REMARK   11  A    between atoms: N_24  and  C_14 
REMARK   12  A    between atoms: C_21  and  C_15 
REMARK   13  A    between atoms: C_22  and  C_16 
REMARK   14  A    between atoms: O_25  and  C_17 
REMARK   15  A    between atoms: O_26  and  C_18 
REMARK   16  A    between atoms: O_27  and  C_19 
REMARK   17  A    between atoms: O_28  and  C_20 
REMARK   18  A    between atoms: O_29  and  C_21 
REMARK   19  A    between atoms: O_30  and  C_22 
ROOT
HETATM    1  C   UNK N   1      35.711  13.727  12.174  0.00  0.00     0.002 C 
ENDROOT
BRANCH   1   2
HETATM    2  C   UNK N   1      35.902  15.237  12.167  0.00  0.00     0.002 C 
BRANCH   2   3
HETATM    3  C   UNK N   1      35.217  15.861  10.964  0.00  0.00     0.019 C 
BRANCH   3   4
HETATM    4  C   UNK N   1      34.153  14.923  10.429  0.00  0.00     0.113 C 
BRANCH   4   5
HETATM    5  N   UNK N   1      33.046  15.680   9.869  0.00  0.00    -0.418 N 
HETATM    6  H   UNK N   1      32.101  15.735  10.250  0.00  0.00     0.153 HD
BRANCH   5   7
HETATM    7  C   UNK N   1      33.525  16.342   8.668  0.00  0.00     0.150 C 
BRANCH   7   8
HETATM    8  C   UNK N   1      32.542  17.427   8.256  0.00  0.00     0.168 C 
BRANCH   8   9
HETATM    9  C   UNK N   1      32.278  17.382   6.774  0.00  0.00    -0.025 A 
HETATM   10  C   UNK N   1      33.318  17.560   5.849  0.00  0.00     0.013 A 
HETATM   11  C   UNK N   1      33.058  17.507   4.477  0.00  0.00     0.040 A 
HETATM   12  C   UNK N   1      31.758  17.278   4.019  0.00  0.00     0.098 A 
HETATM   13  C   UNK N   1      30.714  17.098   4.935  0.00  0.00     0.099 A 
HETATM   14  C   UNK N   1      30.978  17.145   6.305  0.00  0.00     0.049 A 
BRANCH  12  15
HETATM   15  O   UNK N   1      31.516  17.230   2.697  0.00  0.00    -0.358 OA
HETATM   16  H   UNK N   1      31.830  16.511   2.186  0.00  0.00     0.217 HD
ENDBRANCH  12  15
BRANCH  13  17
HETATM   17  O   UNK N   1      29.460  16.881   4.506  0.00  0.00    -0.358 OA
HETATM   18  H   UNK N   1      28.732  17.248   4.969  0.00  0.00     0.217 HD
ENDBRANCH  13  17
ENDBRANCH   8   9
BRANCH   8  19
HETATM   19  O   UNK N   1      31.366  17.282   8.994  0.00  0.00    -0.389 OA
HETATM   20  H   UNK N   1      30.508  17.231   8.543  0.00  0.00     0.210 HD
ENDBRANCH   8  19
ENDBRANCH   7   8
ENDBRANCH   5   7
ENDBRANCH   4   5
ENDBRANCH   3   4
ENDBRANCH   2   3
ENDBRANCH   1   2
BRANCH   1  21
HETATM   21  C   UNK N   1      37.040  13.017  12.361  0.00  0.00     0.019 C 
BRANCH  21  22
HETATM   22  C   UNK N   1      37.004  12.174  13.620  0.00  0.00     0.113 C 
BRANCH  22  23
HETATM   23  N   UNK N   1      37.575  12.910  14.738  0.00  0.00    -0.418 N 
HETATM   24  H   UNK N   1      38.566  12.993  14.960  0.00  0.00     0.153 HD
BRANCH  23  25
HETATM   25  C   UNK N   1      36.477  13.505  15.482  0.00  0.00     0.150 C 
BRANCH  25  26
HETATM   26  C   UNK N   1      35.429  12.446  15.780  0.00  0.00     0.168 C 
BRANCH  26  27
HETATM   27  C   UNK N   1      35.476  12.028  17.225  0.00  0.00    -0.025 A 
HETATM   28  C   UNK N   1      35.875  10.734  17.591  0.00  0.00     0.013 A 
HETATM   29  C   UNK N   1      35.921  10.366  18.939  0.00  0.00     0.040 A 
HETATM   30  C   UNK N   1      35.569  11.285  19.931  0.00  0.00     0.098 A 
HETATM   31  C   UNK N   1      35.170  12.579  19.573  0.00  0.00     0.099 A 
HETATM   32  C   UNK N   1      35.131  12.947  18.226  0.00  0.00     0.049 A 
BRANCH  30  33
HETATM   33  O   UNK N   1      35.614  10.923  21.224  0.00  0.00    -0.358 OA
HETATM   34  H   UNK N   1      34.909  10.434  21.601  0.00  0.00     0.217 HD
ENDBRANCH  30  33
BRANCH  31  35
HETATM   35  O   UNK N   1      34.825  13.471  20.517  0.00  0.00    -0.358 OA
HETATM   36  H   UNK N   1      35.262  13.475  21.346  0.00  0.00     0.217 HD
ENDBRANCH  31  35
ENDBRANCH  26  27
BRANCH  26  37
HETATM   37  O   UNK N   1      34.170  12.937  15.426  0.00  0.00    -0.389 OA
HETATM   38  H   UNK N   1      33.753  13.639  15.949  0.00  0.00     0.210 HD
ENDBRANCH  26  37
ENDBRANCH  25  26
ENDBRANCH  23  25
ENDBRANCH  22  23
ENDBRANCH  21  22
ENDBRANCH   1  21
TORSDOF 19
ENDMDL
MODEL 5
REMARK VINA RESULT:      -6.2     14.437     16.353
REMARK  19 active torsions:
REMARK  status: ('A' for Active; 'I' for Inactive)
REMARK    1  A    between atoms: C_2  and  C_1 
REMARK    2  A    between atoms: C_3  and  C_1 
REMARK    3  A    between atoms: C_4  and  C_2 
REMARK    4  A    between atoms: C_9  and  C_3 
REMARK    5  A    between atoms: C_10  and  C_4 
REMARK    6  A    between atoms: N_23  and  C_9 
REMARK    7  A    between atoms: N_24  and  C_10 
REMARK    8  A    between atoms: C_21  and  C_13 
REMARK    9  A    between atoms: N_23  and  C_13 
REMARK   10  A    between atoms: C_22  and  C_14 
REMARK   11  A    between atoms: N_24  and  C_14 
REMARK   12  A    between atoms: C_21  and  C_15 
REMARK   13  A    between atoms: C_22  and  C_16 
REMARK   14  A    between atoms: O_25  and  C_17 
REMARK   15  A    between atoms: O_26  and  C_18 
REMARK   16  A    between atoms: O_27  and  C_19 
REMARK   17  A    between atoms: O_28  and  C_20 
REMARK   18  A    between atoms: O_29  and  C_21 
REMARK   19  A    between atoms: O_30  and  C_22 
ROOT
HETATM    1  C   UNK N   1      28.175  28.829  -6.696  0.00  0.00     0.002 C 
ENDROOT
BRANCH   1   2
HETATM    2  C   UNK N   1      27.714  29.471  -5.394  0.00  0.00     0.002 C 
BRANCH   2   3
HETATM    3  C   UNK N   1      26.397  28.872  -4.936  0.00  0.00     0.019 C 
BRANCH   3   4
HETATM    4  C   UNK N   1      26.340  28.842  -3.420  0.00  0.00     0.113 C 
BRANCH   4   5
HETATM    5  N   UNK N   1      25.919  27.531  -2.955  0.00  0.00    -0.418 N 
HETATM    6  H   UNK N   1      25.138  27.337  -2.329  0.00  0.00     0.153 HD
BRANCH   5   7
HETATM    7  C   UNK N   1      26.812  26.546  -3.540  0.00  0.00     0.150 C 
BRANCH   7   8
HETATM    8  C   UNK N   1      26.049  25.257  -3.804  0.00  0.00     0.168 C 
BRANCH   8   9
HETATM    9  C   UNK N   1      26.129  24.869  -5.257  0.00  0.00    -0.025 A 
HETATM   10  C   UNK N   1      25.660  25.729  -6.261  0.00  0.00     0.013 A 
HETATM   11  C   UNK N   1      25.750  25.357  -7.606  0.00  0.00     0.040 A 
HETATM   12  C   UNK N   1      26.307  24.124  -7.956  0.00  0.00     0.098 A 
HETATM   13  C   UNK N   1      26.778  23.261  -6.960  0.00  0.00     0.099 A 
HETATM   14  C   UNK N   1      26.693  23.638  -5.619  0.00  0.00     0.049 A 
BRANCH  12  15
HETATM   15  O   UNK N   1      26.388  23.774  -9.252  0.00  0.00    -0.358 OA
HETATM   16  H   UNK N   1      25.661  23.918  -9.825  0.00  0.00     0.217 HD
ENDBRANCH  12  15
BRANCH  13  17
HETATM   17  O   UNK N   1      27.312  22.072  -7.285  0.00  0.00    -0.358 OA
HETATM   18  H   UNK N   1      27.632  21.919  -8.153  0.00  0.00     0.217 HD
ENDBRANCH  13  17
ENDBRANCH   8   9
BRANCH   8  19
HETATM   19  O   UNK N   1      26.547  24.252  -2.973  0.00  0.00    -0.389 OA
HETATM   20  H   UNK N   1      27.504  24.105  -2.903  0.00  0.00     0.210 HD
ENDBRANCH   8  19
ENDBRANCH   7   8
ENDBRANCH   5   7
ENDBRANCH   4   5
ENDBRANCH   3   4
ENDBRANCH   2   3
ENDBRANCH   1   2
BRANCH   1  21
HETATM   21  C   UNK N   1      28.911  27.529  -6.425  0.00  0.00     0.019 C 
BRANCH  21  22
HETATM   22  C   UNK N   1      30.209  27.811  -5.695  0.00  0.00     0.113 C 
BRANCH  22  23
HETATM   23  N   UNK N   1      30.905  26.568  -5.402  0.00  0.00    -0.418 N 
HETATM   24  H   UNK N   1      31.913  26.453  -5.297  0.00  0.00     0.153 HD
BRANCH  23  25
HETATM   25  C   UNK N   1      29.907  25.518  -5.285  0.00  0.00     0.150 C 
BRANCH  25  26
HETATM   26  C   UNK N   1      29.973  24.902  -3.898  0.00  0.00     0.168 C 
BRANCH  26  27
HETATM   27  C   UNK N   1      30.440  23.472  -3.963  0.00  0.00    -0.025 A 
HETATM   28  C   UNK N   1      30.029  22.624  -5.002  0.00  0.00     0.013 A 
HETATM   29  C   UNK N   1      30.479  21.302  -5.051  0.00  0.00     0.040 A 
HETATM   30  C   UNK N   1      31.341  20.815  -4.063  0.00  0.00     0.098 A 
HETATM   31  C   UNK N   1      31.755  21.657  -3.023  0.00  0.00     0.099 A 
HETATM   32  C   UNK N   1      31.309  22.979  -2.980  0.00  0.00     0.049 A 
BRANCH  30  33
HETATM   33  O   UNK N   1      31.767  19.542  -4.117  0.00  0.00    -0.358 OA
HETATM   34  H   UNK N   1      32.493  19.311  -4.663  0.00  0.00     0.217 HD
ENDBRANCH  30  33
BRANCH  31  35
HETATM   35  O   UNK N   1      32.580  21.200  -2.065  0.00  0.00    -0.358 OA
HETATM   36  H   UNK N   1      32.246  20.983  -1.217  0.00  0.00     0.217 HD
ENDBRANCH  31  35
ENDBRANCH  26  27
BRANCH  26  37
HETATM   37  O   UNK N   1      30.806  25.681  -3.092  0.00  0.00    -0.389 OA
HETATM   38  H   UNK N   1      30.773  26.648  -3.145  0.00  0.00     0.210 HD
ENDBRANCH  26  37
ENDBRANCH  25  26
ENDBRANCH  23  25
ENDBRANCH  22  23
ENDBRANCH  21  22
ENDBRANCH   1  21
TORSDOF 19
ENDMDL
MODEL 6
REMARK VINA RESULT:      -6.2     14.402     17.169
REMARK  19 active torsions:
REMARK  status: ('A' for Active; 'I' for Inactive)
REMARK    1  A    between atoms: C_2  and  C_1 
REMARK    2  A    between atoms: C_3  and  C_1 
REMARK    3  A    between atoms: C_4  and  C_2 
REMARK    4  A    between atoms: C_9  and  C_3 
REMARK    5  A    between atoms: C_10  and  C_4 
REMARK    6  A    between atoms: N_23  and  C_9 
REMARK    7  A    between atoms: N_24  and  C_10 
REMARK    8  A    between atoms: C_21  and  C_13 
REMARK    9  A    between atoms: N_23  and  C_13 
REMARK   10  A    between atoms: C_22  and  C_14 
REMARK   11  A    between atoms: N_24  and  C_14 
REMARK   12  A    between atoms: C_21  and  C_15 
REMARK   13  A    between atoms: C_22  and  C_16 
REMARK   14  A    between atoms: O_25  and  C_17 
REMARK   15  A    between atoms: O_26  and  C_18 
REMARK   16  A    between atoms: O_27  and  C_19 
REMARK   17  A    between atoms: O_28  and  C_20 
REMARK   18  A    between atoms: O_29  and  C_21 
REMARK   19  A    between atoms: O_30  and  C_22 
ROOT
HETATM    1  C   UNK N   1      29.377  27.627  -6.706  0.00  0.00     0.002 C 
ENDROOT
BRANCH   1   2
HETATM    2  C   UNK N   1      28.683  26.276  -6.601  0.00  0.00     0.002 C 
BRANCH   2   3
HETATM    3  C   UNK N   1      29.463  25.340  -5.695  0.00  0.00     0.019 C 
BRANCH   3   4
HETATM    4  C   UNK N   1      29.076  23.902  -5.981  0.00  0.00     0.113 C 
BRANCH   4   5
HETATM    5  N   UNK N   1      28.886  23.172  -4.737  0.00  0.00    -0.418 N 
HETATM    6  H   UNK N   1      28.273  22.369  -4.598  0.00  0.00     0.153 HD
BRANCH   5   7
HETATM    7  C   UNK N   1      29.726  23.793  -3.727  0.00  0.00     0.150 C 
BRANCH   7   8
HETATM    8  C   UNK N   1      30.412  22.717  -2.901  0.00  0.00     0.168 C 
BRANCH   8   9
HETATM    9  C   UNK N   1      31.701  22.280  -3.547  0.00  0.00    -0.025 A 
HETATM   10  C   UNK N   1      32.410  23.139  -4.398  0.00  0.00     0.013 A 
HETATM   11  C   UNK N   1      33.609  22.721  -4.983  0.00  0.00     0.040 A 
HETATM   12  C   UNK N   1      34.105  21.441  -4.724  0.00  0.00     0.098 A 
HETATM   13  C   UNK N   1      33.403  20.576  -3.875  0.00  0.00     0.099 A 
HETATM   14  C   UNK N   1      32.210  21.000  -3.287  0.00  0.00     0.049 A 
BRANCH  12  15
HETATM   15  O   UNK N   1      35.258  21.046  -5.292  0.00  0.00    -0.358 OA
HETATM   16  H   UNK N   1      35.943  21.666  -5.450  0.00  0.00     0.217 HD
ENDBRANCH  12  15
BRANCH  13  17
HETATM   17  O   UNK N   1      33.869  19.342  -3.621  0.00  0.00    -0.358 OA
HETATM   18  H   UNK N   1      33.879  19.012  -2.743  0.00  0.00     0.217 HD
ENDBRANCH  13  17
ENDBRANCH   8   9
BRANCH   8  19
HETATM   19  O   UNK N   1      30.621  23.198  -1.607  0.00  0.00    -0.389 OA
HETATM   20  H   UNK N   1      29.871  23.325  -1.005  0.00  0.00     0.210 HD
ENDBRANCH   8  19
ENDBRANCH   7   8
ENDBRANCH   5   7
ENDBRANCH   4   5
ENDBRANCH   3   4
ENDBRANCH   2   3
ENDBRANCH   1   2
BRANCH   1  21
HETATM   21  C   UNK N   1      28.392  28.709  -7.114  0.00  0.00     0.019 C 
BRANCH  21  22
HETATM   22  C   UNK N   1      28.540  29.914  -6.208  0.00  0.00     0.113 C 
BRANCH  22  23
HETATM   23  N   UNK N   1      28.257  29.548  -4.829  0.00  0.00    -0.418 N 
HETATM   24  H   UNK N   1      28.885  29.050  -4.198  0.00  0.00     0.153 HD
BRANCH  23  25
HETATM   25  C   UNK N   1      26.920  30.020  -4.511  0.00  0.00     0.150 C 
BRANCH  25  26
HETATM   26  C   UNK N   1      26.282  29.093  -3.489  0.00  0.00     0.168 C 
BRANCH  26  27
HETATM   27  C   UNK N   1      25.997  27.742  -4.087  0.00  0.00    -0.025 A 
HETATM   28  C   UNK N   1      25.360  27.621  -5.331  0.00  0.00     0.013 A 
HETATM   29  C   UNK N   1      25.111  26.358  -5.876  0.00  0.00     0.040 A 
HETATM   30  C   UNK N   1      25.495  25.206  -5.182  0.00  0.00     0.098 A 
HETATM   31  C   UNK N   1      26.131  25.319  -3.940  0.00  0.00     0.099 A 
HETATM   32  C   UNK N   1      26.385  26.582  -3.401  0.00  0.00     0.049 A 
BRANCH  30  33
HETATM   33  O   UNK N   1      25.250  23.996  -5.712  0.00  0.00    -0.358 OA
HETATM   34  H   UNK N   1      24.435  23.564  -5.545  0.00  0.00     0.217 HD
ENDBRANCH  30  33
BRANCH  31  35
HETATM   35  O   UNK N   1      26.501  24.219  -3.262  0.00  0.00    -0.358 OA
HETATM   36  H   UNK N   1      26.837  24.292  -2.390  0.00  0.00     0.217 HD
ENDBRANCH  31  35
ENDBRANCH  26  27
BRANCH  26  37
HETATM   37  O   UNK N   1      27.118  28.999  -2.374  0.00  0.00    -0.389 OA
HETATM   38  H   UNK N   1      26.937  28.346  -1.681  0.00  0.00     0.210 HD
ENDBRANCH  26  37
ENDBRANCH  25  26
ENDBRANCH  23  25
ENDBRANCH  22  23
ENDBRANCH  21  22
ENDBRANCH   1  21
TORSDOF 19
ENDMDL
MODEL 7
REMARK VINA RESULT:      -6.1     14.142     16.384
REMARK  19 active torsions:
REMARK  status: ('A' for Active; 'I' for Inactive)
REMARK    1  A    between atoms: C_2  and  C_1 
REMARK    2  A    between atoms: C_3  and  C_1 
REMARK    3  A    between atoms: C_4  and  C_2 
REMARK    4  A    between atoms: C_9  and  C_3 
REMARK    5  A    between atoms: C_10  and  C_4 
REMARK    6  A    between atoms: N_23  and  C_9 
REMARK    7  A    between atoms: N_24  and  C_10 
REMARK    8  A    between atoms: C_21  and  C_13 
REMARK    9  A    between atoms: N_23  and  C_13 
REMARK   10  A    between atoms: C_22  and  C_14 
REMARK   11  A    between atoms: N_24  and  C_14 
REMARK   12  A    between atoms: C_21  and  C_15 
REMARK   13  A    between atoms: C_22  and  C_16 
REMARK   14  A    between atoms: O_25  and  C_17 
REMARK   15  A    between atoms: O_26  and  C_18 
REMARK   16  A    between atoms: O_27  and  C_19 
REMARK   17  A    between atoms: O_28  and  C_20 
REMARK   18  A    between atoms: O_29  and  C_21 
REMARK   19  A    between atoms: O_30  and  C_22 
ROOT
HETATM    1  C   UNK N   1      31.084  27.230  -3.383  0.00  0.00     0.002 C 
ENDROOT
BRANCH   1   2
HETATM    2  C   UNK N   1      30.857  28.515  -2.599  0.00  0.00     0.002 C 
BRANCH   2   3
HETATM    3  C   UNK N   1      29.578  29.200  -3.046  0.00  0.00     0.019 C 
BRANCH   3   4
HETATM    4  C   UNK N   1      28.749  29.589  -1.837  0.00  0.00     0.113 C 
BRANCH   4   5
HETATM    5  N   UNK N   1      27.347  29.278  -2.063  0.00  0.00    -0.418 N 
HETATM    6  H   UNK N   1      26.697  28.898  -1.375  0.00  0.00     0.153 HD
BRANCH   5   7
HETATM    7  C   UNK N   1      27.038  29.604  -3.444  0.00  0.00     0.150 C 
BRANCH   7   8
HETATM    8  C   UNK N   1      25.892  28.733  -3.932  0.00  0.00     0.168 C 
BRANCH   8   9
HETATM    9  C   UNK N   1      26.270  27.995  -5.189  0.00  0.00    -0.025 A 
HETATM   10  C   UNK N   1      27.240  28.508  -6.063  0.00  0.00     0.013 A 
HETATM   11  C   UNK N   1      27.586  27.807  -7.222  0.00  0.00     0.040 A 
HETATM   12  C   UNK N   1      26.963  26.591  -7.517  0.00  0.00     0.098 A 
HETATM   13  C   UNK N   1      25.994  26.072  -6.650  0.00  0.00     0.099 A 
HETATM   14  C   UNK N   1      25.656  26.771  -5.490  0.00  0.00     0.049 A 
BRANCH  12  15
HETATM   15  O   UNK N   1      27.301  25.924  -8.635  0.00  0.00    -0.358 OA
HETATM   16  H   UNK N   1      27.528  25.016  -8.592  0.00  0.00     0.217 HD
ENDBRANCH  12  15
BRANCH  13  17
HETATM   17  O   UNK N   1      25.387  24.906  -6.925  0.00  0.00    -0.358 OA
HETATM   18  H   UNK N   1      25.705  24.360  -7.617  0.00  0.00     0.217 HD
ENDBRANCH  13  17
ENDBRANCH   8   9
BRANCH   8  19
HETATM   19  O   UNK N   1      25.519  27.855  -2.912  0.00  0.00    -0.389 OA
HETATM   20  H   UNK N   1      24.639  27.446  -2.915  0.00  0.00     0.210 HD
ENDBRANCH   8  19
ENDBRANCH   7   8
ENDBRANCH   5   7
ENDBRANCH   4   5
ENDBRANCH   3   4
ENDBRANCH   2   3
ENDBRANCH   1   2
BRANCH   1  21
HETATM   21  C   UNK N   1      29.998  27.037  -4.427  0.00  0.00     0.019 C 
BRANCH  21  22
HETATM   22  C   UNK N   1      29.709  25.560  -4.606  0.00  0.00     0.113 C 
BRANCH  22  23
HETATM   23  N   UNK N   1      30.058  24.825  -3.400  0.00  0.00    -0.418 N 
HETATM   24  H   UNK N   1      30.821  25.048  -2.761  0.00  0.00     0.153 HD
BRANCH  23  25
HETATM   25  C   UNK N   1      29.127  23.717  -3.271  0.00  0.00     0.150 C 
BRANCH  25  26
HETATM   26  C   UNK N   1      29.781  22.590  -2.490  0.00  0.00     0.168 C 
BRANCH  26  27
HETATM   27  C   UNK N   1      30.718  21.798  -3.363  0.00  0.00    -0.025 A 
HETATM   28  C   UNK N   1      30.286  21.260  -4.584  0.00  0.00     0.013 A 
HETATM   29  C   UNK N   1      31.172  20.535  -5.387  0.00  0.00     0.040 A 
HETATM   30  C   UNK N   1      32.494  20.340  -4.975  0.00  0.00     0.098 A 
HETATM   31  C   UNK N   1      32.932  20.875  -3.758  0.00  0.00     0.099 A 
HETATM   32  C   UNK N   1      32.047  21.604  -2.961  0.00  0.00     0.049 A 
BRANCH  30  33
HETATM   33  O   UNK N   1      33.338  19.640  -5.752  0.00  0.00    -0.358 OA
HETATM   34  H   UNK N   1      33.820  20.070  -6.431  0.00  0.00     0.217 HD
ENDBRANCH  30  33
BRANCH  31  35
HETATM   35  O   UNK N   1      34.199  20.691  -3.349  0.00  0.00    -0.358 OA
HETATM   36  H   UNK N   1      34.614  19.857  -3.455  0.00  0.00     0.217 HD
ENDBRANCH  31  35
ENDBRANCH  26  27
BRANCH  26  37
HETATM   37  O   UNK N   1      30.439  23.125  -1.380  0.00  0.00    -0.389 OA
HETATM   38  H   UNK N   1      31.366  22.901  -1.205  0.00  0.00     0.210 HD
ENDBRANCH  26  37
ENDBRANCH  25  26
ENDBRANCH  23  25
ENDBRANCH  22  23
ENDBRANCH  21  22
ENDBRANCH   1  21
TORSDOF 19
ENDMDL
MODEL 8
REMARK VINA RESULT:      -6.1     14.833     16.609
REMARK  19 active torsions:
REMARK  status: ('A' for Active; 'I' for Inactive)
REMARK    1  A    between atoms: C_2  and  C_1 
REMARK    2  A    between atoms: C_3  and  C_1 
REMARK    3  A    between atoms: C_4  and  C_2 
REMARK    4  A    between atoms: C_9  and  C_3 
REMARK    5  A    between atoms: C_10  and  C_4 
REMARK    6  A    between atoms: N_23  and  C_9 
REMARK    7  A    between atoms: N_24  and  C_10 
REMARK    8  A    between atoms: C_21  and  C_13 
REMARK    9  A    between atoms: N_23  and  C_13 
REMARK   10  A    between atoms: C_22  and  C_14 
REMARK   11  A    between atoms: N_24  and  C_14 
REMARK   12  A    between atoms: C_21  and  C_15 
REMARK   13  A    between atoms: C_22  and  C_16 
REMARK   14  A    between atoms: O_25  and  C_17 
REMARK   15  A    between atoms: O_26  and  C_18 
REMARK   16  A    between atoms: O_27  and  C_19 
REMARK   17  A    between atoms: O_28  and  C_20 
REMARK   18  A    between atoms: O_29  and  C_21 
REMARK   19  A    between atoms: O_30  and  C_22 
ROOT
HETATM    1  C   UNK N   1      28.656  28.877  -7.209  0.00  0.00     0.002 C 
ENDROOT
BRANCH   1   2
HETATM    2  C   UNK N   1      28.885  28.448  -8.651  0.00  0.00     0.002 C 
BRANCH   2   3
HETATM    3  C   UNK N   1      28.717  26.946  -8.800  0.00  0.00     0.019 C 
BRANCH   3   4
HETATM    4  C   UNK N   1      27.631  26.644  -9.813  0.00  0.00     0.113 C 
BRANCH   4   5
HETATM    5  N   UNK N   1      27.151  25.281  -9.650  0.00  0.00    -0.418 N 
HETATM    6  H   UNK N   1      27.628  24.435  -9.961  0.00  0.00     0.153 HD
BRANCH   5   7
HETATM    7  C   UNK N   1      25.872  25.341  -8.966  0.00  0.00     0.150 C 
BRANCH   7   8
HETATM    8  C   UNK N   1      25.921  24.479  -7.714  0.00  0.00     0.168 C 
BRANCH   8   9
HETATM    9  C   UNK N   1      25.864  25.328  -6.471  0.00  0.00    -0.025 A 
HETATM   10  C   UNK N   1      25.403  26.652  -6.521  0.00  0.00     0.013 A 
HETATM   11  C   UNK N   1      25.348  27.423  -5.357  0.00  0.00     0.040 A 
HETATM   12  C   UNK N   1      25.755  26.879  -4.136  0.00  0.00     0.098 A 
HETATM   13  C   UNK N   1      26.216  25.558  -4.077  0.00  0.00     0.099 A 
HETATM   14  C   UNK N   1      26.263  24.788  -5.240  0.00  0.00     0.049 A 
BRANCH  12  15
HETATM   15  O   UNK N   1      25.701  27.629  -3.021  0.00  0.00    -0.358 OA
HETATM   16  H   UNK N   1      24.991  28.227  -2.889  0.00  0.00     0.217 HD
ENDBRANCH  12  15
BRANCH  13  17
HETATM   17  O   UNK N   1      26.613  25.026  -2.909  0.00  0.00    -0.358 OA
HETATM   18  H   UNK N   1      27.388  24.499  -2.870  0.00  0.00     0.217 HD
ENDBRANCH  13  17
ENDBRANCH   8   9
BRANCH   8  19
HETATM   19  O   UNK N   1      24.876  23.553  -7.755  0.00  0.00    -0.389 OA
HETATM   20  H   UNK N   1      24.488  23.291  -8.605  0.00  0.00     0.210 HD
ENDBRANCH   8  19
ENDBRANCH   7   8
ENDBRANCH   5   7
ENDBRANCH   4   5
ENDBRANCH   3   4
ENDBRANCH   2   3
ENDBRANCH   1   2
BRANCH   1  21
HETATM   21  C   UNK N   1      28.954  27.735  -6.253  0.00  0.00     0.019 C 
BRANCH  21  22
HETATM   22  C   UNK N   1      30.321  27.927  -5.627  0.00  0.00     0.113 C 
BRANCH  22  23
HETATM   23  N   UNK N   1      30.939  26.638  -5.355  0.00  0.00    -0.418 N 
HETATM   24  H   UNK N   1      31.939  26.455  -5.279  0.00  0.00     0.153 HD
BRANCH  23  25
HETATM   25  C   UNK N   1      29.875  25.658  -5.213  0.00  0.00     0.150 C 
BRANCH  25  26
HETATM   26  C   UNK N   1      29.940  25.031  -3.831  0.00  0.00     0.168 C 
BRANCH  26  27
HETATM   27  C   UNK N   1      30.352  23.586  -3.911  0.00  0.00    -0.025 A 
HETATM   28  C   UNK N   1      29.868  22.751  -4.929  0.00  0.00     0.013 A 
HETATM   29  C   UNK N   1      30.268  21.413  -4.994  0.00  0.00     0.040 A 
HETATM   30  C   UNK N   1      31.153  20.898  -4.043  0.00  0.00     0.098 A 
HETATM   31  C   UNK N   1      31.641  21.725  -3.024  0.00  0.00     0.099 A 
HETATM   32  C   UNK N   1      31.245  23.063  -2.965  0.00  0.00     0.049 A 
BRANCH  30  33
HETATM   33  O   UNK N   1      31.531  19.611  -4.111  0.00  0.00    -0.358 OA
HETATM   34  H   UNK N   1      32.135  19.331  -4.771  0.00  0.00     0.217 HD
ENDBRANCH  30  33
BRANCH  31  35
HETATM   35  O   UNK N   1      32.490  21.241  -2.101  0.00  0.00    -0.358 OA
HETATM   36  H   UNK N   1      32.217  20.559  -1.520  0.00  0.00     0.217 HD
ENDBRANCH  31  35
ENDBRANCH  26  27
BRANCH  26  37
HETATM   37  O   UNK N   1      30.814  25.774  -3.033  0.00  0.00    -0.389 OA
HETATM   38  H   UNK N   1      31.592  26.198  -3.425  0.00  0.00     0.210 HD
ENDBRANCH  26  37
ENDBRANCH  25  26
ENDBRANCH  23  25
ENDBRANCH  22  23
ENDBRANCH  21  22
ENDBRANCH   1  21
TORSDOF 19
ENDMDL
MODEL 9
REMARK VINA RESULT:      -6.1     10.860     13.277
REMARK  19 active torsions:
REMARK  status: ('A' for Active; 'I' for Inactive)
REMARK    1  A    between atoms: C_2  and  C_1 
REMARK    2  A    between atoms: C_3  and  C_1 
REMARK    3  A    between atoms: C_4  and  C_2 
REMARK    4  A    between atoms: C_9  and  C_3 
REMARK    5  A    between atoms: C_10  and  C_4 
REMARK    6  A    between atoms: N_23  and  C_9 
REMARK    7  A    between atoms: N_24  and  C_10 
REMARK    8  A    between atoms: C_21  and  C_13 
REMARK    9  A    between atoms: N_23  and  C_13 
REMARK   10  A    between atoms: C_22  and  C_14 
REMARK   11  A    between atoms: N_24  and  C_14 
REMARK   12  A    between atoms: C_21  and  C_15 
REMARK   13  A    between atoms: C_22  and  C_16 
REMARK   14  A    between atoms: O_25  and  C_17 
REMARK   15  A    between atoms: O_26  and  C_18 
REMARK   16  A    between atoms: O_27  and  C_19 
REMARK   17  A    between atoms: O_28  and  C_20 
REMARK   18  A    between atoms: O_29  and  C_21 
REMARK   19  A    between atoms: O_30  and  C_22 
ROOT
HETATM    1  C   UNK N   1      34.548  15.345  10.290  0.00  0.00     0.002 C 
ENDROOT
BRANCH   1   2
HETATM    2  C   UNK N   1      35.109  14.942   8.933  0.00  0.00     0.002 C 
BRANCH   2   3
HETATM    3  C   UNK N   1      34.078  15.154   7.840  0.00  0.00     0.019 C 
BRANCH   3   4
HETATM    4  C   UNK N   1      34.334  16.471   7.133  0.00  0.00     0.113 C 
BRANCH   4   5
HETATM    5  N   UNK N   1      33.720  16.467   5.815  0.00  0.00    -0.418 N 
HETATM    6  H   UNK N   1      33.934  15.822   5.055  0.00  0.00     0.153 HD
BRANCH   5   7
HETATM    7  C   UNK N   1      32.749  17.546   5.776  0.00  0.00     0.150 C 
BRANCH   7   8
HETATM    8  C   UNK N   1      31.387  16.995   5.382  0.00  0.00     0.168 C 
BRANCH   8   9
HETATM    9  C   UNK N   1      30.355  17.303   6.435  0.00  0.00    -0.025 A 
HETATM   10  C   UNK N   1      29.079  17.765   6.081  0.00  0.00     0.013 A 
HETATM   11  C   UNK N   1      28.129  18.039   7.069  0.00  0.00     0.040 A 
HETATM   12  C   UNK N   1      28.448  17.855   8.417  0.00  0.00     0.098 A 
HETATM   13  C   UNK N   1      29.720  17.394   8.779  0.00  0.00     0.099 A 
HETATM   14  C   UNK N   1      30.664  17.115   7.789  0.00  0.00     0.049 A 
BRANCH  12  15
HETATM   15  O   UNK N   1      27.529  18.122   9.362  0.00  0.00    -0.358 OA
HETATM   16  H   UNK N   1      26.654  17.800   9.273  0.00  0.00     0.217 HD
ENDBRANCH  12  15
BRANCH  13  17
HETATM   17  O   UNK N   1      30.039  17.217  10.072  0.00  0.00    -0.358 OA
HETATM   18  H   UNK N   1      30.094  16.352  10.430  0.00  0.00     0.217 HD
ENDBRANCH  13  17
ENDBRANCH   8   9
BRANCH   8  19
HETATM   19  O   UNK N   1      31.027  17.514   4.138  0.00  0.00    -0.389 OA
HETATM   20  H   UNK N   1      30.671  16.930   3.448  0.00  0.00     0.210 HD
ENDBRANCH   8  19
ENDBRANCH   7   8
ENDBRANCH   5   7
ENDBRANCH   4   5
ENDBRANCH   3   4
ENDBRANCH   2   3
ENDBRANCH   1   2
BRANCH   1  21
HETATM   21  C   UNK N   1      35.025  14.395  11.374  0.00  0.00     0.019 C 
BRANCH  21  22
HETATM   22  C   UNK N   1      35.920  15.129  12.351  0.00  0.00     0.113 C 
BRANCH  22  23
HETATM   23  N   UNK N   1      36.680  14.182  13.153  0.00  0.00    -0.418 N 
HETATM   24  H   UNK N   1      37.656  13.923  13.013  0.00  0.00     0.153 HD
BRANCH  23  25
HETATM   25  C   UNK N   1      35.796  13.668  14.186  0.00  0.00     0.150 C 
BRANCH  25  26
HETATM   26  C   UNK N   1      36.212  14.227  15.537  0.00  0.00     0.168 C 
BRANCH  26  27
HETATM   27  C   UNK N   1      35.855  13.276  16.648  0.00  0.00    -0.025 A 
HETATM   28  C   UNK N   1      35.894  11.888  16.452  0.00  0.00     0.013 A 
HETATM   29  C   UNK N   1      35.568  11.019  17.497  0.00  0.00     0.040 A 
HETATM   30  C   UNK N   1      35.199  11.529  18.745  0.00  0.00     0.098 A 
HETATM   31  C   UNK N   1      35.159  12.914  18.949  0.00  0.00     0.099 A 
HETATM   32  C   UNK N   1      35.492  13.780  17.905  0.00  0.00     0.049 A 
BRANCH  30  33
HETATM   33  O   UNK N   1      34.886  10.687  19.744  0.00  0.00    -0.358 OA
HETATM   34  H   UNK N   1      34.147  10.861  20.293  0.00  0.00     0.217 HD
ENDBRANCH  30  33
BRANCH  31  35
HETATM   35  O   UNK N   1      34.803  13.417  20.143  0.00  0.00    -0.358 OA
HETATM   36  H   UNK N   1      34.707  14.342  20.257  0.00  0.00     0.217 HD
ENDBRANCH  31  35
ENDBRANCH  26  27
BRANCH  26  37
HETATM   37  O   UNK N   1      37.581  14.504  15.514  0.00  0.00    -0.389 OA
HETATM   38  H   UNK N   1      38.157  14.070  14.867  0.00  0.00     0.210 HD
ENDBRANCH  26  37
ENDBRANCH  25  26
ENDBRANCH  23  25
ENDBRANCH  22  23
ENDBRANCH  21  22
ENDBRANCH   1  21
TORSDOF 19
ENDMDL
