REMARK  4 active torsions:
REMARK  status: ('A' for Active; 'I' for Inactive)
REMARK    1  A    between atoms: C_18  and  C_10 
REMARK    2  A    between atoms: O_24  and  C_10 
REMARK    3  A    between atoms: C_17  and  O_26 
REMARK    4  A    between atoms: C_19  and  C_18 
ROOT
HETATM    1  C   UNK N   1      -2.233   2.824   1.867  0.00  0.00     0.011 C 
HETATM    2  C   UNK N   1       2.544   1.798   1.853  0.00  0.00     0.025 C 
HETATM    3  C   UNK N   1      -0.664  -0.306  -1.584  0.00  0.00     0.016 C 
HETATM    4  C   UNK N   1       5.910   0.987   1.164  0.00  0.00     0.052 A 
HETATM    5  C   UNK N   1       4.611   0.668   1.206  0.00  0.00    -0.008 A 
HETATM    6  C   UNK N   1      -0.110   2.702   0.475  0.00  0.00     0.011 C 
HETATM    7  C   UNK N   1       5.327   3.224   0.134  0.00  0.00     0.061 A 
HETATM    8  C   UNK N   1       2.319   3.211  -1.579  0.00  0.00     0.047 C 
HETATM    9  C   UNK N   1       0.833  -0.408   0.444  0.00  0.00     0.042 C 
HETATM   10  C   UNK N   1      -1.565   2.243   0.631  0.00  0.00    -0.006 C 
HETATM   11  C   UNK N   1       6.338   2.270   0.603  0.00  0.00     0.172 A 
HETATM   12  C   UNK N   1       1.762   1.805  -1.267  0.00  0.00     0.001 C 
HETATM   13  C   UNK N   1       0.315   1.824  -0.693  0.00  0.00    -0.001 C 
HETATM   14  C   UNK N   1       4.017   2.923   0.178  0.00  0.00    -0.030 A 
HETATM   15  C   UNK N   1       3.027   3.895  -0.403  0.00  0.00     0.200 C 
HETATM   16  C   UNK N   1       2.152  -0.508  -0.315  0.00  0.00     0.124 C 
HETATM   17  C   UNK N   1      -1.396   0.722   0.687  0.00  0.00     0.070 C 
HETATM   18  C   UNK N   1       2.797   0.890  -0.538  0.00  0.00     0.035 C 
HETATM   19  C   UNK N   1       3.496   1.570   0.688  0.00  0.00     0.006 A 
HETATM   20  C   UNK N   1      -0.229   0.425  -0.309  0.00  0.00    -0.027 C 
HETATM   21  F   UNK N   1       2.128   4.303   0.563  0.00  0.00    -0.245 F 
HETATM   22  O   UNK N   1       7.524   2.536   0.508  0.00  0.00    -0.289 OA
ENDROOT
BRANCH  17  23
HETATM   23  C   UNK N   1      -2.633  -0.136   0.499  0.00  0.00     0.155 C 
HETATM   24  O   UNK N   1      -2.539  -1.349   0.627  0.00  0.00    -0.295 OA
BRANCH  23  25
HETATM   25  C   UNK N   1      -3.955   0.473   0.127  0.00  0.00     0.242 C 
BRANCH  25  26
HETATM   26  O   UNK N   1      -4.919  -0.514  -0.090  0.00  0.00    -0.394 OA
HETATM   27  H   UNK N   1      -5.848  -0.278  -0.240  0.00  0.00     0.209 HD
ENDBRANCH  25  26
ENDBRANCH  23  25
ENDBRANCH  17  23
BRANCH  16  28
HETATM   28  O   UNK N   1       3.010  -1.382   0.352  0.00  0.00    -0.395 OA
HETATM   29  H   UNK N   1       2.782  -2.203   0.816  0.00  0.00     0.210 HD
ENDBRANCH  16  28
TORSDOF 4
