MODEL 1
REMARK VINA RESULT:      -6.1      0.000      0.000
REMARK  7 active torsions:
REMARK  status: ('A' for Active; 'I' for Inactive)
REMARK    1  A    between atoms: C_13  and  C_9 
REMARK    2  A    between atoms: N_16  and  C_9 
REMARK    3  A    between atoms: C_13  and  C_10 
REMARK    4  A    between atoms: O_18  and  C_10 
REMARK    5  A    between atoms: N_16  and  C_11 
REMARK    6  A    between atoms: O_17  and  C_13 
REMARK    7  A    between atoms: O_18  and  C_15 
ROOT
HETATM    1  C   UNK N   1      29.719  17.901   9.102  0.00  0.00     0.209 C 
ENDROOT
BRANCH   1   2
HETATM    2  C   UNK N   1      28.313  17.750   8.514  0.00  0.00     0.159 C 
BRANCH   2   3
HETATM    3  C   UNK N   1      28.102  18.488   7.190  0.00  0.00     0.147 C 
BRANCH   3   4
HETATM    4  N   UNK N   1      27.209  19.625   7.354  0.00  0.00    -0.415 N 
HETATM    5  H   UNK N   1      26.434  19.697   8.014  0.00  0.00     0.153 HD
BRANCH   4   6
HETATM    6  C   UNK N   1      27.628  20.640   6.403  0.00  0.00     0.068 C 
HETATM    7  C   UNK N   1      27.838  20.001   5.045  0.00  0.00     0.031 C 
HETATM    8  C   UNK N   1      26.555  21.704   6.294  0.00  0.00     0.031 C 
ENDBRANCH   4   6
ENDBRANCH   3   4
ENDBRANCH   2   3
BRANCH   2   9
HETATM    9  O   UNK N   1      27.369  18.174   9.449  0.00  0.00    -0.392 OA
HETATM   10  H   UNK N   1      27.357  17.851  10.364  0.00  0.00     0.210 HD
ENDBRANCH   2   9
ENDBRANCH   1   2
BRANCH   1  11
HETATM   11  O   UNK N   1      30.577  16.957   8.584  0.00  0.00    -0.348 OA
BRANCH  11  12
HETATM   12  C   UNK N   1      31.706  17.194   7.875  0.00  0.00     0.079 A 
HETATM   13  C   UNK N   1      32.888  17.456   8.586  0.00  0.00     0.037 A 
HETATM   14  C   UNK N   1      34.093  17.710   7.908  0.00  0.00     0.003 A 
HETATM   15  C   UNK N   1      34.129  17.704   6.507  0.00  0.00     0.008 A 
HETATM   16  C   UNK N   1      32.951  17.442   5.812  0.00  0.00    -0.042 A 
HETATM   17  C   UNK N   1      32.775  17.391   4.334  0.00  0.00     0.066 A 
HETATM   18  C   UNK N   1      31.772  17.194   6.466  0.00  0.00     0.004 A 
HETATM   19  C   UNK N   1      31.293  17.070   4.267  0.00  0.00    -0.021 A 
HETATM   20  C   UNK N   1      30.741  16.962   5.480  0.00  0.00     0.011 A 
ENDBRANCH  11  12
ENDBRANCH   1  11
TORSDOF 7
ENDMDL
MODEL 2
REMARK VINA RESULT:      -6.1      8.365     10.875
REMARK  7 active torsions:
REMARK  status: ('A' for Active; 'I' for Inactive)
REMARK    1  A    between atoms: C_13  and  C_9 
REMARK    2  A    between atoms: N_16  and  C_9 
REMARK    3  A    between atoms: C_13  and  C_10 
REMARK    4  A    between atoms: O_18  and  C_10 
REMARK    5  A    between atoms: N_16  and  C_11 
REMARK    6  A    between atoms: O_17  and  C_13 
REMARK    7  A    between atoms: O_18  and  C_15 
ROOT
HETATM    1  C   UNK N   1      35.888  13.987  13.639  0.00  0.00     0.209 C 
ENDROOT
BRANCH   1   2
HETATM    2  C   UNK N   1      35.491  14.157  12.170  0.00  0.00     0.159 C 
BRANCH   2   3
HETATM    3  C   UNK N   1      35.787  15.544  11.596  0.00  0.00     0.147 C 
BRANCH   3   4
HETATM    4  N   UNK N   1      34.612  16.112  10.951  0.00  0.00    -0.415 N 
HETATM    5  H   UNK N   1      33.688  16.226  11.369  0.00  0.00     0.153 HD
BRANCH   4   6
HETATM    6  C   UNK N   1      35.001  16.487   9.604  0.00  0.00     0.068 C 
HETATM    7  C   UNK N   1      35.235  15.236   8.781  0.00  0.00     0.031 C 
HETATM    8  C   UNK N   1      33.895  17.303   8.967  0.00  0.00     0.031 C 
ENDBRANCH   4   6
ENDBRANCH   3   4
ENDBRANCH   2   3
BRANCH   2   9
HETATM    9  O   UNK N   1      34.137  13.859  12.017  0.00  0.00    -0.392 OA
HETATM   10  H   UNK N   1      33.483  14.023  12.714  0.00  0.00     0.210 HD
ENDBRANCH   2   9
ENDBRANCH   1   2
BRANCH   1  11
HETATM   11  O   UNK N   1      34.847  13.468  14.377  0.00  0.00    -0.348 OA
BRANCH  11  12
HETATM   12  C   UNK N   1      34.888  12.374  15.174  0.00  0.00     0.079 A 
HETATM   13  C   UNK N   1      34.788  11.112  14.567  0.00  0.00     0.037 A 
HETATM   14  C   UNK N   1      34.823   9.938  15.338  0.00  0.00     0.003 A 
HETATM   15  C   UNK N   1      34.959  10.013  16.732  0.00  0.00     0.008 A 
HETATM   16  C   UNK N   1      35.057  11.270  17.323  0.00  0.00    -0.042 A 
HETATM   17  C   UNK N   1      35.205  11.567  18.776  0.00  0.00     0.066 A 
HETATM   18  C   UNK N   1      35.024  12.420  16.578  0.00  0.00     0.004 A 
HETATM   19  C   UNK N   1      35.249  13.083  18.720  0.00  0.00    -0.021 A 
HETATM   20  C   UNK N   1      35.146  13.549  17.471  0.00  0.00     0.011 A 
ENDBRANCH  11  12
ENDBRANCH   1  11
TORSDOF 7
ENDMDL
MODEL 3
REMARK VINA RESULT:      -6.1      7.315      9.970
REMARK  7 active torsions:
REMARK  status: ('A' for Active; 'I' for Inactive)
REMARK    1  A    between atoms: C_13  and  C_9 
REMARK    2  A    between atoms: N_16  and  C_9 
REMARK    3  A    between atoms: C_13  and  C_10 
REMARK    4  A    between atoms: O_18  and  C_10 
REMARK    5  A    between atoms: N_16  and  C_11 
REMARK    6  A    between atoms: O_17  and  C_13 
REMARK    7  A    between atoms: O_18  and  C_15 
ROOT
HETATM    1  C   UNK N   1      36.097  13.960  11.805  0.00  0.00     0.209 C 
ENDROOT
BRANCH   1   2
HETATM    2  C   UNK N   1      35.899  15.449  11.505  0.00  0.00     0.159 C 
BRANCH   2   3
HETATM    3  C   UNK N   1      34.713  15.754  10.588  0.00  0.00     0.147 C 
BRANCH   3   4
HETATM    4  N   UNK N   1      34.684  17.158  10.209  0.00  0.00    -0.415 N 
HETATM    5  H   UNK N   1      35.045  17.941  10.755  0.00  0.00     0.153 HD
BRANCH   4   6
HETATM    6  C   UNK N   1      34.045  17.238   8.907  0.00  0.00     0.068 C 
HETATM    7  C   UNK N   1      34.563  18.454   8.166  0.00  0.00     0.031 C 
HETATM    8  C   UNK N   1      34.368  15.991   8.109  0.00  0.00     0.031 C 
ENDBRANCH   4   6
ENDBRANCH   3   4
ENDBRANCH   2   3
BRANCH   2   9
HETATM    9  O   UNK N   1      37.070  15.972  10.956  0.00  0.00    -0.392 OA
HETATM   10  H   UNK N   1      37.948  15.606  11.148  0.00  0.00     0.210 HD
ENDBRANCH   2   9
ENDBRANCH   1   2
BRANCH   1  11
HETATM   11  O   UNK N   1      36.730  13.778  13.014  0.00  0.00    -0.348 OA
BRANCH  11  12
HETATM   12  C   UNK N   1      36.138  13.526  14.206  0.00  0.00     0.079 A 
HETATM   13  C   UNK N   1      35.192  12.490  14.266  0.00  0.00     0.037 A 
HETATM   14  C   UNK N   1      34.543  12.179  15.473  0.00  0.00     0.003 A 
HETATM   15  C   UNK N   1      34.833  12.903  16.638  0.00  0.00     0.008 A 
HETATM   16  C   UNK N   1      35.773  13.928  16.566  0.00  0.00    -0.042 A 
HETATM   17  C   UNK N   1      36.221  14.812  17.679  0.00  0.00     0.066 A 
HETATM   18  C   UNK N   1      36.411  14.238  15.393  0.00  0.00     0.004 A 
HETATM   19  C   UNK N   1      37.221  15.673  16.930  0.00  0.00    -0.021 A 
HETATM   20  C   UNK N   1      37.317  15.336  15.640  0.00  0.00     0.011 A 
ENDBRANCH  11  12
ENDBRANCH   1  11
TORSDOF 7
ENDMDL
MODEL 4
REMARK VINA RESULT:      -6.0      6.732      8.986
REMARK  7 active torsions:
REMARK  status: ('A' for Active; 'I' for Inactive)
REMARK    1  A    between atoms: C_13  and  C_9 
REMARK    2  A    between atoms: N_16  and  C_9 
REMARK    3  A    between atoms: C_13  and  C_10 
REMARK    4  A    between atoms: O_18  and  C_10 
REMARK    5  A    between atoms: N_16  and  C_11 
REMARK    6  A    between atoms: O_17  and  C_13 
REMARK    7  A    between atoms: O_18  and  C_15 
ROOT
HETATM    1  C   UNK N   1      34.938  14.840  11.415  0.00  0.00     0.209 C 
ENDROOT
BRANCH   1   2
HETATM    2  C   UNK N   1      35.612  16.178  11.098  0.00  0.00     0.159 C 
BRANCH   2   3
HETATM    3  C   UNK N   1      35.021  16.910   9.892  0.00  0.00     0.147 C 
BRANCH   3   4
HETATM    4  N   UNK N   1      33.670  16.453   9.605  0.00  0.00    -0.415 N 
HETATM    5  H   UNK N   1      33.218  15.620   9.986  0.00  0.00     0.153 HD
BRANCH   4   6
HETATM    6  C   UNK N   1      33.083  17.403   8.677  0.00  0.00     0.068 C 
HETATM    7  C   UNK N   1      34.187  18.126   7.932  0.00  0.00     0.031 C 
HETATM    8  C   UNK N   1      32.210  16.665   7.683  0.00  0.00     0.031 C 
ENDBRANCH   4   6
ENDBRANCH   3   4
ENDBRANCH   2   3
BRANCH   2   9
HETATM    9  O   UNK N   1      36.980  15.976  10.908  0.00  0.00    -0.392 OA
HETATM   10  H   UNK N   1      37.459  16.326  10.140  0.00  0.00     0.210 HD
ENDBRANCH   2   9
ENDBRANCH   1   2
BRANCH   1  11
HETATM   11  O   UNK N   1      35.822  13.970  12.015  0.00  0.00    -0.348 OA
BRANCH  11  12
HETATM   12  C   UNK N   1      35.809  13.571  13.309  0.00  0.00     0.079 A 
HETATM   13  C   UNK N   1      36.509  14.349  14.246  0.00  0.00     0.037 A 
HETATM   14  C   UNK N   1      36.536  13.988  15.604  0.00  0.00     0.003 A 
HETATM   15  C   UNK N   1      35.859  12.841  16.042  0.00  0.00     0.008 A 
HETATM   16  C   UNK N   1      35.168  12.078  15.105  0.00  0.00    -0.042 A 
HETATM   17  C   UNK N   1      34.392  10.832  15.361  0.00  0.00     0.066 A 
HETATM   18  C   UNK N   1      35.137  12.422  13.778  0.00  0.00     0.004 A 
HETATM   19  C   UNK N   1      33.919  10.535  13.950  0.00  0.00    -0.021 A 
HETATM   20  C   UNK N   1      34.348  11.443  13.068  0.00  0.00     0.011 A 
ENDBRANCH  11  12
ENDBRANCH   1  11
TORSDOF 7
ENDMDL
MODEL 5
REMARK VINA RESULT:      -5.8     10.430     13.000
REMARK  7 active torsions:
REMARK  status: ('A' for Active; 'I' for Inactive)
REMARK    1  A    between atoms: C_13  and  C_9 
REMARK    2  A    between atoms: N_16  and  C_9 
REMARK    3  A    between atoms: C_13  and  C_10 
REMARK    4  A    between atoms: O_18  and  C_10 
REMARK    5  A    between atoms: N_16  and  C_11 
REMARK    6  A    between atoms: O_17  and  C_13 
REMARK    7  A    between atoms: O_18  and  C_15 
ROOT
HETATM    1  C   UNK N   1      36.380  13.663  14.911  0.00  0.00     0.209 C 
ENDROOT
BRANCH   1   2
HETATM    2  C   UNK N   1      35.966  13.881  13.452  0.00  0.00     0.159 C 
BRANCH   2   3
HETATM    3  C   UNK N   1      35.039  12.801  12.893  0.00  0.00     0.147 C 
BRANCH   3   4
HETATM    4  N   UNK N   1      35.598  11.471  13.085  0.00  0.00    -0.415 N 
HETATM    5  H   UNK N   1      36.579  11.245  13.253  0.00  0.00     0.153 HD
BRANCH   4   6
HETATM    6  C   UNK N   1      34.500  10.527  12.993  0.00  0.00     0.068 C 
HETATM    7  C   UNK N   1      35.048   9.114  13.007  0.00  0.00     0.031 C 
HETATM    8  C   UNK N   1      33.572  10.714  14.176  0.00  0.00     0.031 C 
ENDBRANCH   4   6
ENDBRANCH   3   4
ENDBRANCH   2   3
BRANCH   2   9
HETATM    9  O   UNK N   1      37.107  13.986  12.656  0.00  0.00    -0.392 OA
HETATM   10  H   UNK N   1      37.250  14.722  12.040  0.00  0.00     0.210 HD
ENDBRANCH   2   9
ENDBRANCH   1   2
BRANCH   1  11
HETATM   11  O   UNK N   1      35.347  13.121  15.643  0.00  0.00    -0.348 OA
BRANCH  11  12
HETATM   12  C   UNK N   1      35.416  12.650  16.911  0.00  0.00     0.079 A 
HETATM   13  C   UNK N   1      35.056  13.515  17.957  0.00  0.00     0.037 A 
HETATM   14  C   UNK N   1      35.106  13.087  19.294  0.00  0.00     0.003 A 
HETATM   15  C   UNK N   1      35.519  11.783  19.602  0.00  0.00     0.008 A 
HETATM   16  C   UNK N   1      35.873  10.933  18.557  0.00  0.00    -0.042 A 
HETATM   17  C   UNK N   1      36.336   9.521  18.668  0.00  0.00     0.066 A 
HETATM   18  C   UNK N   1      35.827  11.343  17.250  0.00  0.00     0.004 A 
HETATM   19  C   UNK N   1      36.542   9.207  17.198  0.00  0.00    -0.021 A 
HETATM   20  C   UNK N   1      36.250  10.247  16.410  0.00  0.00     0.011 A 
ENDBRANCH  11  12
ENDBRANCH   1  11
TORSDOF 7
ENDMDL
MODEL 6
REMARK VINA RESULT:      -5.8      9.117     12.002
REMARK  7 active torsions:
REMARK  status: ('A' for Active; 'I' for Inactive)
REMARK    1  A    between atoms: C_13  and  C_9 
REMARK    2  A    between atoms: N_16  and  C_9 
REMARK    3  A    between atoms: C_13  and  C_10 
REMARK    4  A    between atoms: O_18  and  C_10 
REMARK    5  A    between atoms: N_16  and  C_11 
REMARK    6  A    between atoms: O_17  and  C_13 
REMARK    7  A    between atoms: O_18  and  C_15 
ROOT
HETATM    1  C   UNK N   1      35.850  13.772  13.687  0.00  0.00     0.209 C 
ENDROOT
BRANCH   1   2
HETATM    2  C   UNK N   1      35.456  13.656  12.211  0.00  0.00     0.159 C 
BRANCH   2   3
HETATM    3  C   UNK N   1      36.445  14.307  11.243  0.00  0.00     0.147 C 
BRANCH   3   4
HETATM    4  N   UNK N   1      37.713  13.593  11.221  0.00  0.00    -0.415 N 
HETATM    5  H   UNK N   1      38.406  13.567  11.970  0.00  0.00     0.153 HD
BRANCH   4   6
HETATM    6  C   UNK N   1      37.808  12.926   9.936  0.00  0.00     0.068 C 
HETATM    7  C   UNK N   1      37.234  13.824   8.858  0.00  0.00     0.031 C 
HETATM    8  C   UNK N   1      39.261  12.636   9.622  0.00  0.00     0.031 C 
ENDBRANCH   4   6
ENDBRANCH   3   4
ENDBRANCH   2   3
BRANCH   2   9
HETATM    9  O   UNK N   1      34.183  14.198  12.027  0.00  0.00    -0.392 OA
HETATM   10  H   UNK N   1      33.993  14.870  11.353  0.00  0.00     0.210 HD
ENDBRANCH   2   9
ENDBRANCH   1   2
BRANCH   1  11
HETATM   11  O   UNK N   1      34.836  13.330  14.507  0.00  0.00    -0.348 OA
BRANCH  11  12
HETATM   12  C   UNK N   1      34.892  12.289  15.372  0.00  0.00     0.079 A 
HETATM   13  C   UNK N   1      34.792  10.990  14.848  0.00  0.00     0.037 A 
HETATM   14  C   UNK N   1      34.842   9.868  15.692  0.00  0.00     0.003 A 
HETATM   15  C   UNK N   1      34.994  10.033  17.076  0.00  0.00     0.008 A 
HETATM   16  C   UNK N   1      35.093  11.325  17.585  0.00  0.00    -0.042 A 
HETATM   17  C   UNK N   1      35.256  11.716  19.013  0.00  0.00     0.066 A 
HETATM   18  C   UNK N   1      35.045  12.425  16.768  0.00  0.00     0.004 A 
HETATM   19  C   UNK N   1      35.292  13.225  18.860  0.00  0.00    -0.021 A 
HETATM   20  C   UNK N   1      35.172  13.610  17.585  0.00  0.00     0.011 A 
ENDBRANCH  11  12
ENDBRANCH   1  11
TORSDOF 7
ENDMDL
MODEL 7
REMARK VINA RESULT:      -5.7      1.525      2.871
REMARK  7 active torsions:
REMARK  status: ('A' for Active; 'I' for Inactive)
REMARK    1  A    between atoms: C_13  and  C_9 
REMARK    2  A    between atoms: N_16  and  C_9 
REMARK    3  A    between atoms: C_13  and  C_10 
REMARK    4  A    between atoms: O_18  and  C_10 
REMARK    5  A    between atoms: N_16  and  C_11 
REMARK    6  A    between atoms: O_17  and  C_13 
REMARK    7  A    between atoms: O_18  and  C_15 
ROOT
HETATM    1  C   UNK N   1      28.579  15.985   5.947  0.00  0.00     0.209 C 
ENDROOT
BRANCH   1   2
HETATM    2  C   UNK N   1      27.120  16.450   6.002  0.00  0.00     0.159 C 
BRANCH   2   3
HETATM    3  C   UNK N   1      26.864  17.798   5.325  0.00  0.00     0.147 C 
BRANCH   3   4
HETATM    4  N   UNK N   1      27.030  18.900   6.261  0.00  0.00    -0.415 N 
HETATM    5  H   UNK N   1      27.340  18.831   7.230  0.00  0.00     0.153 HD
BRANCH   4   6
HETATM    6  C   UNK N   1      26.672  20.118   5.556  0.00  0.00     0.068 C 
HETATM    7  C   UNK N   1      27.301  21.307   6.254  0.00  0.00     0.031 C 
HETATM    8  C   UNK N   1      27.185  20.047   4.132  0.00  0.00     0.031 C 
ENDBRANCH   4   6
ENDBRANCH   3   4
ENDBRANCH   2   3
BRANCH   2   9
HETATM    9  O   UNK N   1      26.698  16.498   7.331  0.00  0.00    -0.392 OA
HETATM   10  H   UNK N   1      27.218  16.125   8.060  0.00  0.00     0.210 HD
ENDBRANCH   2   9
ENDBRANCH   1   2
BRANCH   1  11
HETATM   11  O   UNK N   1      29.435  16.995   6.324  0.00  0.00    -0.348 OA
BRANCH  11  12
HETATM   12  C   UNK N   1      30.704  17.184   5.889  0.00  0.00     0.079 A 
HETATM   13  C   UNK N   1      30.922  17.257   4.504  0.00  0.00     0.037 A 
HETATM   14  C   UNK N   1      32.215  17.451   3.989  0.00  0.00     0.003 A 
HETATM   15  C   UNK N   1      33.309  17.573   4.857  0.00  0.00     0.008 A 
HETATM   16  C   UNK N   1      33.081  17.499   6.229  0.00  0.00    -0.042 A 
HETATM   17  C   UNK N   1      34.098  17.602   7.314  0.00  0.00     0.066 A 
HETATM   18  C   UNK N   1      31.823  17.310   6.740  0.00  0.00     0.004 A 
HETATM   19  C   UNK N   1      33.195  17.440   8.522  0.00  0.00    -0.021 A 
HETATM   20  C   UNK N   1      31.913  17.276   8.181  0.00  0.00     0.011 A 
ENDBRANCH  11  12
ENDBRANCH   1  11
TORSDOF 7
ENDMDL
MODEL 8
REMARK VINA RESULT:      -5.7      2.102      3.571
REMARK  7 active torsions:
REMARK  status: ('A' for Active; 'I' for Inactive)
REMARK    1  A    between atoms: C_13  and  C_9 
REMARK    2  A    between atoms: N_16  and  C_9 
REMARK    3  A    between atoms: C_13  and  C_10 
REMARK    4  A    between atoms: O_18  and  C_10 
REMARK    5  A    between atoms: N_16  and  C_11 
REMARK    6  A    between atoms: O_17  and  C_13 
REMARK    7  A    between atoms: O_18  and  C_15 
ROOT
HETATM    1  C   UNK N   1      27.271  16.220   5.785  0.00  0.00     0.209 C 
ENDROOT
BRANCH   1   2
HETATM    2  C   UNK N   1      25.947  16.663   5.155  0.00  0.00     0.159 C 
BRANCH   2   3
HETATM    3  C   UNK N   1      25.976  18.071   4.556  0.00  0.00     0.147 C 
BRANCH   3   4
HETATM    4  N   UNK N   1      25.744  19.084   5.574  0.00  0.00    -0.415 N 
HETATM    5  H   UNK N   1      25.288  18.943   6.477  0.00  0.00     0.153 HD
BRANCH   4   6
HETATM    6  C   UNK N   1      26.282  20.333   5.067  0.00  0.00     0.068 C 
HETATM    7  C   UNK N   1      27.086  21.014   6.156  0.00  0.00     0.031 C 
HETATM    8  C   UNK N   1      27.184  20.051   3.883  0.00  0.00     0.031 C 
ENDBRANCH   4   6
ENDBRANCH   3   4
ENDBRANCH   2   3
BRANCH   2   9
HETATM    9  O   UNK N   1      24.927  16.570   6.102  0.00  0.00    -0.392 OA
HETATM   10  H   UNK N   1      25.102  16.488   7.053  0.00  0.00     0.210 HD
ENDBRANCH   2   9
ENDBRANCH   1   2
BRANCH   1  11
HETATM   11  O   UNK N   1      28.131  17.286   5.932  0.00  0.00    -0.348 OA
BRANCH  11  12
HETATM   12  C   UNK N   1      28.825  17.617   7.047  0.00  0.00     0.079 A 
HETATM   13  C   UNK N   1      28.105  18.095   8.154  0.00  0.00     0.037 A 
HETATM   14  C   UNK N   1      28.767  18.455   9.340  0.00  0.00     0.003 A 
HETATM   15  C   UNK N   1      30.161  18.341   9.434  0.00  0.00     0.008 A 
HETATM   16  C   UNK N   1      30.864  17.865   8.330  0.00  0.00    -0.042 A 
HETATM   17  C   UNK N   1      32.338  17.671   8.222  0.00  0.00     0.066 A 
HETATM   18  C   UNK N   1      30.227  17.512   7.169  0.00  0.00     0.004 A 
HETATM   19  C   UNK N   1      32.420  17.147   6.801  0.00  0.00    -0.021 A 
HETATM   20  C   UNK N   1      31.218  17.062   6.219  0.00  0.00     0.011 A 
ENDBRANCH  11  12
ENDBRANCH   1  11
TORSDOF 7
ENDMDL
MODEL 9
REMARK VINA RESULT:      -5.7     11.452     13.084
REMARK  7 active torsions:
REMARK  status: ('A' for Active; 'I' for Inactive)
REMARK    1  A    between atoms: C_13  and  C_9 
REMARK    2  A    between atoms: N_16  and  C_9 
REMARK    3  A    between atoms: C_13  and  C_10 
REMARK    4  A    between atoms: O_18  and  C_10 
REMARK    5  A    between atoms: N_16  and  C_11 
REMARK    6  A    between atoms: O_17  and  C_13 
REMARK    7  A    between atoms: O_18  and  C_15 
ROOT
HETATM    1  C   UNK N   1      27.173  23.809  -5.148  0.00  0.00     0.209 C 
ENDROOT
BRANCH   1   2
HETATM    2  C   UNK N   1      26.427  24.608  -4.076  0.00  0.00     0.159 C 
BRANCH   2   3
HETATM    3  C   UNK N   1      26.930  26.042  -3.896  0.00  0.00     0.147 C 
BRANCH   3   4
HETATM    4  N   UNK N   1      27.008  26.740  -5.171  0.00  0.00    -0.415 N 
HETATM    5  H   UNK N   1      27.663  26.546  -5.929  0.00  0.00     0.153 HD
BRANCH   4   6
HETATM    6  C   UNK N   1      25.977  27.762  -5.164  0.00  0.00     0.068 C 
HETATM    7  C   UNK N   1      24.698  27.192  -5.744  0.00  0.00     0.031 C 
HETATM    8  C   UNK N   1      25.722  28.212  -3.740  0.00  0.00     0.031 C 
ENDBRANCH   4   6
ENDBRANCH   3   4
ENDBRANCH   2   3
BRANCH   2   9
HETATM    9  O   UNK N   1      26.490  23.927  -2.860  0.00  0.00    -0.392 OA
HETATM   10  H   UNK N   1      25.741  23.424  -2.502  0.00  0.00     0.210 HD
ENDBRANCH   2   9
ENDBRANCH   1   2
BRANCH   1  11
HETATM   11  O   UNK N   1      28.531  24.025  -5.071  0.00  0.00    -0.348 OA
BRANCH  11  12
HETATM   12  C   UNK N   1      29.443  23.232  -4.459  0.00  0.00     0.079 A 
HETATM   13  C   UNK N   1      29.883  23.601  -3.178  0.00  0.00     0.037 A 
HETATM   14  C   UNK N   1      30.828  22.820  -2.490  0.00  0.00     0.003 A 
HETATM   15  C   UNK N   1      31.344  21.657  -3.077  0.00  0.00     0.008 A 
HETATM   16  C   UNK N   1      30.900  21.300  -4.348  0.00  0.00    -0.042 A 
HETATM   17  C   UNK N   1      31.321  20.113  -5.143  0.00  0.00     0.066 A 
HETATM   18  C   UNK N   1      29.979  22.056  -5.026  0.00  0.00     0.004 A 
HETATM   19  C   UNK N   1      30.477  20.330  -6.386  0.00  0.00    -0.021 A 
HETATM   20  C   UNK N   1      29.725  21.432  -6.304  0.00  0.00     0.011 A 
ENDBRANCH  11  12
ENDBRANCH   1  11
TORSDOF 7
ENDMDL
