MODEL 1
REMARK VINA RESULT:      -7.3      0.000      0.000
REMARK  7 active torsions:
REMARK  status: ('A' for Active; 'I' for Inactive)
REMARK    1  A    between atoms: O_28  and  C_2 
REMARK    2  A    between atoms: C_16  and  C_15 
REMARK    3  A    between atoms: C_17  and  C_15 
REMARK    4  A    between atoms: C_20  and  C_15 
REMARK    5  A    between atoms: O_23  and  C_18 
REMARK    6  A    between atoms: O_24  and  C_19 
REMARK    7  A    between atoms: O_28  and  C_20 
ROOT
HETATM    1  C   UNK N   1      36.121  14.771  10.170  0.00  0.00     0.169 C 
ENDROOT
BRANCH   1   2
HETATM    2  C   UNK N   1      34.973  15.518   9.466  0.00  0.00     0.070 A 
HETATM    3  C   UNK N   1      34.003  14.882   8.651  0.00  0.00     0.092 A 
HETATM    4  C   UNK N   1      32.974  15.644   8.086  0.00  0.00     0.032 A 
HETATM    5  C   UNK N   1      31.987  15.052   7.284  0.00  0.00     0.017 A 
HETATM    6  C   UNK N   1      32.929  17.028   8.337  0.00  0.00     0.092 A 
HETATM    7  C   UNK N   1      30.959  15.834   6.747  0.00  0.00     0.001 A 
HETATM    8  C   UNK N   1      30.911  17.205   7.010  0.00  0.00     0.003 A 
HETATM    9  C   UNK N   1      31.896  17.802   7.801  0.00  0.00     0.038 A 
HETATM   10  O   UNK N   1      33.866  17.605   9.078  0.00  0.00    -0.274 OA
HETATM   11  C   UNK N   1      34.867  16.925   9.629  0.00  0.00     0.298 A 
HETATM   12  O   UNK N   1      35.689  17.532  10.295  0.00  0.00    -0.259 OA
BRANCH   3  13
HETATM   13  O   UNK N   1      34.049  13.561   8.404  0.00  0.00    -0.359 OA
HETATM   14  H   UNK N   1      33.390  13.020   8.014  0.00  0.00     0.217 HD
ENDBRANCH   3  13
ENDBRANCH   1   2
BRANCH   1  15
HETATM   15  C   UNK N   1      35.726  13.907  11.369  0.00  0.00     0.070 A 
HETATM   16  C   UNK N   1      35.352  12.547  11.255  0.00  0.00     0.092 A 
HETATM   17  C   UNK N   1      34.936  11.857  12.397  0.00  0.00     0.032 A 
HETATM   18  C   UNK N   1      34.515  10.523  12.326  0.00  0.00     0.017 A 
HETATM   19  C   UNK N   1      34.928  12.528  13.636  0.00  0.00     0.092 A 
HETATM   20  C   UNK N   1      34.082   9.862  13.479  0.00  0.00     0.001 A 
HETATM   21  C   UNK N   1      34.076  10.529  14.708  0.00  0.00     0.003 A 
HETATM   22  C   UNK N   1      34.502  11.858  14.787  0.00  0.00     0.038 A 
HETATM   23  O   UNK N   1      35.317  13.793  13.716  0.00  0.00    -0.274 OA
HETATM   24  C   UNK N   1      35.703  14.496  12.654  0.00  0.00     0.298 A 
HETATM   25  O   UNK N   1      36.027  15.661  12.800  0.00  0.00    -0.259 OA
BRANCH  16  26
HETATM   26  O   UNK N   1      35.382  11.911  10.068  0.00  0.00    -0.359 OA
HETATM   27  H   UNK N   1      35.666  12.247   9.241  0.00  0.00     0.217 HD
ENDBRANCH  16  26
ENDBRANCH   1  15
BRANCH   1  28
HETATM   28  C   UNK N   1      37.126  14.032   9.327  0.00  0.00     0.272 C 
HETATM   29  O   UNK N   1      38.293  13.952   9.693  0.00  0.00    -0.264 OA
BRANCH  28  30
HETATM   30  O   UNK N   1      36.737  13.517   8.134  0.00  0.00    -0.321 OA
BRANCH  30  31
HETATM   31  C   UNK N   1      37.419  13.744   6.956  0.00  0.00     0.174 C 
HETATM   32  C   UNK N   1      36.539  14.488   5.966  0.00  0.00     0.034 C 
ENDBRANCH  30  31
ENDBRANCH  28  30
ENDBRANCH   1  28
TORSDOF 7
ENDMDL
MODEL 2
REMARK VINA RESULT:      -7.2      2.063      6.918
REMARK  7 active torsions:
REMARK  status: ('A' for Active; 'I' for Inactive)
REMARK    1  A    between atoms: O_28  and  C_2 
REMARK    2  A    between atoms: C_16  and  C_15 
REMARK    3  A    between atoms: C_17  and  C_15 
REMARK    4  A    between atoms: C_20  and  C_15 
REMARK    5  A    between atoms: O_23  and  C_18 
REMARK    6  A    between atoms: O_24  and  C_19 
REMARK    7  A    between atoms: O_28  and  C_20 
ROOT
HETATM    1  C   UNK N   1      33.689  15.333   7.333  0.00  0.00     0.169 C 
ENDROOT
BRANCH   1   2
HETATM    2  C   UNK N   1      34.125  14.705   8.670  0.00  0.00     0.070 A 
HETATM    3  C   UNK N   1      34.880  15.393   9.653  0.00  0.00     0.092 A 
HETATM    4  C   UNK N   1      35.195  14.747  10.854  0.00  0.00     0.032 A 
HETATM    5  C   UNK N   1      35.929  15.396  11.858  0.00  0.00     0.017 A 
HETATM    6  C   UNK N   1      34.757  13.425  11.056  0.00  0.00     0.092 A 
HETATM    7  C   UNK N   1      36.213  14.734  13.057  0.00  0.00     0.001 A 
HETATM    8  C   UNK N   1      35.765  13.426  13.259  0.00  0.00     0.003 A 
HETATM    9  C   UNK N   1      35.041  12.771  12.258  0.00  0.00     0.038 A 
HETATM   10  O   UNK N   1      34.079  12.792  10.109  0.00  0.00    -0.274 OA
HETATM   11  C   UNK N   1      33.763  13.361   8.949  0.00  0.00     0.298 A 
HETATM   12  O   UNK N   1      33.139  12.708   8.128  0.00  0.00    -0.259 OA
BRANCH   3  13
HETATM   13  O   UNK N   1      35.305  16.654   9.459  0.00  0.00    -0.359 OA
HETATM   14  H   UNK N   1      35.124  17.222   8.736  0.00  0.00     0.217 HD
ENDBRANCH   3  13
ENDBRANCH   1   2
BRANCH   1  15
HETATM   15  C   UNK N   1      32.294  15.962   7.309  0.00  0.00     0.070 A 
HETATM   16  C   UNK N   1      31.896  16.999   8.184  0.00  0.00     0.092 A 
HETATM   17  C   UNK N   1      30.578  17.461   8.139  0.00  0.00     0.032 A 
HETATM   18  C   UNK N   1      30.126  18.456   9.015  0.00  0.00     0.017 A 
HETATM   19  C   UNK N   1      29.689  16.900   7.200  0.00  0.00     0.092 A 
HETATM   20  C   UNK N   1      28.796  18.885   8.964  0.00  0.00     0.001 A 
HETATM   21  C   UNK N   1      27.916  18.327   8.032  0.00  0.00     0.003 A 
HETATM   22  C   UNK N   1      28.363  17.339   7.149  0.00  0.00     0.038 A 
HETATM   23  O   UNK N   1      30.101  15.951   6.370  0.00  0.00    -0.274 OA
HETATM   24  C   UNK N   1      31.341  15.468   6.389  0.00  0.00     0.298 A 
HETATM   25  O   UNK N   1      31.643  14.582   5.610  0.00  0.00    -0.259 OA
BRANCH  16  26
HETATM   26  O   UNK N   1      32.760  17.541   9.064  0.00  0.00    -0.359 OA
HETATM   27  H   UNK N   1      32.571  17.915   9.902  0.00  0.00     0.217 HD
ENDBRANCH  16  26
ENDBRANCH   1  15
BRANCH   1  28
HETATM   28  C   UNK N   1      34.655  16.228   6.605  0.00  0.00     0.272 C 
HETATM   29  O   UNK N   1      34.612  17.441   6.769  0.00  0.00    -0.264 OA
BRANCH  28  30
HETATM   30  O   UNK N   1      35.526  15.679   5.720  0.00  0.00    -0.321 OA
BRANCH  30  31
HETATM   31  C   UNK N   1      35.458  14.363   5.313  0.00  0.00     0.174 C 
HETATM   32  C   UNK N   1      34.744  14.254   3.976  0.00  0.00     0.034 C 
ENDBRANCH  30  31
ENDBRANCH  28  30
ENDBRANCH   1  28
TORSDOF 7
ENDMDL
MODEL 3
REMARK VINA RESULT:      -7.1     11.448     14.610
REMARK  7 active torsions:
REMARK  status: ('A' for Active; 'I' for Inactive)
REMARK    1  A    between atoms: O_28  and  C_2 
REMARK    2  A    between atoms: C_16  and  C_15 
REMARK    3  A    between atoms: C_17  and  C_15 
REMARK    4  A    between atoms: C_20  and  C_15 
REMARK    5  A    between atoms: O_23  and  C_18 
REMARK    6  A    between atoms: O_24  and  C_19 
REMARK    7  A    between atoms: O_28  and  C_20 
ROOT
HETATM    1  C   UNK N   1      21.488  17.346   4.255  0.00  0.00     0.169 C 
ENDROOT
BRANCH   1   2
HETATM    2  C   UNK N   1      21.334  16.616   5.603  0.00  0.00     0.070 A 
HETATM    3  C   UNK N   1      21.425  15.209   5.751  0.00  0.00     0.092 A 
HETATM    4  C   UNK N   1      21.311  14.644   7.026  0.00  0.00     0.032 A 
HETATM    5  C   UNK N   1      21.407  13.258   7.218  0.00  0.00     0.017 A 
HETATM    6  C   UNK N   1      21.101  15.488   8.133  0.00  0.00     0.092 A 
HETATM    7  C   UNK N   1      21.308  12.720   8.506  0.00  0.00     0.001 A 
HETATM    8  C   UNK N   1      21.114  13.562   9.603  0.00  0.00     0.003 A 
HETATM    9  C   UNK N   1      21.007  14.943   9.417  0.00  0.00     0.038 A 
HETATM   10  O   UNK N   1      20.989  16.798   7.965  0.00  0.00    -0.274 OA
HETATM   11  C   UNK N   1      21.083  17.381   6.774  0.00  0.00     0.298 A 
HETATM   12  O   UNK N   1      20.965  18.593   6.704  0.00  0.00    -0.259 OA
BRANCH   3  13
HETATM   13  O   UNK N   1      21.618  14.402   4.693  0.00  0.00    -0.359 OA
HETATM   14  H   UNK N   1      21.158  13.616   4.471  0.00  0.00     0.217 HD
ENDBRANCH   3  13
ENDBRANCH   1   2
BRANCH   1  15
HETATM   15  C   UNK N   1      22.814  18.076   4.033  0.00  0.00     0.070 A 
HETATM   16  C   UNK N   1      24.076  17.456   4.187  0.00  0.00     0.092 A 
HETATM   17  C   UNK N   1      25.235  18.221   4.034  0.00  0.00     0.032 A 
HETATM   18  C   UNK N   1      26.506  17.661   4.220  0.00  0.00     0.017 A 
HETATM   19  C   UNK N   1      25.114  19.585   3.702  0.00  0.00     0.092 A 
HETATM   20  C   UNK N   1      27.648  18.454   4.084  0.00  0.00     0.001 A 
HETATM   21  C   UNK N   1      27.526  19.807   3.753  0.00  0.00     0.003 A 
HETATM   22  C   UNK N   1      26.262  20.371   3.559  0.00  0.00     0.038 A 
HETATM   23  O   UNK N   1      23.917  20.130   3.531  0.00  0.00    -0.274 OA
HETATM   24  C   UNK N   1      22.787  19.446   3.684  0.00  0.00     0.298 A 
HETATM   25  O   UNK N   1      21.722  20.018   3.531  0.00  0.00    -0.259 OA
BRANCH  16  26
HETATM   26  O   UNK N   1      24.179  16.146   4.486  0.00  0.00    -0.359 OA
HETATM   27  H   UNK N   1      24.340  15.757   5.323  0.00  0.00     0.217 HD
ENDBRANCH  16  26
ENDBRANCH   1  15
BRANCH   1  28
HETATM   28  C   UNK N   1      21.093  16.625   2.994  0.00  0.00     0.272 C 
HETATM   29  O   UNK N   1      19.958  16.742   2.550  0.00  0.00    -0.264 OA
BRANCH  28  30
HETATM   30  O   UNK N   1      21.988  15.797   2.398  0.00  0.00    -0.321 OA
BRANCH  30  31
HETATM   31  C   UNK N   1      21.687  15.033   1.290  0.00  0.00     0.174 C 
HETATM   32  C   UNK N   1      22.894  14.215   0.862  0.00  0.00     0.034 C 
ENDBRANCH  30  31
ENDBRANCH  28  30
ENDBRANCH   1  28
TORSDOF 7
ENDMDL
MODEL 4
REMARK VINA RESULT:      -7.1     16.024     20.749
REMARK  7 active torsions:
REMARK  status: ('A' for Active; 'I' for Inactive)
REMARK    1  A    between atoms: O_28  and  C_2 
REMARK    2  A    between atoms: C_16  and  C_15 
REMARK    3  A    between atoms: C_17  and  C_15 
REMARK    4  A    between atoms: C_20  and  C_15 
REMARK    5  A    between atoms: O_23  and  C_18 
REMARK    6  A    between atoms: O_24  and  C_19 
REMARK    7  A    between atoms: O_28  and  C_20 
ROOT
HETATM    1  C   UNK N   1      26.713  24.828  -4.467  0.00  0.00     0.169 C 
ENDROOT
BRANCH   1   2
HETATM    2  C   UNK N   1      27.924  23.946  -4.110  0.00  0.00     0.070 A 
HETATM    3  C   UNK N   1      28.853  23.461  -5.065  0.00  0.00     0.092 A 
HETATM    4  C   UNK N   1      29.944  22.698  -4.636  0.00  0.00     0.032 A 
HETATM    5  C   UNK N   1      30.893  22.209  -5.546  0.00  0.00     0.017 A 
HETATM    6  C   UNK N   1      30.091  22.424  -3.262  0.00  0.00     0.092 A 
HETATM    7  C   UNK N   1      31.985  21.465  -5.088  0.00  0.00     0.001 A 
HETATM    8  C   UNK N   1      32.134  21.207  -3.723  0.00  0.00     0.003 A 
HETATM    9  C   UNK N   1      31.187  21.683  -2.812  0.00  0.00     0.038 A 
HETATM   10  O   UNK N   1      29.192  22.863  -2.393  0.00  0.00    -0.274 OA
HETATM   11  C   UNK N   1      28.135  23.585  -2.753  0.00  0.00     0.298 A 
HETATM   12  O   UNK N   1      27.352  23.948  -1.890  0.00  0.00    -0.259 OA
BRANCH   3  13
HETATM   13  O   UNK N   1      28.709  23.716  -6.378  0.00  0.00    -0.359 OA
HETATM   14  H   UNK N   1      29.130  23.292  -7.100  0.00  0.00     0.217 HD
ENDBRANCH   3  13
ENDBRANCH   1   2
BRANCH   1  15
HETATM   15  C   UNK N   1      26.982  26.331  -4.568  0.00  0.00     0.070 A 
HETATM   16  C   UNK N   1      27.616  26.932  -5.680  0.00  0.00     0.092 A 
HETATM   17  C   UNK N   1      27.886  28.303  -5.653  0.00  0.00     0.032 A 
HETATM   18  C   UNK N   1      28.551  28.934  -6.712  0.00  0.00     0.017 A 
HETATM   19  C   UNK N   1      27.493  29.054  -4.527  0.00  0.00     0.092 A 
HETATM   20  C   UNK N   1      28.829  30.302  -6.649  0.00  0.00     0.001 A 
HETATM   21  C   UNK N   1      28.438  31.046  -5.532  0.00  0.00     0.003 A 
HETATM   22  C   UNK N   1      27.767  30.424  -4.475  0.00  0.00     0.038 A 
HETATM   23  O   UNK N   1      26.870  28.468  -3.514  0.00  0.00    -0.274 OA
HETATM   24  C   UNK N   1      26.608  27.164  -3.488  0.00  0.00     0.298 A 
HETATM   25  O   UNK N   1      26.051  26.690  -2.514  0.00  0.00    -0.259 OA
BRANCH  16  26
HETATM   26  O   UNK N   1      27.970  26.207  -6.759  0.00  0.00    -0.359 OA
HETATM   27  H   UNK N   1      28.765  26.257  -7.251  0.00  0.00     0.217 HD
ENDBRANCH  16  26
ENDBRANCH   1  15
BRANCH   1  28
HETATM   28  C   UNK N   1      25.815  24.402  -5.597  0.00  0.00     0.272 C 
HETATM   29  O   UNK N   1      25.125  25.230  -6.178  0.00  0.00    -0.264 OA
BRANCH  28  30
HETATM   30  O   UNK N   1      25.734  23.085  -5.917  0.00  0.00    -0.321 OA
BRANCH  30  31
HETATM   31  C   UNK N   1      25.531  22.633  -7.204  0.00  0.00     0.174 C 
HETATM   32  C   UNK N   1      24.691  21.366  -7.197  0.00  0.00     0.034 C 
ENDBRANCH  30  31
ENDBRANCH  28  30
ENDBRANCH   1  28
TORSDOF 7
ENDMDL
MODEL 5
REMARK VINA RESULT:      -7.0      0.960      1.981
REMARK  7 active torsions:
REMARK  status: ('A' for Active; 'I' for Inactive)
REMARK    1  A    between atoms: O_28  and  C_2 
REMARK    2  A    between atoms: C_16  and  C_15 
REMARK    3  A    between atoms: C_17  and  C_15 
REMARK    4  A    between atoms: C_20  and  C_15 
REMARK    5  A    between atoms: O_23  and  C_18 
REMARK    6  A    between atoms: O_24  and  C_19 
REMARK    7  A    between atoms: O_28  and  C_20 
ROOT
HETATM    1  C   UNK N   1      36.090  14.256  10.322  0.00  0.00     0.169 C 
ENDROOT
BRANCH   1   2
HETATM    2  C   UNK N   1      35.030  15.178   9.691  0.00  0.00     0.070 A 
HETATM    3  C   UNK N   1      33.982  14.716   8.856  0.00  0.00     0.092 A 
HETATM    4  C   UNK N   1      33.044  15.629   8.362  0.00  0.00     0.032 A 
HETATM    5  C   UNK N   1      31.984  15.211   7.543  0.00  0.00     0.017 A 
HETATM    6  C   UNK N   1      33.166  16.989   8.702  0.00  0.00     0.092 A 
HETATM    7  C   UNK N   1      31.049  16.142   7.079  0.00  0.00     0.001 A 
HETATM    8  C   UNK N   1      31.167  17.489   7.430  0.00  0.00     0.003 A 
HETATM    9  C   UNK N   1      32.226  17.913   8.237  0.00  0.00     0.038 A 
HETATM   10  O   UNK N   1      34.174  17.401   9.459  0.00  0.00    -0.274 OA
HETATM   11  C   UNK N   1      35.093  16.574   9.946  0.00  0.00     0.298 A 
HETATM   12  O   UNK N   1      35.990  17.034  10.633  0.00  0.00    -0.259 OA
BRANCH   3  13
HETATM   13  O   UNK N   1      33.867  13.417   8.525  0.00  0.00    -0.359 OA
HETATM   14  H   UNK N   1      33.358  12.753   8.947  0.00  0.00     0.217 HD
ENDBRANCH   3  13
ENDBRANCH   1   2
BRANCH   1  15
HETATM   15  C   UNK N   1      35.671  13.524  11.599  0.00  0.00     0.070 A 
HETATM   16  C   UNK N   1      35.942  14.013  12.898  0.00  0.00     0.092 A 
HETATM   17  C   UNK N   1      35.586  13.239  14.006  0.00  0.00     0.032 A 
HETATM   18  C   UNK N   1      35.874  13.662  15.310  0.00  0.00     0.017 A 
HETATM   19  C   UNK N   1      34.939  12.005  13.797  0.00  0.00     0.092 A 
HETATM   20  C   UNK N   1      35.527  12.858  16.400  0.00  0.00     0.001 A 
HETATM   21  C   UNK N   1      34.884  11.634  16.191  0.00  0.00     0.003 A 
HETATM   22  C   UNK N   1      34.587  11.210  14.892  0.00  0.00     0.038 A 
HETATM   23  O   UNK N   1      34.668  11.589  12.568  0.00  0.00    -0.274 OA
HETATM   24  C   UNK N   1      35.004  12.283  11.483  0.00  0.00     0.298 A 
HETATM   25  O   UNK N   1      34.741  11.828  10.384  0.00  0.00    -0.259 OA
BRANCH  16  26
HETATM   26  O   UNK N   1      36.545  15.203  13.085  0.00  0.00    -0.359 OA
HETATM   27  H   UNK N   1      36.177  15.984  13.448  0.00  0.00     0.217 HD
ENDBRANCH  16  26
ENDBRANCH   1  15
BRANCH   1  28
HETATM   28  C   UNK N   1      36.852  13.314   9.430  0.00  0.00     0.272 C 
HETATM   29  O   UNK N   1      37.789  12.665   9.880  0.00  0.00    -0.264 OA
BRANCH  28  30
HETATM   30  O   UNK N   1      36.531  13.244   8.113  0.00  0.00    -0.321 OA
BRANCH  30  31
HETATM   31  C   UNK N   1      37.311  13.792   7.116  0.00  0.00     0.174 C 
HETATM   32  C   UNK N   1      36.440  14.458   6.064  0.00  0.00     0.034 C 
ENDBRANCH  30  31
ENDBRANCH  28  30
ENDBRANCH   1  28
TORSDOF 7
ENDMDL
MODEL 6
REMARK VINA RESULT:      -7.0     11.284     15.292
REMARK  7 active torsions:
REMARK  status: ('A' for Active; 'I' for Inactive)
REMARK    1  A    between atoms: O_28  and  C_2 
REMARK    2  A    between atoms: C_16  and  C_15 
REMARK    3  A    between atoms: C_17  and  C_15 
REMARK    4  A    between atoms: C_20  and  C_15 
REMARK    5  A    between atoms: O_23  and  C_18 
REMARK    6  A    between atoms: O_24  and  C_19 
REMARK    7  A    between atoms: O_28  and  C_20 
ROOT
HETATM    1  C   UNK N   1      21.431  18.252   4.506  0.00  0.00     0.169 C 
ENDROOT
BRANCH   1   2
HETATM    2  C   UNK N   1      22.849  18.807   4.275  0.00  0.00     0.070 A 
HETATM    3  C   UNK N   1      24.011  18.280   4.894  0.00  0.00     0.092 A 
HETATM    4  C   UNK N   1      25.261  18.829   4.589  0.00  0.00     0.032 A 
HETATM    5  C   UNK N   1      26.436  18.329   5.169  0.00  0.00     0.017 A 
HETATM    6  C   UNK N   1      25.335  19.899   3.677  0.00  0.00     0.092 A 
HETATM    7  C   UNK N   1      27.675  18.884   4.832  0.00  0.00     0.001 A 
HETATM    8  C   UNK N   1      27.746  19.936   3.916  0.00  0.00     0.003 A 
HETATM    9  C   UNK N   1      26.577  20.446   3.342  0.00  0.00     0.038 A 
HETATM   10  O   UNK N   1      24.231  20.394   3.136  0.00  0.00    -0.274 OA
HETATM   11  C   UNK N   1      23.021  19.912   3.400  0.00  0.00     0.298 A 
HETATM   12  O   UNK N   1      22.055  20.427   2.862  0.00  0.00    -0.259 OA
BRANCH   3  13
HETATM   13  O   UNK N   1      23.941  17.262   5.771  0.00  0.00    -0.359 OA
HETATM   14  H   UNK N   1      24.315  16.406   5.698  0.00  0.00     0.217 HD
ENDBRANCH   3  13
ENDBRANCH   1   2
BRANCH   1  15
HETATM   15  C   UNK N   1      20.964  17.172   3.529  0.00  0.00     0.070 A 
HETATM   16  C   UNK N   1      21.526  15.875   3.481  0.00  0.00     0.092 A 
HETATM   17  C   UNK N   1      21.086  14.977   2.504  0.00  0.00     0.032 A 
HETATM   18  C   UNK N   1      21.643  13.696   2.390  0.00  0.00     0.017 A 
HETATM   19  C   UNK N   1      20.072  15.380   1.613  0.00  0.00     0.092 A 
HETATM   20  C   UNK N   1      21.200  12.826   1.390  0.00  0.00     0.001 A 
HETATM   21  C   UNK N   1      20.194  13.228   0.507  0.00  0.00     0.003 A 
HETATM   22  C   UNK N   1      19.628  14.501   0.620  0.00  0.00     0.038 A 
HETATM   23  O   UNK N   1      19.541  16.592   1.704  0.00  0.00    -0.274 OA
HETATM   24  C   UNK N   1      19.941  17.486   2.605  0.00  0.00     0.298 A 
HETATM   25  O   UNK N   1      19.422  18.588   2.617  0.00  0.00    -0.259 OA
BRANCH  16  26
HETATM   26  O   UNK N   1      22.481  15.494   4.351  0.00  0.00    -0.359 OA
HETATM   27  H   UNK N   1      22.783  14.626   4.532  0.00  0.00     0.217 HD
ENDBRANCH  16  26
ENDBRANCH   1  15
BRANCH   1  28
HETATM   28  C   UNK N   1      21.021  17.875   5.905  0.00  0.00     0.272 C 
HETATM   29  O   UNK N   1      21.307  18.605   6.846  0.00  0.00    -0.264 OA
BRANCH  28  30
HETATM   30  O   UNK N   1      20.392  16.691   6.113  0.00  0.00    -0.321 OA
BRANCH  30  31
HETATM   31  C   UNK N   1      20.253  16.120   7.361  0.00  0.00     0.174 C 
HETATM   32  C   UNK N   1      21.457  15.251   7.686  0.00  0.00     0.034 C 
ENDBRANCH  30  31
ENDBRANCH  28  30
ENDBRANCH   1  28
TORSDOF 7
ENDMDL
MODEL 7
REMARK VINA RESULT:      -6.9      1.514      2.570
REMARK  7 active torsions:
REMARK  status: ('A' for Active; 'I' for Inactive)
REMARK    1  A    between atoms: O_28  and  C_2 
REMARK    2  A    between atoms: C_16  and  C_15 
REMARK    3  A    between atoms: C_17  and  C_15 
REMARK    4  A    between atoms: C_20  and  C_15 
REMARK    5  A    between atoms: O_23  and  C_18 
REMARK    6  A    between atoms: O_24  and  C_19 
REMARK    7  A    between atoms: O_28  and  C_20 
ROOT
HETATM    1  C   UNK N   1      36.708  14.550  10.705  0.00  0.00     0.169 C 
ENDROOT
BRANCH   1   2
HETATM    2  C   UNK N   1      35.848  15.384   9.736  0.00  0.00     0.070 A 
HETATM    3  C   UNK N   1      35.645  15.045   8.374  0.00  0.00     0.092 A 
HETATM    4  C   UNK N   1      34.814  15.847   7.584  0.00  0.00     0.032 A 
HETATM    5  C   UNK N   1      34.576  15.541   6.236  0.00  0.00     0.017 A 
HETATM    6  C   UNK N   1      34.203  16.976   8.160  0.00  0.00     0.092 A 
HETATM    7  C   UNK N   1      33.726  16.349   5.473  0.00  0.00     0.001 A 
HETATM    8  C   UNK N   1      33.110  17.461   6.053  0.00  0.00     0.003 A 
HETATM    9  C   UNK N   1      33.351  17.776   7.393  0.00  0.00     0.038 A 
HETATM   10  O   UNK N   1      34.433  17.289   9.428  0.00  0.00    -0.274 OA
HETATM   11  C   UNK N   1      35.220  16.563  10.216  0.00  0.00     0.298 A 
HETATM   12  O   UNK N   1      35.383  16.921  11.371  0.00  0.00    -0.259 OA
BRANCH   3  13
HETATM   13  O   UNK N   1      36.235  13.971   7.820  0.00  0.00    -0.359 OA
HETATM   14  H   UNK N   1      35.892  13.104   7.729  0.00  0.00     0.217 HD
ENDBRANCH   3  13
ENDBRANCH   1   2
BRANCH   1  15
HETATM   15  C   UNK N   1      35.949  13.578  11.611  0.00  0.00     0.070 A 
HETATM   16  C   UNK N   1      36.013  13.624  13.023  0.00  0.00     0.092 A 
HETATM   17  C   UNK N   1      35.344  12.649  13.768  0.00  0.00     0.032 A 
HETATM   18  C   UNK N   1      35.414  12.629  15.167  0.00  0.00     0.017 A 
HETATM   19  C   UNK N   1      34.600  11.663  13.091  0.00  0.00     0.092 A 
HETATM   20  C   UNK N   1      34.754  11.629  15.888  0.00  0.00     0.001 A 
HETATM   21  C   UNK N   1      34.016  10.652  15.214  0.00  0.00     0.003 A 
HETATM   22  C   UNK N   1      33.935  10.671  13.818  0.00  0.00     0.038 A 
HETATM   23  O   UNK N   1      34.532  11.666  11.766  0.00  0.00    -0.274 OA
HETATM   24  C   UNK N   1      35.166  12.562  11.016  0.00  0.00     0.298 A 
HETATM   25  O   UNK N   1      35.075  12.491   9.803  0.00  0.00    -0.259 OA
BRANCH  16  26
HETATM   26  O   UNK N   1      36.712  14.584  13.660  0.00  0.00    -0.359 OA
HETATM   27  H   UNK N   1      37.635  14.740  13.630  0.00  0.00     0.217 HD
ENDBRANCH  16  26
ENDBRANCH   1  15
BRANCH   1  28
HETATM   28  C   UNK N   1      37.949  13.880  10.177  0.00  0.00     0.272 C 
HETATM   29  O   UNK N   1      38.651  14.452   9.353  0.00  0.00    -0.264 OA
BRANCH  28  30
HETATM   30  O   UNK N   1      38.238  12.616  10.577  0.00  0.00    -0.321 OA
BRANCH  30  31
HETATM   31  C   UNK N   1      38.512  11.590   9.695  0.00  0.00     0.174 C 
HETATM   32  C   UNK N   1      38.053  10.259  10.266  0.00  0.00     0.034 C 
ENDBRANCH  30  31
ENDBRANCH  28  30
ENDBRANCH   1  28
TORSDOF 7
ENDMDL
MODEL 8
REMARK VINA RESULT:      -6.8     16.237     20.640
REMARK  7 active torsions:
REMARK  status: ('A' for Active; 'I' for Inactive)
REMARK    1  A    between atoms: O_28  and  C_2 
REMARK    2  A    between atoms: C_16  and  C_15 
REMARK    3  A    between atoms: C_17  and  C_15 
REMARK    4  A    between atoms: C_20  and  C_15 
REMARK    5  A    between atoms: O_23  and  C_18 
REMARK    6  A    between atoms: O_24  and  C_19 
REMARK    7  A    between atoms: O_28  and  C_20 
ROOT
HETATM    1  C   UNK N   1      27.383  25.823  -4.463  0.00  0.00     0.169 C 
ENDROOT
BRANCH   1   2
HETATM    2  C   UNK N   1      26.884  25.695  -5.915  0.00  0.00     0.070 A 
HETATM    3  C   UNK N   1      27.443  26.410  -7.005  0.00  0.00     0.092 A 
HETATM    4  C   UNK N   1      26.944  26.196  -8.294  0.00  0.00     0.032 A 
HETATM    5  C   UNK N   1      27.477  26.872  -9.402  0.00  0.00     0.017 A 
HETATM    6  C   UNK N   1      25.893  25.278  -8.479  0.00  0.00     0.092 A 
HETATM    7  C   UNK N   1      26.973  26.625 -10.683  0.00  0.00     0.001 A 
HETATM    8  C   UNK N   1      25.939  25.703 -10.863  0.00  0.00     0.003 A 
HETATM    9  C   UNK N   1      25.397  25.033  -9.762  0.00  0.00     0.038 A 
HETATM   10  O   UNK N   1      25.367  24.645  -7.439  0.00  0.00    -0.274 OA
HETATM   11  C   UNK N   1      25.801  24.821  -6.195  0.00  0.00     0.298 A 
HETATM   12  O   UNK N   1      25.260  24.202  -5.293  0.00  0.00    -0.259 OA
BRANCH   3  13
HETATM   13  O   UNK N   1      28.443  27.293  -6.829  0.00  0.00    -0.359 OA
HETATM   14  H   UNK N   1      28.402  28.146  -6.443  0.00  0.00     0.217 HD
ENDBRANCH   3  13
ENDBRANCH   1   2
BRANCH   1  15
HETATM   15  C   UNK N   1      28.443  24.810  -4.025  0.00  0.00     0.070 A 
HETATM   16  C   UNK N   1      29.735  24.743  -4.596  0.00  0.00     0.092 A 
HETATM   17  C   UNK N   1      30.612  23.737  -4.184  0.00  0.00     0.032 A 
HETATM   18  C   UNK N   1      31.886  23.604  -4.752  0.00  0.00     0.017 A 
HETATM   19  C   UNK N   1      30.194  22.833  -3.187  0.00  0.00     0.092 A 
HETATM   20  C   UNK N   1      32.735  22.575  -4.337  0.00  0.00     0.001 A 
HETATM   21  C   UNK N   1      32.319  21.679  -3.348  0.00  0.00     0.003 A 
HETATM   22  C   UNK N   1      31.052  21.810  -2.771  0.00  0.00     0.038 A 
HETATM   23  O   UNK N   1      28.988  22.941  -2.646  0.00  0.00    -0.274 OA
HETATM   24  C   UNK N   1      28.113  23.871  -3.020  0.00  0.00     0.298 A 
HETATM   25  O   UNK N   1      27.015  23.898  -2.493  0.00  0.00    -0.259 OA
BRANCH  16  26
HETATM   26  O   UNK N   1      30.131  25.625  -5.535  0.00  0.00    -0.359 OA
HETATM   27  H   UNK N   1      30.056  26.559  -5.517  0.00  0.00     0.217 HD
ENDBRANCH  16  26
ENDBRANCH   1  15
BRANCH   1  28
HETATM   28  C   UNK N   1      27.746  27.187  -3.940  0.00  0.00     0.272 C 
HETATM   29  O   UNK N   1      28.896  27.597  -4.041  0.00  0.00    -0.264 OA
BRANCH  28  30
HETATM   30  O   UNK N   1      26.802  27.922  -3.300  0.00  0.00    -0.321 OA
BRANCH  30  31
HETATM   31  C   UNK N   1      25.967  28.807  -3.950  0.00  0.00     0.174 C 
HETATM   32  C   UNK N   1      26.469  30.232  -3.786  0.00  0.00     0.034 C 
ENDBRANCH  30  31
ENDBRANCH  28  30
ENDBRANCH   1  28
TORSDOF 7
ENDMDL
MODEL 9
REMARK VINA RESULT:      -6.8      1.390      6.447
REMARK  7 active torsions:
REMARK  status: ('A' for Active; 'I' for Inactive)
REMARK    1  A    between atoms: O_28  and  C_2 
REMARK    2  A    between atoms: C_16  and  C_15 
REMARK    3  A    between atoms: C_17  and  C_15 
REMARK    4  A    between atoms: C_20  and  C_15 
REMARK    5  A    between atoms: O_23  and  C_18 
REMARK    6  A    between atoms: O_24  and  C_19 
REMARK    7  A    between atoms: O_28  and  C_20 
ROOT
HETATM    1  C   UNK N   1      35.891  13.414  10.567  0.00  0.00     0.169 C 
ENDROOT
BRANCH   1   2
HETATM    2  C   UNK N   1      35.612  12.997  12.024  0.00  0.00     0.070 A 
HETATM    3  C   UNK N   1      36.100  13.704  13.152  0.00  0.00     0.092 A 
HETATM    4  C   UNK N   1      35.759  13.267  14.436  0.00  0.00     0.032 A 
HETATM    5  C   UNK N   1      36.210  13.945  15.579  0.00  0.00     0.017 A 
HETATM    6  C   UNK N   1      34.942  12.130  14.579  0.00  0.00     0.092 A 
HETATM    7  C   UNK N   1      35.839  13.499  16.851  0.00  0.00     0.001 A 
HETATM    8  C   UNK N   1      35.017  12.378  16.988  0.00  0.00     0.003 A 
HETATM    9  C   UNK N   1      34.572  11.692  15.854  0.00  0.00     0.038 A 
HETATM   10  O   UNK N   1      34.524  11.468  13.509  0.00  0.00    -0.274 OA
HETATM   11  C   UNK N   1      34.827  11.840  12.269  0.00  0.00     0.298 A 
HETATM   12  O   UNK N   1      34.405  11.174  11.339  0.00  0.00    -0.259 OA
BRANCH   3  13
HETATM   13  O   UNK N   1      36.887  14.787  13.017  0.00  0.00    -0.359 OA
HETATM   14  H   UNK N   1      37.722  14.950  13.410  0.00  0.00     0.217 HD
ENDBRANCH   3  13
ENDBRANCH   1   2
BRANCH   1  15
HETATM   15  C   UNK N   1      35.057  14.579  10.030  0.00  0.00     0.070 A 
HETATM   16  C   UNK N   1      33.804  14.408   9.397  0.00  0.00     0.092 A 
HETATM   17  C   UNK N   1      33.147  15.524   8.871  0.00  0.00     0.032 A 
HETATM   18  C   UNK N   1      31.925  15.398   8.198  0.00  0.00     0.017 A 
HETATM   19  C   UNK N   1      33.740  16.794   9.013  0.00  0.00     0.092 A 
HETATM   20  C   UNK N   1      31.300  16.528   7.662  0.00  0.00     0.001 A 
HETATM   21  C   UNK N   1      31.890  17.788   7.804  0.00  0.00     0.003 A 
HETATM   22  C   UNK N   1      33.106  17.921   8.481  0.00  0.00     0.038 A 
HETATM   23  O   UNK N   1      34.901  16.927   9.641  0.00  0.00    -0.274 OA
HETATM   24  C   UNK N   1      35.570  15.891  10.141  0.00  0.00     0.298 A 
HETATM   25  O   UNK N   1      36.641  16.087  10.687  0.00  0.00    -0.259 OA
BRANCH  16  26
HETATM   26  O   UNK N   1      33.238  13.190   9.285  0.00  0.00    -0.359 OA
HETATM   27  H   UNK N   1      32.328  12.983   9.204  0.00  0.00     0.217 HD
ENDBRANCH  16  26
ENDBRANCH   1  15
BRANCH   1  28
HETATM   28  C   UNK N   1      37.320  13.571  10.121  0.00  0.00     0.272 C 
HETATM   29  O   UNK N   1      38.234  13.396  10.917  0.00  0.00    -0.264 OA
BRANCH  28  30
HETATM   30  O   UNK N   1      37.575  13.972   8.850  0.00  0.00    -0.321 OA
BRANCH  30  31
HETATM   31  C   UNK N   1      37.375  13.164   7.750  0.00  0.00     0.174 C 
HETATM   32  C   UNK N   1      36.528  13.879   6.710  0.00  0.00     0.034 C 
ENDBRANCH  30  31
ENDBRANCH  28  30
ENDBRANCH   1  28
TORSDOF 7
ENDMDL
