MODEL 1
REMARK VINA RESULT:      -7.6      0.000      0.000
REMARK  3 active torsions:
REMARK  status: ('A' for Active; 'I' for Inactive)
REMARK    1  A    between atoms: C_21  and  C_23 
REMARK    2  A    between atoms: C_23  and  C_25 
REMARK    3  A    between atoms: C_25  and  O_26 
ROOT
HETATM    1  C   UNK N   1      25.249  18.944   3.292  0.00  0.00     0.078 C 
HETATM    2  C   UNK N   1      26.357  18.940   4.333  0.00  0.00     0.159 C 
HETATM    3  O   UNK N   1      25.915  18.236   5.492  0.00  0.00    -0.347 OA
HETATM    4  C   UNK N   1      26.934  17.317   5.772  0.00  0.00     0.168 C 
HETATM    5  C   UNK N   1      28.156  17.281   6.752  0.00  0.00     0.041 C 
HETATM    6  C   UNK N   1      29.391  17.390   5.830  0.00  0.00     0.006 C 
HETATM    7  C   UNK N   1      30.862  17.252   6.346  0.00  0.00     0.020 C 
HETATM    8  C   UNK N   1      30.969  17.263   7.884  0.00  0.00     0.049 C 
HETATM    9  C   UNK N   1      32.425  17.353   8.363  0.00  0.00     0.201 C 
HETATM   10  C   UNK N   1      33.262  16.324   7.651  0.00  0.00    -0.029 A 
HETATM   11  C   UNK N   1      33.966  15.448   8.383  0.00  0.00     0.061 A 
HETATM   12  C   UNK N   1      34.767  14.400   7.735  0.00  0.00     0.172 A 
HETATM   13  O   UNK N   1      35.419  13.622   8.410  0.00  0.00    -0.289 OA
HETATM   14  C   UNK N   1      34.778  14.294   6.271  0.00  0.00     0.052 A 
HETATM   15  C   UNK N   1      34.070  15.150   5.524  0.00  0.00    -0.007 A 
HETATM   16  C   UNK N   1      33.220  16.270   6.114  0.00  0.00     0.023 A 
HETATM   17  C   UNK N   1      31.704  16.102   5.690  0.00  0.00     0.072 C 
HETATM   18  C   UNK N   1      31.431  16.050   4.122  0.00  0.00     0.108 C 
HETATM   19  C   UNK N   1      30.036  16.532   3.605  0.00  0.00     0.035 C 
HETATM   20  C   UNK N   1      28.961  16.492   4.683  0.00  0.00     0.003 C 
HETATM   21  C   UNK N   1      27.538  17.055   4.380  0.00  0.00     0.160 C 
HETATM   22  O   UNK N   1      27.524  18.328   3.798  0.00  0.00    -0.334 OA
HETATM   23  C   UNK N   1      28.756  15.024   5.098  0.00  0.00     0.019 C 
HETATM   24 Cl   UNK N   1      32.666  16.707   3.010  0.00  0.00    -0.123 Cl
HETATM   25 Cl   UNK N   1      31.210  14.505   6.391  0.00  0.00    -0.116 Cl
HETATM   26  F   UNK N   1      32.920  18.625   8.133  0.00  0.00    -0.245 F 
HETATM   27  C   UNK N   1      26.674  20.373   4.714  0.00  0.00     0.078 C 
HETATM   28  C   UNK N   1      33.831  17.579   5.614  0.00  0.00     0.027 C 
ENDROOT
BRANCH  21  29
HETATM   29  C   UNK N   1      26.715  16.116   3.493  0.00  0.00     0.188 C 
HETATM   30  O   UNK N   1      26.920  16.069   2.290  0.00  0.00    -0.292 OA
BRANCH  29  31
HETATM   31  C   UNK N   1      25.642  15.254   4.081  0.00  0.00     0.245 C 
BRANCH  31  32
HETATM   32  O   UNK N   1      24.396  15.865   3.934  0.00  0.00    -0.393 OA
HETATM   33  H   UNK N   1      23.705  16.471   4.243  0.00  0.00     0.209 HD
ENDBRANCH  31  32
ENDBRANCH  29  31
ENDBRANCH  21  29
TORSDOF 3
ENDMDL
MODEL 2
REMARK VINA RESULT:      -7.4     11.606     13.215
REMARK  3 active torsions:
REMARK  status: ('A' for Active; 'I' for Inactive)
REMARK    1  A    between atoms: C_21  and  C_23 
REMARK    2  A    between atoms: C_23  and  C_25 
REMARK    3  A    between atoms: C_25  and  O_26 
ROOT
HETATM    1  C   UNK N   1      25.876  27.688  -5.623  0.00  0.00     0.078 C 
HETATM    2  C   UNK N   1      27.353  27.336  -5.689  0.00  0.00     0.159 C 
HETATM    3  O   UNK N   1      27.968  27.642  -4.440  0.00  0.00    -0.347 OA
HETATM    4  C   UNK N   1      28.673  26.484  -4.086  0.00  0.00     0.168 C 
HETATM    5  C   UNK N   1      30.162  26.012  -4.207  0.00  0.00     0.041 C 
HETATM    6  C   UNK N   1      30.123  24.887  -5.266  0.00  0.00     0.006 C 
HETATM    7  C   UNK N   1      31.364  24.003  -5.624  0.00  0.00     0.020 C 
HETATM    8  C   UNK N   1      32.681  24.531  -5.020  0.00  0.00     0.049 C 
HETATM    9  C   UNK N   1      33.908  23.786  -5.564  0.00  0.00     0.201 C 
HETATM   10  C   UNK N   1      33.687  22.300  -5.467  0.00  0.00    -0.029 A 
HETATM   11  C   UNK N   1      34.586  21.557  -4.805  0.00  0.00     0.061 A 
HETATM   12  C   UNK N   1      34.395  20.107  -4.649  0.00  0.00     0.172 A 
HETATM   13  O   UNK N   1      35.229  19.440  -4.062  0.00  0.00    -0.289 OA
HETATM   14  C   UNK N   1      33.196  19.469  -5.204  0.00  0.00     0.052 A 
HETATM   15  C   UNK N   1      32.281  20.196  -5.856  0.00  0.00    -0.007 A 
HETATM   16  C   UNK N   1      32.405  21.701  -6.069  0.00  0.00     0.023 A 
HETATM   17  C   UNK N   1      31.178  22.460  -5.413  0.00  0.00     0.072 C 
HETATM   18  C   UNK N   1      29.739  22.007  -5.922  0.00  0.00     0.108 C 
HETATM   19  C   UNK N   1      28.579  23.054  -5.864  0.00  0.00     0.035 C 
HETATM   20  C   UNK N   1      28.843  24.174  -4.866  0.00  0.00     0.003 C 
HETATM   21  C   UNK N   1      27.852  25.373  -4.766  0.00  0.00     0.160 C 
HETATM   22  O   UNK N   1      27.511  25.956  -5.993  0.00  0.00    -0.334 OA
HETATM   23  C   UNK N   1      28.901  23.554  -3.458  0.00  0.00     0.019 C 
HETATM   24 Cl   UNK N   1      29.606  21.152  -7.485  0.00  0.00    -0.123 Cl
HETATM   25 Cl   UNK N   1      31.292  22.065  -3.648  0.00  0.00    -0.116 Cl
HETATM   26  F   UNK N   1      34.143  24.158  -6.875  0.00  0.00    -0.245 F 
HETATM   27  C   UNK N   1      28.004  28.165  -6.780  0.00  0.00     0.078 C 
HETATM   28  C   UNK N   1      32.489  21.913  -7.580  0.00  0.00     0.027 C 
ENDROOT
BRANCH  21  29
HETATM   29  C   UNK N   1      26.556  25.001  -4.040  0.00  0.00     0.188 C 
HETATM   30  O   UNK N   1      26.313  25.469  -2.938  0.00  0.00    -0.292 OA
BRANCH  29  31
HETATM   31  C   UNK N   1      25.576  24.054  -4.659  0.00  0.00     0.245 C 
BRANCH  31  32
HETATM   32  O   UNK N   1      25.233  24.484  -5.941  0.00  0.00    -0.393 OA
HETATM   33  H   UNK N   1      25.011  25.188  -6.571  0.00  0.00     0.209 HD
ENDBRANCH  31  32
ENDBRANCH  29  31
ENDBRANCH  21  29
TORSDOF 3
ENDMDL
MODEL 3
REMARK VINA RESULT:      -7.3      3.375      9.439
REMARK  3 active torsions:
REMARK  status: ('A' for Active; 'I' for Inactive)
REMARK    1  A    between atoms: C_21  and  C_23 
REMARK    2  A    between atoms: C_23  and  C_25 
REMARK    3  A    between atoms: C_25  and  O_26 
ROOT
HETATM    1  C   UNK N   1      40.487  12.284   8.127  0.00  0.00     0.078 C 
HETATM    2  C   UNK N   1      39.433  13.028   7.324  0.00  0.00     0.159 C 
HETATM    3  O   UNK N   1      38.697  12.097   6.533  0.00  0.00    -0.347 OA
HETATM    4  C   UNK N   1      37.350  12.381   6.791  0.00  0.00     0.168 C 
HETATM    5  C   UNK N   1      36.234  13.211   6.069  0.00  0.00     0.041 C 
HETATM    6  C   UNK N   1      36.000  14.426   6.993  0.00  0.00     0.006 C 
HETATM    7  C   UNK N   1      34.862  15.475   6.760  0.00  0.00     0.020 C 
HETATM    8  C   UNK N   1      34.175  15.331   5.387  0.00  0.00     0.049 C 
HETATM    9  C   UNK N   1      33.225  16.499   5.089  0.00  0.00     0.201 C 
HETATM   10  C   UNK N   1      32.311  16.728   6.263  0.00  0.00    -0.029 A 
HETATM   11  C   UNK N   1      30.985  16.708   6.061  0.00  0.00     0.061 A 
HETATM   12  C   UNK N   1      30.051  16.887   7.182  0.00  0.00     0.172 A 
HETATM   13  O   UNK N   1      28.849  16.887   6.983  0.00  0.00    -0.289 OA
HETATM   14  C   UNK N   1      30.574  17.065   8.542  0.00  0.00     0.052 A 
HETATM   15  C   UNK N   1      31.894  17.073   8.765  0.00  0.00    -0.007 A 
HETATM   16  C   UNK N   1      32.930  16.903   7.660  0.00  0.00     0.023 A 
HETATM   17  C   UNK N   1      33.836  15.633   7.936  0.00  0.00     0.072 C 
HETATM   18  C   UNK N   1      34.599  15.625   9.334  0.00  0.00     0.108 C 
HETATM   19  C   UNK N   1      35.941  14.827   9.430  0.00  0.00     0.035 C 
HETATM   20  C   UNK N   1      36.070  13.756   8.355  0.00  0.00     0.003 C 
HETATM   21  C   UNK N   1      37.398  12.949   8.222  0.00  0.00     0.160 C 
HETATM   22  O   UNK N   1      38.560  13.729   8.200  0.00  0.00    -0.334 OA
HETATM   23  C   UNK N   1      34.961  12.714   8.584  0.00  0.00     0.019 C 
HETATM   24 Cl   UNK N   1      34.837  17.171  10.196  0.00  0.00    -0.123 Cl
HETATM   25 Cl   UNK N   1      32.678  14.239   7.929  0.00  0.00    -0.116 Cl
HETATM   26  F   UNK N   1      33.954  17.642   4.812  0.00  0.00    -0.245 F 
HETATM   27  C   UNK N   1      40.126  14.019   6.410  0.00  0.00     0.078 C 
HETATM   28  C   UNK N   1      33.733  18.203   7.624  0.00  0.00     0.027 C 
ENDROOT
BRANCH  21  29
HETATM   29  C   UNK N   1      37.553  11.894   9.321  0.00  0.00     0.188 C 
HETATM   30  O   UNK N   1      37.541  10.705   9.040  0.00  0.00    -0.292 OA
BRANCH  29  31
HETATM   31  C   UNK N   1      37.709  12.300  10.754  0.00  0.00     0.245 C 
BRANCH  31  32
HETATM   32  O   UNK N   1      38.733  13.239  10.881  0.00  0.00    -0.393 OA
HETATM   33  H   UNK N   1      39.067  14.147  10.813  0.00  0.00     0.209 HD
ENDBRANCH  31  32
ENDBRANCH  29  31
ENDBRANCH  21  29
TORSDOF 3
ENDMDL
MODEL 4
REMARK VINA RESULT:      -7.3     12.449     15.462
REMARK  3 active torsions:
REMARK  status: ('A' for Active; 'I' for Inactive)
REMARK    1  A    between atoms: C_21  and  C_23 
REMARK    2  A    between atoms: C_23  and  C_25 
REMARK    3  A    between atoms: C_25  and  O_26 
ROOT
HETATM    1  C   UNK N   1      32.124  19.869  -7.155  0.00  0.00     0.078 C 
HETATM    2  C   UNK N   1      30.883  20.578  -6.639  0.00  0.00     0.159 C 
HETATM    3  O   UNK N   1      30.889  20.566  -5.213  0.00  0.00    -0.347 OA
HETATM    4  C   UNK N   1      30.658  21.894  -4.835  0.00  0.00     0.168 C 
HETATM    5  C   UNK N   1      29.402  22.717  -4.388  0.00  0.00     0.041 C 
HETATM    6  C   UNK N   1      29.136  23.683  -5.564  0.00  0.00     0.006 C 
HETATM    7  C   UNK N   1      28.056  24.815  -5.518  0.00  0.00     0.020 C 
HETATM    8  C   UNK N   1      27.112  24.704  -4.304  0.00  0.00     0.049 C 
HETATM    9  C   UNK N   1      25.931  25.680  -4.397  0.00  0.00     0.201 C 
HETATM   10  C   UNK N   1      26.434  27.062  -4.717  0.00  0.00    -0.029 A 
HETATM   11  C   UNK N   1      26.107  28.073  -3.898  0.00  0.00     0.061 A 
HETATM   12  C   UNK N   1      26.606  29.433  -4.146  0.00  0.00     0.172 A 
HETATM   13  O   UNK N   1      26.285  30.347  -3.406  0.00  0.00    -0.289 OA
HETATM   14  C   UNK N   1      27.492  29.685  -5.289  0.00  0.00     0.052 A 
HETATM   15  C   UNK N   1      27.841  28.686  -6.109  0.00  0.00    -0.007 A 
HETATM   16  C   UNK N   1      27.363  27.250  -5.929  0.00  0.00     0.023 A 
HETATM   17  C   UNK N   1      28.594  26.272  -5.734  0.00  0.00     0.072 C 
HETATM   18  C   UNK N   1      29.675  26.289  -6.903  0.00  0.00     0.108 C 
HETATM   19  C   UNK N   1      30.514  24.991  -7.143  0.00  0.00     0.035 C 
HETATM   20  C   UNK N   1      30.557  24.082  -5.922  0.00  0.00     0.003 C 
HETATM   21  C   UNK N   1      31.243  22.685  -6.020  0.00  0.00     0.160 C 
HETATM   22  O   UNK N   1      30.851  21.915  -7.122  0.00  0.00    -0.334 OA
HETATM   23  C   UNK N   1      31.286  24.834  -4.794  0.00  0.00     0.019 C 
HETATM   24 Cl   UNK N   1      29.203  26.921  -8.506  0.00  0.00    -0.123 Cl
HETATM   25 Cl   UNK N   1      29.404  26.857  -4.222  0.00  0.00    -0.116 Cl
HETATM   26  F   UNK N   1      25.039  25.252  -5.364  0.00  0.00    -0.245 F 
HETATM   27  C   UNK N   1      29.656  19.838  -7.137  0.00  0.00     0.078 C 
HETATM   28  C   UNK N   1      26.536  26.917  -7.170  0.00  0.00     0.027 C 
ENDROOT
BRANCH  21  29
HETATM   29  C   UNK N   1      32.771  22.784  -6.029  0.00  0.00     0.188 C 
HETATM   30  O   UNK N   1      33.363  23.090  -7.052  0.00  0.00    -0.292 OA
BRANCH  29  31
HETATM   31  C   UNK N   1      33.564  22.496  -4.791  0.00  0.00     0.245 C 
BRANCH  31  32
HETATM   32  O   UNK N   1      34.005  21.173  -4.797  0.00  0.00    -0.393 OA
HETATM   33  H   UNK N   1      34.004  20.274  -4.432  0.00  0.00     0.209 HD
ENDBRANCH  31  32
ENDBRANCH  29  31
ENDBRANCH  21  29
TORSDOF 3
ENDMDL
MODEL 5
REMARK VINA RESULT:      -7.0      6.907      8.309
REMARK  3 active torsions:
REMARK  status: ('A' for Active; 'I' for Inactive)
REMARK    1  A    between atoms: C_21  and  C_23 
REMARK    2  A    between atoms: C_23  and  C_25 
REMARK    3  A    between atoms: C_25  and  O_26 
ROOT
HETATM    1  C   UNK N   1      21.071  20.669   1.803  0.00  0.00     0.078 C 
HETATM    2  C   UNK N   1      21.845  19.878   2.845  0.00  0.00     0.159 C 
HETATM    3  O   UNK N   1      21.120  19.878   4.073  0.00  0.00    -0.347 OA
HETATM    4  C   UNK N   1      21.062  18.534   4.463  0.00  0.00     0.168 C 
HETATM    5  C   UNK N   1      21.878  17.630   5.449  0.00  0.00     0.041 C 
HETATM    6  C   UNK N   1      22.653  16.660   4.530  0.00  0.00     0.006 C 
HETATM    7  C   UNK N   1      23.505  15.463   5.068  0.00  0.00     0.020 C 
HETATM    8  C   UNK N   1      23.710  15.503   6.596  0.00  0.00     0.049 C 
HETATM    9  C   UNK N   1      24.727  14.455   7.072  0.00  0.00     0.201 C 
HETATM   10  C   UNK N   1      24.386  13.110   6.488  0.00  0.00    -0.029 A 
HETATM   11  C   UNK N   1      24.204  12.074   7.319  0.00  0.00     0.061 A 
HETATM   12  C   UNK N   1      23.832  10.750   6.800  0.00  0.00     0.172 A 
HETATM   13  O   UNK N   1      23.690   9.811   7.564  0.00  0.00    -0.289 OA
HETATM   14  C   UNK N   1      23.634  10.565   5.358  0.00  0.00     0.052 A 
HETATM   15  C   UNK N   1      23.796  11.591   4.514  0.00  0.00    -0.007 A 
HETATM   16  C   UNK N   1      24.189  12.993   4.967  0.00  0.00     0.023 A 
HETATM   17  C   UNK N   1      23.078  14.044   4.553  0.00  0.00     0.072 C 
HETATM   18  C   UNK N   1      22.736  14.105   2.999  0.00  0.00     0.108 C 
HETATM   19  C   UNK N   1      22.198  15.456   2.422  0.00  0.00     0.035 C 
HETATM   20  C   UNK N   1      21.589  16.354   3.489  0.00  0.00     0.003 C 
HETATM   21  C   UNK N   1      21.117  17.792   3.114  0.00  0.00     0.160 C 
HETATM   22  O   UNK N   1      22.049  18.546   2.391  0.00  0.00    -0.334 OA
HETATM   23  C   UNK N   1      20.354  15.640   4.067  0.00  0.00     0.019 C 
HETATM   24 Cl   UNK N   1      23.921  13.460   1.828  0.00  0.00    -0.123 Cl
HETATM   25 Cl   UNK N   1      21.587  13.497   5.428  0.00  0.00    -0.116 Cl
HETATM   26  F   UNK N   1      26.005  14.836   6.703  0.00  0.00    -0.245 F 
HETATM   27  C   UNK N   1      23.190  20.544   3.062  0.00  0.00     0.078 C 
HETATM   28  C   UNK N   1      25.545  13.284   4.325  0.00  0.00     0.027 C 
ENDROOT
BRANCH  21  29
HETATM   29  C   UNK N   1      19.799  17.790   2.334  0.00  0.00     0.188 C 
HETATM   30  O   UNK N   1      18.802  18.313   2.808  0.00  0.00    -0.292 OA
BRANCH  29  31
HETATM   31  C   UNK N   1      19.708  17.139   0.988  0.00  0.00     0.245 C 
BRANCH  31  32
HETATM   32  O   UNK N   1      20.312  17.943   0.021  0.00  0.00    -0.393 OA
HETATM   33  H   UNK N   1      20.970  18.084  -0.677  0.00  0.00     0.209 HD
ENDBRANCH  31  32
ENDBRANCH  29  31
ENDBRANCH  21  29
TORSDOF 3
ENDMDL
MODEL 6
REMARK VINA RESULT:      -6.8     11.490     14.696
REMARK  3 active torsions:
REMARK  status: ('A' for Active; 'I' for Inactive)
REMARK    1  A    between atoms: C_21  and  C_23 
REMARK    2  A    between atoms: C_23  and  C_25 
REMARK    3  A    between atoms: C_25  and  O_26 
ROOT
HETATM    1  C   UNK N   1      34.363  19.772  -7.029  0.00  0.00     0.078 C 
HETATM    2  C   UNK N   1      32.946  20.320  -7.081  0.00  0.00     0.159 C 
HETATM    3  O   UNK N   1      32.121  19.588  -6.178  0.00  0.00    -0.347 OA
HETATM    4  C   UNK N   1      31.463  20.559  -5.414  0.00  0.00     0.168 C 
HETATM    5  C   UNK N   1      30.053  21.241  -5.462  0.00  0.00     0.041 C 
HETATM    6  C   UNK N   1      30.345  22.698  -5.885  0.00  0.00     0.006 C 
HETATM    7  C   UNK N   1      29.249  23.814  -5.931  0.00  0.00     0.020 C 
HETATM    8  C   UNK N   1      27.816  23.265  -5.773  0.00  0.00     0.049 C 
HETATM    9  C   UNK N   1      26.752  24.338  -6.044  0.00  0.00     0.201 C 
HETATM   10  C   UNK N   1      27.071  25.584  -5.262  0.00  0.00    -0.029 A 
HETATM   11  C   UNK N   1      26.141  26.079  -4.432  0.00  0.00     0.061 A 
HETATM   12  C   UNK N   1      26.418  27.271  -3.618  0.00  0.00     0.172 A 
HETATM   13  O   UNK N   1      25.558  27.724  -2.882  0.00  0.00    -0.289 OA
HETATM   14  C   UNK N   1      27.736  27.913  -3.694  0.00  0.00     0.052 A 
HETATM   15  C   UNK N   1      28.682  27.424  -4.506  0.00  0.00    -0.007 A 
HETATM   16  C   UNK N   1      28.475  26.199  -5.389  0.00  0.00     0.023 A 
HETATM   17  C   UNK N   1      29.520  25.066  -5.025  0.00  0.00     0.072 C 
HETATM   18  C   UNK N   1      31.053  25.488  -5.119  0.00  0.00     0.108 C 
HETATM   19  C   UNK N   1      32.103  24.370  -5.422  0.00  0.00     0.035 C 
HETATM   20  C   UNK N   1      31.599  22.976  -5.074  0.00  0.00     0.003 C 
HETATM   21  C   UNK N   1      32.465  21.728  -5.426  0.00  0.00     0.160 C 
HETATM   22  O   UNK N   1      32.947  21.701  -6.741  0.00  0.00    -0.334 OA
HETATM   23  C   UNK N   1      31.371  22.918  -3.553  0.00  0.00     0.019 C 
HETATM   24 Cl   UNK N   1      31.495  26.914  -6.102  0.00  0.00    -0.123 Cl
HETATM   25 Cl   UNK N   1      29.164  24.658  -3.295  0.00  0.00    -0.116 Cl
HETATM   26  F   UNK N   1      26.696  24.616  -7.399  0.00  0.00    -0.245 F 
HETATM   27  C   UNK N   1      32.411  20.154  -8.491  0.00  0.00     0.078 C 
HETATM   28  C   UNK N   1      28.611  26.685  -6.831  0.00  0.00     0.027 C 
ENDROOT
BRANCH  21  29
HETATM   29  C   UNK N   1      33.656  21.558  -4.479  0.00  0.00     0.188 C 
HETATM   30  O   UNK N   1      34.700  22.158  -4.688  0.00  0.00    -0.292 OA
BRANCH  29  31
HETATM   31  C   UNK N   1      33.567  20.648  -3.294  0.00  0.00     0.245 C 
BRANCH  31  32
HETATM   32  O   UNK N   1      33.871  19.338  -3.667  0.00  0.00    -0.393 OA
HETATM   33  H   UNK N   1      34.263  18.698  -4.281  0.00  0.00     0.209 HD
ENDBRANCH  31  32
ENDBRANCH  29  31
ENDBRANCH  21  29
TORSDOF 3
ENDMDL
MODEL 7
REMARK VINA RESULT:      -6.8      6.479     10.849
REMARK  3 active torsions:
REMARK  status: ('A' for Active; 'I' for Inactive)
REMARK    1  A    between atoms: C_21  and  C_23 
REMARK    2  A    between atoms: C_23  and  C_25 
REMARK    3  A    between atoms: C_25  and  O_26 
ROOT
HETATM    1  C   UNK N   1      35.758  11.462  17.009  0.00  0.00     0.078 C 
HETATM    2  C   UNK N   1      35.409  12.503  15.958  0.00  0.00     0.159 C 
HETATM    3  O   UNK N   1      36.501  13.408  15.807  0.00  0.00    -0.347 OA
HETATM    4  C   UNK N   1      36.740  13.465  14.428  0.00  0.00     0.168 C 
HETATM    5  C   UNK N   1      36.337  14.443  13.272  0.00  0.00     0.041 C 
HETATM    6  C   UNK N   1      35.341  13.634  12.413  0.00  0.00     0.006 C 
HETATM    7  C   UNK N   1      34.767  14.148  11.051  0.00  0.00     0.020 C 
HETATM    8  C   UNK N   1      35.081  15.634  10.782  0.00  0.00     0.049 C 
HETATM    9  C   UNK N   1      34.325  16.173   9.560  0.00  0.00     0.201 C 
HETATM   10  C   UNK N   1      34.506  15.240   8.393  0.00  0.00    -0.029 A 
HETATM   11  C   UNK N   1      34.997  15.730   7.245  0.00  0.00     0.061 A 
HETATM   12  C   UNK N   1      35.228  14.851   6.090  0.00  0.00     0.172 A 
HETATM   13  O   UNK N   1      35.656  15.312   5.046  0.00  0.00    -0.289 OA
HETATM   14  C   UNK N   1      34.942  13.416   6.201  0.00  0.00     0.052 A 
HETATM   15  C   UNK N   1      34.466  12.906   7.343  0.00  0.00    -0.007 A 
HETATM   16  C   UNK N   1      34.190  13.747   8.584  0.00  0.00     0.023 A 
HETATM   17  C   UNK N   1      35.055  13.235   9.808  0.00  0.00     0.072 C 
HETATM   18  C   UNK N   1      34.857  11.703  10.196  0.00  0.00     0.108 C 
HETATM   19  C   UNK N   1      35.115  11.286  11.681  0.00  0.00     0.035 C 
HETATM   20  C   UNK N   1      36.008  12.269  12.425  0.00  0.00     0.003 C 
HETATM   21  C   UNK N   1      36.269  12.078  13.950  0.00  0.00     0.160 C 
HETATM   22  O   UNK N   1      35.119  11.867  14.720  0.00  0.00    -0.334 OA
HETATM   23  C   UNK N   1      37.393  12.258  11.753  0.00  0.00     0.019 C 
HETATM   24 Cl   UNK N   1      33.377  10.861   9.656  0.00  0.00    -0.123 Cl
HETATM   25 Cl   UNK N   1      36.773  13.453   9.273  0.00  0.00    -0.116 Cl
HETATM   26  F   UNK N   1      32.982  16.319   9.862  0.00  0.00    -0.245 F 
HETATM   27  C   UNK N   1      34.187  13.274  16.422  0.00  0.00     0.078 C 
HETATM   28  C   UNK N   1      32.687  13.647   8.842  0.00  0.00     0.027 C 
ENDROOT
BRANCH  21  29
HETATM   29  C   UNK N   1      37.250  10.938  14.237  0.00  0.00     0.188 C 
HETATM   30  O   UNK N   1      38.359  11.179  14.688  0.00  0.00    -0.292 OA
BRANCH  29  31
HETATM   31  C   UNK N   1      36.873   9.516  13.959  0.00  0.00     0.245 C 
BRANCH  31  32
HETATM   32  O   UNK N   1      35.642   9.219  14.545  0.00  0.00    -0.393 OA
HETATM   33  H   UNK N   1      34.878   8.635  14.669  0.00  0.00     0.209 HD
ENDBRANCH  31  32
ENDBRANCH  29  31
ENDBRANCH  21  29
TORSDOF 3
ENDMDL
MODEL 8
REMARK VINA RESULT:      -6.7      3.487      5.460
REMARK  3 active torsions:
REMARK  status: ('A' for Active; 'I' for Inactive)
REMARK    1  A    between atoms: C_21  and  C_23 
REMARK    2  A    between atoms: C_23  and  C_25 
REMARK    3  A    between atoms: C_25  and  O_26 
ROOT
HETATM    1  C   UNK N   1      19.568  17.925   2.894  0.00  0.00     0.078 C 
HETATM    2  C   UNK N   1      20.959  18.431   3.237  0.00  0.00     0.159 C 
HETATM    3  O   UNK N   1      20.975  18.896   4.585  0.00  0.00    -0.347 OA
HETATM    4  C   UNK N   1      22.080  18.271   5.175  0.00  0.00     0.168 C 
HETATM    5  C   UNK N   1      23.561  18.688   5.474  0.00  0.00     0.041 C 
HETATM    6  C   UNK N   1      24.405  17.829   4.507  0.00  0.00     0.006 C 
HETATM    7  C   UNK N   1      25.969  17.791   4.536  0.00  0.00     0.020 C 
HETATM    8  C   UNK N   1      26.587  18.882   5.433  0.00  0.00     0.049 C 
HETATM    9  C   UNK N   1      28.111  18.970   5.272  0.00  0.00     0.201 C 
HETATM   10  C   UNK N   1      28.718  17.598   5.390  0.00  0.00    -0.029 A 
HETATM   11  C   UNK N   1      29.677  17.394   6.305  0.00  0.00     0.061 A 
HETATM   12  C   UNK N   1      30.274  16.063   6.486  0.00  0.00     0.172 A 
HETATM   13  O   UNK N   1      31.159  15.895   7.307  0.00  0.00    -0.289 OA
HETATM   14  C   UNK N   1      29.798  14.937   5.673  0.00  0.00     0.052 A 
HETATM   15  C   UNK N   1      28.831  15.118   4.765  0.00  0.00    -0.007 A 
HETATM   16  C   UNK N   1      28.165  16.466   4.508  0.00  0.00     0.023 A 
HETATM   17  C   UNK N   1      26.607  16.378   4.777  0.00  0.00     0.072 C 
HETATM   18  C   UNK N   1      25.826  15.274   3.935  0.00  0.00     0.108 C 
HETATM   19  C   UNK N   1      24.313  15.522   3.629  0.00  0.00     0.035 C 
HETATM   20  C   UNK N   1      23.667  16.504   4.597  0.00  0.00     0.003 C 
HETATM   21  C   UNK N   1      22.196  16.966   4.367  0.00  0.00     0.160 C 
HETATM   22  O   UNK N   1      21.912  17.390   3.063  0.00  0.00    -0.334 OA
HETATM   23  C   UNK N   1      23.700  15.879   6.003  0.00  0.00     0.019 C 
HETATM   24 Cl   UNK N   1      26.574  14.639   2.442  0.00  0.00    -0.123 Cl
HETATM   25 Cl   UNK N   1      26.472  15.936   6.530  0.00  0.00    -0.116 Cl
HETATM   26  F   UNK N   1      28.425  19.536   4.049  0.00  0.00    -0.245 F 
HETATM   27  C   UNK N   1      21.302  19.582   2.311  0.00  0.00     0.078 C 
HETATM   28  C   UNK N   1      28.495  16.836   3.062  0.00  0.00     0.027 C 
ENDROOT
BRANCH  21  29
HETATM   29  C   UNK N   1      21.178  15.887   4.749  0.00  0.00     0.188 C 
HETATM   30  O   UNK N   1      20.988  14.932   4.012  0.00  0.00    -0.292 OA
BRANCH  29  31
HETATM   31  C   UNK N   1      20.395  15.990   6.021  0.00  0.00     0.245 C 
BRANCH  31  32
HETATM   32  O   UNK N   1      19.562  14.879   6.166  0.00  0.00    -0.393 OA
HETATM   33  H   UNK N   1      19.259  14.104   6.662  0.00  0.00     0.209 HD
ENDBRANCH  31  32
ENDBRANCH  29  31
ENDBRANCH  21  29
TORSDOF 3
ENDMDL
MODEL 9
REMARK VINA RESULT:      -6.7     11.943     15.201
REMARK  3 active torsions:
REMARK  status: ('A' for Active; 'I' for Inactive)
REMARK    1  A    between atoms: C_21  and  C_23 
REMARK    2  A    between atoms: C_23  and  C_25 
REMARK    3  A    between atoms: C_25  and  O_26 
ROOT
HETATM    1  C   UNK N   1      35.145  20.564  -6.032  0.00  0.00     0.078 C 
HETATM    2  C   UNK N   1      34.117  21.463  -6.698  0.00  0.00     0.159 C 
HETATM    3  O   UNK N   1      33.107  20.658  -7.303  0.00  0.00    -0.347 OA
HETATM    4  C   UNK N   1      31.894  21.191  -6.850  0.00  0.00     0.168 C 
HETATM    5  C   UNK N   1      30.834  22.188  -7.432  0.00  0.00     0.041 C 
HETATM    6  C   UNK N   1      30.976  23.453  -6.557  0.00  0.00     0.006 C 
HETATM    7  C   UNK N   1      30.016  24.685  -6.668  0.00  0.00     0.020 C 
HETATM    8  C   UNK N   1      29.092  24.625  -7.901  0.00  0.00     0.049 C 
HETATM    9  C   UNK N   1      28.324  25.938  -8.113  0.00  0.00     0.201 C 
HETATM   10  C   UNK N   1      27.676  26.365  -6.823  0.00  0.00    -0.029 A 
HETATM   11  C   UNK N   1      26.353  26.581  -6.807  0.00  0.00     0.061 A 
HETATM   12  C   UNK N   1      25.667  26.962  -5.564  0.00  0.00     0.172 A 
HETATM   13  O   UNK N   1      24.467  27.175  -5.567  0.00  0.00    -0.289 OA
HETATM   14  C   UNK N   1      26.436  27.084  -4.319  0.00  0.00     0.052 A 
HETATM   15  C   UNK N   1      27.755  26.858  -4.312  0.00  0.00    -0.007 A 
HETATM   16  C   UNK N   1      28.544  26.467  -5.557  0.00  0.00     0.023 A 
HETATM   17  C   UNK N   1      29.247  25.063  -5.354  0.00  0.00     0.072 C 
HETATM   18  C   UNK N   1      30.222  24.958  -4.099  0.00  0.00     0.108 C 
HETATM   19  C   UNK N   1      31.401  23.933  -4.172  0.00  0.00     0.035 C 
HETATM   20  C   UNK N   1      31.157  22.824  -5.187  0.00  0.00     0.003 C 
HETATM   21  C   UNK N   1      32.281  21.784  -5.482  0.00  0.00     0.160 C 
HETATM   22  O   UNK N   1      33.541  22.339  -5.738  0.00  0.00    -0.334 OA
HETATM   23  C   UNK N   1      29.938  22.009  -4.719  0.00  0.00     0.019 C 
HETATM   24 Cl   UNK N   1      30.869  26.462  -3.382  0.00  0.00    -0.123 Cl
HETATM   25 Cl   UNK N   1      27.879  23.904  -5.089  0.00  0.00    -0.116 Cl
HETATM   26  F   UNK N   1      29.184  26.919  -8.573  0.00  0.00    -0.245 F 
HETATM   27  C   UNK N   1      34.808  22.282  -7.771  0.00  0.00     0.078 C 
HETATM   28  C   UNK N   1      29.543  27.597  -5.801  0.00  0.00     0.027 C 
ENDROOT
BRANCH  21  29
HETATM   29  C   UNK N   1      32.433  20.753  -4.360  0.00  0.00     0.188 C 
HETATM   30  O   UNK N   1      31.904  19.656  -4.456  0.00  0.00    -0.292 OA
BRANCH  29  31
HETATM   31  C   UNK N   1      33.219  21.075  -3.127  0.00  0.00     0.245 C 
BRANCH  31  32
HETATM   32  O   UNK N   1      32.359  21.369  -2.069  0.00  0.00    -0.393 OA
HETATM   33  H   UNK N   1      31.481  21.597  -1.725  0.00  0.00     0.209 HD
ENDBRANCH  31  32
ENDBRANCH  29  31
ENDBRANCH  21  29
TORSDOF 3
ENDMDL
