REMARK  5 active torsions:
REMARK  status: ('A' for Active; 'I' for Inactive)
REMARK    1  A    between atoms: C_18  and  C_17 
REMARK    2  A    between atoms: N_26  and  C_17 
REMARK    3  A    between atoms: C_23  and  C_19 
REMARK    4  A    between atoms: C_23  and  C_20 
REMARK    5  A    between atoms: O_27  and  C_21 
ROOT
HETATM    1  C   UNK N   1      -2.923   3.519   1.364  0.00  0.00     0.086 C 
HETATM    2  C   UNK N   1      -2.967   2.032   1.101  0.00  0.00     0.032 C 
HETATM    3  C   UNK N   1      -2.918   4.232   0.049  0.00  0.00     0.117 C 
HETATM    4  C   UNK N   1      -1.600   2.569  -0.938  0.00  0.00     0.237 C 
HETATM    5  C   UNK N   1      -1.803   1.557   0.209  0.00  0.00     0.072 C 
HETATM    6  N   UNK N   1      -2.245   3.771  -0.957  0.00  0.00    -0.310 N 
ATOM      7  HN  UNK N   1      -2.195   4.334  -1.806  1.00  0.00     0.170 HD
HETATM    8  O   UNK N   1      -0.843   2.303  -1.862  0.00  0.00    -0.272 OA
ENDROOT
BRANCH   5   9
HETATM    9  C   UNK N   1      -2.181   0.147  -0.270  0.00  0.00    -0.040 A 
HETATM   10  C   UNK N   1      -2.028  -0.237  -1.615  0.00  0.00     0.008 A 
HETATM   11  C   UNK N   1      -2.159  -1.577  -1.992  0.00  0.00     0.001 A 
HETATM   12  C   UNK N   1      -2.443  -2.551  -1.031  0.00  0.00     0.000 A 
HETATM   13  C   UNK N   1      -2.613  -2.185   0.305  0.00  0.00     0.001 A 
HETATM   14  C   UNK N   1      -2.469  -0.850   0.685  0.00  0.00     0.008 A 
ENDBRANCH   5   9
BRANCH   5  15
HETATM   15  C   UNK N   1      -0.499   1.375   1.057  0.00  0.00     0.011 C 
HETATM   16  C   UNK N   1       0.432   0.297   0.510  0.00  0.00     0.036 C 
HETATM   17  C   UNK N   1       1.302   0.882  -0.583  0.00  0.00     0.273 C 
HETATM   18  N   UNK N   1       2.239   1.834   0.015  0.00  0.00     0.092 N 
HETATM   19  C   UNK N   1       1.474   2.986   0.537  0.00  0.00     0.273 C 
HETATM   20  C   UNK N   1       0.312   2.611   1.500  0.00  0.00     0.036 C 
BRANCH  18  21
HETATM   21  C   UNK N   1       3.085   1.211   1.060  0.00  0.00     0.311 C 
BRANCH  21  22
HETATM   22  C   UNK N   1       3.483  -0.208   0.709  0.00  0.00    -0.030 A 
HETATM   23  C   UNK N   1       4.315  -0.473  -0.387  0.00  0.00     0.009 A 
HETATM   24  C   UNK N   1       4.576  -1.796  -0.765  0.00  0.00     0.001 A 
HETATM   25  C   UNK N   1       3.991  -2.855  -0.064  0.00  0.00     0.000 A 
HETATM   26  C   UNK N   1       3.159  -2.595   1.028  0.00  0.00     0.001 A 
HETATM   27  C   UNK N   1       2.908  -1.275   1.414  0.00  0.00     0.009 A 
ENDBRANCH  21  22
ENDBRANCH  18  21
ENDBRANCH   5  15
BRANCH   3  28
HETATM   28  O   UNK N   1      -3.573   5.401  -0.070  0.00  0.00    -0.349 OA
HETATM   29  H   UNK N   1      -3.097   6.204  -0.154  0.00  0.00     0.219 HD
ENDBRANCH   3  28
TORSDOF 5
