MODEL 1
REMARK VINA RESULT:      -7.3      0.000      0.000
REMARK  7 active torsions:
REMARK  status: ('A' for Active; 'I' for Inactive)
REMARK    1  A    between atoms: C_17  and  C_14 
REMARK    2  A    between atoms: N_25  and  C_14 
REMARK    3  A    between atoms: C_20  and  C_15 
REMARK    4  A    between atoms: N_25  and  C_15 
REMARK    5  A    between atoms: C_21  and  C_16 
REMARK    6  A    between atoms: N_23  and  C_19 
REMARK       I    between atoms: N_26  and  C_20 
REMARK    7  A    between atoms: O_28  and  C_21 
ROOT
HETATM    1  C   UNK N   1      33.978   9.680  12.085  0.00  0.00     0.004 A 
HETATM    2  C   UNK N   1      34.669   9.819  10.881  0.00  0.00     0.024 A 
HETATM    3  C   UNK N   1      34.200  10.582  13.125  0.00  0.00     0.030 A 
HETATM    4  C   UNK N   1      35.802  11.784  11.747  0.00  0.00     0.018 A 
HETATM    5  C   UNK N   1      35.581  10.861  10.706  0.00  0.00     0.044 A 
HETATM    6  C   UNK N   1      35.113  11.638  12.972  0.00  0.00     0.043 A 
HETATM    7 Cl   UNK N   1      36.438  10.981   9.177  0.00  0.00    -0.084 Cl
ENDROOT
BRANCH   4   8
HETATM    8  C   UNK N   1      36.799  12.912  11.580  0.00  0.00     0.315 C 
BRANCH   8   9
HETATM    9  N   UNK N   1      36.378  14.006  10.688  0.00  0.00     0.097 N 
HETATM   10  C   UNK N   1      37.457  14.535   9.861  0.00  0.00     0.310 C 
BRANCH   9  11
HETATM   11  C   UNK N   1      35.823  15.105  11.460  0.00  0.00     0.374 C 
BRANCH  11  12
HETATM   12  C   UNK N   1      35.348  16.217  10.562  0.00  0.00     0.248 C 
HETATM   13  N   UNK N   1      34.242  16.081   9.767  0.00  0.00    -0.347 N 
HETATM   14  C   UNK N   1      33.864  17.179   8.882  0.00  0.00     0.152 C 
HETATM   15  C   UNK N   1      33.450  14.852   9.834  0.00  0.00     0.152 C 
HETATM   16  C   UNK N   1      32.711  16.806   7.953  0.00  0.00     0.187 C 
HETATM   17  O   UNK N   1      31.750  16.093   8.673  0.00  0.00    -0.388 OA
HETATM   18  C   UNK N   1      32.306  14.819   8.818  0.00  0.00     0.187 C 
HETATM   19  O   UNK N   1      36.000  17.254  10.530  0.00  0.00    -0.271 OA
ENDBRANCH  11  12
ENDBRANCH   9  11
ENDBRANCH   8   9
ENDBRANCH   4   8
BRANCH   6  20
HETATM   20  N   UNK N   1      35.352  12.589  14.010  0.00  0.00    -0.336 N 
HETATM   21  C   UNK N   1      36.198  12.500  14.985  0.00  0.00     0.150 C 
ATOM     22  HN  UNK N   1      34.787  13.438  13.981  1.00  0.00     0.168 HD
BRANCH  21  23
HETATM   23  C   UNK N   1      36.246  13.581  15.991  0.00  0.00     0.015 A 
HETATM   24  C   UNK N   1      35.401  13.553  17.109  0.00  0.00     0.016 A 
HETATM   25  C   UNK N   1      35.441  14.590  18.048  0.00  0.00     0.001 A 
HETATM   26  C   UNK N   1      36.322  15.661  17.874  0.00  0.00     0.000 A 
HETATM   27  C   UNK N   1      37.167  15.696  16.762  0.00  0.00     0.001 A 
HETATM   28  C   UNK N   1      37.129  14.661  15.824  0.00  0.00     0.016 A 
ENDBRANCH  21  23
BRANCH  21  29
HETATM   29  O   UNK N   1      37.030  11.442  15.099  0.00  0.00    -0.345 OA
HETATM   30  H   UNK N   1      36.928  10.682  14.561  0.00  0.00     0.219 HD
ENDBRANCH  21  29
ENDBRANCH   6  20
TORSDOF 7
ENDMDL
MODEL 2
REMARK VINA RESULT:      -7.2      3.489      6.300
REMARK  7 active torsions:
REMARK  status: ('A' for Active; 'I' for Inactive)
REMARK    1  A    between atoms: C_17  and  C_14 
REMARK    2  A    between atoms: N_25  and  C_14 
REMARK    3  A    between atoms: C_20  and  C_15 
REMARK    4  A    between atoms: N_25  and  C_15 
REMARK    5  A    between atoms: C_21  and  C_16 
REMARK    6  A    between atoms: N_23  and  C_19 
REMARK       I    between atoms: N_26  and  C_20 
REMARK    7  A    between atoms: O_28  and  C_21 
ROOT
HETATM    1  C   UNK N   1      35.267  10.908  19.121  0.00  0.00     0.004 A 
HETATM    2  C   UNK N   1      35.254  12.296  19.260  0.00  0.00     0.024 A 
HETATM    3  C   UNK N   1      35.266  10.334  17.850  0.00  0.00     0.030 A 
HETATM    4  C   UNK N   1      35.257  12.547  16.845  0.00  0.00     0.018 A 
HETATM    5  C   UNK N   1      35.244  13.118  18.132  0.00  0.00     0.044 A 
HETATM    6  C   UNK N   1      35.257  11.142  16.701  0.00  0.00     0.043 A 
HETATM    7 Cl   UNK N   1      35.209  14.860  18.362  0.00  0.00    -0.084 Cl
ENDROOT
BRANCH   4   8
HETATM    8  C   UNK N   1      35.231  13.425  15.610  0.00  0.00     0.315 C 
BRANCH   8   9
HETATM    9  N   UNK N   1      36.541  13.688  14.990  0.00  0.00     0.097 N 
HETATM   10  C   UNK N   1      37.171  14.920  15.452  0.00  0.00     0.310 C 
BRANCH   9  11
HETATM   11  C   UNK N   1      36.412  13.763  13.544  0.00  0.00     0.374 C 
BRANCH  11  12
HETATM   12  C   UNK N   1      37.016  12.553  12.880  0.00  0.00     0.248 C 
HETATM   13  N   UNK N   1      36.962  12.371  11.524  0.00  0.00    -0.347 N 
HETATM   14  C   UNK N   1      37.524  11.153  10.949  0.00  0.00     0.152 C 
HETATM   15  C   UNK N   1      36.366  13.406  10.678  0.00  0.00     0.152 C 
HETATM   16  C   UNK N   1      37.240  11.032   9.453  0.00  0.00     0.187 C 
HETATM   17  O   UNK N   1      37.432  12.274   8.845  0.00  0.00    -0.388 OA
HETATM   18  C   UNK N   1      36.298  13.009   9.202  0.00  0.00     0.187 C 
HETATM   19  O   UNK N   1      37.538  11.702  13.591  0.00  0.00    -0.271 OA
ENDBRANCH  11  12
ENDBRANCH   9  11
ENDBRANCH   8   9
ENDBRANCH   4   8
BRANCH   6  20
HETATM   20  N   UNK N   1      35.273  10.587  15.385  0.00  0.00    -0.336 N 
HETATM   21  C   UNK N   1      34.273  10.433  14.579  0.00  0.00     0.150 C 
ATOM     22  HN  UNK N   1      36.181  10.275  15.040  1.00  0.00     0.168 HD
BRANCH  21  23
HETATM   23  C   UNK N   1      34.501   9.782  13.273  0.00  0.00     0.015 A 
HETATM   24  C   UNK N   1      33.826  10.225  12.127  0.00  0.00     0.016 A 
HETATM   25  C   UNK N   1      34.034   9.591  10.898  0.00  0.00     0.001 A 
HETATM   26  C   UNK N   1      34.915   8.510  10.806  0.00  0.00     0.000 A 
HETATM   27  C   UNK N   1      35.591   8.062  11.943  0.00  0.00     0.001 A 
HETATM   28  C   UNK N   1      35.385   8.694  13.172  0.00  0.00     0.016 A 
ENDBRANCH  21  23
BRANCH  21  29
HETATM   29  O   UNK N   1      33.033  10.853  14.911  0.00  0.00    -0.345 OA
HETATM   30  H   UNK N   1      32.535  10.421  15.576  0.00  0.00     0.219 HD
ENDBRANCH  21  29
ENDBRANCH   6  20
TORSDOF 7
ENDMDL
MODEL 3
REMARK VINA RESULT:      -6.9     20.565     22.444
REMARK  7 active torsions:
REMARK  status: ('A' for Active; 'I' for Inactive)
REMARK    1  A    between atoms: C_17  and  C_14 
REMARK    2  A    between atoms: N_25  and  C_14 
REMARK    3  A    between atoms: C_20  and  C_15 
REMARK    4  A    between atoms: N_25  and  C_15 
REMARK    5  A    between atoms: C_21  and  C_16 
REMARK    6  A    between atoms: N_23  and  C_19 
REMARK       I    between atoms: N_26  and  C_20 
REMARK    7  A    between atoms: O_28  and  C_21 
ROOT
HETATM    1  C   UNK N   1      28.062  20.813  -8.291  0.00  0.00     0.004 A 
HETATM    2  C   UNK N   1      29.203  20.233  -7.736  0.00  0.00     0.024 A 
HETATM    3  C   UNK N   1      27.523  21.969  -7.727  0.00  0.00     0.030 A 
HETATM    4  C   UNK N   1      29.284  21.980  -6.052  0.00  0.00     0.018 A 
HETATM    5  C   UNK N   1      29.815  20.805  -6.619  0.00  0.00     0.044 A 
HETATM    6  C   UNK N   1      28.121  22.562  -6.603  0.00  0.00     0.043 A 
HETATM    7 Cl   UNK N   1      31.239  20.025  -5.949  0.00  0.00    -0.084 Cl
ENDROOT
BRANCH   4   8
HETATM    8  C   UNK N   1      29.927  22.606  -4.830  0.00  0.00     0.315 C 
BRANCH   8   9
HETATM    9  N   UNK N   1      30.891  23.686  -5.103  0.00  0.00     0.097 N 
HETATM   10  C   UNK N   1      32.269  23.336  -4.780  0.00  0.00     0.310 C 
BRANCH   9  11
HETATM   11  C   UNK N   1      30.541  24.879  -4.349  0.00  0.00     0.374 C 
BRANCH  11  12
HETATM   12  C   UNK N   1      30.011  25.959  -5.256  0.00  0.00     0.248 C 
HETATM   13  N   UNK N   1      29.736  27.218  -4.794  0.00  0.00    -0.347 N 
HETATM   14  C   UNK N   1      29.178  28.205  -5.714  0.00  0.00     0.152 C 
HETATM   15  C   UNK N   1      30.024  27.557  -3.399  0.00  0.00     0.152 C 
HETATM   16  C   UNK N   1      28.780  29.500  -5.007  0.00  0.00     0.187 C 
HETATM   17  O   UNK N   1      29.772  29.846  -4.087  0.00  0.00    -0.388 OA
HETATM   18  C   UNK N   1      29.571  28.968  -3.019  0.00  0.00     0.187 C 
HETATM   19  O   UNK N   1      29.797  25.678  -6.429  0.00  0.00    -0.271 OA
ENDBRANCH  11  12
ENDBRANCH   9  11
ENDBRANCH   8   9
ENDBRANCH   4   8
BRANCH   6  20
HETATM   20  N   UNK N   1      27.605  23.755  -6.012  0.00  0.00    -0.336 N 
HETATM   21  C   UNK N   1      26.372  24.031  -5.737  0.00  0.00     0.150 C 
ATOM     22  HN  UNK N   1      28.290  24.475  -5.780  1.00  0.00     0.168 HD
BRANCH  21  23
HETATM   23  C   UNK N   1      26.045  25.357  -5.172  0.00  0.00     0.015 A 
HETATM   24  C   UNK N   1      25.245  26.259  -5.888  0.00  0.00     0.016 A 
HETATM   25  C   UNK N   1      24.954  27.519  -5.354  0.00  0.00     0.001 A 
HETATM   26  C   UNK N   1      25.463  27.887  -4.105  0.00  0.00     0.000 A 
HETATM   27  C   UNK N   1      26.261  26.993  -3.386  0.00  0.00     0.001 A 
HETATM   28  C   UNK N   1      26.551  25.735  -3.918  0.00  0.00     0.016 A 
ENDBRANCH  21  23
BRANCH  21  29
HETATM   29  O   UNK N   1      25.385  23.136  -5.957  0.00  0.00    -0.345 OA
HETATM   30  H   UNK N   1      24.523  23.412  -6.199  0.00  0.00     0.219 HD
ENDBRANCH  21  29
ENDBRANCH   6  20
TORSDOF 7
ENDMDL
MODEL 4
REMARK VINA RESULT:      -6.9     12.378     15.028
REMARK  7 active torsions:
REMARK  status: ('A' for Active; 'I' for Inactive)
REMARK    1  A    between atoms: C_17  and  C_14 
REMARK    2  A    between atoms: N_25  and  C_14 
REMARK    3  A    between atoms: C_20  and  C_15 
REMARK    4  A    between atoms: N_25  and  C_15 
REMARK    5  A    between atoms: C_21  and  C_16 
REMARK    6  A    between atoms: N_23  and  C_19 
REMARK       I    between atoms: N_26  and  C_20 
REMARK    7  A    between atoms: O_28  and  C_21 
ROOT
HETATM    1  C   UNK N   1      23.524  13.806   2.601  0.00  0.00     0.004 A 
HETATM    2  C   UNK N   1      22.475  14.625   2.183  0.00  0.00     0.024 A 
HETATM    3  C   UNK N   1      23.610  13.410   3.936  0.00  0.00     0.030 A 
HETATM    4  C   UNK N   1      21.577  14.644   4.439  0.00  0.00     0.018 A 
HETATM    5  C   UNK N   1      21.504  15.050   3.092  0.00  0.00     0.044 A 
HETATM    6  C   UNK N   1      22.645  13.826   4.868  0.00  0.00     0.043 A 
HETATM    7 Cl   UNK N   1      20.214  16.095   2.517  0.00  0.00    -0.084 Cl
ENDROOT
BRANCH   4   8
HETATM    8  C   UNK N   1      20.540  15.108   5.442  0.00  0.00     0.315 C 
BRANCH   8   9
HETATM    9  N   UNK N   1      20.977  16.173   6.361  0.00  0.00     0.097 N 
HETATM   10  C   UNK N   1      20.239  16.200   7.619  0.00  0.00     0.310 C 
BRANCH   9  11
HETATM   11  C   UNK N   1      20.839  17.475   5.729  0.00  0.00     0.374 C 
BRANCH  11  12
HETATM   12  C   UNK N   1      22.170  17.987   5.243  0.00  0.00     0.248 C 
HETATM   13  N   UNK N   1      22.261  18.966   4.289  0.00  0.00    -0.347 N 
HETATM   14  C   UNK N   1      23.581  19.384   3.826  0.00  0.00     0.152 C 
HETATM   15  C   UNK N   1      21.042  19.588   3.771  0.00  0.00     0.152 C 
HETATM   16  C   UNK N   1      23.503  20.361   2.655  0.00  0.00     0.187 C 
HETATM   17  O   UNK N   1      22.493  21.294   2.899  0.00  0.00    -0.388 OA
HETATM   18  C   UNK N   1      21.311  20.592   2.648  0.00  0.00     0.187 C 
HETATM   19  O   UNK N   1      23.188  17.482   5.699  0.00  0.00    -0.271 OA
ENDBRANCH  11  12
ENDBRANCH   9  11
ENDBRANCH   8   9
ENDBRANCH   4   8
BRANCH   6  20
HETATM   20  N   UNK N   1      22.695  13.424   6.238  0.00  0.00    -0.336 N 
HETATM   21  C   UNK N   1      23.427  13.921   7.181  0.00  0.00     0.150 C 
ATOM     22  HN  UNK N   1      22.080  12.655   6.503  1.00  0.00     0.168 HD
BRANCH  21  23
HETATM   23  C   UNK N   1      23.364  13.317   8.528  0.00  0.00     0.015 A 
HETATM   24  C   UNK N   1      22.150  13.253   9.225  0.00  0.00     0.016 A 
HETATM   25  C   UNK N   1      22.102  12.695  10.508  0.00  0.00     0.001 A 
HETATM   26  C   UNK N   1      23.268  12.202  11.102  0.00  0.00     0.000 A 
HETATM   27  C   UNK N   1      24.482  12.263  10.413  0.00  0.00     0.001 A 
HETATM   28  C   UNK N   1      24.530  12.818   9.133  0.00  0.00     0.016 A 
ENDBRANCH  21  23
BRANCH  21  29
HETATM   29  O   UNK N   1      24.244  14.972   6.957  0.00  0.00    -0.345 OA
HETATM   30  H   UNK N   1      23.993  15.844   7.194  0.00  0.00     0.219 HD
ENDBRANCH  21  29
ENDBRANCH   6  20
TORSDOF 7
ENDMDL
MODEL 5
REMARK VINA RESULT:      -6.9      1.765      2.541
REMARK  7 active torsions:
REMARK  status: ('A' for Active; 'I' for Inactive)
REMARK    1  A    between atoms: C_17  and  C_14 
REMARK    2  A    between atoms: N_25  and  C_14 
REMARK    3  A    between atoms: C_20  and  C_15 
REMARK    4  A    between atoms: N_25  and  C_15 
REMARK    5  A    between atoms: C_21  and  C_16 
REMARK    6  A    between atoms: N_23  and  C_19 
REMARK       I    between atoms: N_26  and  C_20 
REMARK    7  A    between atoms: O_28  and  C_21 
ROOT
HETATM    1  C   UNK N   1      37.949   9.469  10.965  0.00  0.00     0.004 A 
HETATM    2  C   UNK N   1      37.370  10.106   9.867  0.00  0.00     0.024 A 
HETATM    3  C   UNK N   1      37.567   9.825  12.259  0.00  0.00     0.030 A 
HETATM    4  C   UNK N   1      36.002  11.451  11.355  0.00  0.00     0.018 A 
HETATM    5  C   UNK N   1      36.403  11.095  10.052  0.00  0.00     0.044 A 
HETATM    6  C   UNK N   1      36.596  10.818  12.469  0.00  0.00     0.043 A 
HETATM    7 Cl   UNK N   1      35.718  11.878   8.636  0.00  0.00    -0.084 Cl
ENDROOT
BRANCH   4   8
HETATM    8  C   UNK N   1      34.965  12.534  11.575  0.00  0.00     0.315 C 
BRANCH   8   9
HETATM    9  N   UNK N   1      35.282  13.846  10.987  0.00  0.00     0.097 N 
HETATM   10  C   UNK N   1      36.296  14.589  11.726  0.00  0.00     0.310 C 
BRANCH   9  11
HETATM   11  C   UNK N   1      34.086  14.670  10.912  0.00  0.00     0.374 C 
BRANCH  11  12
HETATM   12  C   UNK N   1      33.578  14.765   9.497  0.00  0.00     0.248 C 
HETATM   13  N   UNK N   1      33.765  15.888   8.737  0.00  0.00    -0.347 N 
HETATM   14  C   UNK N   1      33.205  15.934   7.390  0.00  0.00     0.152 C 
HETATM   15  C   UNK N   1      34.536  17.008   9.278  0.00  0.00     0.152 C 
HETATM   16  C   UNK N   1      33.361  17.308   6.741  0.00  0.00     0.187 C 
HETATM   17  O   UNK N   1      34.639  17.803   7.012  0.00  0.00    -0.388 OA
HETATM   18  C   UNK N   1      34.570  18.220   8.344  0.00  0.00     0.187 C 
HETATM   19  O   UNK N   1      32.957  13.814   9.039  0.00  0.00    -0.271 OA
ENDBRANCH  11  12
ENDBRANCH   9  11
ENDBRANCH   8   9
ENDBRANCH   4   8
BRANCH   6  20
HETATM   20  N   UNK N   1      36.169  11.193  13.779  0.00  0.00    -0.336 N 
HETATM   21  C   UNK N   1      36.782  11.960  14.621  0.00  0.00     0.150 C 
ATOM     22  HN  UNK N   1      35.276  10.810  14.088  1.00  0.00     0.168 HD
BRANCH  21  23
HETATM   23  C   UNK N   1      36.187  12.177  15.956  0.00  0.00     0.015 A 
HETATM   24  C   UNK N   1      35.992  11.100  16.833  0.00  0.00     0.016 A 
HETATM   25  C   UNK N   1      35.412  11.311  18.088  0.00  0.00     0.001 A 
HETATM   26  C   UNK N   1      35.021  12.597  18.474  0.00  0.00     0.000 A 
HETATM   27  C   UNK N   1      35.213  13.674  17.606  0.00  0.00     0.001 A 
HETATM   28  C   UNK N   1      35.792  13.465  16.352  0.00  0.00     0.016 A 
ENDBRANCH  21  23
BRANCH  21  29
HETATM   29  O   UNK N   1      37.950  12.561  14.304  0.00  0.00    -0.345 OA
HETATM   30  H   UNK N   1      38.391  12.372  13.499  0.00  0.00     0.219 HD
ENDBRANCH  21  29
ENDBRANCH   6  20
TORSDOF 7
ENDMDL
MODEL 6
REMARK VINA RESULT:      -6.8      8.310     12.170
REMARK  7 active torsions:
REMARK  status: ('A' for Active; 'I' for Inactive)
REMARK    1  A    between atoms: C_17  and  C_14 
REMARK    2  A    between atoms: N_25  and  C_14 
REMARK    3  A    between atoms: C_20  and  C_15 
REMARK    4  A    between atoms: N_25  and  C_15 
REMARK    5  A    between atoms: C_21  and  C_16 
REMARK    6  A    between atoms: N_23  and  C_19 
REMARK       I    between atoms: N_26  and  C_20 
REMARK    7  A    between atoms: O_28  and  C_21 
ROOT
HETATM    1  C   UNK N   1      28.630  14.208   1.924  0.00  0.00     0.004 A 
HETATM    2  C   UNK N   1      27.304  14.644   1.926  0.00  0.00     0.024 A 
HETATM    3  C   UNK N   1      29.518  14.672   2.895  0.00  0.00     0.030 A 
HETATM    4  C   UNK N   1      27.744  16.002   3.890  0.00  0.00     0.018 A 
HETATM    5  C   UNK N   1      26.857  15.539   2.899  0.00  0.00     0.044 A 
HETATM    6  C   UNK N   1      29.089  15.573   3.883  0.00  0.00     0.043 A 
HETATM    7 Cl   UNK N   1      25.182  16.070   2.846  0.00  0.00    -0.084 Cl
ENDROOT
BRANCH   4   8
HETATM    8  C   UNK N   1      27.278  16.986   4.945  0.00  0.00     0.315 C 
BRANCH   8   9
HETATM    9  N   UNK N   1      27.096  18.372   4.483  0.00  0.00     0.097 N 
HETATM   10  C   UNK N   1      28.193  19.261   4.850  0.00  0.00     0.310 C 
BRANCH   9  11
HETATM   11  C   UNK N   1      25.866  18.929   5.024  0.00  0.00     0.374 C 
BRANCH  11  12
HETATM   12  C   UNK N   1      25.147  19.761   3.994  0.00  0.00     0.248 C 
HETATM   13  N   UNK N   1      23.793  19.672   3.813  0.00  0.00    -0.347 N 
HETATM   14  C   UNK N   1      23.164  20.470   2.765  0.00  0.00     0.152 C 
HETATM   15  C   UNK N   1      23.001  18.800   4.682  0.00  0.00     0.152 C 
HETATM   16  C   UNK N   1      21.684  20.136   2.588  0.00  0.00     0.187 C 
HETATM   17  O   UNK N   1      21.090  19.994   3.844  0.00  0.00    -0.388 OA
HETATM   18  C   UNK N   1      21.524  18.742   4.288  0.00  0.00     0.187 C 
HETATM   19  O   UNK N   1      25.810  20.510   3.287  0.00  0.00    -0.271 OA
ENDBRANCH  11  12
ENDBRANCH   9  11
ENDBRANCH   8   9
ENDBRANCH   4   8
BRANCH   6  20
HETATM   20  N   UNK N   1      29.968  16.053   4.901  0.00  0.00    -0.336 N 
HETATM   21  C   UNK N   1      30.976  16.852   4.763  0.00  0.00     0.150 C 
ATOM     22  HN  UNK N   1      29.779  15.727   5.849  1.00  0.00     0.168 HD
BRANCH  21  23
HETATM   23  C   UNK N   1      31.794  17.183   5.948  0.00  0.00     0.015 A 
HETATM   24  C   UNK N   1      33.154  17.496   5.812  0.00  0.00     0.016 A 
HETATM   25  C   UNK N   1      33.925  17.791   6.941  0.00  0.00     0.001 A 
HETATM   26  C   UNK N   1      33.345  17.770   8.212  0.00  0.00     0.000 A 
HETATM   27  C   UNK N   1      31.991  17.459   8.356  0.00  0.00     0.001 A 
HETATM   28  C   UNK N   1      31.219  17.165   7.230  0.00  0.00     0.016 A 
ENDBRANCH  21  23
BRANCH  21  29
HETATM   29  O   UNK N   1      31.293  17.384   3.563  0.00  0.00    -0.345 OA
HETATM   30  H   UNK N   1      31.196  16.892   2.771  0.00  0.00     0.219 HD
ENDBRANCH  21  29
ENDBRANCH   6  20
TORSDOF 7
ENDMDL
MODEL 7
REMARK VINA RESULT:      -6.7      1.812      2.364
REMARK  7 active torsions:
REMARK  status: ('A' for Active; 'I' for Inactive)
REMARK    1  A    between atoms: C_17  and  C_14 
REMARK    2  A    between atoms: N_25  and  C_14 
REMARK    3  A    between atoms: C_20  and  C_15 
REMARK    4  A    between atoms: N_25  and  C_15 
REMARK    5  A    between atoms: C_21  and  C_16 
REMARK    6  A    between atoms: N_23  and  C_19 
REMARK       I    between atoms: N_26  and  C_20 
REMARK    7  A    between atoms: O_28  and  C_21 
ROOT
HETATM    1  C   UNK N   1      37.918   9.469  11.819  0.00  0.00     0.004 A 
HETATM    2  C   UNK N   1      37.314  10.111  10.738  0.00  0.00     0.024 A 
HETATM    3  C   UNK N   1      37.683   9.920  13.118  0.00  0.00     0.030 A 
HETATM    4  C   UNK N   1      36.215  11.655  12.256  0.00  0.00     0.018 A 
HETATM    5  C   UNK N   1      36.468  11.202  10.947  0.00  0.00     0.044 A 
HETATM    6  C   UNK N   1      36.836  11.016  13.352  0.00  0.00     0.043 A 
HETATM    7 Cl   UNK N   1      35.746  11.986   9.550  0.00  0.00    -0.084 Cl
ENDROOT
BRANCH   4   8
HETATM    8  C   UNK N   1      35.312  12.848  12.500  0.00  0.00     0.315 C 
BRANCH   8   9
HETATM    9  N   UNK N   1      35.939  14.167  12.317  0.00  0.00     0.097 N 
HETATM   10  C   UNK N   1      36.402  14.773  13.560  0.00  0.00     0.310 C 
BRANCH   9  11
HETATM   11  C   UNK N   1      35.007  15.088  11.687  0.00  0.00     0.374 C 
BRANCH  11  12
HETATM   12  C   UNK N   1      35.437  15.424  10.283  0.00  0.00     0.248 C 
HETATM   13  N   UNK N   1      34.557  15.405   9.235  0.00  0.00    -0.347 N 
HETATM   14  C   UNK N   1      35.049  15.692   7.890  0.00  0.00     0.152 C 
HETATM   15  C   UNK N   1      33.143  15.122   9.482  0.00  0.00     0.152 C 
HETATM   16  C   UNK N   1      33.980  15.474   6.821  0.00  0.00     0.187 C 
HETATM   17  O   UNK N   1      32.764  15.990   7.272  0.00  0.00    -0.388 OA
HETATM   18  C   UNK N   1      32.313  15.045   8.198  0.00  0.00     0.187 C 
HETATM   19  O   UNK N   1      36.617  15.687  10.086  0.00  0.00    -0.271 OA
ENDBRANCH  11  12
ENDBRANCH   9  11
ENDBRANCH   8   9
ENDBRANCH   4   8
BRANCH   6  20
HETATM   20  N   UNK N   1      36.560  11.491  14.670  0.00  0.00    -0.336 N 
HETATM   21  C   UNK N   1      35.664  11.057  15.495  0.00  0.00     0.150 C 
ATOM     22  HN  UNK N   1      37.138  12.264  14.999  1.00  0.00     0.168 HD
BRANCH  21  23
HETATM   23  C   UNK N   1      35.507  11.732  16.801  0.00  0.00     0.015 A 
HETATM   24  C   UNK N   1      35.443  13.130  16.878  0.00  0.00     0.016 A 
HETATM   25  C   UNK N   1      35.312  13.762  18.119  0.00  0.00     0.001 A 
HETATM   26  C   UNK N   1      35.248  13.001  19.290  0.00  0.00     0.000 A 
HETATM   27  C   UNK N   1      35.312  11.607  19.221  0.00  0.00     0.001 A 
HETATM   28  C   UNK N   1      35.442  10.975  17.983  0.00  0.00     0.016 A 
ENDBRANCH  21  23
BRANCH  21  29
HETATM   29  O   UNK N   1      34.872  10.008  15.186  0.00  0.00    -0.345 OA
HETATM   30  H   UNK N   1      34.038   9.890  15.596  0.00  0.00     0.219 HD
ENDBRANCH  21  29
ENDBRANCH   6  20
TORSDOF 7
ENDMDL
MODEL 8
REMARK VINA RESULT:      -6.6      5.252      8.146
REMARK  7 active torsions:
REMARK  status: ('A' for Active; 'I' for Inactive)
REMARK    1  A    between atoms: C_17  and  C_14 
REMARK    2  A    between atoms: N_25  and  C_14 
REMARK    3  A    between atoms: C_20  and  C_15 
REMARK    4  A    between atoms: N_25  and  C_15 
REMARK    5  A    between atoms: C_21  and  C_16 
REMARK    6  A    between atoms: N_23  and  C_19 
REMARK       I    between atoms: N_26  and  C_20 
REMARK    7  A    between atoms: O_28  and  C_21 
ROOT
HETATM    1  C   UNK N   1      28.588  18.831   8.568  0.00  0.00     0.004 A 
HETATM    2  C   UNK N   1      28.201  18.730   7.231  0.00  0.00     0.024 A 
HETATM    3  C   UNK N   1      29.660  18.076   9.044  0.00  0.00     0.030 A 
HETATM    4  C   UNK N   1      29.976  17.123   6.830  0.00  0.00     0.018 A 
HETATM    5  C   UNK N   1      28.885  17.879   6.361  0.00  0.00     0.044 A 
HETATM    6  C   UNK N   1      30.362  17.213   8.186  0.00  0.00     0.043 A 
HETATM    7 Cl   UNK N   1      28.346  17.775   4.692  0.00  0.00    -0.084 Cl
ENDROOT
BRANCH   4   8
HETATM    8  C   UNK N   1      30.720  16.183   5.902  0.00  0.00     0.315 C 
BRANCH   8   9
HETATM    9  N   UNK N   1      31.974  16.709   5.337  0.00  0.00     0.097 N 
HETATM   10  C   UNK N   1      31.773  17.646   4.237  0.00  0.00     0.310 C 
BRANCH   9  11
HETATM   11  C   UNK N   1      32.808  15.620   4.853  0.00  0.00     0.374 C 
BRANCH  11  12
HETATM   12  C   UNK N   1      34.178  15.665   5.478  0.00  0.00     0.248 C 
HETATM   13  N   UNK N   1      34.938  14.537   5.632  0.00  0.00    -0.347 N 
HETATM   14  C   UNK N   1      36.237  14.641   6.290  0.00  0.00     0.152 C 
HETATM   15  C   UNK N   1      34.447  13.257   5.119  0.00  0.00     0.152 C 
HETATM   16  C   UNK N   1      36.881  13.277   6.525  0.00  0.00     0.187 C 
HETATM   17  O   UNK N   1      36.706  12.482   5.391  0.00  0.00    -0.388 OA
HETATM   18  C   UNK N   1      35.368  12.083   5.456  0.00  0.00     0.187 C 
HETATM   19  O   UNK N   1      34.596  16.744   5.881  0.00  0.00    -0.271 OA
ENDBRANCH  11  12
ENDBRANCH   9  11
ENDBRANCH   8   9
ENDBRANCH   4   8
BRANCH   6  20
HETATM   20  N   UNK N   1      31.474  16.440   8.636  0.00  0.00    -0.336 N 
HETATM   21  C   UNK N   1      32.717  16.796   8.685  0.00  0.00     0.150 C 
ATOM     22  HN  UNK N   1      31.265  15.494   8.956  1.00  0.00     0.168 HD
BRANCH  21  23
HETATM   23  C   UNK N   1      33.725  15.815   9.137  0.00  0.00     0.015 A 
HETATM   24  C   UNK N   1      34.940  16.243   9.690  0.00  0.00     0.016 A 
HETATM   25  C   UNK N   1      35.896  15.307  10.098  0.00  0.00     0.001 A 
HETATM   26  C   UNK N   1      35.646  13.940   9.955  0.00  0.00     0.000 A 
HETATM   27  C   UNK N   1      34.438  13.505   9.404  0.00  0.00     0.001 A 
HETATM   28  C   UNK N   1      33.482  14.438   8.996  0.00  0.00     0.016 A 
ENDBRANCH  21  23
BRANCH  21  29
HETATM   29  O   UNK N   1      33.106  18.040   8.331  0.00  0.00    -0.345 OA
HETATM   30  H   UNK N   1      32.856  18.790   8.833  0.00  0.00     0.219 HD
ENDBRANCH  21  29
ENDBRANCH   6  20
TORSDOF 7
ENDMDL
MODEL 9
REMARK VINA RESULT:      -6.6      3.546      6.475
REMARK  7 active torsions:
REMARK  status: ('A' for Active; 'I' for Inactive)
REMARK    1  A    between atoms: C_17  and  C_14 
REMARK    2  A    between atoms: N_25  and  C_14 
REMARK    3  A    between atoms: C_20  and  C_15 
REMARK    4  A    between atoms: N_25  and  C_15 
REMARK    5  A    between atoms: C_21  and  C_16 
REMARK    6  A    between atoms: N_23  and  C_19 
REMARK       I    between atoms: N_26  and  C_20 
REMARK    7  A    between atoms: O_28  and  C_21 
ROOT
HETATM    1  C   UNK N   1      34.117  18.194   7.915  0.00  0.00     0.004 A 
HETATM    2  C   UNK N   1      33.651  17.601   6.741  0.00  0.00     0.024 A 
HETATM    3  C   UNK N   1      34.583  17.398   8.961  0.00  0.00     0.030 A 
HETATM    4  C   UNK N   1      34.134  15.401   7.648  0.00  0.00     0.018 A 
HETATM    5  C   UNK N   1      33.652  16.212   6.602  0.00  0.00     0.044 A 
HETATM    6  C   UNK N   1      34.594  15.998   8.843  0.00  0.00     0.043 A 
HETATM    7 Cl   UNK N   1      33.038  15.516   5.111  0.00  0.00    -0.084 Cl
ENDROOT
BRANCH   4   8
HETATM    8  C   UNK N   1      34.129  13.891   7.520  0.00  0.00     0.315 C 
BRANCH   8   9
HETATM    9  N   UNK N   1      35.078  13.334   6.542  0.00  0.00     0.097 N 
HETATM   10  C   UNK N   1      34.644  12.068   5.961  0.00  0.00     0.310 C 
BRANCH   9  11
HETATM   11  C   UNK N   1      36.377  13.123   7.160  0.00  0.00     0.374 C 
BRANCH  11  12
HETATM   12  C   UNK N   1      37.450  13.910   6.454  0.00  0.00     0.248 C 
HETATM   13  N   UNK N   1      38.780  13.639   6.632  0.00  0.00    -0.347 N 
HETATM   14  C   UNK N   1      39.771  14.470   5.956  0.00  0.00     0.152 C 
HETATM   15  C   UNK N   1      39.182  12.512   7.476  0.00  0.00     0.152 C 
HETATM   16  C   UNK N   1      41.199  14.140   6.386  0.00  0.00     0.187 C 
HETATM   17  O   UNK N   1      41.348  12.753   6.462  0.00  0.00    -0.388 OA
HETATM   18  C   UNK N   1      40.699  12.403   7.649  0.00  0.00     0.187 C 
HETATM   19  O   UNK N   1      37.107  14.835   5.727  0.00  0.00    -0.271 OA
ENDBRANCH  11  12
ENDBRANCH   9  11
ENDBRANCH   8   9
ENDBRANCH   4   8
BRANCH   6  20
HETATM   20  N   UNK N   1      35.081  15.155   9.888  0.00  0.00    -0.336 N 
HETATM   21  C   UNK N   1      34.443  14.744  10.935  0.00  0.00     0.150 C 
ATOM     22  HN  UNK N   1      36.047  14.840   9.798  1.00  0.00     0.168 HD
BRANCH  21  23
HETATM   23  C   UNK N   1      35.156  13.916  11.929  0.00  0.00     0.015 A 
HETATM   24  C   UNK N   1      35.124  12.517  11.845  0.00  0.00     0.016 A 
HETATM   25  C   UNK N   1      35.788  11.739  12.801  0.00  0.00     0.001 A 
HETATM   26  C   UNK N   1      36.485  12.354  13.845  0.00  0.00     0.000 A 
HETATM   27  C   UNK N   1      36.521  13.748  13.934  0.00  0.00     0.001 A 
HETATM   28  C   UNK N   1      35.859  14.525  12.981  0.00  0.00     0.016 A 
ENDBRANCH  21  23
BRANCH  21  29
HETATM   29  O   UNK N   1      33.145  15.060  11.136  0.00  0.00    -0.345 OA
HETATM   30  H   UNK N   1      32.455  14.525  10.795  0.00  0.00     0.219 HD
ENDBRANCH  21  29
ENDBRANCH   6  20
TORSDOF 7
ENDMDL
