MODEL 1
REMARK VINA RESULT:      -6.7      0.000      0.000
REMARK  4 active torsions:
REMARK  status: ('A' for Active; 'I' for Inactive)
REMARK    1  A    between atoms: C_14  and  C_9 
REMARK    2  A    between atoms: C_15  and  C_9 
REMARK    3  A    between atoms: N_21  and  C_14 
REMARK    4  A    between atoms: N_22  and  C_15 
ROOT
HETATM    1  C   UNK N   1      28.703  15.621   5.576  0.00  0.00     0.025 C 
HETATM    2  C   UNK N   1      28.409  17.981   4.892  0.00  0.00     0.025 C 
HETATM    3  C   UNK N   1      28.171  17.929   9.170  0.00  0.00     0.001 A 
HETATM    4  C   UNK N   1      31.960  16.598   2.933  0.00  0.00     0.001 A 
HETATM    5  C   UNK N   1      29.376  18.225   9.802  0.00  0.00     0.002 A 
HETATM    6  C   UNK N   1      33.133  16.905   3.615  0.00  0.00     0.002 A 
HETATM    7  C   UNK N   1      28.166  17.539   7.831  0.00  0.00     0.010 A 
HETATM    8  C   UNK N   1      30.735  16.634   3.601  0.00  0.00     0.010 A 
HETATM    9  C   UNK N   1      30.576  18.131   9.097  0.00  0.00     0.030 A 
HETATM   10  C   UNK N   1      33.084  17.246   4.966  0.00  0.00     0.030 A 
HETATM   11  C   UNK N   1      29.367  17.445   7.101  0.00  0.00    -0.019 A 
HETATM   12  C   UNK N   1      30.666  16.984   4.963  0.00  0.00    -0.019 A 
HETATM   13  C   UNK N   1      30.590  17.745   7.743  0.00  0.00     0.042 A 
HETATM   14  C   UNK N   1      31.857  17.291   5.655  0.00  0.00     0.042 A 
HETATM   15  C   UNK N   1      29.314  17.015   5.649  0.00  0.00     0.011 A 
HETATM   16  N   UNK N   1      31.831  17.649   7.037  0.00  0.00    -0.346 N 
ENDROOT
BRANCH  16  17
HETATM   17  C   UNK N   1      33.085  17.841   7.739  0.00  0.00     0.131 C 
BRANCH  17  18
HETATM   18  C   UNK N   1      33.553  16.553   8.386  0.00  0.00     0.050 C 
BRANCH  18  19
HETATM   19  C   UNK N   1      34.611  16.893   9.422  0.00  0.00     0.273 C 
BRANCH  19  20
HETATM   20  N   UNK N   1      35.100  15.682  10.063  0.00  0.00     0.080 N 
HETATM   21  C   UNK N   1      33.939  14.876  10.386  0.00  0.00     0.309 C 
HETATM   22  C   UNK N   1      35.715  16.050  11.329  0.00  0.00     0.309 C 
ENDBRANCH  19  20
ENDBRANCH  18  19
ENDBRANCH  17  18
ENDBRANCH  16  17
TORSDOF 4
ENDMDL
MODEL 2
REMARK VINA RESULT:      -6.7      2.258      5.684
REMARK  4 active torsions:
REMARK  status: ('A' for Active; 'I' for Inactive)
REMARK    1  A    between atoms: C_14  and  C_9 
REMARK    2  A    between atoms: C_15  and  C_9 
REMARK    3  A    between atoms: N_21  and  C_14 
REMARK    4  A    between atoms: N_22  and  C_15 
ROOT
HETATM    1  C   UNK N   1      32.865  18.147   7.908  0.00  0.00     0.025 C 
HETATM    2  C   UNK N   1      32.402  15.715   7.935  0.00  0.00     0.025 C 
HETATM    3  C   UNK N   1      29.086  17.593   9.894  0.00  0.00     0.001 A 
HETATM    4  C   UNK N   1      33.329  16.716   3.873  0.00  0.00     0.001 A 
HETATM    5  C   UNK N   1      27.999  17.827   9.056  0.00  0.00     0.002 A 
HETATM    6  C   UNK N   1      32.208  16.955   3.084  0.00  0.00     0.002 A 
HETATM    7  C   UNK N   1      30.345  17.349   9.347  0.00  0.00     0.010 A 
HETATM    8  C   UNK N   1      33.224  16.755   5.264  0.00  0.00     0.010 A 
HETATM    9  C   UNK N   1      28.170  17.817   7.672  0.00  0.00     0.030 A 
HETATM   10  C   UNK N   1      30.982  17.238   3.685  0.00  0.00     0.030 A 
HETATM   11  C   UNK N   1      30.536  17.328   7.952  0.00  0.00    -0.019 A 
HETATM   12  C   UNK N   1      31.992  17.031   5.888  0.00  0.00    -0.019 A 
HETATM   13  C   UNK N   1      29.433  17.566   7.101  0.00  0.00     0.042 A 
HETATM   14  C   UNK N   1      30.857  17.279   5.087  0.00  0.00     0.042 A 
HETATM   15  C   UNK N   1      31.923  17.061   7.402  0.00  0.00     0.011 A 
HETATM   16  N   UNK N   1      29.590  17.565   5.679  0.00  0.00    -0.346 N 
ENDROOT
BRANCH  16  17
HETATM   17  C   UNK N   1      28.478  17.930   4.823  0.00  0.00     0.131 C 
BRANCH  17  18
HETATM   18  C   UNK N   1      28.263  19.430   4.814  0.00  0.00     0.050 C 
BRANCH  18  19
HETATM   19  C   UNK N   1      27.161  19.751   3.819  0.00  0.00     0.273 C 
BRANCH  19  20
HETATM   20  N   UNK N   1      26.027  20.359   4.498  0.00  0.00     0.080 N 
HETATM   21  C   UNK N   1      26.500  20.806   5.794  0.00  0.00     0.309 C 
HETATM   22  C   UNK N   1      25.035  19.326   4.752  0.00  0.00     0.309 C 
ENDBRANCH  19  20
ENDBRANCH  18  19
ENDBRANCH  17  18
ENDBRANCH  16  17
TORSDOF 4
ENDMDL
MODEL 3
REMARK VINA RESULT:      -6.6      2.227      6.971
REMARK  4 active torsions:
REMARK  status: ('A' for Active; 'I' for Inactive)
REMARK    1  A    between atoms: C_14  and  C_9 
REMARK    2  A    between atoms: C_15  and  C_9 
REMARK    3  A    between atoms: N_21  and  C_14 
REMARK    4  A    between atoms: N_22  and  C_15 
ROOT
HETATM    1  C   UNK N   1      32.387  15.702   7.929  0.00  0.00     0.025 C 
HETATM    2  C   UNK N   1      32.984  18.104   7.849  0.00  0.00     0.025 C 
HETATM    3  C   UNK N   1      33.348  16.638   3.840  0.00  0.00     0.001 A 
HETATM    4  C   UNK N   1      29.215  17.871   9.874  0.00  0.00     0.001 A 
HETATM    5  C   UNK N   1      32.217  16.856   3.057  0.00  0.00     0.002 A 
HETATM    6  C   UNK N   1      28.118  18.081   9.044  0.00  0.00     0.002 A 
HETATM    7  C   UNK N   1      33.256  16.705   5.229  0.00  0.00     0.010 A 
HETATM    8  C   UNK N   1      30.453  17.541   9.323  0.00  0.00     0.010 A 
HETATM    9  C   UNK N   1      30.994  17.142   3.664  0.00  0.00     0.030 A 
HETATM   10  C   UNK N   1      28.257  17.956   7.663  0.00  0.00     0.030 A 
HETATM   11  C   UNK N   1      32.031  17.000   5.859  0.00  0.00    -0.019 A 
HETATM   12  C   UNK N   1      30.614  17.419   7.929  0.00  0.00    -0.019 A 
HETATM   13  C   UNK N   1      30.883  17.221   5.066  0.00  0.00     0.042 A 
HETATM   14  C   UNK N   1      29.500  17.626   7.088  0.00  0.00     0.042 A 
HETATM   15  C   UNK N   1      31.978  17.062   7.373  0.00  0.00     0.011 A 
HETATM   16  N   UNK N   1      29.619  17.510   5.671  0.00  0.00    -0.346 N 
ENDROOT
BRANCH  16  17
HETATM   17  C   UNK N   1      28.426  17.614   4.852  0.00  0.00     0.131 C 
BRANCH  17  18
HETATM   18  C   UNK N   1      28.092  19.062   4.556  0.00  0.00     0.050 C 
BRANCH  18  19
HETATM   19  C   UNK N   1      26.795  19.103   3.766  0.00  0.00     0.273 C 
BRANCH  19  20
HETATM   20  N   UNK N   1      25.719  19.642   4.585  0.00  0.00     0.080 N 
HETATM   21  C   UNK N   1      24.785  20.289   3.684  0.00  0.00     0.309 C 
HETATM   22  C   UNK N   1      26.269  20.687   5.434  0.00  0.00     0.309 C 
ENDBRANCH  19  20
ENDBRANCH  18  19
ENDBRANCH  17  18
ENDBRANCH  16  17
TORSDOF 4
ENDMDL
MODEL 4
REMARK VINA RESULT:      -6.5      7.169     12.605
REMARK  4 active torsions:
REMARK  status: ('A' for Active; 'I' for Inactive)
REMARK    1  A    between atoms: C_14  and  C_9 
REMARK    2  A    between atoms: C_15  and  C_9 
REMARK    3  A    between atoms: N_21  and  C_14 
REMARK    4  A    between atoms: N_22  and  C_15 
ROOT
HETATM    1  C   UNK N   1      34.313   8.947  18.355  0.00  0.00     0.025 C 
HETATM    2  C   UNK N   1      36.779   9.146  18.439  0.00  0.00     0.025 C 
HETATM    3  C   UNK N   1      35.839   7.439  14.623  0.00  0.00     0.001 A 
HETATM    4  C   UNK N   1      35.226  12.997  19.497  0.00  0.00     0.001 A 
HETATM    5  C   UNK N   1      35.763   8.374  13.594  0.00  0.00     0.002 A 
HETATM    6  C   UNK N   1      35.156  13.887  18.429  0.00  0.00     0.002 A 
HETATM    7  C   UNK N   1      35.758   7.859  15.950  0.00  0.00     0.010 A 
HETATM    8  C   UNK N   1      35.341  11.628  19.257  0.00  0.00     0.010 A 
HETATM    9  C   UNK N   1      35.606   9.728  13.891  0.00  0.00     0.030 A 
HETATM   10  C   UNK N   1      35.197  13.408  17.121  0.00  0.00     0.030 A 
HETATM   11  C   UNK N   1      35.607   9.222  16.270  0.00  0.00    -0.019 A 
HETATM   12  C   UNK N   1      35.392  11.127  17.942  0.00  0.00    -0.019 A 
HETATM   13  C   UNK N   1      35.529  10.171  15.226  0.00  0.00     0.042 A 
HETATM   14  C   UNK N   1      35.316  12.029  16.860  0.00  0.00     0.042 A 
HETATM   15  C   UNK N   1      35.522   9.632  17.727  0.00  0.00     0.011 A 
HETATM   16  N   UNK N   1      35.362  11.563  15.511  0.00  0.00    -0.346 N 
ENDROOT
BRANCH  16  17
HETATM   17  C   UNK N   1      35.162  12.510  14.431  0.00  0.00     0.131 C 
BRANCH  17  18
HETATM   18  C   UNK N   1      36.480  13.098  13.969  0.00  0.00     0.050 C 
BRANCH  18  19
HETATM   19  C   UNK N   1      36.215  14.486  13.411  0.00  0.00     0.273 C 
BRANCH  19  20
HETATM   20  N   UNK N   1      35.708  14.397  12.050  0.00  0.00     0.080 N 
HETATM   21  C   UNK N   1      36.739  13.756  11.256  0.00  0.00     0.309 C 
HETATM   22  C   UNK N   1      35.560  15.746  11.526  0.00  0.00     0.309 C 
ENDBRANCH  19  20
ENDBRANCH  18  19
ENDBRANCH  17  18
ENDBRANCH  16  17
TORSDOF 4
ENDMDL
MODEL 5
REMARK VINA RESULT:      -6.4      7.169     12.103
REMARK  4 active torsions:
REMARK  status: ('A' for Active; 'I' for Inactive)
REMARK    1  A    between atoms: C_14  and  C_9 
REMARK    2  A    between atoms: C_15  and  C_9 
REMARK    3  A    between atoms: N_21  and  C_14 
REMARK    4  A    between atoms: N_22  and  C_15 
ROOT
HETATM    1  C   UNK N   1      37.010   9.174  18.163  0.00  0.00     0.025 C 
HETATM    2  C   UNK N   1      34.569   8.789  18.313  0.00  0.00     0.025 C 
HETATM    3  C   UNK N   1      35.231  12.827  19.584  0.00  0.00     0.001 A 
HETATM    4  C   UNK N   1      35.736   7.571  14.374  0.00  0.00     0.001 A 
HETATM    5  C   UNK N   1      35.056  13.769  18.573  0.00  0.00     0.002 A 
HETATM    6  C   UNK N   1      35.556   8.554  13.406  0.00  0.00     0.002 A 
HETATM    7  C   UNK N   1      35.424  11.485  19.258  0.00  0.00     0.010 A 
HETATM    8  C   UNK N   1      35.768   7.920  15.724  0.00  0.00     0.010 A 
HETATM    9  C   UNK N   1      35.075  13.370  17.237  0.00  0.00     0.030 A 
HETATM   10  C   UNK N   1      35.412   9.888  13.787  0.00  0.00     0.030 A 
HETATM   11  C   UNK N   1      35.439  11.063  17.914  0.00  0.00    -0.019 A 
HETATM   12  C   UNK N   1      35.616   9.260  16.128  0.00  0.00    -0.019 A 
HETATM   13  C   UNK N   1      35.262  12.018  16.888  0.00  0.00     0.042 A 
HETATM   14  C   UNK N   1      35.439  10.258  15.146  0.00  0.00     0.042 A 
HETATM   15  C   UNK N   1      35.654   9.594  17.607  0.00  0.00     0.011 A 
HETATM   16  N   UNK N   1      35.283  11.628  15.512  0.00  0.00    -0.346 N 
ENDROOT
BRANCH  16  17
HETATM   17  C   UNK N   1      35.222  12.634  14.469  0.00  0.00     0.131 C 
BRANCH  17  18
HETATM   18  C   UNK N   1      36.609  13.097  14.073  0.00  0.00     0.050 C 
BRANCH  18  19
HETATM   19  C   UNK N   1      36.634  13.306  12.569  0.00  0.00     0.273 C 
BRANCH  19  20
HETATM   20  N   UNK N   1      35.307  13.650  12.083  0.00  0.00     0.080 N 
HETATM   21  C   UNK N   1      35.070  12.849  10.897  0.00  0.00     0.309 C 
HETATM   22  C   UNK N   1      35.322  15.039  11.650  0.00  0.00     0.309 C 
ENDBRANCH  19  20
ENDBRANCH  18  19
ENDBRANCH  17  18
ENDBRANCH  16  17
TORSDOF 4
ENDMDL
MODEL 6
REMARK VINA RESULT:      -6.2     10.796     13.719
REMARK  4 active torsions:
REMARK  status: ('A' for Active; 'I' for Inactive)
REMARK    1  A    between atoms: C_14  and  C_9 
REMARK    2  A    between atoms: C_15  and  C_9 
REMARK    3  A    between atoms: N_21  and  C_14 
REMARK    4  A    between atoms: N_22  and  C_15 
ROOT
HETATM    1  C   UNK N   1      34.203  11.494  14.850  0.00  0.00     0.025 C 
HETATM    2  C   UNK N   1      36.668  11.692  14.951  0.00  0.00     0.025 C 
HETATM    3  C   UNK N   1      35.153  13.715  18.412  0.00  0.00     0.001 A 
HETATM    4  C   UNK N   1      35.823   7.533  14.368  0.00  0.00     0.001 A 
HETATM    5  C   UNK N   1      35.134  12.926  19.559  0.00  0.00     0.002 A 
HETATM    6  C   UNK N   1      35.799   6.794  15.547  0.00  0.00     0.002 A 
HETATM    7  C   UNK N   1      35.252  13.115  17.157  0.00  0.00     0.010 A 
HETATM    8  C   UNK N   1      35.705   8.922  14.413  0.00  0.00     0.010 A 
HETATM    9  C   UNK N   1      35.213  11.538  19.452  0.00  0.00     0.030 A 
HETATM   10  C   UNK N   1      35.654   7.443  16.772  0.00  0.00     0.030 A 
HETATM   11  C   UNK N   1      35.340  11.715  17.030  0.00  0.00    -0.019 A 
HETATM   12  C   UNK N   1      35.565   9.595  15.642  0.00  0.00    -0.019 A 
HETATM   13  C   UNK N   1      35.320  10.914  18.194  0.00  0.00     0.042 A 
HETATM   14  C   UNK N   1      35.536   8.845  16.837  0.00  0.00     0.042 A 
HETATM   15  C   UNK N   1      35.444  11.107  15.646  0.00  0.00     0.011 A 
HETATM   16  N   UNK N   1      35.394   9.488  18.104  0.00  0.00    -0.346 N 
ENDROOT
BRANCH  16  17
HETATM   17  C   UNK N   1      35.250   8.674  19.295  0.00  0.00     0.131 C 
BRANCH  17  18
HETATM   18  C   UNK N   1      33.793   8.372  19.579  0.00  0.00     0.050 C 
BRANCH  18  19
HETATM   19  C   UNK N   1      33.623   8.190  21.077  0.00  0.00     0.273 C 
BRANCH  19  20
HETATM   20  N   UNK N   1      32.321   8.681  21.503  0.00  0.00     0.080 N 
HETATM   21  C   UNK N   1      31.453   8.642  20.341  0.00  0.00     0.309 C 
HETATM   22  C   UNK N   1      32.456  10.081  21.873  0.00  0.00     0.309 C 
ENDBRANCH  19  20
ENDBRANCH  18  19
ENDBRANCH  17  18
ENDBRANCH  16  17
TORSDOF 4
ENDMDL
MODEL 7
REMARK VINA RESULT:      -6.1      1.046      4.215
REMARK  4 active torsions:
REMARK  status: ('A' for Active; 'I' for Inactive)
REMARK    1  A    between atoms: C_14  and  C_9 
REMARK    2  A    between atoms: C_15  and  C_9 
REMARK    3  A    between atoms: N_21  and  C_14 
REMARK    4  A    between atoms: N_22  and  C_15 
ROOT
HETATM    1  C   UNK N   1      28.596  18.515   4.880  0.00  0.00     0.025 C 
HETATM    2  C   UNK N   1      28.450  16.074   5.266  0.00  0.00     0.025 C 
HETATM    3  C   UNK N   1      31.951  16.709   2.878  0.00  0.00     0.001 A 
HETATM    4  C   UNK N   1      28.130  17.919   9.119  0.00  0.00     0.001 A 
HETATM    5  C   UNK N   1      33.128  16.791   3.618  0.00  0.00     0.002 A 
HETATM    6  C   UNK N   1      29.336  17.991   9.810  0.00  0.00     0.002 A 
HETATM    7  C   UNK N   1      30.720  16.883   3.508  0.00  0.00     0.010 A 
HETATM    8  C   UNK N   1      28.127  17.705   7.741  0.00  0.00     0.010 A 
HETATM    9  C   UNK N   1      33.073  17.049   4.988  0.00  0.00     0.030 A 
HETATM   10  C   UNK N   1      30.541  17.853   9.121  0.00  0.00     0.030 A 
HETATM   11  C   UNK N   1      30.645  17.137   4.892  0.00  0.00    -0.019 A 
HETATM   12  C   UNK N   1      29.334  17.556   7.031  0.00  0.00    -0.019 A 
HETATM   13  C   UNK N   1      31.838  17.221   5.643  0.00  0.00     0.042 A 
HETATM   14  C   UNK N   1      30.557  17.634   7.730  0.00  0.00     0.042 A 
HETATM   15  C   UNK N   1      29.284  17.322   5.533  0.00  0.00     0.011 A 
HETATM   16  N   UNK N   1      31.803  17.491   7.048  0.00  0.00    -0.346 N 
ENDROOT
BRANCH  16  17
HETATM   17  C   UNK N   1      33.036  17.695   7.782  0.00  0.00     0.131 C 
BRANCH  17  18
HETATM   18  C   UNK N   1      33.270  16.579   8.780  0.00  0.00     0.050 C 
BRANCH  18  19
HETATM   19  C   UNK N   1      33.754  15.354   8.025  0.00  0.00     0.273 C 
BRANCH  19  20
HETATM   20  N   UNK N   1      35.199  15.400   7.857  0.00  0.00     0.080 N 
HETATM   21  C   UNK N   1      35.498  14.767   6.587  0.00  0.00     0.309 C 
HETATM   22  C   UNK N   1      35.807  14.571   8.887  0.00  0.00     0.309 C 
ENDBRANCH  19  20
ENDBRANCH  18  19
ENDBRANCH  17  18
ENDBRANCH  16  17
TORSDOF 4
ENDMDL
MODEL 8
REMARK VINA RESULT:      -6.0     10.399     13.785
REMARK  4 active torsions:
REMARK  status: ('A' for Active; 'I' for Inactive)
REMARK    1  A    between atoms: C_14  and  C_9 
REMARK    2  A    between atoms: C_15  and  C_9 
REMARK    3  A    between atoms: N_21  and  C_14 
REMARK    4  A    between atoms: N_22  and  C_15 
ROOT
HETATM    1  C   UNK N   1      37.026  11.927  14.766  0.00  0.00     0.025 C 
HETATM    2  C   UNK N   1      34.575  11.886  14.426  0.00  0.00     0.025 C 
HETATM    3  C   UNK N   1      35.923   7.845  13.966  0.00  0.00     0.001 A 
HETATM    4  C   UNK N   1      35.238  13.951  18.121  0.00  0.00     0.001 A 
HETATM    5  C   UNK N   1      35.810   7.080  15.124  0.00  0.00     0.002 A 
HETATM    6  C   UNK N   1      35.130  13.138  19.246  0.00  0.00     0.002 A 
HETATM    7  C   UNK N   1      35.890   9.236  14.045  0.00  0.00     0.010 A 
HETATM    8  C   UNK N   1      35.427  13.379  16.863  0.00  0.00     0.010 A 
HETATM    9  C   UNK N   1      35.665   7.707  16.362  0.00  0.00     0.030 A 
HETATM   10  C   UNK N   1      35.215  11.753  19.113  0.00  0.00     0.030 A 
HETATM   11  C   UNK N   1      35.737   9.886  15.285  0.00  0.00    -0.019 A 
HETATM   12  C   UNK N   1      35.506  11.981  16.709  0.00  0.00    -0.019 A 
HETATM   13  C   UNK N   1      35.623   9.112  16.461  0.00  0.00     0.042 A 
HETATM   14  C   UNK N   1      35.402  11.158  17.851  0.00  0.00     0.042 A 
HETATM   15  C   UNK N   1      35.708  11.401  15.323  0.00  0.00     0.011 A 
HETATM   16  N   UNK N   1      35.480   9.737  17.740  0.00  0.00    -0.346 N 
ENDROOT
BRANCH  16  17
HETATM   17  C   UNK N   1      35.486   8.934  18.948  0.00  0.00     0.131 C 
BRANCH  17  18
HETATM   18  C   UNK N   1      34.080   8.542  19.352  0.00  0.00     0.050 C 
BRANCH  18  19
HETATM   19  C   UNK N   1      34.034   8.409  20.864  0.00  0.00     0.273 C 
BRANCH  19  20
HETATM   20  N   UNK N   1      32.692   8.681  21.357  0.00  0.00     0.080 N 
HETATM   21  C   UNK N   1      31.805   8.642  20.210  0.00  0.00     0.309 C 
HETATM   22  C   UNK N   1      32.657  10.044  21.863  0.00  0.00     0.309 C 
ENDBRANCH  19  20
ENDBRANCH  18  19
ENDBRANCH  17  18
ENDBRANCH  16  17
TORSDOF 4
ENDMDL
MODEL 9
REMARK VINA RESULT:      -6.0     14.065     17.670
REMARK  4 active torsions:
REMARK  status: ('A' for Active; 'I' for Inactive)
REMARK    1  A    between atoms: C_14  and  C_9 
REMARK    2  A    between atoms: C_15  and  C_9 
REMARK    3  A    between atoms: N_21  and  C_14 
REMARK    4  A    between atoms: N_22  and  C_15 
ROOT
HETATM    1  C   UNK N   1      27.674  23.940  -2.935  0.00  0.00     0.025 C 
HETATM    2  C   UNK N   1      29.345  25.421  -4.003  0.00  0.00     0.025 C 
HETATM    3  C   UNK N   1      29.573  21.668  -6.059  0.00  0.00     0.001 A 
HETATM    4  C   UNK N   1      25.661  27.609  -3.954  0.00  0.00     0.001 A 
HETATM    5  C   UNK N   1      28.816  21.621  -7.227  0.00  0.00     0.002 A 
HETATM    6  C   UNK N   1      24.936  27.515  -5.138  0.00  0.00     0.002 A 
HETATM    7  C   UNK N   1      29.314  22.649  -5.101  0.00  0.00     0.010 A 
HETATM    8  C   UNK N   1      26.660  26.677  -3.672  0.00  0.00     0.010 A 
HETATM    9  C   UNK N   1      27.800  22.554  -7.437  0.00  0.00     0.030 A 
HETATM   10  C   UNK N   1      25.208  26.487  -6.040  0.00  0.00     0.030 A 
HETATM   11  C   UNK N   1      28.297  23.603  -5.300  0.00  0.00    -0.019 A 
HETATM   12  C   UNK N   1      26.954  25.637  -4.575  0.00  0.00    -0.019 A 
HETATM   13  C   UNK N   1      27.528  23.555  -6.484  0.00  0.00     0.042 A 
HETATM   14  C   UNK N   1      26.215  25.539  -5.774  0.00  0.00     0.042 A 
HETATM   15  C   UNK N   1      28.051  24.649  -4.231  0.00  0.00     0.011 A 
HETATM   16  N   UNK N   1      26.478  24.499  -6.715  0.00  0.00    -0.346 N 
ENDROOT
BRANCH  16  17
HETATM   17  C   UNK N   1      25.619  24.365  -7.876  0.00  0.00     0.131 C 
BRANCH  17  18
HETATM   18  C   UNK N   1      26.059  25.290  -8.992  0.00  0.00     0.050 C 
BRANCH  18  19
HETATM   19  C   UNK N   1      25.964  24.536 -10.306  0.00  0.00     0.273 C 
BRANCH  19  20
HETATM   20  N   UNK N   1      25.649  25.450 -11.394  0.00  0.00     0.080 N 
HETATM   21  C   UNK N   1      24.571  26.303 -10.931  0.00  0.00     0.309 C 
HETATM   22  C   UNK N   1      25.117  24.675 -12.505  0.00  0.00     0.309 C 
ENDBRANCH  19  20
ENDBRANCH  18  19
ENDBRANCH  17  18
ENDBRANCH  16  17
TORSDOF 4
ENDMDL
