MODEL 1
REMARK VINA RESULT:      -5.5      0.000      0.000
REMARK  5 active torsions:
REMARK  status: ('A' for Active; 'I' for Inactive)
REMARK    1  A    between atoms: C_1  and  C_2 
REMARK    2  A    between atoms: C_2  and  C_3 
REMARK    3  A    between atoms: C_2  and  C_9 
REMARK    4  A    between atoms: C_3  and  C_4 
REMARK    5  A    between atoms: C_4  and  N_5 
ROOT
HETATM    1  C   UNK N   1      35.743  10.889  15.626  0.00  0.00     0.081 C 
HETATM    2  C   UNK N   1      34.451  10.883  14.924  0.00  0.00     0.074 C 
HETATM    3  N   UNK N   1      33.430  10.909  14.375  0.00  0.00    -0.196 NA
ENDROOT
BRANCH   1   4
HETATM    4  C   UNK N   1      35.424  11.493  16.995  0.00  0.00    -0.035 A 
HETATM    5  C   UNK N   1      35.537  10.722  18.167  0.00  0.00     0.009 A 
HETATM    6  C   UNK N   1      35.450  11.326  19.430  0.00  0.00     0.001 A 
HETATM    7  C   UNK N   1      35.256  12.706  19.537  0.00  0.00     0.000 A 
HETATM    8  C   UNK N   1      35.144  13.484  18.383  0.00  0.00     0.001 A 
HETATM    9  C   UNK N   1      35.248  12.885  17.125  0.00  0.00     0.009 A 
ENDBRANCH   1   4
BRANCH   1  10
HETATM   10  C   UNK N   1      36.611  11.786  14.710  0.00  0.00     0.065 C 
BRANCH  10  11
HETATM   11  C   UNK N   1      36.268  11.898  13.213  0.00  0.00     0.220 C 
HETATM   12  C   UNK N   1      37.275  11.103  12.400  0.00  0.00     0.043 C 
BRANCH  11  13
HETATM   13  N   UNK N   1      36.243  13.294  12.731  0.00  0.00     0.084 N 
HETATM   14  C   UNK N   1      35.007  13.547  12.008  0.00  0.00     0.309 C 
HETATM   15  C   UNK N   1      36.337  14.267  13.819  0.00  0.00     0.309 C 
ENDBRANCH  11  13
ENDBRANCH  10  11
ENDBRANCH   1  10
BRANCH   1  16
HETATM   16  C   UNK N   1      36.304   9.433  15.674  0.00  0.00     0.005 C 
HETATM   17  C   UNK N   1      35.705   8.508  14.625  0.00  0.00     0.011 C 
HETATM   18  C   UNK N   1      37.825   9.339  15.590  0.00  0.00     0.011 C 
ENDBRANCH   1  16
TORSDOF 5
ENDMDL
MODEL 2
REMARK VINA RESULT:      -5.4      6.519     10.597
REMARK  5 active torsions:
REMARK  status: ('A' for Active; 'I' for Inactive)
REMARK    1  A    between atoms: C_1  and  C_2 
REMARK    2  A    between atoms: C_2  and  C_3 
REMARK    3  A    between atoms: C_2  and  C_9 
REMARK    4  A    between atoms: C_3  and  C_4 
REMARK    5  A    between atoms: C_4  and  N_5 
ROOT
HETATM    1  C   UNK N   1      32.895  16.603   6.978  0.00  0.00     0.081 C 
HETATM    2  C   UNK N   1      33.862  17.667   7.289  0.00  0.00     0.074 C 
HETATM    3  N   UNK N   1      34.617  18.504   7.564  0.00  0.00    -0.196 NA
ENDROOT
BRANCH   1   4
HETATM    4  C   UNK N   1      31.567  17.131   7.526  0.00  0.00    -0.035 A 
HETATM    5  C   UNK N   1      31.537  17.962   8.662  0.00  0.00     0.009 A 
HETATM    6  C   UNK N   1      30.352  18.612   9.038  0.00  0.00     0.001 A 
HETATM    7  C   UNK N   1      29.189  18.447   8.282  0.00  0.00     0.000 A 
HETATM    8  C   UNK N   1      29.205  17.627   7.151  0.00  0.00     0.001 A 
HETATM    9  C   UNK N   1      30.389  16.993   6.767  0.00  0.00     0.009 A 
ENDBRANCH   1   4
BRANCH   1  10
HETATM   10  C   UNK N   1      33.478  15.394   7.750  0.00  0.00     0.065 C 
BRANCH  10  11
HETATM   11  C   UNK N   1      34.728  15.585   8.627  0.00  0.00     0.220 C 
HETATM   12  C   UNK N   1      35.688  14.430   8.403  0.00  0.00     0.043 C 
BRANCH  11  13
HETATM   13  N   UNK N   1      34.412  15.686  10.066  0.00  0.00     0.084 N 
HETATM   14  C   UNK N   1      34.480  14.371  10.682  0.00  0.00     0.309 C 
HETATM   15  C   UNK N   1      35.330  16.569  10.783  0.00  0.00     0.309 C 
ENDBRANCH  11  13
ENDBRANCH  10  11
ENDBRANCH   1  10
BRANCH   1  16
HETATM   16  C   UNK N   1      32.905  16.341   5.439  0.00  0.00     0.005 C 
HETATM   17  C   UNK N   1      33.006  17.605   4.600  0.00  0.00     0.011 C 
HETATM   18  C   UNK N   1      33.979  15.361   4.973  0.00  0.00     0.011 C 
ENDBRANCH   1  16
TORSDOF 5
ENDMDL
MODEL 3
REMARK VINA RESULT:      -5.3     10.480     13.673
REMARK  5 active torsions:
REMARK  status: ('A' for Active; 'I' for Inactive)
REMARK    1  A    between atoms: C_1  and  C_2 
REMARK    2  A    between atoms: C_2  and  C_3 
REMARK    3  A    between atoms: C_2  and  C_9 
REMARK    4  A    between atoms: C_3  and  C_4 
REMARK    5  A    between atoms: C_4  and  N_5 
ROOT
HETATM    1  C   UNK N   1      28.734  18.030   7.039  0.00  0.00     0.081 C 
HETATM    2  C   UNK N   1      27.858  16.865   6.839  0.00  0.00     0.074 C 
HETATM    3  N   UNK N   1      27.173  15.949   6.652  0.00  0.00    -0.196 NA
ENDROOT
BRANCH   1   4
HETATM    4  C   UNK N   1      28.109  19.122   6.166  0.00  0.00    -0.035 A 
HETATM    5  C   UNK N   1      28.041  18.975   4.768  0.00  0.00     0.009 A 
HETATM    6  C   UNK N   1      27.288  19.869   3.993  0.00  0.00     0.001 A 
HETATM    7  C   UNK N   1      26.590  20.914   4.605  0.00  0.00     0.000 A 
HETATM    8  C   UNK N   1      26.647  21.071   5.991  0.00  0.00     0.001 A 
HETATM    9  C   UNK N   1      27.383  20.170   6.765  0.00  0.00     0.009 A 
ENDBRANCH   1   4
BRANCH   1  10
HETATM   10  C   UNK N   1      30.100  17.504   6.536  0.00  0.00     0.065 C 
BRANCH  10  11
HETATM   11  C   UNK N   1      30.422  16.003   6.648  0.00  0.00     0.220 C 
HETATM   12  C   UNK N   1      31.568  15.801   7.625  0.00  0.00     0.043 C 
BRANCH  11  13
HETATM   13  N   UNK N   1      30.772  15.390   5.351  0.00  0.00     0.084 N 
HETATM   14  C   UNK N   1      29.971  14.196   5.135  0.00  0.00     0.309 C 
HETATM   15  C   UNK N   1      30.549  16.294   4.223  0.00  0.00     0.309 C 
ENDBRANCH  11  13
ENDBRANCH  10  11
ENDBRANCH   1  10
BRANCH   1  16
HETATM   16  C   UNK N   1      28.792  18.369   8.561  0.00  0.00     0.005 C 
HETATM   17  C   UNK N   1      28.269  17.259   9.460  0.00  0.00     0.011 C 
HETATM   18  C   UNK N   1      30.172  18.789   9.062  0.00  0.00     0.011 C 
ENDBRANCH   1  16
TORSDOF 5
ENDMDL
MODEL 4
REMARK VINA RESULT:      -5.2      8.522     11.032
REMARK  5 active torsions:
REMARK  status: ('A' for Active; 'I' for Inactive)
REMARK    1  A    between atoms: C_1  and  C_2 
REMARK    2  A    between atoms: C_2  and  C_3 
REMARK    3  A    between atoms: C_2  and  C_9 
REMARK    4  A    between atoms: C_3  and  C_4 
REMARK    5  A    between atoms: C_4  and  N_5 
ROOT
HETATM    1  C   UNK N   1      32.282  16.897   7.683  0.00  0.00     0.081 C 
HETATM    2  C   UNK N   1      32.121  15.446   7.858  0.00  0.00     0.074 C 
HETATM    3  N   UNK N   1      31.973  14.302   7.976  0.00  0.00    -0.196 NA
ENDROOT
BRANCH   1   4
HETATM    4  C   UNK N   1      30.885  17.464   7.950  0.00  0.00    -0.035 A 
HETATM    5  C   UNK N   1      29.778  17.037   7.192  0.00  0.00     0.009 A 
HETATM    6  C   UNK N   1      28.475  17.394   7.569  0.00  0.00     0.001 A 
HETATM    7  C   UNK N   1      28.263  18.173   8.710  0.00  0.00     0.000 A 
HETATM    8  C   UNK N   1      29.351  18.601   9.473  0.00  0.00     0.001 A 
HETATM    9  C   UNK N   1      30.648  18.232   9.106  0.00  0.00     0.009 A 
ENDBRANCH   1   4
BRANCH   1  10
HETATM   10  C   UNK N   1      32.751  17.000   6.211  0.00  0.00     0.065 C 
BRANCH  10  11
HETATM   11  C   UNK N   1      33.155  15.723   5.453  0.00  0.00     0.220 C 
HETATM   12  C   UNK N   1      34.670  15.619   5.405  0.00  0.00     0.043 C 
BRANCH  11  13
HETATM   13  N   UNK N   1      32.619  15.674   4.078  0.00  0.00     0.084 N 
HETATM   14  C   UNK N   1      31.200  15.358   4.111  0.00  0.00     0.309 C 
HETATM   15  C   UNK N   1      32.782  16.941   3.365  0.00  0.00     0.309 C 
ENDBRANCH  11  13
ENDBRANCH  10  11
ENDBRANCH   1  10
BRANCH   1  16
HETATM   16  C   UNK N   1      33.388  17.409   8.658  0.00  0.00     0.005 C 
HETATM   17  C   UNK N   1      34.206  16.298   9.299  0.00  0.00     0.011 C 
HETATM   18  C   UNK N   1      34.347  18.426   8.045  0.00  0.00     0.011 C 
ENDBRANCH   1  16
TORSDOF 5
ENDMDL
MODEL 5
REMARK VINA RESULT:      -5.1     23.532     26.889
REMARK  5 active torsions:
REMARK  status: ('A' for Active; 'I' for Inactive)
REMARK    1  A    between atoms: C_1  and  C_2 
REMARK    2  A    between atoms: C_2  and  C_3 
REMARK    3  A    between atoms: C_2  and  C_9 
REMARK    4  A    between atoms: C_3  and  C_4 
REMARK    5  A    between atoms: C_4  and  N_5 
ROOT
HETATM    1  C   UNK N   1      27.221  27.034  -4.734  0.00  0.00     0.081 C 
HETATM    2  C   UNK N   1      26.312  27.455  -3.658  0.00  0.00     0.074 C 
HETATM    3  N   UNK N   1      25.618  27.787  -2.790  0.00  0.00    -0.196 NA
ENDROOT
BRANCH   1   4
HETATM    4  C   UNK N   1      27.827  25.725  -4.222  0.00  0.00    -0.035 A 
HETATM    5  C   UNK N   1      29.222  25.533  -4.210  0.00  0.00     0.009 A 
HETATM    6  C   UNK N   1      29.784  24.429  -3.553  0.00  0.00     0.001 A 
HETATM    7  C   UNK N   1      28.963  23.510  -2.894  0.00  0.00     0.000 A 
HETATM    8  C   UNK N   1      27.578  23.689  -2.896  0.00  0.00     0.001 A 
HETATM    9  C   UNK N   1      27.019  24.797  -3.537  0.00  0.00     0.009 A 
ENDBRANCH   1   4
BRANCH   1  10
HETATM   10  C   UNK N   1      28.214  28.220  -4.808  0.00  0.00     0.065 C 
BRANCH  10  11
HETATM   11  C   UNK N   1      27.799  29.512  -5.535  0.00  0.00     0.220 C 
HETATM   12  C   UNK N   1      28.627  29.672  -6.800  0.00  0.00     0.043 C 
BRANCH  11  13
HETATM   13  N   UNK N   1      27.949  30.718  -4.697  0.00  0.00     0.084 N 
HETATM   14  C   UNK N   1      26.673  31.062  -4.092  0.00  0.00     0.309 C 
HETATM   15  C   UNK N   1      28.925  30.539  -3.623  0.00  0.00     0.309 C 
ENDBRANCH  11  13
ENDBRANCH  10  11
ENDBRANCH   1  10
BRANCH   1  16
HETATM   16  C   UNK N   1      26.412  26.900  -6.062  0.00  0.00     0.005 C 
HETATM   17  C   UNK N   1      26.897  25.778  -6.968  0.00  0.00     0.011 C 
HETATM   18  C   UNK N   1      24.905  26.751  -5.871  0.00  0.00     0.011 C 
ENDBRANCH   1  16
TORSDOF 5
ENDMDL
MODEL 6
REMARK VINA RESULT:      -5.1     22.128     25.233
REMARK  5 active torsions:
REMARK  status: ('A' for Active; 'I' for Inactive)
REMARK    1  A    between atoms: C_1  and  C_2 
REMARK    2  A    between atoms: C_2  and  C_3 
REMARK    3  A    between atoms: C_2  and  C_9 
REMARK    4  A    between atoms: C_3  and  C_4 
REMARK    5  A    between atoms: C_4  and  N_5 
ROOT
HETATM    1  C   UNK N   1      28.160  24.047  -5.006  0.00  0.00     0.081 C 
HETATM    2  C   UNK N   1      27.242  24.210  -3.869  0.00  0.00     0.074 C 
HETATM    3  N   UNK N   1      26.540  24.352  -2.957  0.00  0.00    -0.196 NA
ENDROOT
BRANCH   1   4
HETATM    4  C   UNK N   1      29.350  23.283  -4.421  0.00  0.00    -0.035 A 
HETATM    5  C   UNK N   1      29.942  23.690  -3.211  0.00  0.00     0.009 A 
HETATM    6  C   UNK N   1      30.888  22.876  -2.571  0.00  0.00     0.001 A 
HETATM    7  C   UNK N   1      31.247  21.644  -3.127  0.00  0.00     0.000 A 
HETATM    8  C   UNK N   1      30.666  21.227  -4.326  0.00  0.00     0.001 A 
HETATM    9  C   UNK N   1      29.711  22.030  -4.955  0.00  0.00     0.009 A 
ENDBRANCH   1   4
BRANCH   1  10
HETATM   10  C   UNK N   1      28.463  25.514  -5.397  0.00  0.00     0.065 C 
BRANCH  10  11
HETATM   11  C   UNK N   1      27.423  26.609  -5.098  0.00  0.00     0.220 C 
HETATM   12  C   UNK N   1      26.812  27.099  -6.400  0.00  0.00     0.043 C 
BRANCH  11  13
HETATM   13  N   UNK N   1      27.989  27.756  -4.361  0.00  0.00     0.084 N 
HETATM   14  C   UNK N   1      27.108  28.126  -3.265  0.00  0.00     0.309 C 
HETATM   15  C   UNK N   1      29.310  27.469  -3.801  0.00  0.00     0.309 C 
ENDBRANCH  11  13
ENDBRANCH  10  11
ENDBRANCH   1  10
BRANCH   1  16
HETATM   16  C   UNK N   1      27.415  23.305  -6.160  0.00  0.00     0.005 C 
HETATM   17  C   UNK N   1      25.899  23.388  -6.068  0.00  0.00     0.011 C 
HETATM   18  C   UNK N   1      27.839  23.733  -7.563  0.00  0.00     0.011 C 
ENDBRANCH   1  16
TORSDOF 5
ENDMDL
MODEL 7
REMARK VINA RESULT:      -5.0     22.704     25.894
REMARK  5 active torsions:
REMARK  status: ('A' for Active; 'I' for Inactive)
REMARK    1  A    between atoms: C_1  and  C_2 
REMARK    2  A    between atoms: C_2  and  C_3 
REMARK    3  A    between atoms: C_2  and  C_9 
REMARK    4  A    between atoms: C_3  and  C_4 
REMARK    5  A    between atoms: C_4  and  N_5 
ROOT
HETATM    1  C   UNK N   1      27.468  25.522  -4.909  0.00  0.00     0.081 C 
HETATM    2  C   UNK N   1      28.304  26.680  -5.258  0.00  0.00     0.074 C 
HETATM    3  N   UNK N   1      28.985  27.575  -5.540  0.00  0.00    -0.196 NA
ENDROOT
BRANCH   1   4
HETATM    4  C   UNK N   1      28.290  24.769  -3.860  0.00  0.00    -0.035 A 
HETATM    5  C   UNK N   1      27.661  23.936  -2.915  0.00  0.00     0.009 A 
HETATM    6  C   UNK N   1      28.421  23.089  -2.094  0.00  0.00     0.001 A 
HETATM    7  C   UNK N   1      29.813  23.058  -2.212  0.00  0.00     0.000 A 
HETATM    8  C   UNK N   1      30.450  23.878  -3.146  0.00  0.00     0.001 A 
HETATM    9  C   UNK N   1      29.692  24.709  -3.976  0.00  0.00     0.009 A 
ENDBRANCH   1   4
BRANCH   1  10
HETATM   10  C   UNK N   1      27.334  24.793  -6.269  0.00  0.00     0.065 C 
BRANCH  10  11
HETATM   11  C   UNK N   1      26.893  23.318  -6.298  0.00  0.00     0.220 C 
HETATM   12  C   UNK N   1      28.030  22.458  -6.826  0.00  0.00     0.043 C 
BRANCH  11  13
HETATM   13  N   UNK N   1      25.688  23.093  -7.120  0.00  0.00     0.084 N 
HETATM   14  C   UNK N   1      25.668  24.024  -8.237  0.00  0.00     0.309 C 
HETATM   15  C   UNK N   1      25.622  21.736  -7.662  0.00  0.00     0.309 C 
ENDBRANCH  11  13
ENDBRANCH  10  11
ENDBRANCH   1  10
BRANCH   1  16
HETATM   16  C   UNK N   1      26.080  26.027  -4.407  0.00  0.00     0.005 C 
HETATM   17  C   UNK N   1      26.167  27.109  -3.342  0.00  0.00     0.011 C 
HETATM   18  C   UNK N   1      25.146  26.510  -5.514  0.00  0.00     0.011 C 
ENDBRANCH   1  16
TORSDOF 5
ENDMDL
MODEL 8
REMARK VINA RESULT:      -5.0      8.573     11.459
REMARK  5 active torsions:
REMARK  status: ('A' for Active; 'I' for Inactive)
REMARK    1  A    between atoms: C_1  and  C_2 
REMARK    2  A    between atoms: C_2  and  C_3 
REMARK    3  A    between atoms: C_2  and  C_9 
REMARK    4  A    between atoms: C_3  and  C_4 
REMARK    5  A    between atoms: C_4  and  N_5 
ROOT
HETATM    1  C   UNK N   1      31.640  16.431   6.467  0.00  0.00     0.081 C 
HETATM    2  C   UNK N   1      31.700  14.991   6.175  0.00  0.00     0.074 C 
HETATM    3  N   UNK N   1      31.747  13.850   5.974  0.00  0.00    -0.196 NA
ENDROOT
BRANCH   1   4
HETATM    4  C   UNK N   1      32.860  16.685   7.355  0.00  0.00    -0.035 A 
HETATM    5  C   UNK N   1      33.562  17.903   7.283  0.00  0.00     0.009 A 
HETATM    6  C   UNK N   1      34.544  18.218   8.235  0.00  0.00     0.001 A 
HETATM    7  C   UNK N   1      34.829  17.325   9.271  0.00  0.00     0.000 A 
HETATM    8  C   UNK N   1      34.140  16.114   9.356  0.00  0.00     0.001 A 
HETATM    9  C   UNK N   1      33.150  15.808   8.418  0.00  0.00     0.009 A 
ENDBRANCH   1   4
BRANCH   1  10
HETATM   10  C   UNK N   1      30.276  16.563   7.190  0.00  0.00     0.065 C 
BRANCH  10  11
HETATM   11  C   UNK N   1      29.795  17.951   7.651  0.00  0.00     0.220 C 
HETATM   12  C   UNK N   1      30.435  18.293   8.986  0.00  0.00     0.043 C 
BRANCH  11  13
HETATM   13  N   UNK N   1      28.326  18.038   7.777  0.00  0.00     0.084 N 
HETATM   14  C   UNK N   1      27.697  17.010   6.963  0.00  0.00     0.309 C 
HETATM   15  C   UNK N   1      27.868  17.865   9.156  0.00  0.00     0.309 C 
ENDBRANCH  11  13
ENDBRANCH  10  11
ENDBRANCH   1  10
BRANCH   1  16
HETATM   16  C   UNK N   1      31.638  17.225   5.123  0.00  0.00     0.005 C 
HETATM   17  C   UNK N   1      32.821  16.910   4.221  0.00  0.00     0.011 C 
HETATM   18  C   UNK N   1      30.355  17.082   4.308  0.00  0.00     0.011 C 
ENDBRANCH   1  16
TORSDOF 5
ENDMDL
MODEL 9
REMARK VINA RESULT:      -5.0     23.908     26.763
REMARK  5 active torsions:
REMARK  status: ('A' for Active; 'I' for Inactive)
REMARK    1  A    between atoms: C_1  and  C_2 
REMARK    2  A    between atoms: C_2  and  C_3 
REMARK    3  A    between atoms: C_2  and  C_9 
REMARK    4  A    between atoms: C_3  and  C_4 
REMARK    5  A    between atoms: C_4  and  N_5 
ROOT
HETATM    1  C   UNK N   1      26.590  24.448  -6.098  0.00  0.00     0.081 C 
HETATM    2  C   UNK N   1      26.439  24.253  -4.648  0.00  0.00     0.074 C 
HETATM    3  N   UNK N   1      26.342  24.077  -3.506  0.00  0.00    -0.196 NA
ENDROOT
BRANCH   1   4
HETATM    4  C   UNK N   1      26.347  23.058  -6.691  0.00  0.00    -0.035 A 
HETATM    5  C   UNK N   1      25.071  22.467  -6.639  0.00  0.00     0.009 A 
HETATM    6  C   UNK N   1      24.798  21.295  -7.360  0.00  0.00     0.001 A 
HETATM    7  C   UNK N   1      25.791  20.707  -8.147  0.00  0.00     0.000 A 
HETATM    8  C   UNK N   1      27.062  21.284  -8.210  0.00  0.00     0.001 A 
HETATM    9  C   UNK N   1      27.329  22.460  -7.505  0.00  0.00     0.009 A 
ENDBRANCH   1   4
BRANCH   1  10
HETATM   10  C   UNK N   1      28.050  24.952  -6.211  0.00  0.00     0.065 C 
BRANCH  10  11
HETATM   11  C   UNK N   1      28.797  25.403  -4.943  0.00  0.00     0.220 C 
HETATM   12  C   UNK N   1      29.030  26.903  -4.996  0.00  0.00     0.043 C 
BRANCH  11  13
HETATM   13  N   UNK N   1      30.090  24.714  -4.761  0.00  0.00     0.084 N 
HETATM   14  C   UNK N   1      30.506  24.800  -3.370  0.00  0.00     0.309 C 
HETATM   15  C   UNK N   1      30.030  23.299  -5.127  0.00  0.00     0.309 C 
ENDBRANCH  11  13
ENDBRANCH  10  11
ENDBRANCH   1  10
BRANCH   1  16
HETATM   16  C   UNK N   1      25.584  25.542  -6.572  0.00  0.00     0.005 C 
HETATM   17  C   UNK N   1      25.315  26.623  -5.536  0.00  0.00     0.011 C 
HETATM   18  C   UNK N   1      25.959  26.217  -7.890  0.00  0.00     0.011 C 
ENDBRANCH   1  16
TORSDOF 5
ENDMDL
