MODEL 1
REMARK VINA RESULT:      -7.0      0.000      0.000
REMARK  4 active torsions:
REMARK  status: ('A' for Active; 'I' for Inactive)
REMARK    1  A    between atoms: C_12  and  C_11 
REMARK    2  A    between atoms: C_17  and  C_11 
REMARK    3  A    between atoms: N_18  and  C_14 
REMARK    4  A    between atoms: O_21  and  C_17 
ROOT
HETATM    1  C   UNK N   1      20.452  16.494   4.050  0.00  0.00     0.010 A 
HETATM    2  C   UNK N   1      21.652  18.167   5.311  0.00  0.00     0.010 A 
HETATM    3  C   UNK N   1      20.625  15.583   5.100  0.00  0.00     0.030 A 
HETATM    4  C   UNK N   1      21.824  17.265   6.352  0.00  0.00     0.030 A 
HETATM    5  C   UNK N   1      20.967  17.796   4.151  0.00  0.00    -0.044 A 
HETATM    6  C   UNK N   1      21.316  15.964   6.264  0.00  0.00     0.037 A 
ENDROOT
BRANCH   6   7
HETATM    7  N   UNK N   1      21.496  15.039   7.339  0.00  0.00    -0.310 N 
HETATM    8  C   UNK N   1      22.704  14.237   7.515  0.00  0.00     0.172 A 
HETATM    9  C   UNK N   1      22.359  13.467   8.766  0.00  0.00    -0.024 A 
HETATM   10  C   UNK N   1      23.131  12.523   9.441  0.00  0.00     0.010 A 
HETATM   11  C   UNK N   1      21.111  13.809   9.219  0.00  0.00     0.040 A 
HETATM   12  C   UNK N   1      22.596  11.929  10.598  0.00  0.00     0.001 A 
HETATM   13  C   UNK N   1      21.311  12.287  11.057  0.00  0.00     0.001 A 
HETATM   14  C   UNK N   1      20.552  13.241  10.361  0.00  0.00     0.017 A 
HETATM   15  C   UNK N   1      20.594  14.785   8.319  0.00  0.00     0.259 A 
HETATM   16  O   UNK N   1      19.498  15.318   8.414  0.00  0.00    -0.267 OA
ENDBRANCH   6   7
BRANCH   5  17
HETATM   17  C   UNK N   1      20.788  18.790   3.028  0.00  0.00     0.112 C 
HETATM   18  C   UNK N   1      20.421  18.288   1.637  0.00  0.00     0.026 C 
BRANCH  17  19
HETATM   19  C   UNK N   1      20.961  20.281   3.231  0.00  0.00     0.148 C 
HETATM   20  O   UNK N   1      20.142  20.904   3.884  0.00  0.00    -0.649 OA
BRANCH  19  21
HETATM   21  O   UNK N   1      22.012  20.935   2.697  0.00  0.00    -0.776 OA
HETATM   22  H   UNK N   1      22.542  21.488   3.236  0.00  0.00     0.167 HD
ENDBRANCH  19  21
ENDBRANCH  17  19
ENDBRANCH   5  17
TORSDOF 4
ENDMDL
MODEL 2
REMARK VINA RESULT:      -6.8      7.619      8.619
REMARK  4 active torsions:
REMARK  status: ('A' for Active; 'I' for Inactive)
REMARK    1  A    between atoms: C_12  and  C_11 
REMARK    2  A    between atoms: C_17  and  C_11 
REMARK    3  A    between atoms: N_18  and  C_14 
REMARK    4  A    between atoms: O_21  and  C_17 
ROOT
HETATM    1  C   UNK N   1      26.199  17.571   4.105  0.00  0.00     0.010 A 
HETATM    2  C   UNK N   1      26.740  19.858   4.656  0.00  0.00     0.010 A 
HETATM    3  C   UNK N   1      27.484  17.176   4.499  0.00  0.00     0.030 A 
HETATM    4  C   UNK N   1      28.014  19.467   5.048  0.00  0.00     0.030 A 
HETATM    5  C   UNK N   1      25.820  18.921   4.182  0.00  0.00    -0.044 A 
HETATM    6  C   UNK N   1      28.404  18.125   4.976  0.00  0.00     0.037 A 
ENDROOT
BRANCH   6   7
HETATM    7  N   UNK N   1      29.716  17.728   5.380  0.00  0.00    -0.310 N 
HETATM    8  C   UNK N   1      30.860  17.690   4.472  0.00  0.00     0.172 A 
HETATM    9  C   UNK N   1      31.950  17.215   5.402  0.00  0.00    -0.024 A 
HETATM   10  C   UNK N   1      33.293  16.981   5.111  0.00  0.00     0.010 A 
HETATM   11  C   UNK N   1      31.459  17.018   6.667  0.00  0.00     0.040 A 
HETATM   12  C   UNK N   1      34.132  16.537   6.149  0.00  0.00     0.001 A 
HETATM   13  C   UNK N   1      33.618  16.336   7.448  0.00  0.00     0.001 A 
HETATM   14  C   UNK N   1      32.262  16.579   7.717  0.00  0.00     0.017 A 
HETATM   15  C   UNK N   1      30.072  17.342   6.630  0.00  0.00     0.259 A 
HETATM   16  O   UNK N   1      29.311  17.281   7.586  0.00  0.00    -0.267 OA
ENDBRANCH   6   7
BRANCH   5  17
HETATM   17  C   UNK N   1      24.439  19.363   3.760  0.00  0.00     0.112 C 
HETATM   18  C   UNK N   1      23.221  18.608   4.279  0.00  0.00     0.026 C 
BRANCH  17  19
HETATM   19  C   UNK N   1      24.213  20.539   2.833  0.00  0.00     0.148 C 
HETATM   20  O   UNK N   1      23.241  21.258   2.990  0.00  0.00    -0.649 OA
BRANCH  19  21
HETATM   21  O   UNK N   1      25.073  20.806   1.830  0.00  0.00    -0.776 OA
HETATM   22  H   UNK N   1      25.824  20.262   1.700  0.00  0.00     0.167 HD
ENDBRANCH  19  21
ENDBRANCH  17  19
ENDBRANCH   5  17
TORSDOF 4
ENDMDL
MODEL 3
REMARK VINA RESULT:      -6.8     15.204     16.076
REMARK  4 active torsions:
REMARK  status: ('A' for Active; 'I' for Inactive)
REMARK    1  A    between atoms: C_12  and  C_11 
REMARK    2  A    between atoms: C_17  and  C_11 
REMARK    3  A    between atoms: N_18  and  C_14 
REMARK    4  A    between atoms: O_21  and  C_17 
ROOT
HETATM    1  C   UNK N   1      26.815  24.918  -3.926  0.00  0.00     0.010 A 
HETATM    2  C   UNK N   1      28.422  26.457  -4.864  0.00  0.00     0.010 A 
HETATM    3  C   UNK N   1      27.798  23.921  -3.888  0.00  0.00     0.030 A 
HETATM    4  C   UNK N   1      29.396  25.469  -4.827  0.00  0.00     0.030 A 
HETATM    5  C   UNK N   1      27.124  26.197  -4.417  0.00  0.00    -0.044 A 
HETATM    6  C   UNK N   1      29.101  24.190  -4.340  0.00  0.00     0.037 A 
ENDROOT
BRANCH   6   7
HETATM    7  N   UNK N   1      30.108  23.177  -4.304  0.00  0.00    -0.310 N 
HETATM    8  C   UNK N   1      30.374  22.267  -5.417  0.00  0.00     0.172 A 
HETATM    9  C   UNK N   1      31.499  21.437  -4.848  0.00  0.00    -0.024 A 
HETATM   10  C   UNK N   1      32.187  20.386  -5.450  0.00  0.00     0.010 A 
HETATM   11  C   UNK N   1      31.811  21.846  -3.577  0.00  0.00     0.040 A 
HETATM   12  C   UNK N   1      33.210  19.754  -4.720  0.00  0.00     0.001 A 
HETATM   13  C   UNK N   1      33.524  20.181  -3.413  0.00  0.00     0.001 A 
HETATM   14  C   UNK N   1      32.817  21.243  -2.827  0.00  0.00     0.017 A 
HETATM   15  C   UNK N   1      30.936  22.926  -3.261  0.00  0.00     0.259 A 
HETATM   16  O   UNK N   1      30.931  23.539  -2.202  0.00  0.00    -0.267 OA
ENDBRANCH   6   7
BRANCH   5  17
HETATM   17  C   UNK N   1      26.076  27.283  -4.464  0.00  0.00     0.112 C 
HETATM   18  C   UNK N   1      24.934  27.176  -5.467  0.00  0.00     0.026 C 
BRANCH  17  19
HETATM   19  C   UNK N   1      26.115  28.487  -3.547  0.00  0.00     0.148 C 
HETATM   20  O   UNK N   1      26.510  28.364  -2.400  0.00  0.00    -0.649 OA
BRANCH  19  21
HETATM   21  O   UNK N   1      25.717  29.700  -3.978  0.00  0.00    -0.776 OA
HETATM   22  H   UNK N   1      25.719  30.430  -3.391  0.00  0.00     0.167 HD
ENDBRANCH  19  21
ENDBRANCH  17  19
ENDBRANCH   5  17
TORSDOF 4
ENDMDL
MODEL 4
REMARK VINA RESULT:      -6.7     14.626     16.785
REMARK  4 active torsions:
REMARK  status: ('A' for Active; 'I' for Inactive)
REMARK    1  A    between atoms: C_12  and  C_11 
REMARK    2  A    between atoms: C_17  and  C_11 
REMARK    3  A    between atoms: N_18  and  C_14 
REMARK    4  A    between atoms: O_21  and  C_17 
ROOT
HETATM    1  C   UNK N   1      34.898  13.246  12.019  0.00  0.00     0.010 A 
HETATM    2  C   UNK N   1      36.348  14.995  12.836  0.00  0.00     0.010 A 
HETATM    3  C   UNK N   1      34.918  12.644  13.284  0.00  0.00     0.030 A 
HETATM    4  C   UNK N   1      36.368  14.399  14.090  0.00  0.00     0.030 A 
HETATM    5  C   UNK N   1      35.616  14.430  11.788  0.00  0.00    -0.044 A 
HETATM    6  C   UNK N   1      35.656  13.220  14.333  0.00  0.00     0.037 A 
ENDROOT
BRANCH   6   7
HETATM    7  N   UNK N   1      35.680  12.610  15.625  0.00  0.00    -0.310 N 
HETATM    8  C   UNK N   1      35.134  13.244  16.823  0.00  0.00     0.172 A 
HETATM    9  C   UNK N   1      35.421  12.189  17.864  0.00  0.00    -0.024 A 
HETATM   10  C   UNK N   1      35.129  12.217  19.226  0.00  0.00     0.010 A 
HETATM   11  C   UNK N   1      36.050  11.109  17.301  0.00  0.00     0.040 A 
HETATM   12  C   UNK N   1      35.495  11.108  20.009  0.00  0.00     0.001 A 
HETATM   13  C   UNK N   1      36.142  10.000  19.421  0.00  0.00     0.001 A 
HETATM   14  C   UNK N   1      36.426   9.995  18.047  0.00  0.00     0.017 A 
HETATM   15  C   UNK N   1      36.200  11.392  15.912  0.00  0.00     0.259 A 
HETATM   16  O   UNK N   1      36.722  10.645  15.096  0.00  0.00    -0.267 OA
ENDBRANCH   6   7
BRANCH   5  17
HETATM   17  C   UNK N   1      35.605  15.091  10.431  0.00  0.00     0.112 C 
HETATM   18  C   UNK N   1      36.235  14.372   9.244  0.00  0.00     0.026 C 
BRANCH  17  19
HETATM   19  C   UNK N   1      34.988  16.454  10.198  0.00  0.00     0.148 C 
HETATM   20  O   UNK N   1      35.665  17.459  10.333  0.00  0.00    -0.649 OA
BRANCH  19  21
HETATM   21  O   UNK N   1      33.694  16.577   9.842  0.00  0.00    -0.776 OA
HETATM   22  H   UNK N   1      33.017  16.366  10.455  0.00  0.00     0.167 HD
ENDBRANCH  19  21
ENDBRANCH  17  19
ENDBRANCH   5  17
TORSDOF 4
ENDMDL
MODEL 5
REMARK VINA RESULT:      -6.7      8.120     10.761
REMARK  4 active torsions:
REMARK  status: ('A' for Active; 'I' for Inactive)
REMARK    1  A    between atoms: C_12  and  C_11 
REMARK    2  A    between atoms: C_17  and  C_11 
REMARK    3  A    between atoms: N_18  and  C_14 
REMARK    4  A    between atoms: O_21  and  C_17 
ROOT
HETATM    1  C   UNK N   1      30.360  17.576   8.529  0.00  0.00     0.010 A 
HETATM    2  C   UNK N   1      31.318  16.636   6.523  0.00  0.00     0.010 A 
HETATM    3  C   UNK N   1      29.282  18.066   7.780  0.00  0.00     0.030 A 
HETATM    4  C   UNK N   1      30.251  17.122   5.780  0.00  0.00     0.030 A 
HETATM    5  C   UNK N   1      31.388  16.855   7.901  0.00  0.00    -0.044 A 
HETATM    6  C   UNK N   1      29.220  17.841   6.394  0.00  0.00     0.037 A 
ENDROOT
BRANCH   6   7
HETATM    7  N   UNK N   1      28.124  18.339   5.625  0.00  0.00    -0.310 N 
HETATM    8  C   UNK N   1      28.198  19.547   4.805  0.00  0.00     0.172 A 
HETATM    9  C   UNK N   1      26.802  19.596   4.236  0.00  0.00    -0.024 A 
HETATM   10  C   UNK N   1      26.256  20.537   3.366  0.00  0.00     0.010 A 
HETATM   11  C   UNK N   1      26.053  18.540   4.691  0.00  0.00     0.040 A 
HETATM   12  C   UNK N   1      24.917  20.377   2.965  0.00  0.00     0.001 A 
HETATM   13  C   UNK N   1      24.154  19.289   3.438  0.00  0.00     0.001 A 
HETATM   14  C   UNK N   1      24.726  18.353   4.314  0.00  0.00     0.017 A 
HETATM   15  C   UNK N   1      26.893  17.775   5.550  0.00  0.00     0.259 A 
HETATM   16  O   UNK N   1      26.556  16.756   6.137  0.00  0.00    -0.267 OA
ENDBRANCH   6   7
BRANCH   5  17
HETATM   17  C   UNK N   1      32.556  16.320   8.694  0.00  0.00     0.112 C 
HETATM   18  C   UNK N   1      33.857  17.112   8.735  0.00  0.00     0.026 C 
BRANCH  17  19
HETATM   19  C   UNK N   1      32.487  15.014   9.458  0.00  0.00     0.148 C 
HETATM   20  O   UNK N   1      32.256  13.975   8.864  0.00  0.00    -0.649 OA
BRANCH  19  21
HETATM   21  O   UNK N   1      32.677  14.981  10.792  0.00  0.00    -0.776 OA
HETATM   22  H   UNK N   1      32.230  15.591  11.344  0.00  0.00     0.167 HD
ENDBRANCH  19  21
ENDBRANCH  17  19
ENDBRANCH   5  17
TORSDOF 4
ENDMDL
MODEL 6
REMARK VINA RESULT:      -6.6      1.540      2.160
REMARK  4 active torsions:
REMARK  status: ('A' for Active; 'I' for Inactive)
REMARK    1  A    between atoms: C_12  and  C_11 
REMARK    2  A    between atoms: C_17  and  C_11 
REMARK    3  A    between atoms: N_18  and  C_14 
REMARK    4  A    between atoms: O_21  and  C_17 
ROOT
HETATM    1  C   UNK N   1      20.619  16.648   5.127  0.00  0.00     0.010 A 
HETATM    2  C   UNK N   1      21.275  14.710   3.847  0.00  0.00     0.010 A 
HETATM    3  C   UNK N   1      21.104  16.038   6.292  0.00  0.00     0.030 A 
HETATM    4  C   UNK N   1      21.755  14.104   4.999  0.00  0.00     0.030 A 
HETATM    5  C   UNK N   1      20.703  15.984   3.893  0.00  0.00    -0.044 A 
HETATM    6  C   UNK N   1      21.678  14.756   6.235  0.00  0.00     0.037 A 
ENDROOT
BRANCH   6   7
HETATM    7  N   UNK N   1      22.174  14.128   7.419  0.00  0.00    -0.310 N 
HETATM    8  C   UNK N   1      23.594  13.883   7.665  0.00  0.00     0.172 A 
HETATM    9  C   UNK N   1      23.541  13.219   9.020  0.00  0.00    -0.024 A 
HETATM   10  C   UNK N   1      24.600  12.746   9.791  0.00  0.00     0.010 A 
HETATM   11  C   UNK N   1      22.247  13.114   9.461  0.00  0.00     0.040 A 
HETATM   12  C   UNK N   1      24.308  12.157  11.035  0.00  0.00     0.001 A 
HETATM   13  C   UNK N   1      22.974  12.053  11.481  0.00  0.00     0.001 A 
HETATM   14  C   UNK N   1      21.923  12.538  10.686  0.00  0.00     0.017 A 
HETATM   15  C   UNK N   1      21.417  13.684   8.452  0.00  0.00     0.259 A 
HETATM   16  O   UNK N   1      20.197  13.763   8.508  0.00  0.00    -0.267 OA
ENDBRANCH   6   7
BRANCH   5  17
HETATM   17  C   UNK N   1      20.185  16.627   2.629  0.00  0.00     0.112 C 
HETATM   18  C   UNK N   1      20.034  15.784   1.369  0.00  0.00     0.026 C 
BRANCH  17  19
HETATM   19  C   UNK N   1      19.806  18.092   2.563  0.00  0.00     0.148 C 
HETATM   20  O   UNK N   1      20.676  18.946   2.573  0.00  0.00    -0.649 OA
BRANCH  19  21
HETATM   21  O   UNK N   1      18.515  18.471   2.491  0.00  0.00    -0.776 OA
HETATM   22  H   UNK N   1      18.088  18.527   1.660  0.00  0.00     0.167 HD
ENDBRANCH  19  21
ENDBRANCH  17  19
ENDBRANCH   5  17
TORSDOF 4
ENDMDL
MODEL 7
REMARK VINA RESULT:      -6.5      8.717     10.749
REMARK  4 active torsions:
REMARK  status: ('A' for Active; 'I' for Inactive)
REMARK    1  A    between atoms: C_12  and  C_11 
REMARK    2  A    between atoms: C_17  and  C_11 
REMARK    3  A    between atoms: N_18  and  C_14 
REMARK    4  A    between atoms: O_21  and  C_17 
ROOT
HETATM    1  C   UNK N   1      31.340  17.440   7.844  0.00  0.00     0.010 A 
HETATM    2  C   UNK N   1      32.028  17.171   5.545  0.00  0.00     0.010 A 
HETATM    3  C   UNK N   1      30.010  17.580   7.426  0.00  0.00     0.030 A 
HETATM    4  C   UNK N   1      30.710  17.309   5.130  0.00  0.00     0.030 A 
HETATM    5  C   UNK N   1      32.360  17.233   6.901  0.00  0.00    -0.044 A 
HETATM    6  C   UNK N   1      29.685  17.515   6.060  0.00  0.00     0.037 A 
ENDROOT
BRANCH   6   7
HETATM    7  N   UNK N   1      28.330  17.657   5.627  0.00  0.00    -0.310 N 
HETATM    8  C   UNK N   1      27.341  16.585   5.713  0.00  0.00     0.172 A 
HETATM    9  C   UNK N   1      26.125  17.266   5.135  0.00  0.00    -0.024 A 
HETATM   10  C   UNK N   1      24.847  16.743   4.951  0.00  0.00     0.010 A 
HETATM   11  C   UNK N   1      26.416  18.558   4.776  0.00  0.00     0.040 A 
HETATM   12  C   UNK N   1      23.862  17.574   4.388  0.00  0.00     0.001 A 
HETATM   13  C   UNK N   1      24.169  18.901   4.022  0.00  0.00     0.001 A 
HETATM   14  C   UNK N   1      25.464  19.406   4.216  0.00  0.00     0.017 A 
HETATM   15  C   UNK N   1      27.788  18.778   5.090  0.00  0.00     0.259 A 
HETATM   16  O   UNK N   1      28.392  19.825   4.904  0.00  0.00    -0.267 OA
ENDBRANCH   6   7
BRANCH   5  17
HETATM   17  C   UNK N   1      33.798  17.080   7.335  0.00  0.00     0.112 C 
HETATM   18  C   UNK N   1      34.693  16.080   6.615  0.00  0.00     0.026 C 
BRANCH  17  19
HETATM   19  C   UNK N   1      34.392  17.889   8.468  0.00  0.00     0.148 C 
HETATM   20  O   UNK N   1      34.871  18.988   8.245  0.00  0.00    -0.649 OA
BRANCH  19  21
HETATM   21  O   UNK N   1      34.402  17.413   9.729  0.00  0.00    -0.776 OA
HETATM   22  H   UNK N   1      35.038  17.723  10.342  0.00  0.00     0.167 HD
ENDBRANCH  19  21
ENDBRANCH  17  19
ENDBRANCH   5  17
TORSDOF 4
ENDMDL
MODEL 8
REMARK VINA RESULT:      -6.5     12.400     15.143
REMARK  4 active torsions:
REMARK  status: ('A' for Active; 'I' for Inactive)
REMARK    1  A    between atoms: C_12  and  C_11 
REMARK    2  A    between atoms: C_17  and  C_11 
REMARK    3  A    between atoms: N_18  and  C_14 
REMARK    4  A    between atoms: O_21  and  C_17 
ROOT
HETATM    1  C   UNK N   1      35.137  13.297  10.113  0.00  0.00     0.010 A 
HETATM    2  C   UNK N   1      35.295  15.484  11.123  0.00  0.00     0.010 A 
HETATM    3  C   UNK N   1      34.422  13.848   9.041  0.00  0.00     0.030 A 
HETATM    4  C   UNK N   1      34.587  16.031  10.061  0.00  0.00     0.030 A 
HETATM    5  C   UNK N   1      35.578  14.117  11.164  0.00  0.00    -0.044 A 
HETATM    6  C   UNK N   1      34.142  15.225   9.007  0.00  0.00     0.037 A 
ENDROOT
BRANCH   6   7
HETATM    7  N   UNK N   1      33.414  15.793   7.917  0.00  0.00    -0.310 N 
HETATM    8  C   UNK N   1      31.959  15.934   7.907  0.00  0.00     0.172 A 
HETATM    9  C   UNK N   1      31.740  16.573   6.557  0.00  0.00    -0.024 A 
HETATM   10  C   UNK N   1      30.537  16.956   5.968  0.00  0.00     0.010 A 
HETATM   11  C   UNK N   1      32.933  16.758   5.907  0.00  0.00     0.040 A 
HETATM   12  C   UNK N   1      30.578  17.538   4.688  0.00  0.00     0.001 A 
HETATM   13  C   UNK N   1      31.810  17.725   4.026  0.00  0.00     0.001 A 
HETATM   14  C   UNK N   1      33.009  17.331   4.641  0.00  0.00     0.017 A 
HETATM   15  C   UNK N   1      33.957  16.268   6.769  0.00  0.00     0.259 A 
HETATM   16  O   UNK N   1      35.153  16.273   6.512  0.00  0.00    -0.267 OA
ENDBRANCH   6   7
BRANCH   5  17
HETATM   17  C   UNK N   1      36.349  13.539  12.327  0.00  0.00     0.112 C 
HETATM   18  C   UNK N   1      37.403  12.470  12.066  0.00  0.00     0.026 C 
BRANCH  17  19
HETATM   19  C   UNK N   1      36.115  13.983  13.755  0.00  0.00     0.148 C 
HETATM   20  O   UNK N   1      35.124  13.602  14.355  0.00  0.00    -0.649 OA
BRANCH  19  21
HETATM   21  O   UNK N   1      36.988  14.798  14.379  0.00  0.00    -0.776 OA
HETATM   22  H   UNK N   1      37.290  15.576  13.953  0.00  0.00     0.167 HD
ENDBRANCH  19  21
ENDBRANCH  17  19
ENDBRANCH   5  17
TORSDOF 4
ENDMDL
MODEL 9
REMARK VINA RESULT:      -6.4     16.457     19.606
REMARK  4 active torsions:
REMARK  status: ('A' for Active; 'I' for Inactive)
REMARK    1  A    between atoms: C_12  and  C_11 
REMARK    2  A    between atoms: C_17  and  C_11 
REMARK    3  A    between atoms: N_18  and  C_14 
REMARK    4  A    between atoms: O_21  and  C_17 
ROOT
HETATM    1  C   UNK N   1      34.423   9.467  18.840  0.00  0.00     0.010 A 
HETATM    2  C   UNK N   1      35.210  11.567  19.734  0.00  0.00     0.010 A 
HETATM    3  C   UNK N   1      34.783   9.884  17.552  0.00  0.00     0.030 A 
HETATM    4  C   UNK N   1      35.567  11.982  18.458  0.00  0.00     0.030 A 
HETATM    5  C   UNK N   1      34.636  10.310  19.942  0.00  0.00    -0.044 A 
HETATM    6  C   UNK N   1      35.360  11.150  17.351  0.00  0.00     0.037 A 
ENDROOT
BRANCH   6   7
HETATM    7  N   UNK N   1      35.729  11.582  16.040  0.00  0.00    -0.310 N 
HETATM    8  C   UNK N   1      36.865  11.034  15.303  0.00  0.00     0.172 A 
HETATM    9  C   UNK N   1      36.789  11.828  14.022  0.00  0.00    -0.024 A 
HETATM   10  C   UNK N   1      37.621  11.753  12.907  0.00  0.00     0.010 A 
HETATM   11  C   UNK N   1      35.735  12.705  14.056  0.00  0.00     0.040 A 
HETATM   12  C   UNK N   1      37.354  12.601  11.817  0.00  0.00     0.001 A 
HETATM   13  C   UNK N   1      36.268  13.501  11.860  0.00  0.00     0.001 A 
HETATM   14  C   UNK N   1      35.443  13.558  12.995  0.00  0.00     0.017 A 
HETATM   15  C   UNK N   1      35.093  12.536  15.316  0.00  0.00     0.259 A 
HETATM   16  O   UNK N   1      34.110  13.158  15.693  0.00  0.00    -0.267 OA
ENDBRANCH   6   7
BRANCH   5  17
HETATM   17  C   UNK N   1      34.254   9.875  21.337  0.00  0.00     0.112 C 
HETATM   18  C   UNK N   1      35.185   8.951  22.112  0.00  0.00     0.026 C 
BRANCH  17  19
HETATM   19  C   UNK N   1      32.971  10.325  22.003  0.00  0.00     0.148 C 
HETATM   20  O   UNK N   1      31.973   9.628  21.931  0.00  0.00    -0.649 OA
BRANCH  19  21
HETATM   21  O   UNK N   1      32.912  11.490  22.678  0.00  0.00    -0.776 OA
HETATM   22  H   UNK N   1      32.740  11.490  23.599  0.00  0.00     0.167 HD
ENDBRANCH  19  21
ENDBRANCH  17  19
ENDBRANCH   5  17
TORSDOF 4
ENDMDL
