MODEL 1
REMARK VINA RESULT:      -7.5      0.000      0.000
REMARK  9 active torsions:
REMARK  status: ('A' for Active; 'I' for Inactive)
REMARK    1  A    between atoms: O_28  and  C_3 
REMARK    2  A    between atoms: C_20  and  C_18 
REMARK    3  A    between atoms: N_25  and  C_18 
REMARK    4  A    between atoms: C_23  and  C_19 
REMARK    5  A    between atoms: N_26  and  C_19 
REMARK    6  A    between atoms: C_24  and  C_20 
REMARK    7  A    between atoms: C_23  and  C_21 
REMARK    8  A    between atoms: C_24  and  C_22 
REMARK    9  A    between atoms: O_28  and  C_23 
ROOT
HETATM    1  C   UNK N   1      35.699  16.325  10.873  0.00  0.00     0.302 C 
HETATM    2  C   UNK N   1      36.067  14.447   9.590  0.00  0.00     0.302 C 
HETATM    3  C   UNK N   1      35.828  15.568  12.200  0.00  0.00     0.302 C 
HETATM    4  C   UNK N   1      36.150  13.502  10.768  0.00  0.00     0.302 C 
HETATM    5  N   UNK N   1      35.068  15.416   9.944  0.00  0.00     0.092 N 
HETATM    6  N   UNK N   1      36.296  14.164  12.090  0.00  0.00     0.094 N 
ENDROOT
BRANCH   5   7
HETATM    7  C   UNK N   1      34.499  16.040   8.764  0.00  0.00     0.284 C 
BRANCH   7   8
HETATM    8  C   UNK N   1      32.964  15.919   8.810  0.00  0.00     0.085 C 
HETATM    9  C   UNK N   1      32.443  14.522   8.458  0.00  0.00     0.020 C 
BRANCH   8  10
HETATM   10  C   UNK N   1      32.285  17.073   8.094  0.00  0.00     0.165 C 
HETATM   11  O   UNK N   1      31.787  17.948   8.789  0.00  0.00    -0.292 OA
BRANCH  10  12
HETATM   12  C   UNK N   1      32.165  17.196   6.604  0.00  0.00     0.010 A 
HETATM   13  C   UNK N   1      30.900  17.079   6.005  0.00  0.00     0.015 A 
HETATM   14  C   UNK N   1      30.754  17.178   4.617  0.00  0.00     0.001 A 
HETATM   15  C   UNK N   1      31.871  17.405   3.811  0.00  0.00     0.000 A 
HETATM   16  C   UNK N   1      33.133  17.535   4.391  0.00  0.00     0.001 A 
HETATM   17  C   UNK N   1      33.278  17.432   5.776  0.00  0.00     0.015 A 
ENDBRANCH  10  12
ENDBRANCH   8  10
ENDBRANCH   7   8
ENDBRANCH   5   7
BRANCH   6  18
HETATM   18  C   UNK N   1      35.478  13.430  13.066  0.00  0.00     0.309 C 
BRANCH  18  19
HETATM   19  C   UNK N   1      36.293  12.825  14.217  0.00  0.00     0.182 C 
BRANCH  19  20
HETATM   20  C   UNK N   1      36.292  13.685  15.448  0.00  0.00    -0.028 A 
HETATM   21  C   UNK N   1      35.451  13.385  16.532  0.00  0.00     0.010 A 
HETATM   22  C   UNK N   1      35.485  14.169  17.689  0.00  0.00     0.001 A 
HETATM   23  C   UNK N   1      36.356  15.259  17.767  0.00  0.00     0.000 A 
HETATM   24  C   UNK N   1      37.195  15.563  16.692  0.00  0.00     0.001 A 
HETATM   25  C   UNK N   1      37.169  14.775  15.538  0.00  0.00     0.010 A 
ENDBRANCH  19  20
BRANCH  19  26
HETATM   26  O   UNK N   1      35.824  11.532  14.491  0.00  0.00    -0.380 OA
BRANCH  26  27
HETATM   27  C   UNK N   1      34.653  11.395  13.742  0.00  0.00     0.164 C 
HETATM   28  C   UNK N   1      33.579  10.750  14.594  0.00  0.00     0.033 C 
ENDBRANCH  26  27
ENDBRANCH  19  26
ENDBRANCH  18  19
ENDBRANCH   6  18
TORSDOF 9
ENDMDL
MODEL 2
REMARK VINA RESULT:      -7.3      1.263      1.959
REMARK  9 active torsions:
REMARK  status: ('A' for Active; 'I' for Inactive)
REMARK    1  A    between atoms: O_28  and  C_3 
REMARK    2  A    between atoms: C_20  and  C_18 
REMARK    3  A    between atoms: N_25  and  C_18 
REMARK    4  A    between atoms: C_23  and  C_19 
REMARK    5  A    between atoms: N_26  and  C_19 
REMARK    6  A    between atoms: C_24  and  C_20 
REMARK    7  A    between atoms: C_23  and  C_21 
REMARK    8  A    between atoms: C_24  and  C_22 
REMARK    9  A    between atoms: O_28  and  C_23 
ROOT
HETATM    1  C   UNK N   1      35.303  16.293  10.780  0.00  0.00     0.302 C 
HETATM    2  C   UNK N   1      34.987  14.369   9.553  0.00  0.00     0.302 C 
HETATM    3  C   UNK N   1      35.658  15.536  12.065  0.00  0.00     0.302 C 
HETATM    4  C   UNK N   1      35.226  13.434  10.717  0.00  0.00     0.302 C 
HETATM    5  N   UNK N   1      34.299  15.504  10.105  0.00  0.00     0.092 N 
HETATM    6  N   UNK N   1      35.835  14.070  11.913  0.00  0.00     0.094 N 
ENDROOT
BRANCH   5   7
HETATM    7  C   UNK N   1      33.545  16.208   9.086  0.00  0.00     0.284 C 
BRANCH   7   8
HETATM    8  C   UNK N   1      34.521  16.887   8.104  0.00  0.00     0.085 C 
HETATM    9  C   UNK N   1      34.538  18.415   8.208  0.00  0.00     0.020 C 
BRANCH   8  10
HETATM   10  C   UNK N   1      34.390  16.325   6.700  0.00  0.00     0.165 C 
HETATM   11  O   UNK N   1      35.342  15.696   6.258  0.00  0.00    -0.292 OA
BRANCH  10  12
HETATM   12  C   UNK N   1      33.192  16.511   5.818  0.00  0.00     0.010 A 
HETATM   13  C   UNK N   1      33.203  17.528   4.849  0.00  0.00     0.015 A 
HETATM   14  C   UNK N   1      32.098  17.736   4.017  0.00  0.00     0.001 A 
HETATM   15  C   UNK N   1      30.969  16.923   4.137  0.00  0.00     0.000 A 
HETATM   16  C   UNK N   1      30.946  15.901   5.087  0.00  0.00     0.001 A 
HETATM   17  C   UNK N   1      32.048  15.698   5.920  0.00  0.00     0.015 A 
ENDBRANCH  10  12
ENDBRANCH   8  10
ENDBRANCH   7   8
ENDBRANCH   5   7
BRANCH   6  18
HETATM   18  C   UNK N   1      35.202  13.501  13.111  0.00  0.00     0.309 C 
BRANCH  18  19
HETATM   19  C   UNK N   1      36.204  12.918  14.116  0.00  0.00     0.182 C 
BRANCH  19  20
HETATM   20  C   UNK N   1      36.326  13.745  15.363  0.00  0.00    -0.028 A 
HETATM   21  C   UNK N   1      37.182  14.858  15.405  0.00  0.00     0.010 A 
HETATM   22  C   UNK N   1      37.261  15.645  16.558  0.00  0.00     0.001 A 
HETATM   23  C   UNK N   1      36.488  15.322  17.676  0.00  0.00     0.000 A 
HETATM   24  C   UNK N   1      35.635  14.216  17.641  0.00  0.00     0.001 A 
HETATM   25  C   UNK N   1      35.548  13.433  16.486  0.00  0.00     0.010 A 
ENDBRANCH  19  20
BRANCH  19  26
HETATM   26  O   UNK N   1      35.854  11.593  14.409  0.00  0.00    -0.380 OA
BRANCH  26  27
HETATM   27  C   UNK N   1      34.643  11.373  13.749  0.00  0.00     0.164 C 
HETATM   28  C   UNK N   1      33.658  10.726  14.700  0.00  0.00     0.033 C 
ENDBRANCH  26  27
ENDBRANCH  19  26
ENDBRANCH  18  19
ENDBRANCH   6  18
TORSDOF 9
ENDMDL
MODEL 3
REMARK VINA RESULT:      -7.2      2.285      9.602
REMARK  9 active torsions:
REMARK  status: ('A' for Active; 'I' for Inactive)
REMARK    1  A    between atoms: O_28  and  C_3 
REMARK    2  A    between atoms: C_20  and  C_18 
REMARK    3  A    between atoms: N_25  and  C_18 
REMARK    4  A    between atoms: C_23  and  C_19 
REMARK    5  A    between atoms: N_26  and  C_19 
REMARK    6  A    between atoms: C_24  and  C_20 
REMARK    7  A    between atoms: C_23  and  C_21 
REMARK    8  A    between atoms: C_24  and  C_22 
REMARK    9  A    between atoms: O_28  and  C_23 
ROOT
HETATM    1  C   UNK N   1      35.385  12.181  12.121  0.00  0.00     0.302 C 
HETATM    2  C   UNK N   1      37.641  12.505  11.790  0.00  0.00     0.302 C 
HETATM    3  C   UNK N   1      34.986  12.934  10.847  0.00  0.00     0.302 C 
HETATM    4  C   UNK N   1      37.469  13.347  10.546  0.00  0.00     0.302 C 
HETATM    5  N   UNK N   1      36.546  12.858  12.650  0.00  0.00     0.092 N 
HETATM    6  N   UNK N   1      36.109  13.308   9.950  0.00  0.00     0.094 N 
ENDROOT
BRANCH   5   7
HETATM    7  C   UNK N   1      36.850  12.565  14.037  0.00  0.00     0.284 C 
BRANCH   7   8
HETATM    8  C   UNK N   1      36.158  13.601  14.944  0.00  0.00     0.085 C 
HETATM    9  C   UNK N   1      37.130  14.527  15.680  0.00  0.00     0.020 C 
BRANCH   8  10
HETATM   10  C   UNK N   1      35.078  12.966  15.803  0.00  0.00     0.165 C 
HETATM   11  O   UNK N   1      33.950  12.910  15.333  0.00  0.00    -0.292 OA
BRANCH  10  12
HETATM   12  C   UNK N   1      35.297  12.431  17.186  0.00  0.00     0.010 A 
HETATM   13  C   UNK N   1      35.723  11.102  17.350  0.00  0.00     0.015 A 
HETATM   14  C   UNK N   1      35.925  10.569  18.627  0.00  0.00     0.001 A 
HETATM   15  C   UNK N   1      35.714  11.360  19.758  0.00  0.00     0.000 A 
HETATM   16  C   UNK N   1      35.301  12.685  19.612  0.00  0.00     0.001 A 
HETATM   17  C   UNK N   1      35.095  13.215  18.337  0.00  0.00     0.015 A 
ENDBRANCH  10  12
ENDBRANCH   8  10
ENDBRANCH   7   8
ENDBRANCH   5   7
BRANCH   6  18
HETATM   18  C   UNK N   1      35.770  14.660   9.485  0.00  0.00     0.309 C 
BRANCH  18  19
HETATM   19  C   UNK N   1      34.814  14.674   8.285  0.00  0.00     0.182 C 
BRANCH  19  20
HETATM   20  C   UNK N   1      33.880  15.850   8.297  0.00  0.00    -0.028 A 
HETATM   21  C   UNK N   1      34.348  17.142   8.007  0.00  0.00     0.010 A 
HETATM   22  C   UNK N   1      33.465  18.224   7.983  0.00  0.00     0.001 A 
HETATM   23  C   UNK N   1      32.109  18.023   8.252  0.00  0.00     0.000 A 
HETATM   24  C   UNK N   1      31.636  16.741   8.542  0.00  0.00     0.001 A 
HETATM   25  C   UNK N   1      32.517  15.655   8.558  0.00  0.00     0.010 A 
ENDBRANCH  19  20
BRANCH  19  26
HETATM   26  O   UNK N   1      35.557  14.619   7.097  0.00  0.00    -0.380 OA
BRANCH  26  27
HETATM   27  C   UNK N   1      34.738  13.958   6.178  0.00  0.00     0.164 C 
HETATM   28  C   UNK N   1      34.856  14.626   4.823  0.00  0.00     0.033 C 
ENDBRANCH  26  27
ENDBRANCH  19  26
ENDBRANCH  18  19
ENDBRANCH   6  18
TORSDOF 9
ENDMDL
MODEL 4
REMARK VINA RESULT:      -7.1      1.496      2.037
REMARK  9 active torsions:
REMARK  status: ('A' for Active; 'I' for Inactive)
REMARK    1  A    between atoms: O_28  and  C_3 
REMARK    2  A    between atoms: C_20  and  C_18 
REMARK    3  A    between atoms: N_25  and  C_18 
REMARK    4  A    between atoms: C_23  and  C_19 
REMARK    5  A    between atoms: N_26  and  C_19 
REMARK    6  A    between atoms: C_24  and  C_20 
REMARK    7  A    between atoms: C_23  and  C_21 
REMARK    8  A    between atoms: C_24  and  C_22 
REMARK    9  A    between atoms: O_28  and  C_23 
ROOT
HETATM    1  C   UNK N   1      35.479  16.006  10.632  0.00  0.00     0.302 C 
HETATM    2  C   UNK N   1      36.986  14.433   9.883  0.00  0.00     0.302 C 
HETATM    3  C   UNK N   1      35.372  15.386  12.030  0.00  0.00     0.302 C 
HETATM    4  C   UNK N   1      36.968  13.620  11.158  0.00  0.00     0.302 C 
HETATM    5  N   UNK N   1      35.641  14.907   9.709  0.00  0.00     0.092 N 
HETATM    6  N   UNK N   1      36.340  14.299  12.321  0.00  0.00     0.094 N 
ENDROOT
BRANCH   5   7
HETATM    7  C   UNK N   1      35.371  15.226   8.320  0.00  0.00     0.284 C 
BRANCH   7   8
HETATM    8  C   UNK N   1      34.123  16.125   8.233  0.00  0.00     0.085 C 
HETATM    9  C   UNK N   1      32.801  15.361   8.355  0.00  0.00     0.020 C 
BRANCH   8  10
HETATM   10  C   UNK N   1      34.212  17.103   7.076  0.00  0.00     0.165 C 
HETATM   11  O   UNK N   1      34.673  18.212   7.313  0.00  0.00    -0.292 OA
BRANCH  10  12
HETATM   12  C   UNK N   1      33.751  16.813   5.679  0.00  0.00     0.010 A 
HETATM   13  C   UNK N   1      34.163  15.625   5.052  0.00  0.00     0.015 A 
HETATM   14  C   UNK N   1      33.760  15.329   3.746  0.00  0.00     0.001 A 
HETATM   15  C   UNK N   1      32.932  16.212   3.051  0.00  0.00     0.000 A 
HETATM   16  C   UNK N   1      32.506  17.392   3.663  0.00  0.00     0.001 A 
HETATM   17  C   UNK N   1      32.912  17.689   4.966  0.00  0.00     0.015 A 
ENDBRANCH  10  12
ENDBRANCH   8  10
ENDBRANCH   7   8
ENDBRANCH   5   7
BRANCH   6  18
HETATM   18  C   UNK N   1      35.558  13.304  13.068  0.00  0.00     0.309 C 
BRANCH  18  19
HETATM   19  C   UNK N   1      36.420  12.346  13.900  0.00  0.00     0.182 C 
BRANCH  19  20
HETATM   20  C   UNK N   1      36.029  12.319  15.350  0.00  0.00    -0.028 A 
HETATM   21  C   UNK N   1      35.405  13.426  15.946  0.00  0.00     0.010 A 
HETATM   22  C   UNK N   1      35.010  13.378  17.285  0.00  0.00     0.001 A 
HETATM   23  C   UNK N   1      35.240  12.223  18.038  0.00  0.00     0.000 A 
HETATM   24  C   UNK N   1      35.860  11.117  17.452  0.00  0.00     0.001 A 
HETATM   25  C   UNK N   1      36.248  11.161  16.109  0.00  0.00     0.010 A 
ENDBRANCH  19  20
BRANCH  19  26
HETATM   26  O   UNK N   1      36.376  11.065  13.331  0.00  0.00    -0.380 OA
BRANCH  26  27
HETATM   27  C   UNK N   1      35.134  10.982  12.698  0.00  0.00     0.164 C 
HETATM   28  C   UNK N   1      34.479   9.659  13.040  0.00  0.00     0.033 C 
ENDBRANCH  26  27
ENDBRANCH  19  26
ENDBRANCH  18  19
ENDBRANCH   6  18
TORSDOF 9
ENDMDL
MODEL 5
REMARK VINA RESULT:      -7.0      1.638      9.737
REMARK  9 active torsions:
REMARK  status: ('A' for Active; 'I' for Inactive)
REMARK    1  A    between atoms: O_28  and  C_3 
REMARK    2  A    between atoms: C_20  and  C_18 
REMARK    3  A    between atoms: N_25  and  C_18 
REMARK    4  A    between atoms: C_23  and  C_19 
REMARK    5  A    between atoms: N_26  and  C_19 
REMARK    6  A    between atoms: C_24  and  C_20 
REMARK    7  A    between atoms: C_23  and  C_21 
REMARK    8  A    between atoms: C_24  and  C_22 
REMARK    9  A    between atoms: O_28  and  C_23 
ROOT
HETATM    1  C   UNK N   1      35.550  13.056  10.399  0.00  0.00     0.302 C 
HETATM    2  C   UNK N   1      36.026  15.144  11.250  0.00  0.00     0.302 C 
HETATM    3  C   UNK N   1      34.364  13.555   9.566  0.00  0.00     0.302 C 
HETATM    4  C   UNK N   1      34.856  15.826  10.577  0.00  0.00     0.302 C 
HETATM    5  N   UNK N   1      35.552  13.837  11.614  0.00  0.00     0.092 N 
HETATM    6  N   UNK N   1      34.198  15.029   9.509  0.00  0.00     0.094 N 
ENDROOT
BRANCH   5   7
HETATM    7  C   UNK N   1      36.333  13.279  12.702  0.00  0.00     0.284 C 
BRANCH   7   8
HETATM    8  C   UNK N   1      35.797  13.814  14.044  0.00  0.00     0.085 C 
HETATM    9  C   UNK N   1      36.845  14.561  14.874  0.00  0.00     0.020 C 
BRANCH   8  10
HETATM   10  C   UNK N   1      34.995  12.763  14.790  0.00  0.00     0.165 C 
HETATM   11  O   UNK N   1      34.139  12.159  14.159  0.00  0.00    -0.292 OA
BRANCH  10  12
HETATM   12  C   UNK N   1      35.164  12.438  16.244  0.00  0.00     0.010 A 
HETATM   13  C   UNK N   1      34.946  13.442  17.203  0.00  0.00     0.015 A 
HETATM   14  C   UNK N   1      35.106  13.175  18.566  0.00  0.00     0.001 A 
HETATM   15  C   UNK N   1      35.477  11.898  18.991  0.00  0.00     0.000 A 
HETATM   16  C   UNK N   1      35.688  10.887  18.053  0.00  0.00     0.001 A 
HETATM   17  C   UNK N   1      35.532  11.156  16.691  0.00  0.00     0.015 A 
ENDBRANCH  10  12
ENDBRANCH   8  10
ENDBRANCH   7   8
ENDBRANCH   5   7
BRANCH   6  18
HETATM   18  C   UNK N   1      32.747  15.237   9.606  0.00  0.00     0.309 C 
BRANCH  18  19
HETATM   19  C   UNK N   1      32.252  16.468   8.837  0.00  0.00     0.182 C 
BRANCH  19  20
HETATM   20  C   UNK N   1      32.567  16.406   7.370  0.00  0.00    -0.028 A 
HETATM   21  C   UNK N   1      33.321  17.419   6.755  0.00  0.00     0.010 A 
HETATM   22  C   UNK N   1      33.642  17.333   5.397  0.00  0.00     0.001 A 
HETATM   23  C   UNK N   1      33.209  16.237   4.646  0.00  0.00     0.000 A 
HETATM   24  C   UNK N   1      32.459  15.227   5.252  0.00  0.00     0.001 A 
HETATM   25  C   UNK N   1      32.144  15.306   6.612  0.00  0.00     0.010 A 
ENDBRANCH  19  20
BRANCH  19  26
HETATM   26  O   UNK N   1      30.878  16.638   9.062  0.00  0.00    -0.380 OA
BRANCH  26  27
HETATM   27  C   UNK N   1      30.625  17.989   8.816  0.00  0.00     0.164 C 
HETATM   28  C   UNK N   1      29.542  18.480   9.754  0.00  0.00     0.033 C 
ENDBRANCH  26  27
ENDBRANCH  19  26
ENDBRANCH  18  19
ENDBRANCH   6  18
TORSDOF 9
ENDMDL
MODEL 6
REMARK VINA RESULT:      -6.9      1.665      2.458
REMARK  9 active torsions:
REMARK  status: ('A' for Active; 'I' for Inactive)
REMARK    1  A    between atoms: O_28  and  C_3 
REMARK    2  A    between atoms: C_20  and  C_18 
REMARK    3  A    between atoms: N_25  and  C_18 
REMARK    4  A    between atoms: C_23  and  C_19 
REMARK    5  A    between atoms: N_26  and  C_19 
REMARK    6  A    between atoms: C_24  and  C_20 
REMARK    7  A    between atoms: C_23  and  C_21 
REMARK    8  A    between atoms: C_24  and  C_22 
REMARK    9  A    between atoms: O_28  and  C_23 
ROOT
HETATM    1  C   UNK N   1      35.690  16.156  11.219  0.00  0.00     0.302 C 
HETATM    2  C   UNK N   1      36.348  14.530   9.727  0.00  0.00     0.302 C 
HETATM    3  C   UNK N   1      35.760  15.218  12.430  0.00  0.00     0.302 C 
HETATM    4  C   UNK N   1      36.404  13.425  10.758  0.00  0.00     0.302 C 
HETATM    5  N   UNK N   1      35.235  15.355  10.107  0.00  0.00     0.092 N 
HETATM    6  N   UNK N   1      36.363  13.886  12.170  0.00  0.00     0.094 N 
ENDROOT
BRANCH   5   7
HETATM    7  C   UNK N   1      34.727  16.106   8.975  0.00  0.00     0.284 C 
BRANCH   7   8
HETATM    8  C   UNK N   1      33.188  16.154   9.040  0.00  0.00     0.085 C 
HETATM    9  C   UNK N   1      32.514  14.825   8.688  0.00  0.00     0.020 C 
BRANCH   8  10
HETATM   10  C   UNK N   1      32.631  17.380   8.339  0.00  0.00     0.165 C 
HETATM   11  O   UNK N   1      33.435  18.216   7.951  0.00  0.00    -0.292 OA
BRANCH  10  12
HETATM   12  C   UNK N   1      31.172  17.642   8.117  0.00  0.00     0.010 A 
HETATM   13  C   UNK N   1      30.445  18.350   9.088  0.00  0.00     0.015 A 
HETATM   14  C   UNK N   1      29.080  18.602   8.917  0.00  0.00     0.001 A 
HETATM   15  C   UNK N   1      28.425  18.158   7.767  0.00  0.00     0.000 A 
HETATM   16  C   UNK N   1      29.135  17.464   6.786  0.00  0.00     0.001 A 
HETATM   17  C   UNK N   1      30.497  17.208   6.961  0.00  0.00     0.015 A 
ENDBRANCH  10  12
ENDBRANCH   8  10
ENDBRANCH   7   8
ENDBRANCH   5   7
BRANCH   6  18
HETATM   18  C   UNK N   1      35.526  12.952  12.935  0.00  0.00     0.309 C 
BRANCH  18  19
HETATM   19  C   UNK N   1      36.332  11.992  13.820  0.00  0.00     0.182 C 
BRANCH  19  20
HETATM   20  C   UNK N   1      35.978  12.103  15.275  0.00  0.00    -0.028 A 
HETATM   21  C   UNK N   1      35.565  13.329  15.822  0.00  0.00     0.010 A 
HETATM   22  C   UNK N   1      35.201  13.414  17.168  0.00  0.00     0.001 A 
HETATM   23  C   UNK N   1      35.251  12.276  17.977  0.00  0.00     0.000 A 
HETATM   24  C   UNK N   1      35.661  11.053  17.440  0.00  0.00     0.001 A 
HETATM   25  C   UNK N   1      36.017  10.964  16.091  0.00  0.00     0.010 A 
ENDBRANCH  19  20
BRANCH  19  26
HETATM   26  O   UNK N   1      36.174  10.680  13.350  0.00  0.00    -0.380 OA
BRANCH  26  27
HETATM   27  C   UNK N   1      34.932  10.661  12.710  0.00  0.00     0.164 C 
HETATM   28  C   UNK N   1      34.599   9.244  12.292  0.00  0.00     0.033 C 
ENDBRANCH  26  27
ENDBRANCH  19  26
ENDBRANCH  18  19
ENDBRANCH   6  18
TORSDOF 9
ENDMDL
MODEL 7
REMARK VINA RESULT:      -6.9      1.972      3.240
REMARK  9 active torsions:
REMARK  status: ('A' for Active; 'I' for Inactive)
REMARK    1  A    between atoms: O_28  and  C_3 
REMARK    2  A    between atoms: C_20  and  C_18 
REMARK    3  A    between atoms: N_25  and  C_18 
REMARK    4  A    between atoms: C_23  and  C_19 
REMARK    5  A    between atoms: N_26  and  C_19 
REMARK    6  A    between atoms: C_24  and  C_20 
REMARK    7  A    between atoms: C_23  and  C_21 
REMARK    8  A    between atoms: C_24  and  C_22 
REMARK    9  A    between atoms: O_28  and  C_23 
ROOT
HETATM    1  C   UNK N   1      37.035  12.920  10.892  0.00  0.00     0.302 C 
HETATM    2  C   UNK N   1      35.036  13.862  11.541  0.00  0.00     0.302 C 
HETATM    3  C   UNK N   1      37.311  12.308  12.270  0.00  0.00     0.302 C 
HETATM    4  C   UNK N   1      35.149  13.421  12.983  0.00  0.00     0.302 C 
HETATM    5  N   UNK N   1      36.375  14.182  11.130  0.00  0.00     0.092 N 
HETATM    6  N   UNK N   1      36.193  12.396  13.242  0.00  0.00     0.094 N 
ENDROOT
BRANCH   5   7
HETATM    7  C   UNK N   1      36.374  15.098  10.006  0.00  0.00     0.284 C 
BRANCH   7   8
HETATM    8  C   UNK N   1      35.013  15.027   9.287  0.00  0.00     0.085 C 
HETATM    9  C   UNK N   1      34.987  14.047   8.110  0.00  0.00     0.020 C 
BRANCH   8  10
HETATM   10  C   UNK N   1      34.451  16.408   9.005  0.00  0.00     0.165 C 
HETATM   11  O   UNK N   1      34.712  17.294   9.807  0.00  0.00    -0.292 OA
BRANCH  10  12
HETATM   12  C   UNK N   1      33.582  16.750   7.831  0.00  0.00     0.010 A 
HETATM   13  C   UNK N   1      32.191  16.590   7.936  0.00  0.00     0.015 A 
HETATM   14  C   UNK N   1      31.353  16.888   6.856  0.00  0.00     0.001 A 
HETATM   15  C   UNK N   1      31.895  17.359   5.659  0.00  0.00     0.000 A 
HETATM   16  C   UNK N   1      33.275  17.534   5.541  0.00  0.00     0.001 A 
HETATM   17  C   UNK N   1      34.111  17.231   6.619  0.00  0.00     0.015 A 
ENDBRANCH  10  12
ENDBRANCH   8  10
ENDBRANCH   7   8
ENDBRANCH   5   7
BRANCH   6  18
HETATM   18  C   UNK N   1      36.845  12.716  14.520  0.00  0.00     0.309 C 
BRANCH  18  19
HETATM   19  C   UNK N   1      35.859  12.922  15.677  0.00  0.00     0.182 C 
BRANCH  19  20
HETATM   20  C   UNK N   1      35.897  11.807  16.682  0.00  0.00    -0.028 A 
HETATM   21  C   UNK N   1      35.233  11.927  17.913  0.00  0.00     0.010 A 
HETATM   22  C   UNK N   1      35.242  10.870  18.827  0.00  0.00     0.001 A 
HETATM   23  C   UNK N   1      35.918   9.687  18.516  0.00  0.00     0.000 A 
HETATM   24  C   UNK N   1      36.581   9.560  17.293  0.00  0.00     0.001 A 
HETATM   25  C   UNK N   1      36.566  10.614  16.374  0.00  0.00     0.010 A 
ENDBRANCH  19  20
BRANCH  19  26
HETATM   26  O   UNK N   1      36.099  14.166  16.278  0.00  0.00    -0.380 OA
BRANCH  26  27
HETATM   27  C   UNK N   1      37.189  14.706  15.593  0.00  0.00     0.164 C 
HETATM   28  C   UNK N   1      37.498  16.085  16.139  0.00  0.00     0.033 C 
ENDBRANCH  26  27
ENDBRANCH  19  26
ENDBRANCH  18  19
ENDBRANCH   6  18
TORSDOF 9
ENDMDL
MODEL 8
REMARK VINA RESULT:      -6.8     16.940     20.647
REMARK  9 active torsions:
REMARK  status: ('A' for Active; 'I' for Inactive)
REMARK    1  A    between atoms: O_28  and  C_3 
REMARK    2  A    between atoms: C_20  and  C_18 
REMARK    3  A    between atoms: N_25  and  C_18 
REMARK    4  A    between atoms: C_23  and  C_19 
REMARK    5  A    between atoms: N_26  and  C_19 
REMARK    6  A    between atoms: C_24  and  C_20 
REMARK    7  A    between atoms: C_23  and  C_21 
REMARK    8  A    between atoms: C_24  and  C_22 
REMARK    9  A    between atoms: O_28  and  C_23 
ROOT
HETATM    1  C   UNK N   1      30.489  24.653  -3.364  0.00  0.00     0.302 C 
HETATM    2  C   UNK N   1      29.165  23.128  -2.256  0.00  0.00     0.302 C 
HETATM    3  C   UNK N   1      29.304  25.324  -4.068  0.00  0.00     0.302 C 
HETATM    4  C   UNK N   1      27.876  23.585  -2.902  0.00  0.00     0.302 C 
HETATM    5  N   UNK N   1      30.170  23.248  -3.276  0.00  0.00     0.092 N 
HETATM    6  N   UNK N   1      27.961  24.888  -3.611  0.00  0.00     0.094 N 
ENDROOT
BRANCH   5   7
HETATM    7  C   UNK N   1      31.298  22.376  -3.007  0.00  0.00     0.284 C 
BRANCH   7   8
HETATM    8  C   UNK N   1      31.307  21.220  -4.025  0.00  0.00     0.085 C 
HETATM    9  C   UNK N   1      32.448  20.220  -3.815  0.00  0.00     0.020 C 
BRANCH   8  10
HETATM   10  C   UNK N   1      31.123  21.718  -5.447  0.00  0.00     0.165 C 
HETATM   11  O   UNK N   1      31.900  22.576  -5.845  0.00  0.00    -0.292 OA
BRANCH  10  12
HETATM   12  C   UNK N   1      30.045  21.252  -6.379  0.00  0.00     0.010 A 
HETATM   13  C   UNK N   1      28.950  22.093  -6.640  0.00  0.00     0.015 A 
HETATM   14  C   UNK N   1      27.922  21.684  -7.495  0.00  0.00     0.001 A 
HETATM   15  C   UNK N   1      27.979  20.432  -8.110  0.00  0.00     0.000 A 
HETATM   16  C   UNK N   1      29.065  19.589  -7.870  0.00  0.00     0.001 A 
HETATM   17  C   UNK N   1      30.089  19.996  -7.012  0.00  0.00     0.015 A 
ENDBRANCH  10  12
ENDBRANCH   8  10
ENDBRANCH   7   8
ENDBRANCH   5   7
BRANCH   6  18
HETATM   18  C   UNK N   1      27.169  24.794  -4.845  0.00  0.00     0.309 C 
BRANCH  18  19
HETATM   19  C   UNK N   1      25.970  25.751  -4.878  0.00  0.00     0.182 C 
BRANCH  19  20
HETATM   20  C   UNK N   1      26.375  27.196  -4.817  0.00  0.00    -0.028 A 
HETATM   21  C   UNK N   1      27.127  27.774  -5.853  0.00  0.00     0.010 A 
HETATM   22  C   UNK N   1      27.466  29.129  -5.806  0.00  0.00     0.001 A 
HETATM   23  C   UNK N   1      27.061  29.913  -4.723  0.00  0.00     0.000 A 
HETATM   24  C   UNK N   1      26.313  29.343  -3.689  0.00  0.00     0.001 A 
HETATM   25  C   UNK N   1      25.965  27.990  -3.738  0.00  0.00     0.010 A 
ENDBRANCH  19  20
BRANCH  19  26
HETATM   26  O   UNK N   1      25.189  25.482  -6.012  0.00  0.00    -0.380 OA
BRANCH  26  27
HETATM   27  C   UNK N   1      25.895  24.512  -6.727  0.00  0.00     0.164 C 
HETATM   28  C   UNK N   1      25.864  24.850  -8.204  0.00  0.00     0.033 C 
ENDBRANCH  26  27
ENDBRANCH  19  26
ENDBRANCH  18  19
ENDBRANCH   6  18
TORSDOF 9
ENDMDL
MODEL 9
REMARK VINA RESULT:      -6.7      1.944      9.331
REMARK  9 active torsions:
REMARK  status: ('A' for Active; 'I' for Inactive)
REMARK    1  A    between atoms: O_28  and  C_3 
REMARK    2  A    between atoms: C_20  and  C_18 
REMARK    3  A    between atoms: N_25  and  C_18 
REMARK    4  A    between atoms: C_23  and  C_19 
REMARK    5  A    between atoms: N_26  and  C_19 
REMARK    6  A    between atoms: C_24  and  C_20 
REMARK    7  A    between atoms: C_23  and  C_21 
REMARK    8  A    between atoms: C_24  and  C_22 
REMARK    9  A    between atoms: O_28  and  C_23 
ROOT
HETATM    1  C   UNK N   1      33.957  13.543   8.919  0.00  0.00     0.302 C 
HETATM    2  C   UNK N   1      35.780  14.304   7.735  0.00  0.00     0.302 C 
HETATM    3  C   UNK N   1      32.977  14.490   8.216  0.00  0.00     0.302 C 
HETATM    4  C   UNK N   1      35.010  15.368   6.984  0.00  0.00     0.302 C 
HETATM    5  N   UNK N   1      35.200  14.265   9.049  0.00  0.00     0.092 N 
HETATM    6  N   UNK N   1      33.532  15.240   7.062  0.00  0.00     0.094 N 
ENDROOT
BRANCH   5   7
HETATM    7  C   UNK N   1      36.131  13.718  10.017  0.00  0.00     0.284 C 
BRANCH   7   8
HETATM    8  C   UNK N   1      35.721  14.168  11.433  0.00  0.00     0.085 C 
HETATM    9  C   UNK N   1      35.696  15.688  11.615  0.00  0.00     0.020 C 
BRANCH   8  10
HETATM   10  C   UNK N   1      36.459  13.389  12.508  0.00  0.00     0.165 C 
HETATM   11  O   UNK N   1      37.454  12.766  12.165  0.00  0.00    -0.292 OA
BRANCH  10  12
HETATM   12  C   UNK N   1      36.036  13.314  13.945  0.00  0.00     0.010 A 
HETATM   13  C   UNK N   1      34.938  12.512  14.298  0.00  0.00     0.015 A 
HETATM   14  C   UNK N   1      34.511  12.429  15.627  0.00  0.00     0.001 A 
HETATM   15  C   UNK N   1      35.182  13.140  16.624  0.00  0.00     0.000 A 
HETATM   16  C   UNK N   1      36.281  13.933  16.292  0.00  0.00     0.001 A 
HETATM   17  C   UNK N   1      36.704  14.019  14.963  0.00  0.00     0.015 A 
ENDBRANCH  10  12
ENDBRANCH   8  10
ENDBRANCH   7   8
ENDBRANCH   5   7
BRANCH   6  18
HETATM   18  C   UNK N   1      32.959  16.587   7.192  0.00  0.00     0.309 C 
BRANCH  18  19
HETATM   19  C   UNK N   1      31.594  16.741   6.510  0.00  0.00     0.182 C 
BRANCH  19  20
HETATM   20  C   UNK N   1      30.545  17.305   7.424  0.00  0.00    -0.028 A 
HETATM   21  C   UNK N   1      30.906  17.949   8.619  0.00  0.00     0.010 A 
HETATM   22  C   UNK N   1      29.925  18.505   9.444  0.00  0.00     0.001 A 
HETATM   23  C   UNK N   1      28.578  18.418   9.083  0.00  0.00     0.000 A 
HETATM   24  C   UNK N   1      28.212  17.779   7.896  0.00  0.00     0.001 A 
HETATM   25  C   UNK N   1      29.193  17.229   7.064  0.00  0.00     0.010 A 
ENDBRANCH  19  20
BRANCH  19  26
HETATM   26  O   UNK N   1      31.737  17.515   5.349  0.00  0.00    -0.380 OA
BRANCH  26  27
HETATM   27  C   UNK N   1      31.650  16.612   4.287  0.00  0.00     0.164 C 
HETATM   28  C   UNK N   1      32.815  16.827   3.343  0.00  0.00     0.033 C 
ENDBRANCH  26  27
ENDBRANCH  19  26
ENDBRANCH  18  19
ENDBRANCH   6  18
TORSDOF 9
ENDMDL
