MODEL 1
REMARK VINA RESULT:      -7.0      0.000      0.000
REMARK  6 active torsions:
REMARK  status: ('A' for Active; 'I' for Inactive)
REMARK    1  A    between atoms: C_22  and  C_16 
REMARK    2  A    between atoms: C_23  and  C_17 
REMARK    3  A    between atoms: C_24  and  C_18 
REMARK    4  A    between atoms: C_25  and  C_19 
REMARK    5  A    between atoms: C_26  and  C_20 
REMARK    6  A    between atoms: C_27  and  C_21 
ROOT
HETATM    1  C   UNK N   1      30.905  12.256   3.528  0.00  0.00     0.153 C 
HETATM    2  C   UNK N   1      23.314  12.858   3.653  0.00  0.00     0.153 C 
HETATM    3  C   UNK N   1      24.804  19.156   4.093  0.00  0.00     0.153 C 
HETATM    4  C   UNK N   1      28.554  12.716   2.716  0.00  0.00     0.190 C 
HETATM    5  C   UNK N   1      26.379  17.257   4.690  0.00  0.00     0.190 C 
HETATM    6  C   UNK N   1      22.607  14.917   2.367  0.00  0.00     0.190 C 
HETATM    7  C   UNK N   1      28.899  15.498   4.337  0.00  0.00     0.227 C 
HETATM    8  C   UNK N   1      25.563  12.415   1.833  0.00  0.00     0.227 C 
HETATM    9  C   UNK N   1      22.490  17.338   4.233  0.00  0.00     0.227 C 
HETATM   10  C   UNK N   1      29.882  14.309   4.242  0.00  0.00     0.250 C 
HETATM   11  C   UNK N   1      24.582  13.571   1.693  0.00  0.00     0.250 C 
HETATM   12  C   UNK N   1      23.930  16.939   4.621  0.00  0.00     0.250 C 
HETATM   13  C   UNK N   1      27.306  12.603   3.605  0.00  0.00     0.283 C 
HETATM   14  C   UNK N   1      26.715  16.285   3.528  0.00  0.00     0.283 C 
HETATM   15  C   UNK N   1      21.660  15.108   3.562  0.00  0.00     0.283 C 
HETATM   16  N   UNK N   1      29.746  13.139   3.506  0.00  0.00    -0.340 N 
HETATM   17  N   UNK N   1      23.504  13.752   2.529  0.00  0.00    -0.340 N 
HETATM   18  N   UNK N   1      25.006  17.787   4.504  0.00  0.00    -0.340 N 
HETATM   19  O   UNK N   1      30.900  14.435   4.913  0.00  0.00    -0.270 OA
HETATM   20  O   UNK N   1      24.821  14.397   0.824  0.00  0.00    -0.270 OA
HETATM   21  O   UNK N   1      24.121  15.790   5.000  0.00  0.00    -0.270 OA
HETATM   22  O   UNK N   1      27.441  12.721   4.813  0.00  0.00    -0.263 OA
HETATM   23  O   UNK N   1      25.941  16.231   2.587  0.00  0.00    -0.263 OA
HETATM   24  O   UNK N   1      20.853  14.230   3.824  0.00  0.00    -0.263 OA
HETATM   25  O   UNK N   1      26.045  12.365   3.133  0.00  0.00    -0.304 OA
HETATM   26  O   UNK N   1      27.798  15.436   3.506  0.00  0.00    -0.304 OA
HETATM   27  O   UNK N   1      21.651  16.237   4.330  0.00  0.00    -0.304 OA
ENDROOT
BRANCH   4  28
HETATM   28  C   UNK N   1      28.843  11.315   2.049  0.00  0.00     0.010 C 
HETATM   29  C   UNK N   1      28.565  11.123   0.575  0.00  0.00     0.012 C 
HETATM   30  C   UNK N   1      28.252  10.137   2.822  0.00  0.00     0.012 C 
ENDBRANCH   4  28
BRANCH   8  31
HETATM   31  C   UNK N   1      24.994  11.039   1.394  0.00  0.00     0.016 C 
HETATM   32  C   UNK N   1      24.511  10.121   2.501  0.00  0.00     0.012 C 
HETATM   33  C   UNK N   1      23.915  11.171   0.329  0.00  0.00     0.012 C 
ENDBRANCH   8  31
BRANCH   7  34
HETATM   34  C   UNK N   1      29.659  16.812   4.032  0.00  0.00     0.016 C 
HETATM   35  C   UNK N   1      30.366  16.811   2.688  0.00  0.00     0.012 C 
HETATM   36  C   UNK N   1      30.595  17.271   5.142  0.00  0.00     0.012 C 
ENDBRANCH   7  34
BRANCH   6  37
HETATM   37  C   UNK N   1      21.731  14.838   1.089  0.00  0.00     0.010 C 
HETATM   38  C   UNK N   1      21.084  13.493   0.813  0.00  0.00     0.012 C 
HETATM   39  C   UNK N   1      20.686  15.939   1.003  0.00  0.00     0.012 C 
ENDBRANCH   6  37
BRANCH   5  40
HETATM   40  C   UNK N   1      27.443  18.373   4.872  0.00  0.00     0.010 C 
HETATM   41  C   UNK N   1      27.435  18.971   6.272  0.00  0.00     0.012 C 
HETATM   42  C   UNK N   1      27.413  19.476   3.820  0.00  0.00     0.012 C 
ENDBRANCH   5  40
BRANCH   9  43
HETATM   43  C   UNK N   1      21.825  18.447   5.075  0.00  0.00     0.016 C 
HETATM   44  C   UNK N   1      21.128  18.019   6.353  0.00  0.00     0.012 C 
HETATM   45  C   UNK N   1      21.002  19.437   4.275  0.00  0.00     0.012 C 
ENDBRANCH   9  43
TORSDOF 6
ENDMDL
MODEL 2
REMARK VINA RESULT:      -7.0      5.863     11.594
REMARK  6 active torsions:
REMARK  status: ('A' for Active; 'I' for Inactive)
REMARK    1  A    between atoms: C_22  and  C_16 
REMARK    2  A    between atoms: C_23  and  C_17 
REMARK    3  A    between atoms: C_24  and  C_18 
REMARK    4  A    between atoms: C_25  and  C_19 
REMARK    5  A    between atoms: C_26  and  C_20 
REMARK    6  A    between atoms: C_27  and  C_21 
ROOT
HETATM    1  C   UNK N   1      29.924  15.206   2.544  0.00  0.00     0.153 C 
HETATM    2  C   UNK N   1      32.881  15.096   9.561  0.00  0.00     0.153 C 
HETATM    3  C   UNK N   1      35.050   9.342   7.493  0.00  0.00     0.153 C 
HETATM    4  C   UNK N   1      31.648  15.361   4.388  0.00  0.00     0.190 C 
HETATM    5  C   UNK N   1      33.079  10.586   6.487  0.00  0.00     0.190 C 
HETATM    6  C   UNK N   1      35.161  14.003   9.502  0.00  0.00     0.190 C 
HETATM    7  C   UNK N   1      31.587  12.126   4.257  0.00  0.00     0.227 C 
HETATM    8  C   UNK N   1      33.293  16.248   6.902  0.00  0.00     0.227 C 
HETATM    9  C   UNK N   1      34.898  10.987   9.933  0.00  0.00     0.227 C 
HETATM   10  C   UNK N   1      30.727  13.139   3.468  0.00  0.00     0.250 C 
HETATM   11  C   UNK N   1      34.323  15.380   7.613  0.00  0.00     0.250 C 
HETATM   12  C   UNK N   1      33.871  11.048   8.781  0.00  0.00     0.250 C 
HETATM   13  C   UNK N   1      31.342  15.091   5.869  0.00  0.00     0.283 C 
HETATM   14  C   UNK N   1      33.407  11.986   5.903  0.00  0.00     0.283 C 
HETATM   15  C   UNK N   1      34.649  13.300  10.768  0.00  0.00     0.283 C 
HETATM   16  N   UNK N   1      30.793  14.526   3.496  0.00  0.00    -0.340 N 
HETATM   17  N   UNK N   1      34.139  14.873   8.879  0.00  0.00    -0.340 N 
HETATM   18  N   UNK N   1      33.984  10.307   7.628  0.00  0.00    -0.340 N 
HETATM   19  O   UNK N   1      29.884  12.631   2.737  0.00  0.00    -0.270 OA
HETATM   20  O   UNK N   1      35.327  15.086   6.981  0.00  0.00    -0.270 OA
HETATM   21  O   UNK N   1      32.942  11.839   8.886  0.00  0.00    -0.270 OA
HETATM   22  O   UNK N   1      30.390  14.377   6.144  0.00  0.00    -0.263 OA
HETATM   23  O   UNK N   1      34.410  12.551   6.305  0.00  0.00    -0.263 OA
HETATM   24  O   UNK N   1      34.307  13.978  11.725  0.00  0.00    -0.263 OA
HETATM   25  O   UNK N   1      32.060  15.612   6.909  0.00  0.00    -0.304 OA
HETATM   26  O   UNK N   1      32.618  12.663   5.002  0.00  0.00    -0.304 OA
HETATM   27  O   UNK N   1      34.591  11.942  10.892  0.00  0.00    -0.304 OA
ENDROOT
BRANCH   4  28
HETATM   28  C   UNK N   1      31.393  16.886   4.075  0.00  0.00     0.010 C 
HETATM   29  C   UNK N   1      32.572  17.818   3.907  0.00  0.00     0.012 C 
HETATM   30  C   UNK N   1      30.375  17.539   5.010  0.00  0.00     0.012 C 
ENDBRANCH   4  28
BRANCH   8  31
HETATM   31  C   UNK N   1      33.180  17.691   7.463  0.00  0.00     0.016 C 
HETATM   32  C   UNK N   1      32.006  17.972   8.381  0.00  0.00     0.012 C 
HETATM   33  C   UNK N   1      34.470  18.161   8.119  0.00  0.00     0.012 C 
ENDBRANCH   8  31
BRANCH   7  34
HETATM   34  C   UNK N   1      32.191  11.095   3.271  0.00  0.00     0.016 C 
HETATM   35  C   UNK N   1      33.054  11.720   2.187  0.00  0.00     0.012 C 
HETATM   36  C   UNK N   1      31.180  10.126   2.675  0.00  0.00     0.012 C 
ENDBRANCH   7  34
BRANCH   6  37
HETATM   37  C   UNK N   1      36.457  14.765   9.886  0.00  0.00     0.010 C 
HETATM   38  C   UNK N   1      36.271  15.979  10.777  0.00  0.00     0.012 C 
HETATM   39  C   UNK N   1      37.539  13.866  10.460  0.00  0.00     0.012 C 
ENDBRANCH   6  37
BRANCH   5  40
HETATM   40  C   UNK N   1      33.089   9.465   5.413  0.00  0.00     0.010 C 
HETATM   41  C   UNK N   1      32.386   8.198   5.879  0.00  0.00     0.012 C 
HETATM   42  C   UNK N   1      34.460   9.134   4.834  0.00  0.00     0.012 C 
ENDBRANCH   5  40
BRANCH   9  43
HETATM   43  C   UNK N   1      35.010   9.649  10.693  0.00  0.00     0.016 C 
HETATM   44  C   UNK N   1      33.713   8.936  11.030  0.00  0.00     0.012 C 
HETATM   45  C   UNK N   1      35.975   9.667  11.862  0.00  0.00     0.012 C 
ENDBRANCH   9  43
TORSDOF 6
ENDMDL
MODEL 3
REMARK VINA RESULT:      -6.6      1.641      6.397
REMARK  6 active torsions:
REMARK  status: ('A' for Active; 'I' for Inactive)
REMARK    1  A    between atoms: C_22  and  C_16 
REMARK    2  A    between atoms: C_23  and  C_17 
REMARK    3  A    between atoms: C_24  and  C_18 
REMARK    4  A    between atoms: C_25  and  C_19 
REMARK    5  A    between atoms: C_26  and  C_20 
REMARK    6  A    between atoms: C_27  and  C_21 
ROOT
HETATM    1  C   UNK N   1      21.962  10.352   0.809  0.00  0.00     0.153 C 
HETATM    2  C   UNK N   1      28.129  14.623   2.126  0.00  0.00     0.153 C 
HETATM    3  C   UNK N   1      23.744  18.246   5.245  0.00  0.00     0.153 C 
HETATM    4  C   UNK N   1      23.912  11.372   2.057  0.00  0.00     0.190 C 
HETATM    5  C   UNK N   1      23.190  16.551   3.438  0.00  0.00     0.190 C 
HETATM    6  C   UNK N   1      28.002  15.597   4.456  0.00  0.00     0.190 C 
HETATM    7  C   UNK N   1      21.956  13.937   2.338  0.00  0.00     0.227 C 
HETATM    8  C   UNK N   1      26.788  12.175   3.006  0.00  0.00     0.227 C 
HETATM    9  C   UNK N   1      26.564  18.296   4.395  0.00  0.00     0.227 C 
HETATM   10  C   UNK N   1      21.706  12.612   1.582  0.00  0.00     0.250 C 
HETATM   11  C   UNK N   1      27.098  13.344   3.931  0.00  0.00     0.250 C 
HETATM   12  C   UNK N   1      25.448  17.531   3.650  0.00  0.00     0.250 C 
HETATM   13  C   UNK N   1      24.853  12.428   1.455  0.00  0.00     0.283 C 
HETATM   14  C   UNK N   1      23.605  15.088   3.751  0.00  0.00     0.283 C 
HETATM   15  C   UNK N   1      28.479  16.873   3.745  0.00  0.00     0.283 C 
HETATM   16  N   UNK N   1      22.533  11.498   1.506  0.00  0.00    -0.340 N 
HETATM   17  N   UNK N   1      27.764  14.477   3.520  0.00  0.00    -0.340 N 
HETATM   18  N   UNK N   1      24.146  17.481   4.088  0.00  0.00    -0.340 N 
HETATM   19  O   UNK N   1      20.641  12.564   0.975  0.00  0.00    -0.270 OA
HETATM   20  O   UNK N   1      26.672  13.272   5.074  0.00  0.00    -0.270 OA
HETATM   21  O   UNK N   1      25.760  16.899   2.649  0.00  0.00    -0.270 OA
HETATM   22  O   UNK N   1      24.438  13.120   0.540  0.00  0.00    -0.263 OA
HETATM   23  O   UNK N   1      24.480  14.909   4.580  0.00  0.00    -0.263 OA
HETATM   24  O   UNK N   1      29.537  16.852   3.135  0.00  0.00    -0.263 OA
HETATM   25  O   UNK N   1      26.139  12.636   1.870  0.00  0.00    -0.304 OA
HETATM   26  O   UNK N   1      23.092  13.978   3.120  0.00  0.00    -0.304 OA
HETATM   27  O   UNK N   1      27.790  18.051   3.792  0.00  0.00    -0.304 OA
ENDROOT
BRANCH   4  28
HETATM   28  C   UNK N   1      24.473   9.933   1.731  0.00  0.00     0.010 C 
HETATM   29  C   UNK N   1      25.112   9.118   2.833  0.00  0.00     0.012 C 
HETATM   30  C   UNK N   1      25.375   9.894   0.498  0.00  0.00     0.012 C 
ENDBRANCH   4  28
BRANCH   8  31
HETATM   31  C   UNK N   1      28.023  11.312   2.633  0.00  0.00     0.016 C 
HETATM   32  C   UNK N   1      28.608  11.528   1.249  0.00  0.00     0.012 C 
HETATM   33  C   UNK N   1      29.127  11.398   3.677  0.00  0.00     0.012 C 
ENDBRANCH   8  31
BRANCH   7  34
HETATM   34  C   UNK N   1      20.736  14.242   3.243  0.00  0.00     0.016 C 
HETATM   35  C   UNK N   1      20.471  13.175   4.291  0.00  0.00     0.012 C 
HETATM   36  C   UNK N   1      19.463  14.596   2.487  0.00  0.00     0.012 C 
ENDBRANCH   7  34
BRANCH   6  37
HETATM   37  C   UNK N   1      29.046  15.261   5.554  0.00  0.00     0.010 C 
HETATM   38  C   UNK N   1      30.316  14.584   5.074  0.00  0.00     0.012 C 
HETATM   39  C   UNK N   1      29.396  16.447   6.437  0.00  0.00     0.012 C 
ENDBRANCH   6  37
BRANCH   5  40
HETATM   40  C   UNK N   1      21.710  16.851   3.794  0.00  0.00     0.010 C 
HETATM   41  C   UNK N   1      21.179  18.100   3.105  0.00  0.00     0.012 C 
HETATM   42  C   UNK N   1      21.398  16.890   5.286  0.00  0.00     0.012 C 
ENDBRANCH   5  40
BRANCH   9  43
HETATM   43  C   UNK N   1      26.429  19.831   4.464  0.00  0.00     0.016 C 
HETATM   44  C   UNK N   1      26.177  20.560   3.157  0.00  0.00     0.012 C 
HETATM   45  C   UNK N   1      27.481  20.519   5.312  0.00  0.00     0.012 C 
ENDBRANCH   9  43
TORSDOF 6
ENDMDL
MODEL 4
REMARK VINA RESULT:      -6.3      2.301      6.810
REMARK  6 active torsions:
REMARK  status: ('A' for Active; 'I' for Inactive)
REMARK    1  A    between atoms: C_22  and  C_16 
REMARK    2  A    between atoms: C_23  and  C_17 
REMARK    3  A    between atoms: C_24  and  C_18 
REMARK    4  A    between atoms: C_25  and  C_19 
REMARK    5  A    between atoms: C_26  and  C_20 
REMARK    6  A    between atoms: C_27  and  C_21 
ROOT
HETATM    1  C   UNK N   1      25.773  10.658   0.890  0.00  0.00     0.153 C 
HETATM    2  C   UNK N   1      26.577  15.844   6.410  0.00  0.00     0.153 C 
HETATM    3  C   UNK N   1      32.773  15.449   4.526  0.00  0.00     0.153 C 
HETATM    4  C   UNK N   1      26.095  12.913   1.990  0.00  0.00     0.190 C 
HETATM    5  C   UNK N   1      31.019  13.663   4.098  0.00  0.00     0.190 C 
HETATM    6  C   UNK N   1      28.309  17.552   5.720  0.00  0.00     0.190 C 
HETATM    7  C   UNK N   1      29.163  11.933   2.330  0.00  0.00     0.227 C 
HETATM    8  C   UNK N   1      25.678  15.543   3.641  0.00  0.00     0.227 C 
HETATM    9  C   UNK N   1      31.092  16.658   6.621  0.00  0.00     0.227 C 
HETATM   10  C   UNK N   1      27.960  11.153   1.754  0.00  0.00     0.250 C 
HETATM   11  C   UNK N   1      26.797  16.485   4.065  0.00  0.00     0.250 C 
HETATM   12  C   UNK N   1      30.755  15.337   5.895  0.00  0.00     0.250 C 
HETATM   13  C   UNK N   1      26.219  13.114   3.508  0.00  0.00     0.283 C 
HETATM   14  C   UNK N   1      29.801  14.120   3.253  0.00  0.00     0.283 C 
HETATM   15  C   UNK N   1      28.790  17.373   7.168  0.00  0.00     0.283 C 
HETATM   16  N   UNK N   1      26.657  11.598   1.569  0.00  0.00    -0.340 N 
HETATM   17  N   UNK N   1      27.189  16.650   5.374  0.00  0.00    -0.340 N 
HETATM   18  N   UNK N   1      31.527  14.813   4.886  0.00  0.00    -0.340 N 
HETATM   19  O   UNK N   1      28.208   9.995   1.433  0.00  0.00    -0.270 OA
HETATM   20  O   UNK N   1      27.397  17.066   3.173  0.00  0.00    -0.270 OA
HETATM   21  O   UNK N   1      29.717  14.765   6.205  0.00  0.00    -0.270 OA
HETATM   22  O   UNK N   1      26.604  12.175   4.187  0.00  0.00    -0.263 OA
HETATM   23  O   UNK N   1      29.555  15.313   3.205  0.00  0.00    -0.263 OA
HETATM   24  O   UNK N   1      28.014  17.606   8.083  0.00  0.00    -0.263 OA
HETATM   25  O   UNK N   1      25.911  14.277   4.157  0.00  0.00    -0.304 OA
HETATM   26  O   UNK N   1      28.942  13.269   2.594  0.00  0.00    -0.304 OA
HETATM   27  O   UNK N   1      30.062  16.998   7.488  0.00  0.00    -0.304 OA
ENDROOT
BRANCH   4  28
HETATM   28  C   UNK N   1      24.573  12.985   1.579  0.00  0.00     0.010 C 
HETATM   29  C   UNK N   1      24.066  14.186   0.815  0.00  0.00     0.012 C 
HETATM   30  C   UNK N   1      23.616  12.692   2.734  0.00  0.00     0.012 C 
ENDBRANCH   4  28
BRANCH   8  31
HETATM   31  C   UNK N   1      24.253  16.041   4.004  0.00  0.00     0.016 C 
HETATM   32  C   UNK N   1      23.639  15.475   5.271  0.00  0.00     0.012 C 
HETATM   33  C   UNK N   1      24.156  17.559   4.019  0.00  0.00     0.012 C 
ENDBRANCH   8  31
BRANCH   7  34
HETATM   34  C   UNK N   1      30.355  11.827   1.346  0.00  0.00     0.016 C 
HETATM   35  C   UNK N   1      30.031  12.305  -0.059  0.00  0.00     0.012 C 
HETATM   36  C   UNK N   1      31.029  10.463   1.318  0.00  0.00     0.012 C 
ENDBRANCH   7  34
BRANCH   6  37
HETATM   37  C   UNK N   1      27.965  19.053   5.529  0.00  0.00     0.010 C 
HETATM   38  C   UNK N   1      28.472  19.690   4.248  0.00  0.00     0.012 C 
HETATM   39  C   UNK N   1      26.488  19.362   5.708  0.00  0.00     0.012 C 
ENDBRANCH   6  37
BRANCH   5  40
HETATM   40  C   UNK N   1      32.120  12.972   3.249  0.00  0.00     0.010 C 
HETATM   41  C   UNK N   1      32.986  12.025   4.068  0.00  0.00     0.012 C 
HETATM   42  C   UNK N   1      32.990  13.914   2.426  0.00  0.00     0.012 C 
ENDBRANCH   5  40
BRANCH   9  43
HETATM   43  C   UNK N   1      32.379  16.675   7.472  0.00  0.00     0.016 C 
HETATM   44  C   UNK N   1      32.661  15.450   8.322  0.00  0.00     0.012 C 
HETATM   45  C   UNK N   1      32.618  17.966   8.229  0.00  0.00     0.012 C 
ENDBRANCH   9  43
TORSDOF 6
ENDMDL
MODEL 5
REMARK VINA RESULT:      -6.3      4.608      8.663
REMARK  6 active torsions:
REMARK  status: ('A' for Active; 'I' for Inactive)
REMARK    1  A    between atoms: C_22  and  C_16 
REMARK    2  A    between atoms: C_23  and  C_17 
REMARK    3  A    between atoms: C_24  and  C_18 
REMARK    4  A    between atoms: C_25  and  C_19 
REMARK    5  A    between atoms: C_26  and  C_20 
REMARK    6  A    between atoms: C_27  and  C_21 
ROOT
HETATM    1  C   UNK N   1      34.346  10.974   0.526  0.00  0.00     0.153 C 
HETATM    2  C   UNK N   1      33.992  16.125   6.124  0.00  0.00     0.153 C 
HETATM    3  C   UNK N   1      27.635  15.118   5.316  0.00  0.00     0.153 C 
HETATM    4  C   UNK N   1      34.052  11.925   2.851  0.00  0.00     0.190 C 
HETATM    5  C   UNK N   1      29.409  14.604   3.574  0.00  0.00     0.190 C 
HETATM    6  C   UNK N   1      32.100  15.539   7.695  0.00  0.00     0.190 C 
HETATM    7  C   UNK N   1      31.109  12.746   1.778  0.00  0.00     0.227 C 
HETATM    8  C   UNK N   1      34.542  13.293   5.627  0.00  0.00     0.227 C 
HETATM    9  C   UNK N   1      29.507  16.870   6.768  0.00  0.00     0.227 C 
HETATM   10  C   UNK N   1      32.266  12.079   1.001  0.00  0.00     0.250 C 
HETATM   11  C   UNK N   1      33.439  13.787   6.554  0.00  0.00     0.250 C 
HETATM   12  C   UNK N   1      29.816  16.212   5.405  0.00  0.00     0.250 C 
HETATM   13  C   UNK N   1      34.115  13.426   3.174  0.00  0.00     0.283 C 
HETATM   14  C   UNK N   1      30.483  13.570   4.007  0.00  0.00     0.283 C 
HETATM   15  C   UNK N   1      31.820  17.048   7.621  0.00  0.00     0.283 C 
HETATM   16  N   UNK N   1      33.510  11.688   1.482  0.00  0.00    -0.340 N 
HETATM   17  N   UNK N   1      33.211  15.119   6.814  0.00  0.00    -0.340 N 
HETATM   18  N   UNK N   1      28.948  15.359   4.765  0.00  0.00    -0.340 N 
HETATM   19  O   UNK N   1      32.039  11.887  -0.188  0.00  0.00    -0.270 OA
HETATM   20  O   UNK N   1      32.699  12.940   7.032  0.00  0.00    -0.270 OA
HETATM   21  O   UNK N   1      30.913  16.425   4.904  0.00  0.00    -0.270 OA
HETATM   22  O   UNK N   1      33.870  14.222   2.282  0.00  0.00    -0.263 OA
HETATM   23  O   UNK N   1      30.658  13.396   5.201  0.00  0.00    -0.263 OA
HETATM   24  O   UNK N   1      32.695  17.830   7.962  0.00  0.00    -0.263 OA
HETATM   25  O   UNK N   1      34.443  13.935   4.400  0.00  0.00    -0.304 OA
HETATM   26  O   UNK N   1      31.292  12.873   3.140  0.00  0.00    -0.304 OA
HETATM   27  O   UNK N   1      30.620  17.562   7.222  0.00  0.00    -0.304 OA
ENDROOT
BRANCH   4  28
HETATM   28  C   UNK N   1      35.502  11.312   2.950  0.00  0.00     0.010 C 
HETATM   29  C   UNK N   1      35.860  10.437   4.130  0.00  0.00     0.012 C 
HETATM   30  C   UNK N   1      36.614  12.338   2.739  0.00  0.00     0.012 C 
ENDBRANCH   4  28
BRANCH   8  31
HETATM   31  C   UNK N   1      35.973  13.424   6.212  0.00  0.00     0.016 C 
HETATM   32  C   UNK N   1      36.823  14.563   5.679  0.00  0.00     0.012 C 
HETATM   33  C   UNK N   1      35.978  13.447   7.733  0.00  0.00     0.012 C 
ENDBRANCH   8  31
BRANCH   7  34
HETATM   34  C   UNK N   1      29.807  11.941   1.539  0.00  0.00     0.016 C 
HETATM   35  C   UNK N   1      29.856  10.525   2.087  0.00  0.00     0.012 C 
HETATM   36  C   UNK N   1      29.313  11.955   0.100  0.00  0.00     0.012 C 
ENDBRANCH   7  34
BRANCH   6  37
HETATM   37  C   UNK N   1      32.338  15.185   9.187  0.00  0.00     0.010 C 
HETATM   38  C   UNK N   1      33.696  15.565   9.748  0.00  0.00     0.012 C 
HETATM   39  C   UNK N   1      31.241  15.688  10.110  0.00  0.00     0.012 C 
ENDBRANCH   6  37
BRANCH   5  40
HETATM   40  C   UNK N   1      28.245  13.966   2.769  0.00  0.00     0.010 C 
HETATM   41  C   UNK N   1      27.476  14.985   1.939  0.00  0.00     0.012 C 
HETATM   42  C   UNK N   1      27.286  13.108   3.585  0.00  0.00     0.012 C 
ENDBRANCH   5  40
BRANCH   9  43
HETATM   43  C   UNK N   1      28.341  17.879   6.804  0.00  0.00     0.016 C 
HETATM   44  C   UNK N   1      28.187  18.799   5.606  0.00  0.00     0.012 C 
HETATM   45  C   UNK N   1      28.188  18.618   8.118  0.00  0.00     0.012 C 
ENDBRANCH   9  43
TORSDOF 6
ENDMDL
MODEL 6
REMARK VINA RESULT:      -6.3      1.811      8.666
REMARK  6 active torsions:
REMARK  status: ('A' for Active; 'I' for Inactive)
REMARK    1  A    between atoms: C_22  and  C_16 
REMARK    2  A    between atoms: C_23  and  C_17 
REMARK    3  A    between atoms: C_24  and  C_18 
REMARK    4  A    between atoms: C_25  and  C_19 
REMARK    5  A    between atoms: C_26  and  C_20 
REMARK    6  A    between atoms: C_27  and  C_21 
ROOT
HETATM    1  C   UNK N   1      22.409  16.783   3.667  0.00  0.00     0.153 C 
HETATM    2  C   UNK N   1      29.570  16.097   6.168  0.00  0.00     0.153 C 
HETATM    3  C   UNK N   1      29.415  10.954   2.217  0.00  0.00     0.153 C 
HETATM    4  C   UNK N   1      24.937  16.894   3.668  0.00  0.00     0.190 C 
HETATM    5  C   UNK N   1      27.362  12.083   3.195  0.00  0.00     0.190 C 
HETATM    6  C   UNK N   1      31.051  15.292   4.284  0.00  0.00     0.190 C 
HETATM    7  C   UNK N   1      24.740  13.719   3.063  0.00  0.00     0.227 C 
HETATM    8  C   UNK N   1      27.916  17.628   4.301  0.00  0.00     0.227 C 
HETATM    9  C   UNK N   1      31.135  12.235   4.237  0.00  0.00     0.227 C 
HETATM   10  C   UNK N   1      23.596  14.720   3.339  0.00  0.00     0.250 C 
HETATM   11  C   UNK N   1      29.121  16.799   3.874  0.00  0.00     0.250 C 
HETATM   12  C   UNK N   1      29.593  12.328   4.227  0.00  0.00     0.250 C 
HETATM   13  C   UNK N   1      25.813  16.398   4.829  0.00  0.00     0.283 C 
HETATM   14  C   UNK N   1      27.181  13.576   2.812  0.00  0.00     0.283 C 
HETATM   15  C   UNK N   1      31.623  14.375   5.375  0.00  0.00     0.283 C 
HETATM   16  N   UNK N   1      23.687  16.090   3.551  0.00  0.00    -0.340 N 
HETATM   17  N   UNK N   1      29.917  16.112   4.762  0.00  0.00    -0.340 N 
HETATM   18  N   UNK N   1      28.809  11.763   3.248  0.00  0.00    -0.340 N 
HETATM   19  O   UNK N   1      22.477  14.219   3.377  0.00  0.00    -0.270 OA
HETATM   20  O   UNK N   1      29.332  16.709   2.674  0.00  0.00    -0.270 OA
HETATM   21  O   UNK N   1      29.056  12.986   5.109  0.00  0.00    -0.270 OA
HETATM   22  O   UNK N   1      25.357  15.549   5.579  0.00  0.00    -0.263 OA
HETATM   23  O   UNK N   1      28.166  14.195   2.449  0.00  0.00    -0.263 OA
HETATM   24  O   UNK N   1      32.107  14.877   6.378  0.00  0.00    -0.263 OA
HETATM   25  O   UNK N   1      27.074  16.857   5.090  0.00  0.00    -0.304 OA
HETATM   26  O   UNK N   1      25.996  14.269   2.903  0.00  0.00    -0.304 OA
HETATM   27  O   UNK N   1      31.650  13.014   5.264  0.00  0.00    -0.304 OA
ENDROOT
BRANCH   4  28
HETATM   28  C   UNK N   1      24.561  18.407   3.911  0.00  0.00     0.010 C 
HETATM   29  C   UNK N   1      25.212  19.478   3.066  0.00  0.00     0.012 C 
HETATM   30  C   UNK N   1      24.630  18.825   5.379  0.00  0.00     0.012 C 
ENDBRANCH   4  28
BRANCH   8  31
HETATM   31  C   UNK N   1      28.278  18.962   5.007  0.00  0.00     0.016 C 
HETATM   32  C   UNK N   1      27.857  20.238   4.302  0.00  0.00     0.012 C 
HETATM   33  C   UNK N   1      27.813  18.997   6.455  0.00  0.00     0.012 C 
ENDBRANCH   8  31
BRANCH   7  34
HETATM   34  C   UNK N   1      24.406  12.903   1.789  0.00  0.00     0.016 C 
HETATM   35  C   UNK N   1      24.080  13.765   0.581  0.00  0.00     0.012 C 
HETATM   36  C   UNK N   1      23.353  11.823   1.991  0.00  0.00     0.012 C 
ENDBRANCH   7  34
BRANCH   6  37
HETATM   37  C   UNK N   1      32.226  16.141   3.731  0.00  0.00     0.010 C 
HETATM   38  C   UNK N   1      32.686  17.288   4.613  0.00  0.00     0.012 C 
HETATM   39  C   UNK N   1      33.423  15.311   3.301  0.00  0.00     0.012 C 
ENDBRANCH   6  37
BRANCH   5  40
HETATM   40  C   UNK N   1      26.559  11.121   2.278  0.00  0.00     0.010 C 
HETATM   41  C   UNK N   1      26.286   9.774   2.934  0.00  0.00     0.012 C 
HETATM   42  C   UNK N   1      27.133  10.928   0.880  0.00  0.00     0.012 C 
ENDBRANCH   5  40
BRANCH   9  43
HETATM   43  C   UNK N   1      31.745  10.831   4.428  0.00  0.00     0.016 C 
HETATM   44  C   UNK N   1      31.054   9.908   5.415  0.00  0.00     0.012 C 
HETATM   45  C   UNK N   1      33.253  10.816   4.586  0.00  0.00     0.012 C 
ENDBRANCH   9  43
TORSDOF 6
ENDMDL
MODEL 7
REMARK VINA RESULT:      -6.3      6.107     10.984
REMARK  6 active torsions:
REMARK  status: ('A' for Active; 'I' for Inactive)
REMARK    1  A    between atoms: C_22  and  C_16 
REMARK    2  A    between atoms: C_23  and  C_17 
REMARK    3  A    between atoms: C_24  and  C_18 
REMARK    4  A    between atoms: C_25  and  C_19 
REMARK    5  A    between atoms: C_26  and  C_20 
REMARK    6  A    between atoms: C_27  and  C_21 
ROOT
HETATM    1  C   UNK N   1      35.309  16.752  10.247  0.00  0.00     0.153 C 
HETATM    2  C   UNK N   1      33.228  14.737   3.203  0.00  0.00     0.153 C 
HETATM    3  C   UNK N   1      34.799   8.868   5.478  0.00  0.00     0.153 C 
HETATM    4  C   UNK N   1      33.889  15.812   8.377  0.00  0.00     0.190 C 
HETATM    5  C   UNK N   1      35.621  11.061   6.457  0.00  0.00     0.190 C 
HETATM    6  C   UNK N   1      32.031  12.511   3.279  0.00  0.00     0.190 C 
HETATM    7  C   UNK N   1      35.840  13.241   8.641  0.00  0.00     0.227 C 
HETATM    8  C   UNK N   1      32.125  15.492   5.807  0.00  0.00     0.227 C 
HETATM    9  C   UNK N   1      34.036  10.222   2.975  0.00  0.00     0.227 C 
HETATM   10  C   UNK N   1      35.910  14.586   9.398  0.00  0.00     0.250 C 
HETATM   11  C   UNK N   1      31.830  14.165   5.120  0.00  0.00     0.250 C 
HETATM   12  C   UNK N   1      34.789  10.908   4.136  0.00  0.00     0.250 C 
HETATM   13  C   UNK N   1      34.346  15.737   6.911  0.00  0.00     0.283 C 
HETATM   14  C   UNK N   1      34.511  12.012   6.979  0.00  0.00     0.283 C 
HETATM   15  C   UNK N   1      32.902  12.213   2.048  0.00  0.00     0.283 C 
HETATM   16  N   UNK N   1      35.040  15.666   9.312  0.00  0.00    -0.340 N 
HETATM   17  N   UNK N   1      32.321  13.832   3.878  0.00  0.00    -0.340 N 
HETATM   18  N   UNK N   1      35.094  10.272   5.317  0.00  0.00    -0.340 N 
HETATM   19  O   UNK N   1      36.865  14.694  10.160  0.00  0.00    -0.270 OA
HETATM   20  O   UNK N   1      31.171  13.352   5.750  0.00  0.00    -0.270 OA
HETATM   21  O   UNK N   1      35.076  12.091   4.010  0.00  0.00    -0.270 OA
HETATM   22  O   UNK N   1      35.544  15.715   6.678  0.00  0.00    -0.263 OA
HETATM   23  O   UNK N   1      33.382  11.865   6.542  0.00  0.00    -0.263 OA
HETATM   24  O   UNK N   1      32.811  12.938   1.069  0.00  0.00    -0.263 OA
HETATM   25  O   UNK N   1      33.495  15.706   5.842  0.00  0.00    -0.304 OA
HETATM   26  O   UNK N   1      34.718  13.047   7.862  0.00  0.00    -0.304 OA
HETATM   27  O   UNK N   1      33.753  11.149   1.981  0.00  0.00    -0.304 OA
ENDROOT
BRANCH   4  28
HETATM   28  C   UNK N   1      33.185  17.201   8.630  0.00  0.00     0.010 C 
HETATM   29  C   UNK N   1      31.677  17.267   8.705  0.00  0.00     0.012 C 
HETATM   30  C   UNK N   1      33.684  18.314   7.709  0.00  0.00     0.012 C 
ENDBRANCH   4  28
BRANCH   8  31
HETATM   31  C   UNK N   1      31.385  16.708   5.189  0.00  0.00     0.016 C 
HETATM   32  C   UNK N   1      32.193  17.592   4.257  0.00  0.00     0.012 C 
HETATM   33  C   UNK N   1      30.078  16.312   4.517  0.00  0.00     0.012 C 
ENDBRANCH   8  31
BRANCH   7  34
HETATM   34  C   UNK N   1      35.927  12.079   9.661  0.00  0.00     0.016 C 
HETATM   35  C   UNK N   1      34.827  12.103  10.709  0.00  0.00     0.012 C 
HETATM   36  C   UNK N   1      37.294  11.907  10.306  0.00  0.00     0.012 C 
ENDBRANCH   7  34
BRANCH   6  37
HETATM   37  C   UNK N   1      30.549  12.351   2.847  0.00  0.00     0.010 C 
HETATM   38  C   UNK N   1      29.947  13.526   2.098  0.00  0.00     0.012 C 
HETATM   39  C   UNK N   1      30.276  11.063   2.089  0.00  0.00     0.012 C 
ENDBRANCH   6  37
BRANCH   5  40
HETATM   40  C   UNK N   1      36.237  10.178   7.576  0.00  0.00     0.010 C 
HETATM   41  C   UNK N   1      37.569   9.562   7.173  0.00  0.00     0.012 C 
HETATM   42  C   UNK N   1      35.307   9.115   8.148  0.00  0.00     0.012 C 
ENDBRANCH   5  40
BRANCH   9  43
HETATM   43  C   UNK N   1      34.760   9.057   2.269  0.00  0.00     0.016 C 
HETATM   44  C   UNK N   1      36.215   9.275   1.895  0.00  0.00     0.012 C 
HETATM   45  C   UNK N   1      33.970   8.410   1.149  0.00  0.00     0.012 C 
ENDBRANCH   9  43
TORSDOF 6
ENDMDL
MODEL 8
REMARK VINA RESULT:      -6.2      3.631      8.384
REMARK  6 active torsions:
REMARK  status: ('A' for Active; 'I' for Inactive)
REMARK    1  A    between atoms: C_22  and  C_16 
REMARK    2  A    between atoms: C_23  and  C_17 
REMARK    3  A    between atoms: C_24  and  C_18 
REMARK    4  A    between atoms: C_25  and  C_19 
REMARK    5  A    between atoms: C_26  and  C_20 
REMARK    6  A    between atoms: C_27  and  C_21 
ROOT
HETATM    1  C   UNK N   1      29.191  18.260   8.110  0.00  0.00     0.153 C 
HETATM    2  C   UNK N   1      29.084  14.182   1.678  0.00  0.00     0.153 C 
HETATM    3  C   UNK N   1      34.459  11.696   4.326  0.00  0.00     0.153 C 
HETATM    4  C   UNK N   1      28.858  16.285   6.566  0.00  0.00     0.190 C 
HETATM    5  C   UNK N   1      33.457  13.945   4.942  0.00  0.00     0.190 C 
HETATM    6  C   UNK N   1      29.872  11.827   2.156  0.00  0.00     0.190 C 
HETATM    7  C   UNK N   1      32.070  15.967   6.829  0.00  0.00     0.227 C 
HETATM    8  C   UNK N   1      27.826  14.365   4.315  0.00  0.00     0.227 C 
HETATM    9  C   UNK N   1      32.906  11.640   1.824  0.00  0.00     0.227 C 
HETATM   10  C   UNK N   1      31.158  17.065   7.421  0.00  0.00     0.250 C 
HETATM   11  C   UNK N   1      28.570  13.132   3.821  0.00  0.00     0.250 C 
HETATM   12  C   UNK N   1      32.951  12.845   2.789  0.00  0.00     0.250 C 
HETATM   13  C   UNK N   1      29.200  16.304   5.067  0.00  0.00     0.283 C 
HETATM   14  C   UNK N   1      32.012  13.894   5.508  0.00  0.00     0.283 C 
HETATM   15  C   UNK N   1      30.665  12.029   0.856  0.00  0.00     0.283 C 
HETATM   16  N   UNK N   1      29.775  17.167   7.342  0.00  0.00    -0.340 N 
HETATM   17  N   UNK N   1      29.126  13.038   2.565  0.00  0.00    -0.340 N 
HETATM   18  N   UNK N   1      33.644  12.835   3.977  0.00  0.00    -0.340 N 
HETATM   19  O   UNK N   1      31.753  17.949   8.028  0.00  0.00    -0.270 OA
HETATM   20  O   UNK N   1      28.717  12.219   4.620  0.00  0.00    -0.270 OA
HETATM   21  O   UNK N   1      32.289  13.833   2.499  0.00  0.00    -0.270 OA
HETATM   22  O   UNK N   1      30.037  17.101   4.674  0.00  0.00    -0.263 OA
HETATM   23  O   UNK N   1      31.332  12.916   5.250  0.00  0.00    -0.263 OA
HETATM   24  O   UNK N   1      30.059  12.288  -0.173  0.00  0.00    -0.263 OA
HETATM   25  O   UNK N   1      28.616  15.492   4.136  0.00  0.00    -0.304 OA
HETATM   26  O   UNK N   1      31.422  14.901   6.238  0.00  0.00    -0.304 OA
HETATM   27  O   UNK N   1      32.021  11.898   0.785  0.00  0.00    -0.304 OA
ENDROOT
BRANCH   4  28
HETATM   28  C   UNK N   1      27.371  16.775   6.764  0.00  0.00     0.010 C 
HETATM   29  C   UNK N   1      26.293  15.766   7.086  0.00  0.00     0.012 C 
HETATM   30  C   UNK N   1      26.876  17.689   5.644  0.00  0.00     0.012 C 
ENDBRANCH   4  28
BRANCH   8  31
HETATM   31  C   UNK N   1      26.423  14.560   3.679  0.00  0.00     0.016 C 
HETATM   32  C   UNK N   1      26.309  15.618   2.597  0.00  0.00     0.012 C 
HETATM   33  C   UNK N   1      25.824  13.252   3.184  0.00  0.00     0.012 C 
ENDBRANCH   8  31
BRANCH   7  34
HETATM   34  C   UNK N   1      32.990  15.414   7.945  0.00  0.00     0.016 C 
HETATM   35  C   UNK N   1      32.234  14.850   9.136  0.00  0.00     0.012 C 
HETATM   36  C   UNK N   1      34.083  16.374   8.395  0.00  0.00     0.012 C 
ENDBRANCH   7  34
BRANCH   6  37
HETATM   37  C   UNK N   1      28.958  10.589   1.954  0.00  0.00     0.010 C 
HETATM   38  C   UNK N   1      27.725  10.810   1.098  0.00  0.00     0.012 C 
HETATM   39  C   UNK N   1      29.706   9.358   1.471  0.00  0.00     0.012 C 
ENDBRANCH   6  37
BRANCH   5  40
HETATM   40  C   UNK N   1      34.541  13.976   6.053  0.00  0.00     0.010 C 
HETATM   41  C   UNK N   1      35.895  14.448   5.540  0.00  0.00     0.012 C 
HETATM   42  C   UNK N   1      34.692  12.685   6.848  0.00  0.00     0.012 C 
ENDBRANCH   5  40
BRANCH   9  43
HETATM   43  C   UNK N   1      34.236  11.239   1.152  0.00  0.00     0.016 C 
HETATM   44  C   UNK N   1      35.074  12.356   0.558  0.00  0.00     0.012 C 
HETATM   45  C   UNK N   1      34.139  10.040   0.229  0.00  0.00     0.012 C 
ENDBRANCH   9  43
TORSDOF 6
ENDMDL
MODEL 9
REMARK VINA RESULT:      -6.2      2.883      7.111
REMARK  6 active torsions:
REMARK  status: ('A' for Active; 'I' for Inactive)
REMARK    1  A    between atoms: C_22  and  C_16 
REMARK    2  A    between atoms: C_23  and  C_17 
REMARK    3  A    between atoms: C_24  and  C_18 
REMARK    4  A    between atoms: C_25  and  C_19 
REMARK    5  A    between atoms: C_26  and  C_20 
REMARK    6  A    between atoms: C_27  and  C_21 
ROOT
HETATM    1  C   UNK N   1      28.933   9.018   0.487  0.00  0.00     0.153 C 
HETATM    2  C   UNK N   1      31.835  15.586   3.025  0.00  0.00     0.153 C 
HETATM    3  C   UNK N   1      25.827  16.187   5.398  0.00  0.00     0.153 C 
HETATM    4  C   UNK N   1      29.899  10.713   2.097  0.00  0.00     0.190 C 
HETATM    5  C   UNK N   1      26.470  14.664   3.472  0.00  0.00     0.190 C 
HETATM    6  C   UNK N   1      30.902  16.093   5.320  0.00  0.00     0.190 C 
HETATM    7  C   UNK N   1      26.898  11.929   2.092  0.00  0.00     0.227 C 
HETATM    8  C   UNK N   1      31.805  12.712   3.577  0.00  0.00     0.227 C 
HETATM    9  C   UNK N   1      28.323  17.719   5.077  0.00  0.00     0.227 C 
HETATM   10  C   UNK N   1      27.462  10.751   1.265  0.00  0.00     0.250 C 
HETATM   11  C   UNK N   1      31.346  13.766   4.576  0.00  0.00     0.250 C 
HETATM   12  C   UNK N   1      27.866  16.597   4.119  0.00  0.00     0.250 C 
HETATM   13  C   UNK N   1      30.252  12.157   1.707  0.00  0.00     0.283 C 
HETATM   14  C   UNK N   1      27.517  13.570   3.813  0.00  0.00     0.283 C 
HETATM   15  C   UNK N   1      30.764  17.511   4.746  0.00  0.00     0.283 C 
HETATM   16  N   UNK N   1      28.740  10.207   1.308  0.00  0.00    -0.340 N 
HETATM   17  N   UNK N   1      31.399  15.118   4.325  0.00  0.00    -0.340 N 
HETATM   18  N   UNK N   1      26.721  15.860   4.312  0.00  0.00    -0.340 N 
HETATM   19  O   UNK N   1      26.667  10.256   0.474  0.00  0.00    -0.270 OA
HETATM   20  O   UNK N   1      30.857  13.361   5.620  0.00  0.00    -0.270 OA
HETATM   21  O   UNK N   1      28.594  16.321   3.175  0.00  0.00    -0.270 OA
HETATM   22  O   UNK N   1      29.679  12.657   0.752  0.00  0.00    -0.263 OA
HETATM   23  O   UNK N   1      28.235  13.750   4.782  0.00  0.00    -0.263 OA
HETATM   24  O   UNK N   1      31.762  18.084   4.338  0.00  0.00    -0.263 OA
HETATM   25  O   UNK N   1      31.181  12.922   2.355  0.00  0.00    -0.304 OA
HETATM   26  O   UNK N   1      27.732  12.433   3.068  0.00  0.00    -0.304 OA
HETATM   27  O   UNK N   1      29.576  18.182   4.700  0.00  0.00    -0.304 OA
ENDROOT
BRANCH   4  28
HETATM   28  C   UNK N   1      31.150   9.786   1.838  0.00  0.00     0.010 C 
HETATM   29  C   UNK N   1      31.949   9.272   3.013  0.00  0.00     0.012 C 
HETATM   30  C   UNK N   1      32.112  10.340   0.788  0.00  0.00     0.012 C 
ENDBRANCH   4  28
BRANCH   8  31
HETATM   31  C   UNK N   1      33.345  12.620   3.409  0.00  0.00     0.016 C 
HETATM   32  C   UNK N   1      33.931  13.249   2.159  0.00  0.00     0.012 C 
HETATM   33  C   UNK N   1      34.093  13.122   4.636  0.00  0.00     0.012 C 
ENDBRANCH   8  31
BRANCH   7  34
HETATM   34  C   UNK N   1      25.576  11.486   2.768  0.00  0.00     0.016 C 
HETATM   35  C   UNK N   1      25.732  10.285   3.685  0.00  0.00     0.012 C 
HETATM   36  C   UNK N   1      24.410  11.296   1.809  0.00  0.00     0.012 C 
ENDBRANCH   7  34
BRANCH   6  37
HETATM   37  C   UNK N   1      31.803  16.189   6.580  0.00  0.00     0.010 C 
HETATM   38  C   UNK N   1      33.284  16.396   6.320  0.00  0.00     0.012 C 
HETATM   39  C   UNK N   1      31.313  17.205   7.598  0.00  0.00     0.012 C 
ENDBRANCH   6  37
BRANCH   5  40
HETATM   40  C   UNK N   1      25.008  14.151   3.562  0.00  0.00     0.010 C 
HETATM   41  C   UNK N   1      24.018  15.069   2.859  0.00  0.00     0.012 C 
HETATM   42  C   UNK N   1      24.523  13.819   4.969  0.00  0.00     0.012 C 
ENDBRANCH   5  40
BRANCH   9  43
HETATM   43  C   UNK N   1      27.423  18.968   5.164  0.00  0.00     0.016 C 
HETATM   44  C   UNK N   1      27.114  19.688   3.864  0.00  0.00     0.012 C 
HETATM   45  C   UNK N   1      27.783  19.929   6.280  0.00  0.00     0.012 C 
ENDBRANCH   9  43
TORSDOF 6
ENDMDL
