MODEL 1
REMARK VINA RESULT:      -6.3      0.000      0.000
REMARK  7 active torsions:
REMARK  status: ('A' for Active; 'I' for Inactive)
REMARK    1  A    between atoms: C_18  and  C_17 
REMARK    2  A    between atoms: C_23  and  C_17 
REMARK    3  A    between atoms: N_24  and  C_18 
REMARK    4  A    between atoms: C_20  and  C_19 
REMARK    5  A    between atoms: N_24  and  C_19 
REMARK    6  A    between atoms: C_23  and  C_21 
REMARK    7  A    between atoms: C_23  and  C_22 
ROOT
HETATM    1  C   UNK N   1      35.576  12.564  15.480  0.00  0.00     0.053 C 
ENDROOT
BRANCH   1   2
HETATM    2  C   UNK N   1      36.808  13.397  15.093  0.00  0.00     0.033 C 
BRANCH   2   3
HETATM    3  C   UNK N   1      36.512  14.753  14.441  0.00  0.00     0.115 C 
BRANCH   3   4
HETATM    4  N   UNK N   1      36.809  14.739  13.003  0.00  0.00    -0.413 N 
HETATM    5  H   UNK N   1      37.705  14.993  12.589  0.00  0.00     0.153 HD
BRANCH   4   6
HETATM    6  C   UNK N   1      35.631  14.307  12.248  0.00  0.00     0.105 C 
HETATM    7  C   UNK N   1      35.082  15.457  11.423  0.00  0.00     0.037 C 
BRANCH   6   8
HETATM    8  C   UNK N   1      35.918  13.110  11.394  0.00  0.00    -0.036 A 
HETATM    9  C   UNK N   1      34.889  12.565  10.618  0.00  0.00     0.009 A 
HETATM   10  C   UNK N   1      35.130  11.444   9.819  0.00  0.00     0.001 A 
HETATM   11  C   UNK N   1      36.402  10.867   9.789  0.00  0.00     0.000 A 
HETATM   12  C   UNK N   1      37.434  11.409  10.563  0.00  0.00     0.001 A 
HETATM   13  C   UNK N   1      37.193  12.526  11.367  0.00  0.00     0.009 A 
ENDBRANCH   6   8
ENDBRANCH   4   6
ENDBRANCH   3   4
ENDBRANCH   2   3
ENDBRANCH   1   2
BRANCH   1  14
HETATM   14  C   UNK N   1      35.316  11.385  14.572  0.00  0.00    -0.050 A 
HETATM   15  C   UNK N   1      34.033  11.213  14.031  0.00  0.00     0.008 A 
HETATM   16  C   UNK N   1      33.769  10.162  13.151  0.00  0.00     0.001 A 
HETATM   17  C   UNK N   1      34.787   9.274  12.798  0.00  0.00     0.000 A 
HETATM   18  C   UNK N   1      36.071   9.438  13.326  0.00  0.00     0.001 A 
HETATM   19  C   UNK N   1      36.338  10.490  14.205  0.00  0.00     0.008 A 
ENDBRANCH   1  14
BRANCH   1  20
HETATM   20  C   UNK N   1      35.484  12.275  16.966  0.00  0.00    -0.050 A 
HETATM   21  C   UNK N   1      35.208  13.323  17.853  0.00  0.00     0.008 A 
HETATM   22  C   UNK N   1      35.115  13.081  19.227  0.00  0.00     0.001 A 
HETATM   23  C   UNK N   1      35.292  11.786  19.721  0.00  0.00     0.000 A 
HETATM   24  C   UNK N   1      35.564  10.734  18.845  0.00  0.00     0.001 A 
HETATM   25  C   UNK N   1      35.661  10.976  17.471  0.00  0.00     0.008 A 
ENDBRANCH   1  20
TORSDOF 7
ENDMDL
MODEL 2
REMARK VINA RESULT:      -6.3     20.213     24.095
REMARK  7 active torsions:
REMARK  status: ('A' for Active; 'I' for Inactive)
REMARK    1  A    between atoms: C_18  and  C_17 
REMARK    2  A    between atoms: C_23  and  C_17 
REMARK    3  A    between atoms: N_24  and  C_18 
REMARK    4  A    between atoms: C_20  and  C_19 
REMARK    5  A    between atoms: N_24  and  C_19 
REMARK    6  A    between atoms: C_23  and  C_21 
REMARK    7  A    between atoms: C_23  and  C_22 
ROOT
HETATM    1  C   UNK N   1      30.097  24.722  -3.740  0.00  0.00     0.053 C 
ENDROOT
BRANCH   1   2
HETATM    2  C   UNK N   1      30.630  26.063  -4.268  0.00  0.00     0.033 C 
BRANCH   2   3
HETATM    3  C   UNK N   1      30.384  27.277  -3.362  0.00  0.00     0.115 C 
BRANCH   3   4
HETATM    4  N   UNK N   1      29.581  28.303  -4.037  0.00  0.00    -0.413 N 
HETATM    5  H   UNK N   1      29.931  28.946  -4.746  0.00  0.00     0.153 HD
BRANCH   4   6
HETATM    6  C   UNK N   1      28.201  28.270  -3.546  0.00  0.00     0.105 C 
HETATM    7  C   UNK N   1      27.818  29.616  -2.958  0.00  0.00     0.037 C 
BRANCH   6   8
HETATM    8  C   UNK N   1      27.236  27.842  -4.609  0.00  0.00    -0.036 A 
HETATM    9  C   UNK N   1      25.878  27.724  -4.289  0.00  0.00     0.009 A 
HETATM   10  C   UNK N   1      24.960  27.320  -5.261  0.00  0.00     0.001 A 
HETATM   11  C   UNK N   1      25.394  27.038  -6.559  0.00  0.00     0.000 A 
HETATM   12  C   UNK N   1      26.749  27.156  -6.884  0.00  0.00     0.001 A 
HETATM   13  C   UNK N   1      27.671  27.554  -5.911  0.00  0.00     0.009 A 
ENDBRANCH   6   8
ENDBRANCH   4   6
ENDBRANCH   3   4
ENDBRANCH   2   3
ENDBRANCH   1   2
BRANCH   1  14
HETATM   14  C   UNK N   1      28.737  24.343  -4.277  0.00  0.00    -0.050 A 
HETATM   15  C   UNK N   1      27.618  24.466  -3.440  0.00  0.00     0.008 A 
HETATM   16  C   UNK N   1      26.340  24.169  -3.916  0.00  0.00     0.001 A 
HETATM   17  C   UNK N   1      26.166  23.750  -5.237  0.00  0.00     0.000 A 
HETATM   18  C   UNK N   1      27.274  23.628  -6.082  0.00  0.00     0.001 A 
HETATM   19  C   UNK N   1      28.553  23.927  -5.608  0.00  0.00     0.008 A 
ENDBRANCH   1  14
BRANCH   1  20
HETATM   20  C   UNK N   1      31.133  23.615  -3.748  0.00  0.00    -0.050 A 
HETATM   21  C   UNK N   1      32.180  23.662  -4.678  0.00  0.00     0.008 A 
HETATM   22  C   UNK N   1      33.149  22.654  -4.702  0.00  0.00     0.001 A 
HETATM   23  C   UNK N   1      33.080  21.596  -3.793  0.00  0.00     0.000 A 
HETATM   24  C   UNK N   1      32.043  21.543  -2.859  0.00  0.00     0.001 A 
HETATM   25  C   UNK N   1      31.071  22.547  -2.837  0.00  0.00     0.008 A 
ENDBRANCH   1  20
TORSDOF 7
ENDMDL
MODEL 3
REMARK VINA RESULT:      -6.2     20.346     24.360
REMARK  7 active torsions:
REMARK  status: ('A' for Active; 'I' for Inactive)
REMARK    1  A    between atoms: C_18  and  C_17 
REMARK    2  A    between atoms: C_23  and  C_17 
REMARK    3  A    between atoms: N_24  and  C_18 
REMARK    4  A    between atoms: C_20  and  C_19 
REMARK    5  A    between atoms: N_24  and  C_19 
REMARK    6  A    between atoms: C_23  and  C_21 
REMARK    7  A    between atoms: C_23  and  C_22 
ROOT
HETATM    1  C   UNK N   1      30.285  24.858  -4.404  0.00  0.00     0.053 C 
ENDROOT
BRANCH   1   2
HETATM    2  C   UNK N   1      30.467  26.057  -3.460  0.00  0.00     0.033 C 
BRANCH   2   3
HETATM    3  C   UNK N   1      30.650  27.417  -4.144  0.00  0.00     0.115 C 
BRANCH   3   4
HETATM    4  N   UNK N   1      29.437  28.239  -4.052  0.00  0.00    -0.413 N 
HETATM    5  H   UNK N   1      29.026  28.578  -3.183  0.00  0.00     0.153 HD
BRANCH   4   6
HETATM    6  C   UNK N   1      28.902  28.503  -5.389  0.00  0.00     0.105 C 
HETATM    7  C   UNK N   1      29.808  27.903  -6.449  0.00  0.00     0.037 C 
BRANCH   6   8
HETATM    8  C   UNK N   1      27.492  28.018  -5.537  0.00  0.00    -0.036 A 
HETATM    9  C   UNK N   1      26.580  28.248  -4.500  0.00  0.00     0.009 A 
HETATM   10  C   UNK N   1      25.262  27.800  -4.610  0.00  0.00     0.001 A 
HETATM   11  C   UNK N   1      24.848  27.124  -5.762  0.00  0.00     0.000 A 
HETATM   12  C   UNK N   1      25.755  26.894  -6.802  0.00  0.00     0.001 A 
HETATM   13  C   UNK N   1      27.076  27.335  -6.689  0.00  0.00     0.009 A 
ENDBRANCH   6   8
ENDBRANCH   4   6
ENDBRANCH   3   4
ENDBRANCH   2   3
ENDBRANCH   1   2
BRANCH   1  14
HETATM   14  C   UNK N   1      31.213  23.701  -4.119  0.00  0.00    -0.050 A 
HETATM   15  C   UNK N   1      30.932  22.854  -3.036  0.00  0.00     0.008 A 
HETATM   16  C   UNK N   1      31.742  21.748  -2.772  0.00  0.00     0.001 A 
HETATM   17  C   UNK N   1      32.838  21.473  -3.591  0.00  0.00     0.000 A 
HETATM   18  C   UNK N   1      33.126  22.306  -4.677  0.00  0.00     0.001 A 
HETATM   19  C   UNK N   1      32.316  23.413  -4.944  0.00  0.00     0.008 A 
ENDBRANCH   1  14
BRANCH   1  20
HETATM   20  C   UNK N   1      28.833  24.487  -4.638  0.00  0.00    -0.050 A 
HETATM   21  C   UNK N   1      28.472  23.852  -5.833  0.00  0.00     0.008 A 
HETATM   22  C   UNK N   1      27.139  23.498  -6.070  0.00  0.00     0.001 A 
HETATM   23  C   UNK N   1      26.162  23.772  -5.110  0.00  0.00     0.000 A 
HETATM   24  C   UNK N   1      26.514  24.402  -3.914  0.00  0.00     0.001 A 
HETATM   25  C   UNK N   1      27.844  24.760  -3.678  0.00  0.00     0.008 A 
ENDBRANCH   1  20
TORSDOF 7
ENDMDL
MODEL 4
REMARK VINA RESULT:      -6.1      8.426     12.033
REMARK  7 active torsions:
REMARK  status: ('A' for Active; 'I' for Inactive)
REMARK    1  A    between atoms: C_18  and  C_17 
REMARK    2  A    between atoms: C_23  and  C_17 
REMARK    3  A    between atoms: N_24  and  C_18 
REMARK    4  A    between atoms: C_20  and  C_19 
REMARK    5  A    between atoms: N_24  and  C_19 
REMARK    6  A    between atoms: C_23  and  C_21 
REMARK    7  A    between atoms: C_23  and  C_22 
ROOT
HETATM    1  C   UNK N   1      28.967  17.896   5.719  0.00  0.00     0.053 C 
ENDROOT
BRANCH   1   2
HETATM    2  C   UNK N   1      29.018  16.489   5.104  0.00  0.00     0.033 C 
BRANCH   2   3
HETATM    3  C   UNK N   1      30.114  16.263   4.054  0.00  0.00     0.115 C 
BRANCH   3   4
HETATM    4  N   UNK N   1      31.219  15.459   4.588  0.00  0.00    -0.413 N 
HETATM    5  H   UNK N   1      31.158  14.471   4.834  0.00  0.00     0.153 HD
BRANCH   4   6
HETATM    6  C   UNK N   1      32.426  16.279   4.717  0.00  0.00     0.105 C 
HETATM    7  C   UNK N   1      32.275  17.567   3.927  0.00  0.00     0.037 C 
BRANCH   6   8
HETATM    8  C   UNK N   1      32.771  16.552   6.149  0.00  0.00    -0.036 A 
HETATM    9  C   UNK N   1      33.547  17.675   6.460  0.00  0.00     0.009 A 
HETATM   10  C   UNK N   1      33.888  17.946   7.787  0.00  0.00     0.001 A 
HETATM   11  C   UNK N   1      33.449  17.100   8.809  0.00  0.00     0.000 A 
HETATM   12  C   UNK N   1      32.672  15.978   8.503  0.00  0.00     0.001 A 
HETATM   13  C   UNK N   1      32.336  15.701   7.175  0.00  0.00     0.009 A 
ENDBRANCH   6   8
ENDBRANCH   4   6
ENDBRANCH   3   4
ENDBRANCH   2   3
ENDBRANCH   1   2
BRANCH   1  14
HETATM   14  C   UNK N   1      27.918  18.797   5.113  0.00  0.00    -0.050 A 
HETATM   15  C   UNK N   1      27.116  18.304   4.072  0.00  0.00     0.008 A 
HETATM   16  C   UNK N   1      26.105  19.093   3.521  0.00  0.00     0.001 A 
HETATM   17  C   UNK N   1      25.881  20.383   4.007  0.00  0.00     0.000 A 
HETATM   18  C   UNK N   1      26.670  20.883   5.048  0.00  0.00     0.001 A 
HETATM   19  C   UNK N   1      27.681  20.095   5.602  0.00  0.00     0.008 A 
ENDBRANCH   1  14
BRANCH   1  20
HETATM   20  C   UNK N   1      29.033  17.897   7.233  0.00  0.00    -0.050 A 
HETATM   21  C   UNK N   1      30.083  18.566   7.874  0.00  0.00     0.008 A 
HETATM   22  C   UNK N   1      30.164  18.584   9.270  0.00  0.00     0.001 A 
HETATM   23  C   UNK N   1      29.189  17.936  10.034  0.00  0.00     0.000 A 
HETATM   24  C   UNK N   1      28.136  17.269   9.404  0.00  0.00     0.001 A 
HETATM   25  C   UNK N   1      28.058  17.248   8.009  0.00  0.00     0.008 A 
ENDBRANCH   1  20
TORSDOF 7
ENDMDL
MODEL 5
REMARK VINA RESULT:      -6.1     22.924     25.799
REMARK  7 active torsions:
REMARK  status: ('A' for Active; 'I' for Inactive)
REMARK    1  A    between atoms: C_18  and  C_17 
REMARK    2  A    between atoms: C_23  and  C_17 
REMARK    3  A    between atoms: N_24  and  C_18 
REMARK    4  A    between atoms: C_20  and  C_19 
REMARK    5  A    between atoms: N_24  and  C_19 
REMARK    6  A    between atoms: C_23  and  C_21 
REMARK    7  A    between atoms: C_23  and  C_22 
ROOT
HETATM    1  C   UNK N   1      27.888  22.908  -7.007  0.00  0.00     0.053 C 
ENDROOT
BRANCH   1   2
HETATM    2  C   UNK N   1      26.380  22.618  -7.039  0.00  0.00     0.033 C 
BRANCH   2   3
HETATM    3  C   UNK N   1      25.658  23.003  -8.337  0.00  0.00     0.115 C 
BRANCH   3   4
HETATM    4  N   UNK N   1      25.043  24.332  -8.241  0.00  0.00    -0.413 N 
HETATM    5  H   UNK N   1      24.088  24.513  -7.933  0.00  0.00     0.153 HD
BRANCH   4   6
HETATM    6  C   UNK N   1      25.999  25.363  -8.649  0.00  0.00     0.105 C 
HETATM    7  C   UNK N   1      25.540  26.030  -9.934  0.00  0.00     0.037 C 
BRANCH   6   8
HETATM    8  C   UNK N   1      26.240  26.369  -7.566  0.00  0.00    -0.036 A 
HETATM    9  C   UNK N   1      25.397  26.381  -6.448  0.00  0.00     0.009 A 
HETATM   10  C   UNK N   1      25.597  27.314  -5.428  0.00  0.00     0.001 A 
HETATM   11  C   UNK N   1      26.644  28.235  -5.517  0.00  0.00     0.000 A 
HETATM   12  C   UNK N   1      27.490  28.226  -6.632  0.00  0.00     0.001 A 
HETATM   13  C   UNK N   1      27.287  27.298  -7.657  0.00  0.00     0.009 A 
ENDBRANCH   6   8
ENDBRANCH   4   6
ENDBRANCH   3   4
ENDBRANCH   2   3
ENDBRANCH   1   2
BRANCH   1  14
HETATM   14  C   UNK N   1      28.297  23.945  -5.989  0.00  0.00    -0.050 A 
HETATM   15  C   UNK N   1      27.596  24.021  -4.776  0.00  0.00     0.008 A 
HETATM   16  C   UNK N   1      27.976  24.936  -3.792  0.00  0.00     0.001 A 
HETATM   17  C   UNK N   1      29.065  25.783  -4.009  0.00  0.00     0.000 A 
HETATM   18  C   UNK N   1      29.775  25.713  -5.212  0.00  0.00     0.001 A 
HETATM   19  C   UNK N   1      29.397  24.797  -6.196  0.00  0.00     0.008 A 
ENDBRANCH   1  14
BRANCH   1  20
HETATM   20  C   UNK N   1      28.745  21.657  -7.044  0.00  0.00    -0.050 A 
HETATM   21  C   UNK N   1      29.831  21.544  -6.167  0.00  0.00     0.008 A 
HETATM   22  C   UNK N   1      30.634  20.398  -6.180  0.00  0.00     0.001 A 
HETATM   23  C   UNK N   1      30.351  19.358  -7.068  0.00  0.00     0.000 A 
HETATM   24  C   UNK N   1      29.268  19.460  -7.944  0.00  0.00     0.001 A 
HETATM   25  C   UNK N   1      28.468  20.606  -7.934  0.00  0.00     0.008 A 
ENDBRANCH   1  20
TORSDOF 7
ENDMDL
MODEL 6
REMARK VINA RESULT:      -6.1     21.049     25.117
REMARK  7 active torsions:
REMARK  status: ('A' for Active; 'I' for Inactive)
REMARK    1  A    between atoms: C_18  and  C_17 
REMARK    2  A    between atoms: C_23  and  C_17 
REMARK    3  A    between atoms: N_24  and  C_18 
REMARK    4  A    between atoms: C_20  and  C_19 
REMARK    5  A    between atoms: N_24  and  C_19 
REMARK    6  A    between atoms: C_23  and  C_21 
REMARK    7  A    between atoms: C_23  and  C_22 
ROOT
HETATM    1  C   UNK N   1      28.666  24.779  -4.637  0.00  0.00     0.053 C 
ENDROOT
BRANCH   1   2
HETATM    2  C   UNK N   1      27.415  24.931  -3.758  0.00  0.00     0.033 C 
BRANCH   2   3
HETATM    3  C   UNK N   1      26.093  25.116  -4.512  0.00  0.00     0.115 C 
BRANCH   3   4
HETATM    4  N   UNK N   1      26.301  25.175  -5.964  0.00  0.00    -0.413 N 
HETATM    5  H   UNK N   1      26.750  24.447  -6.519  0.00  0.00     0.153 HD
BRANCH   4   6
HETATM    6  C   UNK N   1      25.769  26.428  -6.502  0.00  0.00     0.105 C 
HETATM    7  C   UNK N   1      24.712  26.996  -5.571  0.00  0.00     0.037 C 
BRANCH   6   8
HETATM    8  C   UNK N   1      26.851  27.428  -6.775  0.00  0.00    -0.036 A 
HETATM    9  C   UNK N   1      27.693  27.236  -7.877  0.00  0.00     0.009 A 
HETATM   10  C   UNK N   1      28.714  28.151  -8.148  0.00  0.00     0.001 A 
HETATM   11  C   UNK N   1      28.893  29.264  -7.323  0.00  0.00     0.000 A 
HETATM   12  C   UNK N   1      28.053  29.460  -6.221  0.00  0.00     0.001 A 
HETATM   13  C   UNK N   1      27.036  28.543  -5.944  0.00  0.00     0.009 A 
ENDBRANCH   6   8
ENDBRANCH   4   6
ENDBRANCH   3   4
ENDBRANCH   2   3
ENDBRANCH   1   2
BRANCH   1  14
HETATM   14  C   UNK N   1      29.587  25.977  -4.615  0.00  0.00    -0.050 A 
HETATM   15  C   UNK N   1      30.596  26.076  -5.584  0.00  0.00     0.008 A 
HETATM   16  C   UNK N   1      31.435  27.192  -5.624  0.00  0.00     0.001 A 
HETATM   17  C   UNK N   1      31.271  28.222  -4.696  0.00  0.00     0.000 A 
HETATM   18  C   UNK N   1      30.265  28.137  -3.728  0.00  0.00     0.001 A 
HETATM   19  C   UNK N   1      29.423  27.023  -3.689  0.00  0.00     0.008 A 
ENDBRANCH   1  14
BRANCH   1  20
HETATM   20  C   UNK N   1      29.346  23.432  -4.493  0.00  0.00    -0.050 A 
HETATM   21  C   UNK N   1      29.924  23.083  -3.266  0.00  0.00     0.008 A 
HETATM   22  C   UNK N   1      30.554  21.844  -3.108  0.00  0.00     0.001 A 
HETATM   23  C   UNK N   1      30.604  20.945  -4.176  0.00  0.00     0.000 A 
HETATM   24  C   UNK N   1      30.027  21.282  -5.402  0.00  0.00     0.001 A 
HETATM   25  C   UNK N   1      29.401  22.522  -5.562  0.00  0.00     0.008 A 
ENDBRANCH   1  20
TORSDOF 7
ENDMDL
MODEL 7
REMARK VINA RESULT:      -6.1     20.545     24.032
REMARK  7 active torsions:
REMARK  status: ('A' for Active; 'I' for Inactive)
REMARK    1  A    between atoms: C_18  and  C_17 
REMARK    2  A    between atoms: C_23  and  C_17 
REMARK    3  A    between atoms: N_24  and  C_18 
REMARK    4  A    between atoms: C_20  and  C_19 
REMARK    5  A    between atoms: N_24  and  C_19 
REMARK    6  A    between atoms: C_23  and  C_21 
REMARK    7  A    between atoms: C_23  and  C_22 
ROOT
HETATM    1  C   UNK N   1      30.071  24.185  -4.561  0.00  0.00     0.053 C 
ENDROOT
BRANCH   1   2
HETATM    2  C   UNK N   1      30.527  25.147  -3.453  0.00  0.00     0.033 C 
BRANCH   2   3
HETATM    3  C   UNK N   1      31.260  26.408  -3.929  0.00  0.00     0.115 C 
BRANCH   3   4
HETATM    4  N   UNK N   1      30.363  27.314  -4.657  0.00  0.00    -0.413 N 
HETATM    5  H   UNK N   1      30.371  27.456  -5.666  0.00  0.00     0.153 HD
BRANCH   4   6
HETATM    6  C   UNK N   1      29.455  27.984  -3.724  0.00  0.00     0.105 C 
HETATM    7  C   UNK N   1      29.879  29.426  -3.518  0.00  0.00     0.037 C 
BRANCH   6   8
HETATM    8  C   UNK N   1      28.026  27.891  -4.165  0.00  0.00    -0.036 A 
HETATM    9  C   UNK N   1      27.739  27.826  -5.534  0.00  0.00     0.009 A 
HETATM   10  C   UNK N   1      26.414  27.747  -5.971  0.00  0.00     0.001 A 
HETATM   11  C   UNK N   1      25.371  27.725  -5.041  0.00  0.00     0.000 A 
HETATM   12  C   UNK N   1      25.654  27.788  -3.672  0.00  0.00     0.001 A 
HETATM   13  C   UNK N   1      26.978  27.875  -3.233  0.00  0.00     0.009 A 
ENDBRANCH   6   8
ENDBRANCH   4   6
ENDBRANCH   3   4
ENDBRANCH   2   3
ENDBRANCH   1   2
BRANCH   1  14
HETATM   14  C   UNK N   1      30.737  22.830  -4.517  0.00  0.00    -0.050 A 
HETATM   15  C   UNK N   1      31.734  22.594  -3.558  0.00  0.00     0.008 A 
HETATM   16  C   UNK N   1      32.338  21.339  -3.457  0.00  0.00     0.001 A 
HETATM   17  C   UNK N   1      31.950  20.306  -4.312  0.00  0.00     0.000 A 
HETATM   18  C   UNK N   1      30.954  20.528  -5.269  0.00  0.00     0.001 A 
HETATM   19  C   UNK N   1      30.347  21.782  -5.370  0.00  0.00     0.008 A 
ENDBRANCH   1  14
BRANCH   1  20
HETATM   20  C   UNK N   1      28.569  24.167  -4.765  0.00  0.00    -0.050 A 
HETATM   21  C   UNK N   1      27.724  24.219  -3.649  0.00  0.00     0.008 A 
HETATM   22  C   UNK N   1      26.335  24.206  -3.812  0.00  0.00     0.001 A 
HETATM   23  C   UNK N   1      25.783  24.146  -5.093  0.00  0.00     0.000 A 
HETATM   24  C   UNK N   1      26.616  24.098  -6.213  0.00  0.00     0.001 A 
HETATM   25  C   UNK N   1      28.005  24.106  -6.051  0.00  0.00     0.008 A 
ENDBRANCH   1  20
TORSDOF 7
ENDMDL
MODEL 8
REMARK VINA RESULT:      -6.0      9.317     11.895
REMARK  7 active torsions:
REMARK  status: ('A' for Active; 'I' for Inactive)
REMARK    1  A    between atoms: C_18  and  C_17 
REMARK    2  A    between atoms: C_23  and  C_17 
REMARK    3  A    between atoms: N_24  and  C_18 
REMARK    4  A    between atoms: C_20  and  C_19 
REMARK    5  A    between atoms: N_24  and  C_19 
REMARK    6  A    between atoms: C_23  and  C_21 
REMARK    7  A    between atoms: C_23  and  C_22 
ROOT
HETATM    1  C   UNK N   1      29.322  17.329   6.504  0.00  0.00     0.053 C 
ENDROOT
BRANCH   1   2
HETATM    2  C   UNK N   1      29.607  17.242   8.011  0.00  0.00     0.033 C 
BRANCH   2   3
HETATM    3  C   UNK N   1      30.998  17.714   8.452  0.00  0.00     0.115 C 
BRANCH   3   4
HETATM    4  N   UNK N   1      32.060  16.862   7.902  0.00  0.00    -0.413 N 
HETATM    5  H   UNK N   1      32.177  15.871   8.107  0.00  0.00     0.153 HD
BRANCH   4   6
HETATM    6  C   UNK N   1      32.927  17.642   7.016  0.00  0.00     0.105 C 
HETATM    7  C   UNK N   1      34.316  17.770   7.615  0.00  0.00     0.037 C 
BRANCH   6   8
HETATM    8  C   UNK N   1      32.978  17.070   5.632  0.00  0.00    -0.036 A 
HETATM    9  C   UNK N   1      33.654  15.863   5.419  0.00  0.00     0.009 A 
HETATM   10  C   UNK N   1      33.722  15.313   4.136  0.00  0.00     0.001 A 
HETATM   11  C   UNK N   1      33.108  15.964   3.063  0.00  0.00     0.000 A 
HETATM   12  C   UNK N   1      32.429  17.169   3.272  0.00  0.00     0.001 A 
HETATM   13  C   UNK N   1      32.366  17.725   4.553  0.00  0.00     0.009 A 
ENDBRANCH   6   8
ENDBRANCH   4   6
ENDBRANCH   3   4
ENDBRANCH   2   3
ENDBRANCH   1   2
BRANCH   1  14
HETATM   14  C   UNK N   1      28.871  16.028   5.883  0.00  0.00    -0.050 A 
HETATM   15  C   UNK N   1      29.828  15.185   5.299  0.00  0.00     0.008 A 
HETATM   16  C   UNK N   1      29.453  13.954   4.758  0.00  0.00     0.001 A 
HETATM   17  C   UNK N   1      28.117  13.550   4.799  0.00  0.00     0.000 A 
HETATM   18  C   UNK N   1      27.154  14.380   5.382  0.00  0.00     0.001 A 
HETATM   19  C   UNK N   1      27.528  15.612   5.926  0.00  0.00     0.008 A 
ENDBRANCH   1  14
BRANCH   1  20
HETATM   20  C   UNK N   1      28.519  18.553   6.110  0.00  0.00    -0.050 A 
HETATM   21  C   UNK N   1      28.374  18.872   4.754  0.00  0.00     0.008 A 
HETATM   22  C   UNK N   1      27.635  19.994   4.366  0.00  0.00     0.001 A 
HETATM   23  C   UNK N   1      27.031  20.801   5.334  0.00  0.00     0.000 A 
HETATM   24  C   UNK N   1      27.166  20.489   6.688  0.00  0.00     0.001 A 
HETATM   25  C   UNK N   1      27.909  19.370   7.077  0.00  0.00     0.008 A 
ENDBRANCH   1  20
TORSDOF 7
ENDMDL
MODEL 9
REMARK VINA RESULT:      -6.0     20.712     24.765
REMARK  7 active torsions:
REMARK  status: ('A' for Active; 'I' for Inactive)
REMARK    1  A    between atoms: C_18  and  C_17 
REMARK    2  A    between atoms: C_23  and  C_17 
REMARK    3  A    between atoms: N_24  and  C_18 
REMARK    4  A    between atoms: C_20  and  C_19 
REMARK    5  A    between atoms: N_24  and  C_19 
REMARK    6  A    between atoms: C_23  and  C_21 
REMARK    7  A    between atoms: C_23  and  C_22 
ROOT
HETATM    1  C   UNK N   1      29.186  24.702  -3.959  0.00  0.00     0.053 C 
ENDROOT
BRANCH   1   2
HETATM    2  C   UNK N   1      27.775  24.647  -4.563  0.00  0.00     0.033 C 
BRANCH   2   3
HETATM    3  C   UNK N   1      26.642  25.125  -3.646  0.00  0.00     0.115 C 
BRANCH   3   4
HETATM    4  N   UNK N   1      26.302  26.531  -3.892  0.00  0.00    -0.413 N 
HETATM    5  H   UNK N   1      26.141  27.229  -3.165  0.00  0.00     0.153 HD
BRANCH   4   6
HETATM    6  C   UNK N   1      26.230  26.791  -5.331  0.00  0.00     0.105 C 
HETATM    7  C   UNK N   1      24.790  27.021  -5.754  0.00  0.00     0.037 C 
BRANCH   6   8
HETATM    8  C   UNK N   1      27.110  27.931  -5.743  0.00  0.00    -0.036 A 
HETATM    9  C   UNK N   1      27.698  27.913  -7.013  0.00  0.00     0.009 A 
HETATM   10  C   UNK N   1      28.529  28.961  -7.417  0.00  0.00     0.001 A 
HETATM   11  C   UNK N   1      28.770  30.034  -6.556  0.00  0.00     0.000 A 
HETATM   12  C   UNK N   1      28.183  30.057  -5.286  0.00  0.00     0.001 A 
HETATM   13  C   UNK N   1      27.358  29.006  -4.877  0.00  0.00     0.009 A 
ENDBRANCH   6   8
ENDBRANCH   4   6
ENDBRANCH   3   4
ENDBRANCH   2   3
ENDBRANCH   1   2
BRANCH   1  14
HETATM   14  C   UNK N   1      29.886  23.364  -3.898  0.00  0.00    -0.050 A 
HETATM   15  C   UNK N   1      29.646  22.426  -4.913  0.00  0.00     0.008 A 
HETATM   16  C   UNK N   1      30.311  21.198  -4.915  0.00  0.00     0.001 A 
HETATM   17  C   UNK N   1      31.226  20.897  -3.905  0.00  0.00     0.000 A 
HETATM   18  C   UNK N   1      31.477  21.827  -2.890  0.00  0.00     0.001 A 
HETATM   19  C   UNK N   1      30.815  23.056  -2.888  0.00  0.00     0.008 A 
ENDBRANCH   1  14
BRANCH   1  20
HETATM   20  C   UNK N   1      30.023  25.853  -4.481  0.00  0.00    -0.050 A 
HETATM   21  C   UNK N   1      30.272  26.953  -3.651  0.00  0.00     0.008 A 
HETATM   22  C   UNK N   1      31.044  28.025  -4.110  0.00  0.00     0.001 A 
HETATM   23  C   UNK N   1      31.577  28.000  -5.401  0.00  0.00     0.000 A 
HETATM   24  C   UNK N   1      31.337  26.906  -6.235  0.00  0.00     0.001 A 
HETATM   25  C   UNK N   1      30.562  25.836  -5.779  0.00  0.00     0.008 A 
ENDBRANCH   1  20
TORSDOF 7
ENDMDL
