MODEL 1
REMARK VINA RESULT:      -8.2      0.000      0.000
REMARK  5 active torsions:
REMARK  status: ('A' for Active; 'I' for Inactive)
REMARK    1  A    between atoms: C_18  and  C_17 
REMARK    2  A    between atoms: N_26  and  C_17 
REMARK    3  A    between atoms: C_23  and  C_19 
REMARK    4  A    between atoms: C_23  and  C_20 
REMARK    5  A    between atoms: O_27  and  C_21 
ROOT
HETATM    1  C   UNK N   1      21.315  15.910   3.246  0.00  0.00     0.086 C 
HETATM    2  C   UNK N   1      22.593  16.703   3.387  0.00  0.00     0.032 C 
HETATM    3  C   UNK N   1      20.250  16.819   2.718  0.00  0.00     0.117 C 
HETATM    4  C   UNK N   1      21.082  18.633   3.940  0.00  0.00     0.237 C 
HETATM    5  C   UNK N   1      22.420  17.944   4.284  0.00  0.00     0.072 C 
HETATM    6  N   UNK N   1      20.164  18.047   3.119  0.00  0.00    -0.310 N 
ATOM      7  HN  UNK N   1      19.370  18.605   2.803  1.00  0.00     0.170 HD
HETATM    8  O   UNK N   1      20.822  19.733   4.409  0.00  0.00    -0.272 OA
ENDROOT
BRANCH   5   9
HETATM    9  C   UNK N   1      23.652  18.827   4.033  0.00  0.00    -0.040 A 
HETATM   10  C   UNK N   1      24.935  18.433   4.455  0.00  0.00     0.008 A 
HETATM   11  C   UNK N   1      26.070  19.128   4.026  0.00  0.00     0.001 A 
HETATM   12  C   UNK N   1      25.938  20.224   3.169  0.00  0.00     0.000 A 
HETATM   13  C   UNK N   1      24.672  20.637   2.753  0.00  0.00     0.001 A 
HETATM   14  C   UNK N   1      23.539  19.936   3.169  0.00  0.00     0.008 A 
ENDBRANCH   5   9
BRANCH   5  15
HETATM   15  C   UNK N   1      22.492  17.545   5.797  0.00  0.00     0.011 C 
HETATM   16  C   UNK N   1      21.183  17.774   6.545  0.00  0.00     0.036 C 
HETATM   17  C   UNK N   1      20.266  16.585   6.343  0.00  0.00     0.273 C 
HETATM   18  N   UNK N   1      20.830  15.427   7.039  0.00  0.00     0.092 N 
HETATM   19  C   UNK N   1      22.091  15.042   6.371  0.00  0.00     0.273 C 
HETATM   20  C   UNK N   1      23.119  16.197   6.209  0.00  0.00     0.036 C 
BRANCH  18  21
HETATM   21  C   UNK N   1      21.024  15.680   8.486  0.00  0.00     0.311 C 
BRANCH  21  22
HETATM   22  C   UNK N   1      21.242  14.401   9.270  0.00  0.00    -0.030 A 
HETATM   23  C   UNK N   1      20.196  13.813   9.994  0.00  0.00     0.009 A 
HETATM   24  C   UNK N   1      20.446  12.699  10.805  0.00  0.00     0.001 A 
HETATM   25  C   UNK N   1      21.741  12.184  10.911  0.00  0.00     0.000 A 
HETATM   26  C   UNK N   1      22.787  12.769  10.192  0.00  0.00     0.001 A 
HETATM   27  C   UNK N   1      22.536  13.873   9.372  0.00  0.00     0.009 A 
ENDBRANCH  21  22
ENDBRANCH  18  21
ENDBRANCH   5  15
BRANCH   3  28
HETATM   28  O   UNK N   1      19.333  16.333   1.863  0.00  0.00    -0.349 OA
HETATM   29  H   UNK N   1      18.731  15.670   2.139  0.00  0.00     0.219 HD
ENDBRANCH   3  28
TORSDOF 5
ENDMDL
MODEL 2
REMARK VINA RESULT:      -7.8     14.044     17.089
REMARK  5 active torsions:
REMARK  status: ('A' for Active; 'I' for Inactive)
REMARK    1  A    between atoms: C_18  and  C_17 
REMARK    2  A    between atoms: N_26  and  C_17 
REMARK    3  A    between atoms: C_23  and  C_19 
REMARK    4  A    between atoms: C_23  and  C_20 
REMARK    5  A    between atoms: O_27  and  C_21 
ROOT
HETATM    1  C   UNK N   1      34.456  11.188  13.144  0.00  0.00     0.086 C 
HETATM    2  C   UNK N   1      34.701  12.271  14.167  0.00  0.00     0.032 C 
HETATM    3  C   UNK N   1      35.369  10.041  13.441  0.00  0.00     0.117 C 
HETATM    4  C   UNK N   1      37.085  11.480  14.119  0.00  0.00     0.237 C 
HETATM    5  C   UNK N   1      36.175  12.722  14.206  0.00  0.00     0.072 C 
HETATM    6  N   UNK N   1      36.586  10.242  13.835  0.00  0.00    -0.310 N 
ATOM      7  HN  UNK N   1      37.202   9.436  13.939  1.00  0.00     0.170 HD
HETATM    8  O   UNK N   1      38.290  11.590  14.305  0.00  0.00    -0.272 OA
ENDROOT
BRANCH   5   9
HETATM    9  C   UNK N   1      36.342  13.521  15.508  0.00  0.00    -0.040 A 
HETATM   10  C   UNK N   1      37.182  14.648  15.574  0.00  0.00     0.008 A 
HETATM   11  C   UNK N   1      37.152  15.493  16.688  0.00  0.00     0.001 A 
HETATM   12  C   UNK N   1      36.282  15.226  17.748  0.00  0.00     0.000 A 
HETATM   13  C   UNK N   1      35.453  14.104  17.704  0.00  0.00     0.001 A 
HETATM   14  C   UNK N   1      35.471  13.267  16.588  0.00  0.00     0.008 A 
ENDBRANCH   5   9
BRANCH   5  15
HETATM   15  C   UNK N   1      36.470  13.738  13.051  0.00  0.00     0.011 C 
HETATM   16  C   UNK N   1      37.161  13.101  11.849  0.00  0.00     0.036 C 
HETATM   17  C   UNK N   1      36.125  12.470  10.941  0.00  0.00     0.273 C 
HETATM   18  N   UNK N   1      35.328  13.529  10.322  0.00  0.00     0.092 N 
HETATM   19  C   UNK N   1      34.538  14.203  11.374  0.00  0.00     0.273 C 
HETATM   20  C   UNK N   1      35.371  14.715  12.584  0.00  0.00     0.036 C 
BRANCH  18  21
HETATM   21  C   UNK N   1      36.160  14.486   9.556  0.00  0.00     0.311 C 
BRANCH  21  22
HETATM   22  C   UNK N   1      35.325  15.464   8.756  0.00  0.00    -0.030 A 
HETATM   23  C   UNK N   1      35.007  15.212   7.415  0.00  0.00     0.009 A 
HETATM   24  C   UNK N   1      34.334  16.182   6.660  0.00  0.00     0.001 A 
HETATM   25  C   UNK N   1      33.997  17.411   7.235  0.00  0.00     0.000 A 
HETATM   26  C   UNK N   1      34.315  17.667   8.572  0.00  0.00     0.001 A 
HETATM   27  C   UNK N   1      34.975  16.695   9.330  0.00  0.00     0.009 A 
ENDBRANCH  21  22
ENDBRANCH  18  21
ENDBRANCH   5  15
BRANCH   3  28
HETATM   28  O   UNK N   1      34.937   8.783  13.236  0.00  0.00    -0.349 OA
HETATM   29  H   UNK N   1      34.109   8.506  13.577  0.00  0.00     0.219 HD
ENDBRANCH   3  28
TORSDOF 5
ENDMDL
MODEL 3
REMARK VINA RESULT:      -7.8      9.715     11.757
REMARK  5 active torsions:
REMARK  status: ('A' for Active; 'I' for Inactive)
REMARK    1  A    between atoms: C_18  and  C_17 
REMARK    2  A    between atoms: N_26  and  C_17 
REMARK    3  A    between atoms: C_23  and  C_19 
REMARK    4  A    between atoms: C_23  and  C_20 
REMARK    5  A    between atoms: O_27  and  C_21 
ROOT
HETATM    1  C   UNK N   1      33.683  16.803   4.893  0.00  0.00     0.086 C 
HETATM    2  C   UNK N   1      32.377  17.480   5.235  0.00  0.00     0.032 C 
HETATM    3  C   UNK N   1      33.381  15.451   4.327  0.00  0.00     0.117 C 
HETATM    4  C   UNK N   1      31.563  15.165   5.773  0.00  0.00     0.237 C 
HETATM    5  C   UNK N   1      31.516  16.646   6.203  0.00  0.00     0.072 C 
HETATM    6  N   UNK N   1      32.425  14.724   4.812  0.00  0.00    -0.310 N 
ATOM      7  HN  UNK N   1      32.312  13.774   4.459  1.00  0.00     0.170 HD
HETATM    8  O   UNK N   1      30.814  14.351   6.297  0.00  0.00    -0.272 OA
ENDROOT
BRANCH   5   9
HETATM    9  C   UNK N   1      30.108  17.259   6.158  0.00  0.00    -0.040 A 
HETATM   10  C   UNK N   1      29.377  17.507   7.335  0.00  0.00     0.008 A 
HETATM   11  C   UNK N   1      28.204  18.266   7.297  0.00  0.00     0.001 A 
HETATM   12  C   UNK N   1      27.745  18.787   6.085  0.00  0.00     0.000 A 
HETATM   13  C   UNK N   1      28.449  18.537   4.906  0.00  0.00     0.001 A 
HETATM   14  C   UNK N   1      29.628  17.791   4.944  0.00  0.00     0.008 A 
ENDBRANCH   5   9
BRANCH   5  15
HETATM   15  C   UNK N   1      32.007  16.835   7.678  0.00  0.00     0.011 C 
HETATM   16  C   UNK N   1      32.558  15.555   8.300  0.00  0.00     0.036 C 
HETATM   17  C   UNK N   1      34.010  15.382   7.907  0.00  0.00     0.273 C 
HETATM   18  N   UNK N   1      34.807  16.419   8.564  0.00  0.00     0.092 N 
HETATM   19  C   UNK N   1      34.425  17.733   8.004  0.00  0.00     0.273 C 
HETATM   20  C   UNK N   1      32.901  18.038   8.045  0.00  0.00     0.036 C 
BRANCH  18  21
HETATM   21  C   UNK N   1      34.671  16.385  10.039  0.00  0.00     0.311 C 
BRANCH  21  22
HETATM   22  C   UNK N   1      35.443  15.240  10.662  0.00  0.00    -0.030 A 
HETATM   23  C   UNK N   1      36.716  14.889  10.193  0.00  0.00     0.009 A 
HETATM   24  C   UNK N   1      37.363  13.757  10.702  0.00  0.00     0.001 A 
HETATM   25  C   UNK N   1      36.733  12.960  11.663  0.00  0.00     0.000 A 
HETATM   26  C   UNK N   1      35.463  13.305  12.132  0.00  0.00     0.001 A 
HETATM   27  C   UNK N   1      34.821  14.443  11.634  0.00  0.00     0.009 A 
ENDBRANCH  21  22
ENDBRANCH  18  21
ENDBRANCH   5  15
BRANCH   3  28
HETATM   28  O   UNK N   1      34.153  14.961   3.341  0.00  0.00    -0.349 OA
HETATM   29  H   UNK N   1      34.482  14.085   3.388  0.00  0.00     0.219 HD
ENDBRANCH   3  28
TORSDOF 5
ENDMDL
MODEL 4
REMARK VINA RESULT:      -7.7     11.067     12.930
REMARK  5 active torsions:
REMARK  status: ('A' for Active; 'I' for Inactive)
REMARK    1  A    between atoms: C_18  and  C_17 
REMARK    2  A    between atoms: N_26  and  C_17 
REMARK    3  A    between atoms: C_23  and  C_19 
REMARK    4  A    between atoms: C_23  and  C_20 
REMARK    5  A    between atoms: O_27  and  C_21 
ROOT
HETATM    1  C   UNK N   1      31.514  16.154   8.602  0.00  0.00     0.086 C 
HETATM    2  C   UNK N   1      31.964  15.754   7.216  0.00  0.00     0.032 C 
HETATM    3  C   UNK N   1      31.632  17.640   8.728  0.00  0.00     0.117 C 
HETATM    4  C   UNK N   1      33.569  17.677   7.416  0.00  0.00     0.237 C 
HETATM    5  C   UNK N   1      33.395  16.233   6.900  0.00  0.00     0.072 C 
HETATM    6  N   UNK N   1      32.631  18.276   8.204  0.00  0.00    -0.310 N 
ATOM      7  HN  UNK N   1      32.721  19.275   8.390  1.00  0.00     0.170 HD
HETATM    8  O   UNK N   1      34.571  18.315   7.120  0.00  0.00    -0.272 OA
ENDROOT
BRANCH   5   9
HETATM    9  C   UNK N   1      33.565  16.094   5.380  0.00  0.00    -0.040 A 
HETATM   10  C   UNK N   1      34.235  14.995   4.813  0.00  0.00     0.008 A 
HETATM   11  C   UNK N   1      34.187  14.764   3.435  0.00  0.00     0.001 A 
HETATM   12  C   UNK N   1      33.468  15.628   2.605  0.00  0.00     0.000 A 
HETATM   13  C   UNK N   1      32.809  16.732   3.149  0.00  0.00     0.001 A 
HETATM   14  C   UNK N   1      32.845  16.955   4.526  0.00  0.00     0.008 A 
ENDBRANCH   5   9
BRANCH   5  15
HETATM   15  C   UNK N   1      34.451  15.263   7.530  0.00  0.00     0.011 C 
HETATM   16  C   UNK N   1      35.302  15.917   8.614  0.00  0.00     0.036 C 
HETATM   17  C   UNK N   1      34.566  15.870   9.937  0.00  0.00     0.273 C 
HETATM   18  N   UNK N   1      34.493  14.480  10.389  0.00  0.00     0.092 N 
HETATM   19  C   UNK N   1      33.630  13.724   9.457  0.00  0.00     0.273 C 
HETATM   20  C   UNK N   1      34.032  13.841   7.960  0.00  0.00     0.036 C 
BRANCH  18  21
HETATM   21  C   UNK N   1      35.832  13.861  10.530  0.00  0.00     0.311 C 
BRANCH  21  22
HETATM   22  C   UNK N   1      36.115  13.415  11.950  0.00  0.00    -0.030 A 
HETATM   23  C   UNK N   1      35.765  14.221  13.041  0.00  0.00     0.009 A 
HETATM   24  C   UNK N   1      36.139  13.846  14.338  0.00  0.00     0.001 A 
HETATM   25  C   UNK N   1      36.881  12.678  14.544  0.00  0.00     0.000 A 
HETATM   26  C   UNK N   1      37.234  11.874  13.458  0.00  0.00     0.001 A 
HETATM   27  C   UNK N   1      36.849  12.241  12.165  0.00  0.00     0.009 A 
ENDBRANCH  21  22
ENDBRANCH  18  21
ENDBRANCH   5  15
BRANCH   3  28
HETATM   28  O   UNK N   1      30.718  18.315   9.448  0.00  0.00    -0.349 OA
HETATM   29  H   UNK N   1      30.396  17.962  10.254  0.00  0.00     0.219 HD
ENDBRANCH   3  28
TORSDOF 5
ENDMDL
MODEL 5
REMARK VINA RESULT:      -7.7      2.090      4.289
REMARK  5 active torsions:
REMARK  status: ('A' for Active; 'I' for Inactive)
REMARK    1  A    between atoms: C_18  and  C_17 
REMARK    2  A    between atoms: N_26  and  C_17 
REMARK    3  A    between atoms: C_23  and  C_19 
REMARK    4  A    between atoms: C_23  and  C_20 
REMARK    5  A    between atoms: O_27  and  C_21 
ROOT
HETATM    1  C   UNK N   1      22.266  17.980   5.628  0.00  0.00     0.086 C 
HETATM    2  C   UNK N   1      21.232  17.601   4.594  0.00  0.00     0.032 C 
HETATM    3  C   UNK N   1      23.609  17.998   4.970  0.00  0.00     0.117 C 
HETATM    4  C   UNK N   1      23.053  16.180   3.605  0.00  0.00     0.237 C 
HETATM    5  C   UNK N   1      21.544  16.252   3.916  0.00  0.00     0.072 C 
HETATM    6  N   UNK N   1      23.930  17.109   4.084  0.00  0.00    -0.310 N 
ATOM      7  HN  UNK N   1      24.885  17.103   3.727  1.00  0.00     0.170 HD
HETATM    8  O   UNK N   1      23.493  15.272   2.913  0.00  0.00    -0.272 OA
ENDROOT
BRANCH   5   9
HETATM    9  C   UNK N   1      20.651  16.187   2.667  0.00  0.00    -0.040 A 
HETATM   10  C   UNK N   1      20.497  17.297   1.816  0.00  0.00     0.008 A 
HETATM   11  C   UNK N   1      19.871  17.160   0.573  0.00  0.00     0.001 A 
HETATM   12  C   UNK N   1      19.393  15.913   0.163  0.00  0.00     0.000 A 
HETATM   13  C   UNK N   1      19.524  14.804   1.002  0.00  0.00     0.001 A 
HETATM   14  C   UNK N   1      20.161  14.937   2.236  0.00  0.00     0.008 A 
ENDBRANCH   5   9
BRANCH   5  15
HETATM   15  C   UNK N   1      21.083  15.061   4.822  0.00  0.00     0.011 C 
HETATM   16  C   UNK N   1      22.241  14.329   5.492  0.00  0.00     0.036 C 
HETATM   17  C   UNK N   1      22.637  15.055   6.761  0.00  0.00     0.273 C 
HETATM   18  N   UNK N   1      21.563  14.913   7.744  0.00  0.00     0.092 N 
HETATM   19  C   UNK N   1      20.374  15.643   7.255  0.00  0.00     0.273 C 
HETATM   20  C   UNK N   1      19.921  15.255   5.819  0.00  0.00     0.036 C 
BRANCH  18  21
HETATM   21  C   UNK N   1      21.258  13.495   8.045  0.00  0.00     0.311 C 
BRANCH  21  22
HETATM   22  C   UNK N   1      21.868  13.039   9.355  0.00  0.00    -0.030 A 
HETATM   23  C   UNK N   1      23.241  12.780   9.459  0.00  0.00     0.009 A 
HETATM   24  C   UNK N   1      23.766  12.248  10.644  0.00  0.00     0.001 A 
HETATM   25  C   UNK N   1      22.919  11.955  11.717  0.00  0.00     0.000 A 
HETATM   26  C   UNK N   1      21.549  12.209  11.616  0.00  0.00     0.001 A 
HETATM   27  C   UNK N   1      21.026  12.752  10.439  0.00  0.00     0.009 A 
ENDBRANCH  21  22
ENDBRANCH  18  21
ENDBRANCH   5  15
BRANCH   3  28
HETATM   28  O   UNK N   1      24.517  18.916   5.349  0.00  0.00    -0.349 OA
HETATM   29  H   UNK N   1      24.771  19.601   4.762  0.00  0.00     0.219 HD
ENDBRANCH   3  28
TORSDOF 5
ENDMDL
MODEL 6
REMARK VINA RESULT:      -7.6     14.343     15.769
REMARK  5 active torsions:
REMARK  status: ('A' for Active; 'I' for Inactive)
REMARK    1  A    between atoms: C_18  and  C_17 
REMARK    2  A    between atoms: N_26  and  C_17 
REMARK    3  A    between atoms: C_23  and  C_19 
REMARK    4  A    between atoms: C_23  and  C_20 
REMARK    5  A    between atoms: O_27  and  C_21 
ROOT
HETATM    1  C   UNK N   1      28.068  25.266  -8.083  0.00  0.00     0.086 C 
HETATM    2  C   UNK N   1      28.054  26.489  -7.195  0.00  0.00     0.032 C 
HETATM    3  C   UNK N   1      26.664  24.975  -8.510  0.00  0.00     0.117 C 
HETATM    4  C   UNK N   1      25.810  25.649  -6.438  0.00  0.00     0.237 C 
HETATM    5  C   UNK N   1      27.120  26.324  -5.980  0.00  0.00     0.072 C 
HETATM    6  N   UNK N   1      25.674  25.120  -7.688  0.00  0.00    -0.310 N 
ATOM      7  HN  UNK N   1      24.746  24.825  -7.990  1.00  0.00     0.170 HD
HETATM    8  O   UNK N   1      24.859  25.577  -5.671  0.00  0.00    -0.272 OA
ENDROOT
BRANCH   5   9
HETATM    9  C   UNK N   1      26.921  27.733  -5.401  0.00  0.00    -0.040 A 
HETATM   10  C   UNK N   1      26.232  27.938  -4.191  0.00  0.00     0.008 A 
HETATM   11  C   UNK N   1      26.253  29.188  -3.564  0.00  0.00     0.001 A 
HETATM   12  C   UNK N   1      26.963  30.247  -4.136  0.00  0.00     0.000 A 
HETATM   13  C   UNK N   1      27.638  30.064  -5.343  0.00  0.00     0.001 A 
HETATM   14  C   UNK N   1      27.629  28.814  -5.963  0.00  0.00     0.008 A 
ENDBRANCH   5   9
BRANCH   5  15
HETATM   15  C   UNK N   1      27.828  25.503  -4.850  0.00  0.00     0.011 C 
HETATM   16  C   UNK N   1      27.429  24.031  -4.831  0.00  0.00     0.036 C 
HETATM   17  C   UNK N   1      28.272  23.262  -5.827  0.00  0.00     0.273 C 
HETATM   18  N   UNK N   1      29.654  23.220  -5.347  0.00  0.00     0.092 N 
HETATM   19  C   UNK N   1      30.206  24.591  -5.374  0.00  0.00     0.273 C 
HETATM   20  C   UNK N   1      29.348  25.651  -4.626  0.00  0.00     0.036 C 
BRANCH  18  21
HETATM   21  C   UNK N   1      29.766  22.604  -4.004  0.00  0.00     0.311 C 
BRANCH  21  22
HETATM   22  C   UNK N   1      30.977  21.702  -3.883  0.00  0.00    -0.030 A 
HETATM   23  C   UNK N   1      31.952  21.932  -2.903  0.00  0.00     0.009 A 
HETATM   24  C   UNK N   1      33.119  21.159  -2.882  0.00  0.00     0.001 A 
HETATM   25  C   UNK N   1      33.326  20.172  -3.850  0.00  0.00     0.000 A 
HETATM   26  C   UNK N   1      32.357  19.941  -4.830  0.00  0.00     0.001 A 
HETATM   27  C   UNK N   1      31.185  20.703  -4.845  0.00  0.00     0.009 A 
ENDBRANCH  21  22
ENDBRANCH  18  21
ENDBRANCH   5  15
BRANCH   3  28
HETATM   28  O   UNK N   1      26.437  24.498  -9.747  0.00  0.00    -0.349 OA
HETATM   29  H   UNK N   1      26.877  24.869 -10.486  0.00  0.00     0.219 HD
ENDBRANCH   3  28
TORSDOF 5
ENDMDL
MODEL 7
REMARK VINA RESULT:      -7.6      9.149     12.126
REMARK  5 active torsions:
REMARK  status: ('A' for Active; 'I' for Inactive)
REMARK    1  A    between atoms: C_18  and  C_17 
REMARK    2  A    between atoms: N_26  and  C_17 
REMARK    3  A    between atoms: C_23  and  C_19 
REMARK    4  A    between atoms: C_23  and  C_20 
REMARK    5  A    between atoms: O_27  and  C_21 
ROOT
HETATM    1  C   UNK N   1      34.308  17.619   7.023  0.00  0.00     0.086 C 
HETATM    2  C   UNK N   1      34.445  16.121   6.882  0.00  0.00     0.032 C 
HETATM    3  C   UNK N   1      34.674  17.997   8.423  0.00  0.00     0.117 C 
HETATM    4  C   UNK N   1      33.719  16.043   9.286  0.00  0.00     0.237 C 
HETATM    5  C   UNK N   1      33.594  15.352   7.912  0.00  0.00     0.072 C 
HETATM    6  N   UNK N   1      34.327  17.256   9.427  0.00  0.00    -0.310 N 
ATOM      7  HN  UNK N   1      34.517  17.596  10.369  1.00  0.00     0.170 HD
HETATM    8  O   UNK N   1      33.265  15.503  10.286  0.00  0.00    -0.272 OA
ENDROOT
BRANCH   5   9
HETATM    9  C   UNK N   1      34.112  13.906   7.898  0.00  0.00    -0.040 A 
HETATM   10  C   UNK N   1      35.471  13.615   7.677  0.00  0.00     0.008 A 
HETATM   11  C   UNK N   1      35.967  12.325   7.889  0.00  0.00     0.001 A 
HETATM   12  C   UNK N   1      35.112  11.309   8.326  0.00  0.00     0.000 A 
HETATM   13  C   UNK N   1      33.759  11.577   8.536  0.00  0.00     0.001 A 
HETATM   14  C   UNK N   1      33.266  12.867   8.338  0.00  0.00     0.008 A 
ENDBRANCH   5   9
BRANCH   5  15
HETATM   15  C   UNK N   1      32.103  15.267   7.441  0.00  0.00     0.011 C 
HETATM   16  C   UNK N   1      31.208  16.329   8.072  0.00  0.00     0.036 C 
HETATM   17  C   UNK N   1      31.316  17.619   7.285  0.00  0.00     0.273 C 
HETATM   18  N   UNK N   1      30.698  17.426   5.972  0.00  0.00     0.092 N 
HETATM   19  C   UNK N   1      31.508  16.455   5.207  0.00  0.00     0.273 C 
HETATM   20  C   UNK N   1      31.776  15.111   5.941  0.00  0.00     0.036 C 
BRANCH  18  21
HETATM   21  C   UNK N   1      29.280  17.007   6.073  0.00  0.00     0.311 C 
BRANCH  21  22
HETATM   22  C   UNK N   1      28.323  18.113   5.676  0.00  0.00    -0.030 A 
HETATM   23  C   UNK N   1      27.927  18.279   4.342  0.00  0.00     0.009 A 
HETATM   24  C   UNK N   1      27.137  19.376   3.977  0.00  0.00     0.001 A 
HETATM   25  C   UNK N   1      26.759  20.320   4.938  0.00  0.00     0.000 A 
HETATM   26  C   UNK N   1      27.154  20.159   6.268  0.00  0.00     0.001 A 
HETATM   27  C   UNK N   1      27.932  19.057   6.636  0.00  0.00     0.009 A 
ENDBRANCH  21  22
ENDBRANCH  18  21
ENDBRANCH   5  15
BRANCH   3  28
HETATM   28  O   UNK N   1      35.321  19.156   8.645  0.00  0.00    -0.349 OA
HETATM   29  H   UNK N   1      35.726  19.320   9.474  0.00  0.00     0.219 HD
ENDBRANCH   3  28
TORSDOF 5
ENDMDL
MODEL 8
REMARK VINA RESULT:      -7.5      2.027      2.717
REMARK  5 active torsions:
REMARK  status: ('A' for Active; 'I' for Inactive)
REMARK    1  A    between atoms: C_18  and  C_17 
REMARK    2  A    between atoms: N_26  and  C_17 
REMARK    3  A    between atoms: C_23  and  C_19 
REMARK    4  A    between atoms: C_23  and  C_20 
REMARK    5  A    between atoms: O_27  and  C_21 
ROOT
HETATM    1  C   UNK N   1      19.929  15.384   4.075  0.00  0.00     0.086 C 
HETATM    2  C   UNK N   1      20.884  16.462   3.621  0.00  0.00     0.032 C 
HETATM    3  C   UNK N   1      19.073  15.940   5.169  0.00  0.00     0.117 C 
HETATM    4  C   UNK N   1      20.846  17.209   6.020  0.00  0.00     0.237 C 
HETATM    5  C   UNK N   1      21.740  17.017   4.777  0.00  0.00     0.072 C 
HETATM    6  N   UNK N   1      19.568  16.733   6.065  0.00  0.00    -0.310 N 
ATOM      7  HN  UNK N   1      18.973  17.017   6.844  1.00  0.00     0.170 HD
HETATM    8  O   UNK N   1      21.280  17.799   7.000  0.00  0.00    -0.272 OA
ENDROOT
BRANCH   5   9
HETATM    9  C   UNK N   1      22.364  18.321   4.257  0.00  0.00    -0.040 A 
HETATM   10  C   UNK N   1      23.742  18.575   4.380  0.00  0.00     0.008 A 
HETATM   11  C   UNK N   1      24.331  19.651   3.709  0.00  0.00     0.001 A 
HETATM   12  C   UNK N   1      23.551  20.487   2.905  0.00  0.00     0.000 A 
HETATM   13  C   UNK N   1      22.179  20.258   2.784  0.00  0.00     0.001 A 
HETATM   14  C   UNK N   1      21.593  19.176   3.442  0.00  0.00     0.008 A 
ENDBRANCH   5   9
BRANCH   5  15
HETATM   15  C   UNK N   1      22.947  16.065   5.073  0.00  0.00     0.011 C 
HETATM   16  C   UNK N   1      22.983  15.566   6.515  0.00  0.00     0.036 C 
HETATM   17  C   UNK N   1      22.079  14.359   6.659  0.00  0.00     0.273 C 
HETATM   18  N   UNK N   1      22.664  13.238   5.922  0.00  0.00     0.092 N 
HETATM   19  C   UNK N   1      22.635  13.553   4.479  0.00  0.00     0.273 C 
HETATM   20  C   UNK N   1      23.281  14.916   4.099  0.00  0.00     0.036 C 
BRANCH  18  21
HETATM   21  C   UNK N   1      24.031  12.908   6.390  0.00  0.00     0.311 C 
BRANCH  21  22
HETATM   22  C   UNK N   1      24.065  12.545   7.860  0.00  0.00    -0.030 A 
HETATM   23  C   UNK N   1      23.161  11.617   8.394  0.00  0.00     0.009 A 
HETATM   24  C   UNK N   1      23.131  11.381   9.775  0.00  0.00     0.001 A 
HETATM   25  C   UNK N   1      23.988  12.086  10.626  0.00  0.00     0.000 A 
HETATM   26  C   UNK N   1      24.889  13.014  10.098  0.00  0.00     0.001 A 
HETATM   27  C   UNK N   1      24.928  13.240   8.719  0.00  0.00     0.009 A 
ENDBRANCH  21  22
ENDBRANCH  18  21
ENDBRANCH   5  15
BRANCH   3  28
HETATM   28  O   UNK N   1      17.785  15.561   5.256  0.00  0.00    -0.349 OA
HETATM   29  H   UNK N   1      17.136  16.160   5.568  0.00  0.00     0.219 HD
ENDBRANCH   3  28
TORSDOF 5
ENDMDL
MODEL 9
REMARK VINA RESULT:      -7.5      2.096      3.624
REMARK  5 active torsions:
REMARK  status: ('A' for Active; 'I' for Inactive)
REMARK    1  A    between atoms: C_18  and  C_17 
REMARK    2  A    between atoms: N_26  and  C_17 
REMARK    3  A    between atoms: C_23  and  C_19 
REMARK    4  A    between atoms: C_23  and  C_20 
REMARK    5  A    between atoms: O_27  and  C_21 
ROOT
HETATM    1  C   UNK N   1      19.976  18.332   3.292  0.00  0.00     0.086 C 
HETATM    2  C   UNK N   1      20.555  17.082   2.672  0.00  0.00     0.032 C 
HETATM    3  C   UNK N   1      21.099  19.271   3.599  0.00  0.00     0.117 C 
HETATM    4  C   UNK N   1      22.524  17.506   4.175  0.00  0.00     0.237 C 
HETATM    5  C   UNK N   1      21.615  16.415   3.571  0.00  0.00     0.072 C 
HETATM    6  N   UNK N   1      22.230  18.833   4.054  0.00  0.00    -0.310 N 
ATOM      7  HN  UNK N   1      22.936  19.513   4.336  1.00  0.00     0.170 HD
HETATM    8  O   UNK N   1      23.539  17.191   4.782  0.00  0.00    -0.272 OA
ENDROOT
BRANCH   5   9
HETATM    9  C   UNK N   1      22.362  15.413   2.678  0.00  0.00    -0.040 A 
HETATM   10  C   UNK N   1      21.690  14.661   1.696  0.00  0.00     0.008 A 
HETATM   11  C   UNK N   1      22.407  13.928   0.746  0.00  0.00     0.001 A 
HETATM   12  C   UNK N   1      23.804  13.936   0.763  0.00  0.00     0.000 A 
HETATM   13  C   UNK N   1      24.486  14.664   1.739  0.00  0.00     0.001 A 
HETATM   14  C   UNK N   1      23.772  15.407   2.680  0.00  0.00     0.008 A 
ENDBRANCH   5   9
BRANCH   5  15
HETATM   15  C   UNK N   1      20.929  15.553   4.684  0.00  0.00     0.011 C 
HETATM   16  C   UNK N   1      21.720  14.302   5.053  0.00  0.00     0.036 C 
HETATM   17  C   UNK N   1      22.784  14.653   6.072  0.00  0.00     0.273 C 
HETATM   18  N   UNK N   1      22.134  14.999   7.336  0.00  0.00     0.092 N 
HETATM   19  C   UNK N   1      21.372  16.251   7.149  0.00  0.00     0.273 C 
HETATM   20  C   UNK N   1      20.376  16.233   5.955  0.00  0.00     0.036 C 
BRANCH  18  21
HETATM   21  C   UNK N   1      21.281  13.902   7.850  0.00  0.00     0.311 C 
BRANCH  21  22
HETATM   22  C   UNK N   1      21.805  13.324   9.149  0.00  0.00    -0.030 A 
HETATM   23  C   UNK N   1      23.162  13.012   9.304  0.00  0.00     0.009 A 
HETATM   24  C   UNK N   1      23.605  12.372  10.467  0.00  0.00     0.001 A 
HETATM   25  C   UNK N   1      22.693  12.022  11.468  0.00  0.00     0.000 A 
HETATM   26  C   UNK N   1      21.339  12.330  11.316  0.00  0.00     0.001 A 
HETATM   27  C   UNK N   1      20.897  12.981  10.161  0.00  0.00     0.009 A 
ENDBRANCH  21  22
ENDBRANCH  18  21
ENDBRANCH   5  15
BRANCH   3  28
HETATM   28  O   UNK N   1      20.909  20.596   3.458  0.00  0.00    -0.349 OA
HETATM   29  H   UNK N   1      21.616  21.150   3.191  0.00  0.00     0.219 HD
ENDBRANCH   3  28
TORSDOF 5
ENDMDL
