MODEL 1
REMARK VINA RESULT:      -7.8      0.000      0.000
REMARK  10 active torsions:
REMARK  status: ('A' for Active; 'I' for Inactive)
REMARK    1  A    between atoms: C_30  and  C_20 
REMARK    2  A    between atoms: N_32  and  C_20 
REMARK    3  A    between atoms: C_29  and  C_21 
REMARK    4  A    between atoms: O_33  and  C_21 
REMARK    5  A    between atoms: C_23  and  C_22 
REMARK    6  A    between atoms: C_29  and  C_24 
REMARK    7  A    between atoms: C_30  and  C_25 
REMARK    8  A    between atoms: C_28  and  O_36 
REMARK    9  A    between atoms: C_29  and  C_31 
REMARK   10  A    between atoms: O_36  and  C_31 
ROOT
HETATM    1  C   UNK N   1      27.322  26.854  -3.311  0.00  0.00     0.274 C 
HETATM    2  C   UNK N   1      26.419  28.584  -5.309  0.00  0.00     0.036 C 
HETATM    3  C   UNK N   1      27.794  28.191  -5.847  0.00  0.00     0.036 C 
HETATM    4  C   UNK N   1      25.145  26.904  -6.427  0.00  0.00     0.066 C 
HETATM    5  C   UNK N   1      27.439  26.029  -7.043  0.00  0.00     0.066 C 
HETATM    6  C   UNK N   1      25.749  27.238  -5.044  0.00  0.00     0.193 C 
HETATM    7  C   UNK N   1      27.847  26.666  -5.683  0.00  0.00     0.193 C 
HETATM    8  C   UNK N   1      25.916  25.863  -7.242  0.00  0.00     0.136 C 
HETATM    9  N   UNK N   1      26.862  26.353  -4.616  0.00  0.00    -0.055 N 
ENDROOT
BRANCH   9  10
HETATM   10  C   UNK N   1      26.517  24.919  -4.368  0.00  0.00     0.321 C 
BRANCH  10  11
HETATM   11  C   UNK N   1      27.410  24.199  -3.350  0.00  0.00     0.185 C 
HETATM   12  O   UNK N   1      26.957  23.924  -2.249  0.00  0.00    -0.290 OA
BRANCH  11  13
HETATM   13  C   UNK N   1      28.733  23.675  -3.741  0.00  0.00     0.011 A 
HETATM   14  C   UNK N   1      28.903  23.116  -5.005  0.00  0.00     0.016 A 
HETATM   15  C   UNK N   1      30.024  22.362  -5.302  0.00  0.00     0.013 A 
HETATM   16  C   UNK N   1      31.005  22.141  -4.332  0.00  0.00    -0.026 A 
HETATM   17  C   UNK N   1      30.884  22.766  -3.077  0.00  0.00     0.013 A 
HETATM   18  C   UNK N   1      29.751  23.538  -2.784  0.00  0.00     0.016 A 
BRANCH  16  19
HETATM   19  C   UNK N   1      32.090  21.179  -4.621  0.00  0.00    -0.026 A 
HETATM   20  C   UNK N   1      33.074  20.927  -3.648  0.00  0.00     0.012 A 
HETATM   21  C   UNK N   1      34.145  20.078  -3.923  0.00  0.00     0.001 A 
HETATM   22  C   UNK N   1      34.247  19.473  -5.177  0.00  0.00     0.000 A 
HETATM   23  C   UNK N   1      33.277  19.718  -6.154  0.00  0.00     0.001 A 
HETATM   24  C   UNK N   1      32.203  20.572  -5.880  0.00  0.00     0.012 A 
ENDBRANCH  16  19
ENDBRANCH  11  13
ENDBRANCH  10  11
ENDBRANCH   9  10
BRANCH   8  25
HETATM   25  O   UNK N   1      25.519  24.611  -6.816  0.00  0.00    -0.315 OA
BRANCH  25  26
HETATM   26  C   UNK N   1      25.382  23.510  -7.613  0.00  0.00     0.270 C 
HETATM   27  O   UNK N   1      24.809  23.630  -8.681  0.00  0.00    -0.264 OA
BRANCH  26  28
HETATM   28  C   UNK N   1      25.975  22.165  -7.229  0.00  0.00     0.142 C 
BRANCH  28  29
HETATM   29  C   UNK N   1      24.907  21.096  -7.478  0.00  0.00     0.183 C 
BRANCH  29  30
HETATM   30  O   UNK N   1      23.706  21.410  -6.842  0.00  0.00    -0.400 OA
HETATM   31  H   UNK N   1      22.880  20.903  -6.821  0.00  0.00     0.209 HD
ENDBRANCH  29  30
ENDBRANCH  28  29
BRANCH  28  32
HETATM   32  C   UNK N   1      27.284  21.855  -7.939  0.00  0.00    -0.043 A 
HETATM   33  C   UNK N   1      27.814  20.557  -7.858  0.00  0.00     0.008 A 
HETATM   34  C   UNK N   1      29.057  20.259  -8.420  0.00  0.00     0.001 A 
HETATM   35  C   UNK N   1      29.792  21.258  -9.063  0.00  0.00     0.000 A 
HETATM   36  C   UNK N   1      29.275  22.553  -9.156  0.00  0.00     0.001 A 
HETATM   37  C   UNK N   1      28.029  22.850  -8.599  0.00  0.00     0.008 A 
ENDBRANCH  28  32
ENDBRANCH  26  28
ENDBRANCH  25  26
ENDBRANCH   8  25
TORSDOF 10
ENDMDL
MODEL 2
REMARK VINA RESULT:      -7.8      2.436      5.574
REMARK  10 active torsions:
REMARK  status: ('A' for Active; 'I' for Inactive)
REMARK    1  A    between atoms: C_30  and  C_20 
REMARK    2  A    between atoms: N_32  and  C_20 
REMARK    3  A    between atoms: C_29  and  C_21 
REMARK    4  A    between atoms: O_33  and  C_21 
REMARK    5  A    between atoms: C_23  and  C_22 
REMARK    6  A    between atoms: C_29  and  C_24 
REMARK    7  A    between atoms: C_30  and  C_25 
REMARK    8  A    between atoms: C_28  and  O_36 
REMARK    9  A    between atoms: C_29  and  C_31 
REMARK   10  A    between atoms: O_36  and  C_31 
ROOT
HETATM    1  C   UNK N   1      27.688  29.545  -4.658  0.00  0.00     0.274 C 
HETATM    2  C   UNK N   1      29.491  28.656  -6.597  0.00  0.00     0.036 C 
HETATM    3  C   UNK N   1      30.438  29.181  -5.520  0.00  0.00     0.036 C 
HETATM    4  C   UNK N   1      29.412  26.383  -5.874  0.00  0.00     0.066 C 
HETATM    5  C   UNK N   1      30.691  27.305  -3.894  0.00  0.00     0.066 C 
HETATM    6  C   UNK N   1      28.589  27.692  -5.830  0.00  0.00     0.193 C 
HETATM    7  C   UNK N   1      29.888  28.600  -4.211  0.00  0.00     0.193 C 
HETATM    8  C   UNK N   1      30.149  26.031  -4.580  0.00  0.00     0.136 C 
HETATM    9  N   UNK N   1      28.459  28.305  -4.483  0.00  0.00    -0.055 N 
ENDROOT
BRANCH   9  10
HETATM   10  C   UNK N   1      27.689  27.523  -3.466  0.00  0.00     0.321 C 
BRANCH  10  11
HETATM   11  C   UNK N   1      26.210  27.296  -3.800  0.00  0.00     0.185 C 
HETATM   12  O   UNK N   1      25.371  28.056  -3.339  0.00  0.00    -0.290 OA
BRANCH  11  13
HETATM   13  C   UNK N   1      25.806  26.296  -4.807  0.00  0.00     0.011 A 
HETATM   14  C   UNK N   1      25.857  24.941  -4.487  0.00  0.00     0.016 A 
HETATM   15  C   UNK N   1      25.771  23.976  -5.474  0.00  0.00     0.013 A 
HETATM   16  C   UNK N   1      25.638  24.345  -6.815  0.00  0.00    -0.026 A 
HETATM   17  C   UNK N   1      25.504  25.708  -7.143  0.00  0.00     0.013 A 
HETATM   18  C   UNK N   1      25.583  26.682  -6.137  0.00  0.00     0.016 A 
BRANCH  16  19
HETATM   19  C   UNK N   1      25.740  23.301  -7.856  0.00  0.00    -0.026 A 
HETATM   20  C   UNK N   1      25.326  21.988  -7.569  0.00  0.00     0.012 A 
HETATM   21  C   UNK N   1      25.478  20.972  -8.511  0.00  0.00     0.001 A 
HETATM   22  C   UNK N   1      26.051  21.255  -9.752  0.00  0.00     0.000 A 
HETATM   23  C   UNK N   1      26.470  22.556 -10.049  0.00  0.00     0.001 A 
HETATM   24  C   UNK N   1      26.321  23.576  -9.102  0.00  0.00     0.012 A 
ENDBRANCH  16  19
ENDBRANCH  11  13
ENDBRANCH  10  11
ENDBRANCH   9  10
BRANCH   8  25
HETATM   25  O   UNK N   1      29.256  25.389  -3.744  0.00  0.00    -0.315 OA
BRANCH  25  26
HETATM   26  C   UNK N   1      29.278  24.058  -3.435  0.00  0.00     0.270 C 
HETATM   27  O   UNK N   1      28.329  23.582  -2.838  0.00  0.00    -0.264 OA
BRANCH  26  28
HETATM   28  C   UNK N   1      30.420  23.156  -3.867  0.00  0.00     0.142 C 
BRANCH  28  29
HETATM   29  C   UNK N   1      30.904  22.391  -2.631  0.00  0.00     0.183 C 
BRANCH  29  30
HETATM   30  O   UNK N   1      30.587  23.064  -1.452  0.00  0.00    -0.400 OA
HETATM   31  H   UNK N   1      30.122  22.732  -0.669  0.00  0.00     0.209 HD
ENDBRANCH  29  30
ENDBRANCH  28  29
BRANCH  28  32
HETATM   32  C   UNK N   1      30.058  22.229  -5.019  0.00  0.00    -0.043 A 
HETATM   33  C   UNK N   1      30.722  20.998  -5.138  0.00  0.00     0.008 A 
HETATM   34  C   UNK N   1      30.481  20.163  -6.232  0.00  0.00     0.001 A 
HETATM   35  C   UNK N   1      29.580  20.553  -7.225  0.00  0.00     0.000 A 
HETATM   36  C   UNK N   1      28.909  21.773  -7.117  0.00  0.00     0.001 A 
HETATM   37  C   UNK N   1      29.145  22.606  -6.021  0.00  0.00     0.008 A 
ENDBRANCH  28  32
ENDBRANCH  26  28
ENDBRANCH  25  26
ENDBRANCH   8  25
TORSDOF 10
ENDMDL
MODEL 3
REMARK VINA RESULT:      -7.6     11.867     14.899
REMARK  10 active torsions:
REMARK  status: ('A' for Active; 'I' for Inactive)
REMARK    1  A    between atoms: C_30  and  C_20 
REMARK    2  A    between atoms: N_32  and  C_20 
REMARK    3  A    between atoms: C_29  and  C_21 
REMARK    4  A    between atoms: O_33  and  C_21 
REMARK    5  A    between atoms: C_23  and  C_22 
REMARK    6  A    between atoms: C_29  and  C_24 
REMARK    7  A    between atoms: C_30  and  C_25 
REMARK    8  A    between atoms: C_28  and  O_36 
REMARK    9  A    between atoms: C_29  and  C_31 
REMARK   10  A    between atoms: O_36  and  C_31 
ROOT
HETATM    1  C   UNK N   1      31.973  13.247   3.878  0.00  0.00     0.274 C 
HETATM    2  C   UNK N   1      34.008  15.144   4.132  0.00  0.00     0.036 C 
HETATM    3  C   UNK N   1      33.171  15.746   3.005  0.00  0.00     0.036 C 
HETATM    4  C   UNK N   1      32.958  16.277   5.951  0.00  0.00     0.066 C 
HETATM    5  C   UNK N   1      31.345  17.011   4.143  0.00  0.00     0.066 C 
HETATM    6  C   UNK N   1      32.984  14.905   5.239  0.00  0.00     0.193 C 
HETATM    7  C   UNK N   1      31.725  15.642   3.505  0.00  0.00     0.193 C 
HETATM    8  C   UNK N   1      31.751  17.160   5.626  0.00  0.00     0.136 C 
HETATM    9  N   UNK N   1      31.736  14.553   4.514  0.00  0.00    -0.055 N 
ENDROOT
BRANCH   9  10
HETATM   10  C   UNK N   1      30.513  14.348   5.351  0.00  0.00     0.321 C 
BRANCH  10  11
HETATM   11  C   UNK N   1      29.222  14.086   4.566  0.00  0.00     0.185 C 
HETATM   12  O   UNK N   1      29.011  12.968   4.120  0.00  0.00    -0.290 OA
BRANCH  11  13
HETATM   13  C   UNK N   1      28.156  15.105   4.501  0.00  0.00     0.011 A 
HETATM   14  C   UNK N   1      27.284  15.255   5.577  0.00  0.00     0.016 A 
HETATM   15  C   UNK N   1      26.113  15.979   5.444  0.00  0.00     0.013 A 
HETATM   16  C   UNK N   1      25.780  16.569   4.223  0.00  0.00    -0.026 A 
HETATM   17  C   UNK N   1      26.691  16.493   3.152  0.00  0.00     0.013 A 
HETATM   18  C   UNK N   1      27.881  15.766   3.294  0.00  0.00     0.016 A 
BRANCH  16  19
HETATM   19  C   UNK N   1      24.439  17.170   4.062  0.00  0.00    -0.026 A 
HETATM   20  C   UNK N   1      23.319  16.338   3.888  0.00  0.00     0.012 A 
HETATM   21  C   UNK N   1      22.056  16.884   3.665  0.00  0.00     0.001 A 
HETATM   22  C   UNK N   1      21.898  18.269   3.608  0.00  0.00     0.000 A 
HETATM   23  C   UNK N   1      23.004  19.108   3.776  0.00  0.00     0.001 A 
HETATM   24  C   UNK N   1      24.273  18.561   3.998  0.00  0.00     0.012 A 
ENDBRANCH  16  19
ENDBRANCH  11  13
ENDBRANCH  10  11
ENDBRANCH   9  10
BRANCH   8  25
HETATM   25  O   UNK N   1      30.707  16.767   6.443  0.00  0.00    -0.315 OA
BRANCH  25  26
HETATM   26  C   UNK N   1      30.186  17.503   7.469  0.00  0.00     0.270 C 
HETATM   27  O   UNK N   1      30.949  17.995   8.281  0.00  0.00    -0.264 OA
BRANCH  26  28
HETATM   28  C   UNK N   1      28.695  17.767   7.587  0.00  0.00     0.142 C 
BRANCH  28  29
HETATM   29  C   UNK N   1      28.386  18.053   9.059  0.00  0.00     0.183 C 
BRANCH  29  30
HETATM   30  O   UNK N   1      27.391  17.206   9.549  0.00  0.00    -0.400 OA
HETATM   31  H   UNK N   1      26.970  16.450   9.114  0.00  0.00     0.209 HD
ENDBRANCH  29  30
ENDBRANCH  28  29
BRANCH  28  32
HETATM   32  C   UNK N   1      28.201  18.873   6.664  0.00  0.00    -0.043 A 
HETATM   33  C   UNK N   1      27.439  19.921   7.203  0.00  0.00     0.008 A 
HETATM   34  C   UNK N   1      26.893  20.903   6.374  0.00  0.00     0.001 A 
HETATM   35  C   UNK N   1      27.094  20.845   4.993  0.00  0.00     0.000 A 
HETATM   36  C   UNK N   1      27.854  19.810   4.443  0.00  0.00     0.001 A 
HETATM   37  C   UNK N   1      28.406  18.830   5.273  0.00  0.00     0.008 A 
ENDBRANCH  28  32
ENDBRANCH  26  28
ENDBRANCH  25  26
ENDBRANCH   8  25
TORSDOF 10
ENDMDL
MODEL 4
REMARK VINA RESULT:      -7.3     17.166     21.038
REMARK  10 active torsions:
REMARK  status: ('A' for Active; 'I' for Inactive)
REMARK    1  A    between atoms: C_30  and  C_20 
REMARK    2  A    between atoms: N_32  and  C_20 
REMARK    3  A    between atoms: C_29  and  C_21 
REMARK    4  A    between atoms: O_33  and  C_21 
REMARK    5  A    between atoms: C_23  and  C_22 
REMARK    6  A    between atoms: C_29  and  C_24 
REMARK    7  A    between atoms: C_30  and  C_25 
REMARK    8  A    between atoms: C_28  and  O_36 
REMARK    9  A    between atoms: C_29  and  C_31 
REMARK   10  A    between atoms: O_36  and  C_31 
ROOT
HETATM    1  C   UNK N   1      37.869  13.112  10.979  0.00  0.00     0.274 C 
HETATM    2  C   UNK N   1      37.841  11.950   8.439  0.00  0.00     0.036 C 
HETATM    3  C   UNK N   1      36.789  11.115   9.167  0.00  0.00     0.036 C 
HETATM    4  C   UNK N   1      36.368  13.588   7.519  0.00  0.00     0.066 C 
HETATM    5  C   UNK N   1      34.672  12.427   8.996  0.00  0.00     0.066 C 
HETATM    6  C   UNK N   1      37.374  13.385   8.676  0.00  0.00     0.193 C 
HETATM    7  C   UNK N   1      35.915  12.147   9.891  0.00  0.00     0.193 C 
HETATM    8  C   UNK N   1      34.892  13.508   7.914  0.00  0.00     0.136 C 
HETATM    9  N   UNK N   1      36.769  13.353  10.033  0.00  0.00    -0.055 N 
ENDROOT
BRANCH   9  10
HETATM   10  C   UNK N   1      36.133  14.621  10.510  0.00  0.00     0.321 C 
BRANCH  10  11
HETATM   11  C   UNK N   1      35.110  14.453  11.639  0.00  0.00     0.185 C 
HETATM   12  O   UNK N   1      33.939  14.732  11.430  0.00  0.00    -0.290 OA
BRANCH  11  13
HETATM   13  C   UNK N   1      35.482  13.791  12.905  0.00  0.00     0.011 A 
HETATM   14  C   UNK N   1      34.828  12.622  13.285  0.00  0.00     0.016 A 
HETATM   15  C   UNK N   1      34.935  12.138  14.577  0.00  0.00     0.013 A 
HETATM   16  C   UNK N   1      35.698  12.821  15.527  0.00  0.00    -0.026 A 
HETATM   17  C   UNK N   1      36.428  13.958  15.134  0.00  0.00     0.013 A 
HETATM   18  C   UNK N   1      36.324  14.439  13.821  0.00  0.00     0.016 A 
BRANCH  16  19
HETATM   19  C   UNK N   1      35.637  12.384  16.939  0.00  0.00    -0.026 A 
HETATM   20  C   UNK N   1      35.871  11.035  17.261  0.00  0.00     0.012 A 
HETATM   21  C   UNK N   1      35.750  10.588  18.576  0.00  0.00     0.001 A 
HETATM   22  C   UNK N   1      35.389  11.482  19.584  0.00  0.00     0.000 A 
HETATM   23  C   UNK N   1      35.151  12.825  19.276  0.00  0.00     0.001 A 
HETATM   24  C   UNK N   1      35.270  13.276  17.956  0.00  0.00     0.012 A 
ENDBRANCH  16  19
ENDBRANCH  11  13
ENDBRANCH  10  11
ENDBRANCH   9  10
BRANCH   8  25
HETATM   25  O   UNK N   1      34.515  14.745   8.400  0.00  0.00    -0.315 OA
BRANCH  25  26
HETATM   26  C   UNK N   1      33.257  15.272   8.330  0.00  0.00     0.270 C 
HETATM   27  O   UNK N   1      32.303  14.532   8.493  0.00  0.00    -0.264 OA
BRANCH  26  28
HETATM   28  C   UNK N   1      33.023  16.757   8.114  0.00  0.00     0.142 C 
BRANCH  28  29
HETATM   29  C   UNK N   1      34.286  17.499   8.562  0.00  0.00     0.183 C 
BRANCH  29  30
HETATM   30  O   UNK N   1      34.472  17.413   9.942  0.00  0.00    -0.400 OA
HETATM   31  H   UNK N   1      34.831  16.677  10.460  0.00  0.00     0.209 HD
ENDBRANCH  29  30
ENDBRANCH  28  29
BRANCH  28  32
HETATM   32  C   UNK N   1      32.618  17.106   6.689  0.00  0.00    -0.043 A 
HETATM   33  C   UNK N   1      31.260  17.076   6.338  0.00  0.00     0.008 A 
HETATM   34  C   UNK N   1      30.860  17.301   5.019  0.00  0.00     0.001 A 
HETATM   35  C   UNK N   1      31.815  17.552   4.031  0.00  0.00     0.000 A 
HETATM   36  C   UNK N   1      33.170  17.590   4.367  0.00  0.00     0.001 A 
HETATM   37  C   UNK N   1      33.571  17.370   5.687  0.00  0.00     0.008 A 
ENDBRANCH  28  32
ENDBRANCH  26  28
ENDBRANCH  25  26
ENDBRANCH   8  25
TORSDOF 10
ENDMDL
MODEL 5
REMARK VINA RESULT:      -7.2     17.506     22.152
REMARK  10 active torsions:
REMARK  status: ('A' for Active; 'I' for Inactive)
REMARK    1  A    between atoms: C_30  and  C_20 
REMARK    2  A    between atoms: N_32  and  C_20 
REMARK    3  A    between atoms: C_29  and  C_21 
REMARK    4  A    between atoms: O_33  and  C_21 
REMARK    5  A    between atoms: C_23  and  C_22 
REMARK    6  A    between atoms: C_29  and  C_24 
REMARK    7  A    between atoms: C_30  and  C_25 
REMARK    8  A    between atoms: C_28  and  O_36 
REMARK    9  A    between atoms: C_29  and  C_31 
REMARK   10  A    between atoms: O_36  and  C_31 
ROOT
HETATM    1  C   UNK N   1      36.197  14.269   8.567  0.00  0.00     0.274 C 
HETATM    2  C   UNK N   1      36.613  11.515   8.786  0.00  0.00     0.036 C 
HETATM    3  C   UNK N   1      37.967  12.063   9.232  0.00  0.00     0.036 C 
HETATM    4  C   UNK N   1      35.604  11.363  10.944  0.00  0.00     0.066 C 
HETATM    5  C   UNK N   1      37.699  12.590  11.657  0.00  0.00     0.066 C 
HETATM    6  C   UNK N   1      35.624  12.256   9.683  0.00  0.00     0.193 C 
HETATM    7  C   UNK N   1      37.620  13.184  10.221  0.00  0.00     0.193 C 
HETATM    8  C   UNK N   1      36.405  11.893  12.134  0.00  0.00     0.136 C 
HETATM    9  N   UNK N   1      36.236  13.596   9.875  0.00  0.00    -0.055 N 
ENDROOT
BRANCH   9  10
HETATM   10  C   UNK N   1      35.522  14.530  10.800  0.00  0.00     0.321 C 
BRANCH  10  11
HETATM   11  C   UNK N   1      35.263  15.934  10.238  0.00  0.00     0.185 C 
HETATM   12  O   UNK N   1      36.116  16.798  10.376  0.00  0.00    -0.290 OA
BRANCH  11  13
HETATM   13  C   UNK N   1      34.092  16.202   9.381  0.00  0.00     0.011 A 
HETATM   14  C   UNK N   1      34.002  17.415   8.703  0.00  0.00     0.016 A 
HETATM   15  C   UNK N   1      32.809  17.823   8.134  0.00  0.00     0.013 A 
HETATM   16  C   UNK N   1      31.667  17.025   8.237  0.00  0.00    -0.026 A 
HETATM   17  C   UNK N   1      31.765  15.761   8.849  0.00  0.00     0.013 A 
HETATM   18  C   UNK N   1      32.979  15.348   9.416  0.00  0.00     0.016 A 
BRANCH  16  19
HETATM   19  C   UNK N   1      30.370  17.573   7.787  0.00  0.00    -0.026 A 
HETATM   20  C   UNK N   1      29.961  17.387   6.454  0.00  0.00     0.012 A 
HETATM   21  C   UNK N   1      28.775  17.954   5.989  0.00  0.00     0.001 A 
HETATM   22  C   UNK N   1      27.987  18.719   6.849  0.00  0.00     0.000 A 
HETATM   23  C   UNK N   1      28.385  18.915   8.175  0.00  0.00     0.001 A 
HETATM   24  C   UNK N   1      29.576  18.348   8.643  0.00  0.00     0.012 A 
ENDBRANCH  16  19
ENDBRANCH  11  13
ENDBRANCH  10  11
ENDBRANCH   9  10
BRANCH   8  25
HETATM   25  O   UNK N   1      35.608  12.793  12.815  0.00  0.00    -0.315 OA
BRANCH  25  26
HETATM   26  C   UNK N   1      35.309  12.736  14.146  0.00  0.00     0.270 C 
HETATM   27  O   UNK N   1      34.150  12.557  14.477  0.00  0.00    -0.264 OA
BRANCH  26  28
HETATM   28  C   UNK N   1      36.385  12.830  15.213  0.00  0.00     0.142 C 
BRANCH  28  29
HETATM   29  C   UNK N   1      36.827  14.294  15.304  0.00  0.00     0.183 C 
BRANCH  29  30
HETATM   30  O   UNK N   1      36.841  14.906  14.050  0.00  0.00    -0.400 OA
HETATM   31  H   UNK N   1      36.200  15.524  13.670  0.00  0.00     0.209 HD
ENDBRANCH  29  30
ENDBRANCH  28  29
BRANCH  28  32
HETATM   32  C   UNK N   1      35.954  12.269  16.561  0.00  0.00    -0.043 A 
HETATM   33  C   UNK N   1      35.474  13.149  17.544  0.00  0.00     0.008 A 
HETATM   34  C   UNK N   1      35.155  12.683  18.821  0.00  0.00     0.001 A 
HETATM   35  C   UNK N   1      35.321  11.332  19.135  0.00  0.00     0.000 A 
HETATM   36  C   UNK N   1      35.793  10.444  18.166  0.00  0.00     0.001 A 
HETATM   37  C   UNK N   1      36.107  10.909  16.886  0.00  0.00     0.008 A 
ENDBRANCH  28  32
ENDBRANCH  26  28
ENDBRANCH  25  26
ENDBRANCH   8  25
TORSDOF 10
ENDMDL
MODEL 6
REMARK VINA RESULT:      -7.1     14.654     18.928
REMARK  10 active torsions:
REMARK  status: ('A' for Active; 'I' for Inactive)
REMARK    1  A    between atoms: C_30  and  C_20 
REMARK    2  A    between atoms: N_32  and  C_20 
REMARK    3  A    between atoms: C_29  and  C_21 
REMARK    4  A    between atoms: O_33  and  C_21 
REMARK    5  A    between atoms: C_23  and  C_22 
REMARK    6  A    between atoms: C_29  and  C_24 
REMARK    7  A    between atoms: C_30  and  C_25 
REMARK    8  A    between atoms: C_28  and  O_36 
REMARK    9  A    between atoms: C_29  and  C_31 
REMARK   10  A    between atoms: O_36  and  C_31 
ROOT
HETATM    1  C   UNK N   1      35.804  14.943  12.464  0.00  0.00     0.274 C 
HETATM    2  C   UNK N   1      36.518  12.265  12.806  0.00  0.00     0.036 C 
HETATM    3  C   UNK N   1      35.074  12.135  12.325  0.00  0.00     0.036 C 
HETATM    4  C   UNK N   1      37.581  12.099  10.675  0.00  0.00     0.066 C 
HETATM    5  C   UNK N   1      35.198  12.234   9.834  0.00  0.00     0.066 C 
HETATM    6  C   UNK N   1      37.165  13.143  11.737  0.00  0.00     0.193 C 
HETATM    7  C   UNK N   1      34.985  13.083  11.122  0.00  0.00     0.193 C 
HETATM    8  C   UNK N   1      36.677  12.024   9.443  0.00  0.00     0.136 C 
HETATM    9  N   UNK N   1      36.081  14.066  11.316  0.00  0.00    -0.055 N 
ENDROOT
BRANCH   9  10
HETATM   10  C   UNK N   1      36.400  15.003  10.194  0.00  0.00     0.321 C 
BRANCH  10  11
HETATM   11  C   UNK N   1      35.538  16.271  10.138  0.00  0.00     0.185 C 
HETATM   12  O   UNK N   1      35.935  17.287  10.689  0.00  0.00    -0.290 OA
BRANCH  11  13
HETATM   13  C   UNK N   1      34.339  16.333   9.280  0.00  0.00     0.011 A 
HETATM   14  C   UNK N   1      34.180  17.400   8.399  0.00  0.00     0.016 A 
HETATM   15  C   UNK N   1      32.958  17.649   7.801  0.00  0.00     0.013 A 
HETATM   16  C   UNK N   1      31.856  16.835   8.076  0.00  0.00    -0.026 A 
HETATM   17  C   UNK N   1      32.024  15.707   8.901  0.00  0.00     0.013 A 
HETATM   18  C   UNK N   1      33.267  15.453   9.497  0.00  0.00     0.016 A 
BRANCH  16  19
HETATM   19  C   UNK N   1      30.527  17.240   7.572  0.00  0.00    -0.026 A 
HETATM   20  C   UNK N   1      29.505  17.561   8.484  0.00  0.00     0.012 A 
HETATM   21  C   UNK N   1      28.224  17.877   8.033  0.00  0.00     0.001 A 
HETATM   22  C   UNK N   1      27.947  17.870   6.665  0.00  0.00     0.000 A 
HETATM   23  C   UNK N   1      28.954  17.549   5.749  0.00  0.00     0.001 A 
HETATM   24  C   UNK N   1      30.239  17.230   6.200  0.00  0.00     0.012 A 
ENDBRANCH  16  19
ENDBRANCH  11  13
ENDBRANCH  10  11
ENDBRANCH   9  10
BRANCH   8  25
HETATM   25  O   UNK N   1      37.078  13.012   8.563  0.00  0.00    -0.315 OA
BRANCH  25  26
HETATM   26  C   UNK N   1      36.873  12.999   7.212  0.00  0.00     0.270 C 
HETATM   27  O   UNK N   1      36.952  11.938   6.620  0.00  0.00    -0.264 OA
BRANCH  26  28
HETATM   28  C   UNK N   1      36.493  14.256   6.449  0.00  0.00     0.142 C 
BRANCH  28  29
HETATM   29  C   UNK N   1      37.379  14.331   5.202  0.00  0.00     0.183 C 
BRANCH  29  30
HETATM   30  O   UNK N   1      38.720  14.095   5.508  0.00  0.00    -0.400 OA
HETATM   31  H   UNK N   1      39.272  14.520   6.181  0.00  0.00     0.209 HD
ENDBRANCH  29  30
ENDBRANCH  28  29
BRANCH  28  32
HETATM   32  C   UNK N   1      35.011  14.338   6.115  0.00  0.00    -0.043 A 
HETATM   33  C   UNK N   1      34.146  13.343   6.597  0.00  0.00     0.008 A 
HETATM   34  C   UNK N   1      32.797  13.336   6.236  0.00  0.00     0.001 A 
HETATM   35  C   UNK N   1      32.297  14.320   5.379  0.00  0.00     0.000 A 
HETATM   36  C   UNK N   1      33.145  15.318   4.894  0.00  0.00     0.001 A 
HETATM   37  C   UNK N   1      34.493  15.329   5.260  0.00  0.00     0.008 A 
ENDBRANCH  28  32
ENDBRANCH  26  28
ENDBRANCH  25  26
ENDBRANCH   8  25
TORSDOF 10
ENDMDL
MODEL 7
REMARK VINA RESULT:      -7.1      2.518      4.142
REMARK  10 active torsions:
REMARK  status: ('A' for Active; 'I' for Inactive)
REMARK    1  A    between atoms: C_30  and  C_20 
REMARK    2  A    between atoms: N_32  and  C_20 
REMARK    3  A    between atoms: C_29  and  C_21 
REMARK    4  A    between atoms: O_33  and  C_21 
REMARK    5  A    between atoms: C_23  and  C_22 
REMARK    6  A    between atoms: C_29  and  C_24 
REMARK    7  A    between atoms: C_30  and  C_25 
REMARK    8  A    between atoms: C_28  and  O_36 
REMARK    9  A    between atoms: C_29  and  C_31 
REMARK   10  A    between atoms: O_36  and  C_31 
ROOT
HETATM    1  C   UNK N   1      27.975  29.321  -4.279  0.00  0.00     0.274 C 
HETATM    2  C   UNK N   1      25.541  27.951  -4.308  0.00  0.00     0.036 C 
HETATM    3  C   UNK N   1      25.986  27.809  -5.762  0.00  0.00     0.036 C 
HETATM    4  C   UNK N   1      26.480  25.917  -3.485  0.00  0.00     0.066 C 
HETATM    5  C   UNK N   1      27.517  25.839  -5.793  0.00  0.00     0.066 C 
HETATM    6  C   UNK N   1      26.745  27.440  -3.521  0.00  0.00     0.193 C 
HETATM    7  C   UNK N   1      27.459  27.390  -5.672  0.00  0.00     0.193 C 
HETATM    8  C   UNK N   1      27.316  25.085  -4.460  0.00  0.00     0.136 C 
HETATM    9  N   UNK N   1      27.917  27.852  -4.337  0.00  0.00    -0.055 N 
ENDROOT
BRANCH   9  10
HETATM   10  C   UNK N   1      29.259  27.403  -3.853  0.00  0.00     0.321 C 
BRANCH  10  11
HETATM   11  C   UNK N   1      30.443  27.813  -4.737  0.00  0.00     0.185 C 
HETATM   12  O   UNK N   1      30.792  28.984  -4.760  0.00  0.00    -0.290 OA
BRANCH  11  13
HETATM   13  C   UNK N   1      31.274  26.795  -5.409  0.00  0.00     0.011 A 
HETATM   14  C   UNK N   1      30.912  26.340  -6.674  0.00  0.00     0.016 A 
HETATM   15  C   UNK N   1      31.482  25.198  -7.207  0.00  0.00     0.013 A 
HETATM   16  C   UNK N   1      32.430  24.475  -6.479  0.00  0.00    -0.026 A 
HETATM   17  C   UNK N   1      32.863  24.969  -5.234  0.00  0.00     0.013 A 
HETATM   18  C   UNK N   1      32.289  26.132  -4.702  0.00  0.00     0.016 A 
BRANCH  16  19
HETATM   19  C   UNK N   1      32.877  23.163  -6.994  0.00  0.00    -0.026 A 
HETATM   20  C   UNK N   1      32.507  22.762  -8.291  0.00  0.00     0.012 A 
HETATM   21  C   UNK N   1      32.858  21.501  -8.771  0.00  0.00     0.001 A 
HETATM   22  C   UNK N   1      33.577  20.624  -7.959  0.00  0.00     0.000 A 
HETATM   23  C   UNK N   1      33.947  21.009  -6.667  0.00  0.00     0.001 A 
HETATM   24  C   UNK N   1      33.594  22.274  -6.182  0.00  0.00     0.012 A 
ENDBRANCH  16  19
ENDBRANCH  11  13
ENDBRANCH  10  11
ENDBRANCH   9  10
BRANCH   8  25
HETATM   25  O   UNK N   1      28.540  24.840  -3.867  0.00  0.00    -0.315 OA
BRANCH  25  26
HETATM   26  C   UNK N   1      28.959  23.631  -3.388  0.00  0.00     0.270 C 
HETATM   27  O   UNK N   1      28.287  23.075  -2.538  0.00  0.00    -0.264 OA
BRANCH  26  28
HETATM   28  C   UNK N   1      30.201  22.944  -3.928  0.00  0.00     0.142 C 
BRANCH  28  29
HETATM   29  C   UNK N   1      30.852  22.178  -2.773  0.00  0.00     0.183 C 
BRANCH  29  30
HETATM   30  O   UNK N   1      30.818  22.911  -1.586  0.00  0.00    -0.400 OA
HETATM   31  H   UNK N   1      31.179  22.676  -0.718  0.00  0.00     0.209 HD
ENDBRANCH  29  30
ENDBRANCH  28  29
BRANCH  28  32
HETATM   32  C   UNK N   1      29.925  22.054  -5.132  0.00  0.00    -0.043 A 
HETATM   33  C   UNK N   1      30.523  20.785  -5.194  0.00  0.00     0.008 A 
HETATM   34  C   UNK N   1      30.366  19.979  -6.324  0.00  0.00     0.001 A 
HETATM   35  C   UNK N   1      29.617  20.435  -7.411  0.00  0.00     0.000 A 
HETATM   36  C   UNK N   1      29.012  21.694  -7.361  0.00  0.00     0.001 A 
HETATM   37  C   UNK N   1      29.164  22.498  -6.229  0.00  0.00     0.008 A 
ENDBRANCH  28  32
ENDBRANCH  26  28
ENDBRANCH  25  26
ENDBRANCH   8  25
TORSDOF 10
ENDMDL
MODEL 8
REMARK VINA RESULT:      -7.0      2.135      6.737
REMARK  10 active torsions:
REMARK  status: ('A' for Active; 'I' for Inactive)
REMARK    1  A    between atoms: C_30  and  C_20 
REMARK    2  A    between atoms: N_32  and  C_20 
REMARK    3  A    between atoms: C_29  and  C_21 
REMARK    4  A    between atoms: O_33  and  C_21 
REMARK    5  A    between atoms: C_23  and  C_22 
REMARK    6  A    between atoms: C_29  and  C_24 
REMARK    7  A    between atoms: C_30  and  C_25 
REMARK    8  A    between atoms: C_28  and  O_36 
REMARK    9  A    between atoms: C_29  and  C_31 
REMARK   10  A    between atoms: O_36  and  C_31 
ROOT
HETATM    1  C   UNK N   1      31.535  20.420  -6.485  0.00  0.00     0.274 C 
HETATM    2  C   UNK N   1      30.840  20.780  -9.167  0.00  0.00     0.036 C 
HETATM    3  C   UNK N   1      30.140  19.460  -8.846  0.00  0.00     0.036 C 
HETATM    4  C   UNK N   1      29.014  22.236  -8.675  0.00  0.00     0.066 C 
HETATM    5  C   UNK N   1      27.962  20.103  -7.811  0.00  0.00     0.066 C 
HETATM    6  C   UNK N   1      30.338  21.716  -8.070  0.00  0.00     0.193 C 
HETATM    7  C   UNK N   1      29.438  19.714  -7.506  0.00  0.00     0.193 C 
HETATM    8  C   UNK N   1      27.742  21.603  -8.107  0.00  0.00     0.136 C 
HETATM    9  N   UNK N   1      30.182  20.839  -6.882  0.00  0.00    -0.055 N 
ENDROOT
BRANCH   9  10
HETATM   10  C   UNK N   1      29.609  21.473  -5.654  0.00  0.00     0.321 C 
BRANCH  10  11
HETATM   11  C   UNK N   1      30.578  22.363  -4.867  0.00  0.00     0.185 C 
HETATM   12  O   UNK N   1      31.511  21.847  -4.271  0.00  0.00    -0.290 OA
BRANCH  11  13
HETATM   13  C   UNK N   1      30.508  23.834  -4.970  0.00  0.00     0.011 A 
HETATM   14  C   UNK N   1      30.472  24.602  -3.809  0.00  0.00     0.016 A 
HETATM   15  C   UNK N   1      30.117  25.938  -3.854  0.00  0.00     0.013 A 
HETATM   16  C   UNK N   1      29.781  26.541  -5.068  0.00  0.00    -0.026 A 
HETATM   17  C   UNK N   1      29.891  25.797  -6.258  0.00  0.00     0.013 A 
HETATM   18  C   UNK N   1      30.260  24.445  -6.209  0.00  0.00     0.016 A 
BRANCH  16  19
HETATM   19  C   UNK N   1      29.226  27.911  -5.055  0.00  0.00    -0.026 A 
HETATM   20  C   UNK N   1      29.124  28.610  -3.839  0.00  0.00     0.012 A 
HETATM   21  C   UNK N   1      28.539  29.874  -3.793  0.00  0.00     0.001 A 
HETATM   22  C   UNK N   1      28.045  30.454  -4.962  0.00  0.00     0.000 A 
HETATM   23  C   UNK N   1      28.137  29.769  -6.177  0.00  0.00     0.001 A 
HETATM   24  C   UNK N   1      28.722  28.498  -6.224  0.00  0.00     0.012 A 
ENDBRANCH  16  19
ENDBRANCH  11  13
ENDBRANCH  10  11
ENDBRANCH   9  10
BRANCH   8  25
HETATM   25  O   UNK N   1      27.420  22.271  -6.941  0.00  0.00    -0.315 OA
BRANCH  25  26
HETATM   26  C   UNK N   1      26.358  23.116  -6.782  0.00  0.00     0.270 C 
HETATM   27  O   UNK N   1      25.321  22.670  -6.325  0.00  0.00    -0.264 OA
BRANCH  26  28
HETATM   28  C   UNK N   1      26.459  24.597  -7.102  0.00  0.00     0.142 C 
BRANCH  28  29
HETATM   29  C   UNK N   1      25.546  24.880  -8.299  0.00  0.00     0.183 C 
BRANCH  29  30
HETATM   30  O   UNK N   1      25.147  23.701  -8.931  0.00  0.00    -0.400 OA
HETATM   31  H   UNK N   1      25.605  22.849  -8.970  0.00  0.00     0.209 HD
ENDBRANCH  29  30
ENDBRANCH  28  29
BRANCH  28  32
HETATM   32  C   UNK N   1      26.153  25.497  -5.913  0.00  0.00    -0.043 A 
HETATM   33  C   UNK N   1      25.488  26.714  -6.132  0.00  0.00     0.008 A 
HETATM   34  C   UNK N   1      25.271  27.605  -5.079  0.00  0.00     0.001 A 
HETATM   35  C   UNK N   1      25.724  27.295  -3.795  0.00  0.00     0.000 A 
HETATM   36  C   UNK N   1      26.383  26.086  -3.561  0.00  0.00     0.001 A 
HETATM   37  C   UNK N   1      26.595  25.191  -4.613  0.00  0.00     0.008 A 
ENDBRANCH  28  32
ENDBRANCH  26  28
ENDBRANCH  25  26
ENDBRANCH   8  25
TORSDOF 10
ENDMDL
MODEL 9
REMARK VINA RESULT:      -6.8      1.470      2.091
REMARK  10 active torsions:
REMARK  status: ('A' for Active; 'I' for Inactive)
REMARK    1  A    between atoms: C_30  and  C_20 
REMARK    2  A    between atoms: N_32  and  C_20 
REMARK    3  A    between atoms: C_29  and  C_21 
REMARK    4  A    between atoms: O_33  and  C_21 
REMARK    5  A    between atoms: C_23  and  C_22 
REMARK    6  A    between atoms: C_29  and  C_24 
REMARK    7  A    between atoms: C_30  and  C_25 
REMARK    8  A    between atoms: C_28  and  O_36 
REMARK    9  A    between atoms: C_29  and  C_31 
REMARK   10  A    between atoms: O_36  and  C_31 
ROOT
HETATM    1  C   UNK N   1      29.445  27.896  -3.303  0.00  0.00     0.274 C 
HETATM    2  C   UNK N   1      27.052  29.333  -3.185  0.00  0.00     0.036 C 
HETATM    3  C   UNK N   1      27.747  29.997  -4.372  0.00  0.00     0.036 C 
HETATM    4  C   UNK N   1      25.814  27.702  -4.410  0.00  0.00     0.066 C 
HETATM    5  C   UNK N   1      27.214  28.555  -6.338  0.00  0.00     0.066 C 
HETATM    6  C   UNK N   1      27.086  27.849  -3.545  0.00  0.00     0.193 C 
HETATM    7  C   UNK N   1      28.262  28.825  -5.219  0.00  0.00     0.193 C 
HETATM    8  C   UNK N   1      26.055  27.623  -5.919  0.00  0.00     0.136 C 
HETATM    9  N   UNK N   1      28.366  27.679  -4.279  0.00  0.00    -0.055 N 
ENDROOT
BRANCH   9  10
HETATM   10  C   UNK N   1      28.637  26.321  -4.845  0.00  0.00     0.321 C 
BRANCH  10  11
HETATM   11  C   UNK N   1      28.579  25.170  -3.833  0.00  0.00     0.185 C 
HETATM   12  O   UNK N   1      27.536  24.955  -3.233  0.00  0.00    -0.290 OA
BRANCH  11  13
HETATM   13  C   UNK N   1      29.696  24.213  -3.711  0.00  0.00     0.011 A 
HETATM   14  C   UNK N   1      30.951  24.557  -4.205  0.00  0.00     0.016 A 
HETATM   15  C   UNK N   1      31.934  23.599  -4.375  0.00  0.00     0.013 A 
HETATM   16  C   UNK N   1      31.680  22.262  -4.058  0.00  0.00    -0.026 A 
HETATM   17  C   UNK N   1      30.443  21.915  -3.483  0.00  0.00     0.013 A 
HETATM   18  C   UNK N   1      29.454  22.892  -3.304  0.00  0.00     0.016 A 
BRANCH  16  19
HETATM   19  C   UNK N   1      32.681  21.239  -4.427  0.00  0.00    -0.026 A 
HETATM   20  C   UNK N   1      32.583  20.585  -5.669  0.00  0.00     0.012 A 
HETATM   21  C   UNK N   1      33.474  19.568  -6.009  0.00  0.00     0.001 A 
HETATM   22  C   UNK N   1      34.471  19.188  -5.109  0.00  0.00     0.000 A 
HETATM   23  C   UNK N   1      34.576  19.827  -3.870  0.00  0.00     0.001 A 
HETATM   24  C   UNK N   1      33.681  20.847  -3.527  0.00  0.00     0.012 A 
ENDBRANCH  16  19
ENDBRANCH  11  13
ENDBRANCH  10  11
ENDBRANCH   9  10
BRANCH   8  25
HETATM   25  O   UNK N   1      26.365  26.314  -6.232  0.00  0.00    -0.315 OA
BRANCH  25  26
HETATM   26  C   UNK N   1      25.969  25.655  -7.361  0.00  0.00     0.270 C 
HETATM   27  O   UNK N   1      25.600  26.309  -8.320  0.00  0.00    -0.264 OA
BRANCH  26  28
HETATM   28  C   UNK N   1      26.034  24.142  -7.469  0.00  0.00     0.142 C 
BRANCH  28  29
HETATM   29  C   UNK N   1      25.227  23.725  -8.702  0.00  0.00     0.183 C 
BRANCH  29  30
HETATM   30  O   UNK N   1      24.333  22.695  -8.408  0.00  0.00    -0.400 OA
HETATM   31  H   UNK N   1      23.588  22.370  -8.936  0.00  0.00     0.209 HD
ENDBRANCH  29  30
ENDBRANCH  28  29
BRANCH  28  32
HETATM   32  C   UNK N   1      27.454  23.596  -7.493  0.00  0.00    -0.043 A 
HETATM   33  C   UNK N   1      27.703  22.317  -6.969  0.00  0.00     0.008 A 
HETATM   34  C   UNK N   1      29.006  21.821  -6.892  0.00  0.00     0.001 A 
HETATM   35  C   UNK N   1      30.079  22.601  -7.329  0.00  0.00     0.000 A 
HETATM   36  C   UNK N   1      29.846  23.873  -7.856  0.00  0.00     0.001 A 
HETATM   37  C   UNK N   1      28.543  24.368  -7.939  0.00  0.00     0.008 A 
ENDBRANCH  28  32
ENDBRANCH  26  28
ENDBRANCH  25  26
ENDBRANCH   8  25
TORSDOF 10
ENDMDL
