MODEL 1
REMARK VINA RESULT:      -5.3      0.000      0.000
REMARK  5 active torsions:
REMARK  status: ('A' for Active; 'I' for Inactive)
REMARK    1  A    between atoms: N_13  and  C_4 
REMARK    2  A    between atoms: N_13  and  C_5 
REMARK    3  A    between atoms: C_12  and  C_9 
REMARK    4  A    between atoms: O_14  and  C_10 
REMARK    5  A    between atoms: O_16  and  C_11 
REMARK       I    between atoms: N_13  and  C_12 
ROOT
HETATM    1  C   UNK N   1      26.434  24.511  -4.977  0.00  0.00     0.020 A 
HETATM    2  C   UNK N   1      25.542  25.343  -5.654  0.00  0.00     0.040 A 
HETATM    3  C   UNK N   1      26.680  26.172  -3.247  0.00  0.00     0.056 A 
HETATM    4  C   UNK N   1      27.013  24.908  -3.763  0.00  0.00     0.035 A 
HETATM    5  C   UNK N   1      25.214  26.592  -5.130  0.00  0.00     0.099 A 
HETATM    6  C   UNK N   1      25.790  27.023  -3.928  0.00  0.00     0.102 A 
ENDROOT
BRANCH   4   7
HETATM    7  C   UNK N   1      27.903  24.004  -2.956  0.00  0.00     0.253 C 
HETATM    8  N   UNK N   1      29.245  23.828  -3.216  0.00  0.00    -0.349 N 
HETATM    9  O   UNK N   1      27.387  23.370  -2.047  0.00  0.00    -0.267 OA
BRANCH   8  10
HETATM   10  C   UNK N   1      29.945  24.596  -4.220  0.00  0.00     0.121 C 
HETATM   11  C   UNK N   1      30.726  25.732  -3.586  0.00  0.00     0.026 C 
ENDBRANCH   8  10
BRANCH   8  12
HETATM   12  C   UNK N   1      30.014  22.842  -2.475  0.00  0.00     0.121 C 
HETATM   13  C   UNK N   1      30.377  21.644  -3.337  0.00  0.00     0.026 C 
ENDBRANCH   8  12
ENDBRANCH   4   7
BRANCH   6  14
HETATM   14  O   UNK N   1      25.474  28.248  -3.440  0.00  0.00    -0.353 OA
HETATM   15  C   UNK N   1      26.287  29.349  -3.581  0.00  0.00     0.210 C 
ENDBRANCH   6  14
BRANCH   5  16
HETATM   16  O   UNK N   1      24.344  27.379  -5.786  0.00  0.00    -0.358 OA
HETATM   17  H   UNK N   1      23.444  27.127  -5.857  0.00  0.00     0.217 HD
ENDBRANCH   5  16
TORSDOF 5
ENDMDL
MODEL 2
REMARK VINA RESULT:      -5.2     23.093     26.256
REMARK  5 active torsions:
REMARK  status: ('A' for Active; 'I' for Inactive)
REMARK    1  A    between atoms: N_13  and  C_4 
REMARK    2  A    between atoms: N_13  and  C_5 
REMARK    3  A    between atoms: C_12  and  C_9 
REMARK    4  A    between atoms: O_14  and  C_10 
REMARK    5  A    between atoms: O_16  and  C_11 
REMARK       I    between atoms: N_13  and  C_12 
ROOT
HETATM    1  C   UNK N   1      35.094  13.390  17.936  0.00  0.00     0.020 A 
HETATM    2  C   UNK N   1      35.136  12.970  19.266  0.00  0.00     0.040 A 
HETATM    3  C   UNK N   1      35.352  11.109  17.201  0.00  0.00     0.056 A 
HETATM    4  C   UNK N   1      35.196  12.469  16.884  0.00  0.00     0.035 A 
HETATM    5  C   UNK N   1      35.286  11.618  19.569  0.00  0.00     0.099 A 
HETATM    6  C   UNK N   1      35.407  10.676  18.538  0.00  0.00     0.102 A 
ENDROOT
BRANCH   4   7
HETATM    7  C   UNK N   1      35.058  12.869  15.441  0.00  0.00     0.253 C 
HETATM    8  N   UNK N   1      35.990  13.634  14.772  0.00  0.00    -0.349 N 
HETATM    9  O   UNK N   1      34.044  12.521  14.854  0.00  0.00    -0.267 OA
BRANCH   8  10
HETATM   10  C   UNK N   1      37.247  14.019  15.371  0.00  0.00     0.121 C 
HETATM   11  C   UNK N   1      37.265  15.503  15.686  0.00  0.00     0.026 C 
ENDBRANCH   8  10
BRANCH   8  12
HETATM   12  C   UNK N   1      35.730  14.089  13.417  0.00  0.00     0.121 C 
HETATM   13  C   UNK N   1      36.642  13.412  12.408  0.00  0.00     0.026 C 
ENDBRANCH   8  12
ENDBRANCH   4   7
BRANCH   6  14
HETATM   14  O   UNK N   1      35.570   9.367  18.850  0.00  0.00    -0.353 OA
HETATM   15  C   UNK N   1      34.543   8.451  18.825  0.00  0.00     0.210 C 
ENDBRANCH   6  14
BRANCH   5  16
HETATM   16  O   UNK N   1      35.313  11.224  20.854  0.00  0.00    -0.358 OA
HETATM   17  H   UNK N   1      34.527  10.937  21.274  0.00  0.00     0.217 HD
ENDBRANCH   5  16
TORSDOF 5
ENDMDL
MODEL 3
REMARK VINA RESULT:      -5.0     22.518     25.552
REMARK  5 active torsions:
REMARK  status: ('A' for Active; 'I' for Inactive)
REMARK    1  A    between atoms: N_13  and  C_4 
REMARK    2  A    between atoms: N_13  and  C_5 
REMARK    3  A    between atoms: C_12  and  C_9 
REMARK    4  A    between atoms: O_14  and  C_10 
REMARK    5  A    between atoms: O_16  and  C_11 
REMARK       I    between atoms: N_13  and  C_12 
ROOT
HETATM    1  C   UNK N   1      35.151  11.003  17.338  0.00  0.00     0.020 A 
HETATM    2  C   UNK N   1      35.384  11.261  18.689  0.00  0.00     0.040 A 
HETATM    3  C   UNK N   1      35.005  13.370  16.904  0.00  0.00     0.056 A 
HETATM    4  C   UNK N   1      34.963  12.050  16.424  0.00  0.00     0.035 A 
HETATM    5  C   UNK N   1      35.430  12.574  19.154  0.00  0.00     0.099 A 
HETATM    6  C   UNK N   1      35.228  13.641  18.267  0.00  0.00     0.102 A 
ENDROOT
BRANCH   4   7
HETATM    7  C   UNK N   1      34.806  11.817  14.947  0.00  0.00     0.253 C 
HETATM    8  N   UNK N   1      35.851  11.892  14.050  0.00  0.00    -0.349 N 
HETATM    9  O   UNK N   1      33.680  11.586  14.529  0.00  0.00    -0.267 OA
BRANCH   8  10
HETATM   10  C   UNK N   1      37.219  12.083  14.472  0.00  0.00     0.121 C 
HETATM   11  C   UNK N   1      37.962  10.761  14.514  0.00  0.00     0.026 C 
ENDBRANCH   8  10
BRANCH   8  12
HETATM   12  C   UNK N   1      35.602  11.782  12.623  0.00  0.00     0.121 C 
HETATM   13  C   UNK N   1      35.461  13.145  11.966  0.00  0.00     0.026 C 
ENDBRANCH   8  12
ENDBRANCH   4   7
BRANCH   6  14
HETATM   14  O   UNK N   1      35.258  14.912  18.738  0.00  0.00    -0.353 OA
HETATM   15  C   UNK N   1      36.039  15.902  18.189  0.00  0.00     0.210 C 
ENDBRANCH   6  14
BRANCH   5  16
HETATM   16  O   UNK N   1      35.666  12.810  20.456  0.00  0.00    -0.358 OA
HETATM   17  H   UNK N   1      36.396  13.339  20.712  0.00  0.00     0.217 HD
ENDBRANCH   5  16
TORSDOF 5
ENDMDL
MODEL 4
REMARK VINA RESULT:      -5.0      1.051      2.428
REMARK  5 active torsions:
REMARK  status: ('A' for Active; 'I' for Inactive)
REMARK    1  A    between atoms: N_13  and  C_4 
REMARK    2  A    between atoms: N_13  and  C_5 
REMARK    3  A    between atoms: C_12  and  C_9 
REMARK    4  A    between atoms: O_14  and  C_10 
REMARK    5  A    between atoms: O_16  and  C_11 
REMARK       I    between atoms: N_13  and  C_12 
ROOT
HETATM    1  C   UNK N   1      26.683  26.133  -3.361  0.00  0.00     0.020 A 
HETATM    2  C   UNK N   1      25.890  26.919  -4.197  0.00  0.00     0.040 A 
HETATM    3  C   UNK N   1      26.527  24.303  -4.921  0.00  0.00     0.056 A 
HETATM    4  C   UNK N   1      27.019  24.817  -3.710  0.00  0.00     0.035 A 
HETATM    5  C   UNK N   1      25.412  26.401  -5.400  0.00  0.00     0.099 A 
HETATM    6  C   UNK N   1      25.717  25.083  -5.767  0.00  0.00     0.102 A 
ENDROOT
BRANCH   4   7
HETATM    7  C   UNK N   1      27.949  23.972  -2.884  0.00  0.00     0.253 C 
HETATM    8  N   UNK N   1      29.297  23.848  -3.145  0.00  0.00    -0.349 N 
HETATM    9  O   UNK N   1      27.463  23.340  -1.957  0.00  0.00    -0.267 OA
BRANCH   8  10
HETATM   10  C   UNK N   1      29.960  24.620  -4.171  0.00  0.00     0.121 C 
HETATM   11  C   UNK N   1      30.687  25.807  -3.569  0.00  0.00     0.026 C 
ENDBRANCH   8  10
BRANCH   8  12
HETATM   12  C   UNK N   1      30.109  22.914  -2.383  0.00  0.00     0.121 C 
HETATM   13  C   UNK N   1      30.661  21.801  -3.258  0.00  0.00     0.026 C 
ENDBRANCH   8  12
ENDBRANCH   4   7
BRANCH   6  14
HETATM   14  O   UNK N   1      25.230  24.588  -6.931  0.00  0.00    -0.353 OA
HETATM   15  C   UNK N   1      26.000  24.412  -8.058  0.00  0.00     0.210 C 
ENDBRANCH   6  14
BRANCH   5  16
HETATM   16  O   UNK N   1      24.658  27.172  -6.202  0.00  0.00    -0.358 OA
HETATM   17  H   UNK N   1      24.360  28.009  -5.904  0.00  0.00     0.217 HD
ENDBRANCH   5  16
TORSDOF 5
ENDMDL
MODEL 5
REMARK VINA RESULT:      -4.9     22.914     26.061
REMARK  5 active torsions:
REMARK  status: ('A' for Active; 'I' for Inactive)
REMARK    1  A    between atoms: N_13  and  C_4 
REMARK    2  A    between atoms: N_13  and  C_5 
REMARK    3  A    between atoms: C_12  and  C_9 
REMARK    4  A    between atoms: O_14  and  C_10 
REMARK    5  A    between atoms: O_16  and  C_11 
REMARK       I    between atoms: N_13  and  C_12 
ROOT
HETATM    1  C   UNK N   1      35.337  13.648  16.900  0.00  0.00     0.020 A 
HETATM    2  C   UNK N   1      35.289  13.799  18.286  0.00  0.00     0.040 A 
HETATM    3  C   UNK N   1      35.283  11.252  17.152  0.00  0.00     0.056 A 
HETATM    4  C   UNK N   1      35.330  12.376  16.311  0.00  0.00     0.035 A 
HETATM    5  C   UNK N   1      35.236  12.677  19.112  0.00  0.00     0.099 A 
HETATM    6  C   UNK N   1      35.245  11.393  18.552  0.00  0.00     0.102 A 
ENDROOT
BRANCH   4   7
HETATM    7  C   UNK N   1      35.283  12.173  14.822  0.00  0.00     0.253 C 
HETATM    8  N   UNK N   1      36.399  11.909  14.056  0.00  0.00    -0.349 N 
HETATM    9  O   UNK N   1      34.198  12.286  14.271  0.00  0.00    -0.267 OA
BRANCH   8  10
HETATM   10  C   UNK N   1      37.701  11.684  14.639  0.00  0.00     0.121 C 
HETATM   11  C   UNK N   1      38.012  10.201  14.713  0.00  0.00     0.026 C 
ENDBRANCH   8  10
BRANCH   8  12
HETATM   12  C   UNK N   1      36.297  11.851  12.607  0.00  0.00     0.121 C 
HETATM   13  C   UNK N   1      36.879  13.092  11.950  0.00  0.00     0.026 C 
ENDBRANCH   8  12
ENDBRANCH   4   7
BRANCH   6  14
HETATM   14  O   UNK N   1      35.211  10.311  19.369  0.00  0.00    -0.353 OA
HETATM   15  C   UNK N   1      34.195   9.384  19.354  0.00  0.00     0.210 C 
ENDBRANCH   6  14
BRANCH   5  16
HETATM   16  O   UNK N   1      35.178  12.836  20.445  0.00  0.00    -0.358 OA
HETATM   17  H   UNK N   1      34.353  12.793  20.888  0.00  0.00     0.217 HD
ENDBRANCH   5  16
TORSDOF 5
ENDMDL
MODEL 6
REMARK VINA RESULT:      -4.9     10.500     13.569
REMARK  5 active torsions:
REMARK  status: ('A' for Active; 'I' for Inactive)
REMARK    1  A    between atoms: N_13  and  C_4 
REMARK    2  A    between atoms: N_13  and  C_5 
REMARK    3  A    between atoms: C_12  and  C_9 
REMARK    4  A    between atoms: O_14  and  C_10 
REMARK    5  A    between atoms: O_16  and  C_11 
REMARK       I    between atoms: N_13  and  C_12 
ROOT
HETATM    1  C   UNK N   1      28.294  18.527   8.027  0.00  0.00     0.020 A 
HETATM    2  C   UNK N   1      29.381  18.282   8.866  0.00  0.00     0.040 A 
HETATM    3  C   UNK N   1      29.477  17.518   6.186  0.00  0.00     0.056 A 
HETATM    4  C   UNK N   1      28.320  18.146   6.678  0.00  0.00     0.035 A 
HETATM    5  C   UNK N   1      30.521  17.652   8.368  0.00  0.00     0.099 A 
HETATM    6  C   UNK N   1      30.584  17.275   7.020  0.00  0.00     0.102 A 
ENDROOT
BRANCH   4   7
HETATM    7  C   UNK N   1      27.135  18.305   5.767  0.00  0.00     0.253 C 
HETATM    8  N   UNK N   1      26.760  19.509   5.210  0.00  0.00    -0.349 N 
HETATM    9  O   UNK N   1      26.456  17.312   5.547  0.00  0.00    -0.267 OA
BRANCH   8  10
HETATM   10  C   UNK N   1      27.552  20.709   5.358  0.00  0.00     0.121 C 
HETATM   11  C   UNK N   1      26.925  21.650   6.369  0.00  0.00     0.026 C 
ENDBRANCH   8  10
BRANCH   8  12
HETATM   12  C   UNK N   1      25.531  19.612   4.443  0.00  0.00     0.121 C 
HETATM   13  C   UNK N   1      25.763  20.251   3.084  0.00  0.00     0.026 C 
ENDBRANCH   8  12
ENDBRANCH   4   7
BRANCH   6  14
HETATM   14  O   UNK N   1      31.706  16.680   6.547  0.00  0.00    -0.353 OA
HETATM   15  C   UNK N   1      32.619  17.321   5.742  0.00  0.00     0.210 C 
ENDBRANCH   6  14
BRANCH   5  16
HETATM   16  O   UNK N   1      31.558  17.411   9.189  0.00  0.00    -0.358 OA
HETATM   17  H   UNK N   1      31.426  16.932   9.983  0.00  0.00     0.217 HD
ENDBRANCH   5  16
TORSDOF 5
ENDMDL
MODEL 7
REMARK VINA RESULT:      -4.8     12.506     15.221
REMARK  5 active torsions:
REMARK  status: ('A' for Active; 'I' for Inactive)
REMARK    1  A    between atoms: N_13  and  C_4 
REMARK    2  A    between atoms: N_13  and  C_5 
REMARK    3  A    between atoms: C_12  and  C_9 
REMARK    4  A    between atoms: O_14  and  C_10 
REMARK    5  A    between atoms: O_16  and  C_11 
REMARK       I    between atoms: N_13  and  C_12 
ROOT
HETATM    1  C   UNK N   1      30.580  18.362   9.045  0.00  0.00     0.020 A 
HETATM    2  C   UNK N   1      29.226  18.552   8.771  0.00  0.00     0.040 A 
HETATM    3  C   UNK N   1      30.828  17.116   6.997  0.00  0.00     0.056 A 
HETATM    4  C   UNK N   1      31.403  17.648   8.163  0.00  0.00     0.035 A 
HETATM    5  C   UNK N   1      28.666  18.026   7.608  0.00  0.00     0.099 A 
HETATM    6  C   UNK N   1      29.460  17.292   6.716  0.00  0.00     0.102 A 
ENDROOT
BRANCH   4   7
HETATM    7  C   UNK N   1      32.885  17.503   8.374  0.00  0.00     0.253 C 
HETATM    8  N   UNK N   1      33.462  16.417   8.996  0.00  0.00    -0.349 N 
HETATM    9  O   UNK N   1      33.600  18.423   8.001  0.00  0.00    -0.267 OA
BRANCH   8  10
HETATM   10  C   UNK N   1      32.697  15.258   9.394  0.00  0.00     0.121 C 
HETATM   11  C   UNK N   1      32.802  14.157   8.356  0.00  0.00     0.026 C 
ENDBRANCH   8  10
BRANCH   8  12
HETATM   12  C   UNK N   1      34.887  16.404   9.280  0.00  0.00     0.121 C 
HETATM   13  C   UNK N   1      35.169  16.515  10.769  0.00  0.00     0.026 C 
ENDBRANCH   8  12
ENDBRANCH   4   7
BRANCH   6  14
HETATM   14  O   UNK N   1      28.897  16.772   5.598  0.00  0.00    -0.353 OA
HETATM   15  C   UNK N   1      29.075  17.307   4.343  0.00  0.00     0.210 C 
ENDBRANCH   6  14
BRANCH   5  16
HETATM   16  O   UNK N   1      27.362  18.226   7.349  0.00  0.00    -0.358 OA
HETATM   17  H   UNK N   1      26.752  18.316   8.054  0.00  0.00     0.217 HD
ENDBRANCH   5  16
TORSDOF 5
ENDMDL
MODEL 8
REMARK VINA RESULT:      -4.8     13.092     16.517
REMARK  5 active torsions:
REMARK  status: ('A' for Active; 'I' for Inactive)
REMARK    1  A    between atoms: N_13  and  C_4 
REMARK    2  A    between atoms: N_13  and  C_5 
REMARK    3  A    between atoms: C_12  and  C_9 
REMARK    4  A    between atoms: O_14  and  C_10 
REMARK    5  A    between atoms: O_16  and  C_11 
REMARK       I    between atoms: N_13  and  C_12 
ROOT
HETATM    1  C   UNK N   1      33.248  17.998   7.569  0.00  0.00     0.020 A 
HETATM    2  C   UNK N   1      34.380  18.096   8.377  0.00  0.00     0.040 A 
HETATM    3  C   UNK N   1      32.574  16.003   8.742  0.00  0.00     0.056 A 
HETATM    4  C   UNK N   1      32.325  16.956   7.740  0.00  0.00     0.035 A 
HETATM    5  C   UNK N   1      34.615  17.149   9.373  0.00  0.00     0.099 A 
HETATM    6  C   UNK N   1      33.719  16.087   9.556  0.00  0.00     0.102 A 
ENDROOT
BRANCH   4   7
HETATM    7  C   UNK N   1      31.046  16.869   6.955  0.00  0.00     0.253 C 
HETATM    8  N   UNK N   1      29.860  17.438   7.369  0.00  0.00    -0.349 N 
HETATM    9  O   UNK N   1      31.065  16.228   5.915  0.00  0.00    -0.267 OA
BRANCH   8  10
HETATM   10  C   UNK N   1      29.773  18.275   8.544  0.00  0.00     0.121 C 
HETATM   11  C   UNK N   1      29.124  17.528   9.694  0.00  0.00     0.026 C 
ENDBRANCH   8  10
BRANCH   8  12
HETATM   12  C   UNK N   1      28.635  17.205   6.623  0.00  0.00     0.121 C 
HETATM   13  C   UNK N   1      27.959  18.506   6.225  0.00  0.00     0.026 C 
ENDBRANCH   8  12
ENDBRANCH   4   7
BRANCH   6  14
HETATM   14  O   UNK N   1      33.970  15.163  10.517  0.00  0.00    -0.353 OA
HETATM   15  C   UNK N   1      34.493  13.919  10.250  0.00  0.00     0.210 C 
ENDBRANCH   6  14
BRANCH   5  16
HETATM   16  O   UNK N   1      35.703  17.261  10.153  0.00  0.00    -0.358 OA
HETATM   17  H   UNK N   1      36.559  17.168   9.781  0.00  0.00     0.217 HD
ENDBRANCH   5  16
TORSDOF 5
ENDMDL
MODEL 9
REMARK VINA RESULT:      -4.8     11.716     14.368
REMARK  5 active torsions:
REMARK  status: ('A' for Active; 'I' for Inactive)
REMARK    1  A    between atoms: N_13  and  C_4 
REMARK    2  A    between atoms: N_13  and  C_5 
REMARK    3  A    between atoms: C_12  and  C_9 
REMARK    4  A    between atoms: O_14  and  C_10 
REMARK    5  A    between atoms: O_16  and  C_11 
REMARK       I    between atoms: N_13  and  C_12 
ROOT
HETATM    1  C   UNK N   1      30.503  17.372   9.035  0.00  0.00     0.020 A 
HETATM    2  C   UNK N   1      29.406  18.214   9.219  0.00  0.00     0.040 A 
HETATM    3  C   UNK N   1      29.898  17.078   6.720  0.00  0.00     0.056 A 
HETATM    4  C   UNK N   1      30.770  16.795   7.785  0.00  0.00     0.035 A 
HETATM    5  C   UNK N   1      28.551  18.493   8.154  0.00  0.00     0.099 A 
HETATM    6  C   UNK N   1      28.783  17.918   6.898  0.00  0.00     0.102 A 
ENDROOT
BRANCH   4   7
HETATM    7  C   UNK N   1      31.993  15.962   7.522  0.00  0.00     0.253 C 
HETATM    8  N   UNK N   1      33.213  16.494   7.162  0.00  0.00    -0.349 N 
HETATM    9  O   UNK N   1      31.876  14.747   7.601  0.00  0.00    -0.267 OA
BRANCH   8  10
HETATM   10  C   UNK N   1      33.454  17.918   7.124  0.00  0.00     0.121 C 
HETATM   11  C   UNK N   1      34.463  18.326   8.181  0.00  0.00     0.026 C 
ENDBRANCH   8  10
BRANCH   8  12
HETATM   12  C   UNK N   1      34.317  15.621   6.800  0.00  0.00     0.121 C 
HETATM   13  C   UNK N   1      34.484  15.516   5.293  0.00  0.00     0.026 C 
ENDBRANCH   8  12
ENDBRANCH   4   7
BRANCH   6  14
HETATM   14  O   UNK N   1      27.931  18.185   5.876  0.00  0.00    -0.353 OA
HETATM   15  C   UNK N   1      28.227  19.059   4.856  0.00  0.00     0.210 C 
ENDBRANCH   6  14
BRANCH   5  16
HETATM   16  O   UNK N   1      27.504  19.315   8.341  0.00  0.00    -0.358 OA
HETATM   17  H   UNK N   1      27.022  19.636   7.605  0.00  0.00     0.217 HD
ENDBRANCH   5  16
TORSDOF 5
ENDMDL
