MODEL 1
REMARK VINA RESULT:      -7.7      0.000      0.000
REMARK  5 active torsions:
REMARK  status: ('A' for Active; 'I' for Inactive)
REMARK    1  A    between atoms: C_18  and  C_11 
REMARK    2  A    between atoms: O_24  and  C_11 
REMARK    3  A    between atoms: C_17  and  O_26 
REMARK    4  A    between atoms: C_22  and  C_18 
REMARK    5  A    between atoms: C_22  and  O_28 
ROOT
HETATM    1  C   UNK N   1      33.740  12.691   9.254  0.00  0.00     0.018 C 
HETATM    2  C   UNK N   1      37.405  11.100  14.664  0.00  0.00     0.028 C 
HETATM    3  C   UNK N   1      37.619  13.068  11.104  0.00  0.00     0.020 C 
HETATM    4  C   UNK N   1      35.163   9.136  13.812  0.00  0.00     0.036 C 
HETATM    5  C   UNK N   1      34.159  10.041  13.106  0.00  0.00     0.013 C 
HETATM    6  C   UNK N   1      35.754  10.923  17.749  0.00  0.00     0.052 A 
HETATM    7  C   UNK N   1      36.141  11.626  16.677  0.00  0.00    -0.006 A 
HETATM    8  C   UNK N   1      35.294  11.321  10.573  0.00  0.00     0.043 C 
HETATM    9  C   UNK N   1      35.017   9.026  16.241  0.00  0.00     0.058 A 
HETATM   10  C   UNK N   1      36.588  13.730  13.236  0.00  0.00     0.048 C 
HETATM   11  C   UNK N   1      34.778  12.639  10.089  0.00  0.00    -0.047 C 
HETATM   12  C   UNK N   1      35.412   9.717  15.163  0.00  0.00    -0.061 A 
HETATM   13  C   UNK N   1      35.155   9.594  17.585  0.00  0.00     0.172 A 
HETATM   14  C   UNK N   1      34.644  11.500  13.024  0.00  0.00     0.035 C 
HETATM   15  C   UNK N   1      35.794  11.648  11.985  0.00  0.00     0.009 C 
HETATM   16  C   UNK N   1      35.472  13.553  14.277  0.00  0.00     0.160 C 
HETATM   17  C   UNK N   1      35.996  11.130  15.243  0.00  0.00     0.036 A 
HETATM   18  C   UNK N   1      36.279  13.107  11.858  0.00  0.00     0.005 C 
HETATM   19  C   UNK N   1      35.012  12.069  14.442  0.00  0.00     0.147 C 
HETATM   20  C   UNK N   1      35.195  13.804  10.958  0.00  0.00     0.150 C 
HETATM   21  F   UNK N   1      33.832  12.096  15.177  0.00  0.00    -0.238 F 
HETATM   22  O   UNK N   1      34.757   8.974  18.558  0.00  0.00    -0.289 OA
ENDROOT
BRANCH  20  23
HETATM   23  C   UNK N   1      35.729  15.035  10.236  0.00  0.00     0.189 C 
HETATM   24  O   UNK N   1      36.153  14.918   9.097  0.00  0.00    -0.292 OA
BRANCH  23  25
HETATM   25  C   UNK N   1      35.737  16.396  10.863  0.00  0.00     0.246 C 
BRANCH  25  26
HETATM   26  O   UNK N   1      34.610  17.119  10.471  0.00  0.00    -0.393 OA
HETATM   27  H   UNK N   1      34.262  17.943  10.097  0.00  0.00     0.209 HD
ENDBRANCH  25  26
ENDBRANCH  23  25
ENDBRANCH  20  23
BRANCH  20  28
HETATM   28  O   UNK N   1      34.074  14.207  11.688  0.00  0.00    -0.377 OA
HETATM   29  H   UNK N   1      33.551  14.488  12.455  0.00  0.00     0.211 HD
ENDBRANCH  20  28
BRANCH  16  30
HETATM   30  O   UNK N   1      35.884  14.106  15.490  0.00  0.00    -0.392 OA
HETATM   31  H   UNK N   1      35.471  14.919  15.818  0.00  0.00     0.210 HD
ENDBRANCH  16  30
TORSDOF 5
ENDMDL
MODEL 2
REMARK VINA RESULT:      -7.6     18.824     21.876
REMARK  5 active torsions:
REMARK  status: ('A' for Active; 'I' for Inactive)
REMARK    1  A    between atoms: C_18  and  C_11 
REMARK    2  A    between atoms: O_24  and  C_11 
REMARK    3  A    between atoms: C_17  and  O_26 
REMARK    4  A    between atoms: C_22  and  C_18 
REMARK    5  A    between atoms: C_22  and  O_28 
ROOT
HETATM    1  C   UNK N   1      25.796  23.835  -6.227  0.00  0.00     0.018 C 
HETATM    2  C   UNK N   1      32.324  23.548  -4.640  0.00  0.00     0.028 C 
HETATM    3  C   UNK N   1      29.225  26.161  -5.027  0.00  0.00     0.020 C 
HETATM    4  C   UNK N   1      31.236  21.456  -6.652  0.00  0.00     0.036 C 
HETATM    5  C   UNK N   1      29.767  21.332  -6.263  0.00  0.00     0.013 C 
HETATM    6  C   UNK N   1      33.469  20.680  -2.985  0.00  0.00     0.052 A 
HETATM    7  C   UNK N   1      32.684  21.764  -3.022  0.00  0.00    -0.006 A 
HETATM    8  C   UNK N   1      28.208  23.928  -6.677  0.00  0.00     0.043 C 
HETATM    9  C   UNK N   1      32.824  20.125  -5.370  0.00  0.00     0.058 A 
HETATM   10  C   UNK N   1      29.746  24.555  -3.240  0.00  0.00     0.048 C 
HETATM   11  C   UNK N   1      27.007  24.237  -5.840  0.00  0.00    -0.047 C 
HETATM   12  C   UNK N   1      32.043  21.214  -5.422  0.00  0.00    -0.061 A 
HETATM   13  C   UNK N   1      33.565  19.795  -4.150  0.00  0.00     0.172 A 
HETATM   14  C   UNK N   1      29.381  22.293  -5.123  0.00  0.00     0.035 C 
HETATM   15  C   UNK N   1      29.318  23.763  -5.632  0.00  0.00     0.009 C 
HETATM   16  C   UNK N   1      29.844  23.101  -2.756  0.00  0.00     0.160 C 
HETATM   17  C   UNK N   1      31.846  22.159  -4.233  0.00  0.00     0.036 A 
HETATM   18  C   UNK N   1      28.902  24.747  -4.518  0.00  0.00     0.005 C 
HETATM   19  C   UNK N   1      30.311  22.109  -3.869  0.00  0.00     0.147 C 
HETATM   20  C   UNK N   1      27.343  24.576  -4.406  0.00  0.00     0.150 C 
HETATM   21  F   UNK N   1      30.078  20.826  -3.388  0.00  0.00    -0.238 F 
HETATM   22  O   UNK N   1      34.242  18.781  -4.098  0.00  0.00    -0.289 OA
ENDROOT
BRANCH  20  23
HETATM   23  C   UNK N   1      26.655  25.802  -3.817  0.00  0.00     0.189 C 
HETATM   24  O   UNK N   1      26.505  25.874  -2.608  0.00  0.00    -0.292 OA
BRANCH  23  25
HETATM   25  C   UNK N   1      26.171  26.938  -4.666  0.00  0.00     0.246 C 
BRANCH  25  26
HETATM   26  O   UNK N   1      25.491  27.873  -3.885  0.00  0.00    -0.393 OA
HETATM   27  H   UNK N   1      25.220  28.797  -3.774  0.00  0.00     0.209 HD
ENDBRANCH  25  26
ENDBRANCH  23  25
ENDBRANCH  20  23
BRANCH  20  28
HETATM   28  O   UNK N   1      26.981  23.480  -3.618  0.00  0.00    -0.377 OA
HETATM   29  H   UNK N   1      26.759  22.981  -2.817  0.00  0.00     0.211 HD
ENDBRANCH  20  28
BRANCH  16  30
HETATM   30  O   UNK N   1      30.670  23.044  -1.633  0.00  0.00    -0.392 OA
HETATM   31  H   UNK N   1      31.463  22.486  -1.640  0.00  0.00     0.210 HD
ENDBRANCH  16  30
TORSDOF 5
ENDMDL
MODEL 3
REMARK VINA RESULT:      -7.4     23.593     25.474
REMARK  5 active torsions:
REMARK  status: ('A' for Active; 'I' for Inactive)
REMARK    1  A    between atoms: C_18  and  C_11 
REMARK    2  A    between atoms: O_24  and  C_11 
REMARK    3  A    between atoms: C_17  and  O_26 
REMARK    4  A    between atoms: C_22  and  C_18 
REMARK    5  A    between atoms: C_22  and  O_28 
ROOT
HETATM    1  C   UNK N   1      28.180  21.726  -7.058  0.00  0.00     0.018 C 
HETATM    2  C   UNK N   1      27.488  28.387  -6.440  0.00  0.00     0.028 C 
HETATM    3  C   UNK N   1      27.020  25.342  -9.104  0.00  0.00     0.020 C 
HETATM    4  C   UNK N   1      29.689  27.003  -4.752  0.00  0.00     0.036 C 
HETATM    5  C   UNK N   1      29.149  25.589  -4.571  0.00  0.00     0.013 C 
HETATM    6  C   UNK N   1      26.522  29.636  -3.313  0.00  0.00     0.052 A 
HETATM    7  C   UNK N   1      26.269  28.885  -4.392  0.00  0.00    -0.006 A 
HETATM    8  C   UNK N   1      28.900  24.069  -7.212  0.00  0.00     0.043 C 
HETATM    9  C   UNK N   1      28.869  28.693  -3.200  0.00  0.00     0.058 A 
HETATM   10  C   UNK N   1      25.624  26.027  -7.200  0.00  0.00     0.048 C 
HETATM   11  C   UNK N   1      27.881  22.986  -7.374  0.00  0.00    -0.047 C 
HETATM   12  C   UNK N   1      28.630  27.945  -4.287  0.00  0.00    -0.061 A 
HETATM   13  C   UNK N   1      27.828  29.565  -2.650  0.00  0.00     0.172 A 
HETATM   14  C   UNK N   1      27.818  25.371  -5.315  0.00  0.00     0.035 C 
HETATM   15  C   UNK N   1      28.047  25.291  -6.853  0.00  0.00     0.009 C 
HETATM   16  C   UNK N   1      25.421  26.139  -5.681  0.00  0.00     0.160 C 
HETATM   17  C   UNK N   1      27.278  27.920  -5.004  0.00  0.00     0.036 A 
HETATM   18  C   UNK N   1      26.733  25.041  -7.624  0.00  0.00     0.005 C 
HETATM   19  C   UNK N   1      26.742  26.439  -4.902  0.00  0.00     0.147 C 
HETATM   20  C   UNK N   1      26.462  23.503  -7.448  0.00  0.00     0.150 C 
HETATM   21  F   UNK N   1      26.470  26.227  -3.555  0.00  0.00    -0.238 F 
HETATM   22  O   UNK N   1      28.041  30.213  -1.638  0.00  0.00    -0.289 OA
ENDROOT
BRANCH  20  23
HETATM   23  C   UNK N   1      25.585  22.928  -8.553  0.00  0.00     0.189 C 
HETATM   24  O   UNK N   1      24.392  23.190  -8.563  0.00  0.00    -0.292 OA
BRANCH  23  25
HETATM   25  C   UNK N   1      26.133  22.064  -9.648  0.00  0.00     0.246 C 
BRANCH  25  26
HETATM   26  O   UNK N   1      25.188  21.114 -10.038  0.00  0.00    -0.393 OA
HETATM   27  H   UNK N   1      24.606  20.387  -9.767  0.00  0.00     0.209 HD
ENDBRANCH  25  26
ENDBRANCH  23  25
ENDBRANCH  20  23
BRANCH  20  28
HETATM   28  O   UNK N   1      25.842  23.205  -6.232  0.00  0.00    -0.377 OA
HETATM   29  H   UNK N   1      25.763  23.006  -5.286  0.00  0.00     0.211 HD
ENDBRANCH  20  28
BRANCH  16  30
HETATM   30  O   UNK N   1      24.437  27.092  -5.418  0.00  0.00    -0.392 OA
HETATM   31  H   UNK N   1      24.365  27.485  -4.534  0.00  0.00     0.210 HD
ENDBRANCH  16  30
TORSDOF 5
ENDMDL
MODEL 4
REMARK VINA RESULT:      -7.1      3.695      6.095
REMARK  5 active torsions:
REMARK  status: ('A' for Active; 'I' for Inactive)
REMARK    1  A    between atoms: C_18  and  C_11 
REMARK    2  A    between atoms: O_24  and  C_11 
REMARK    3  A    between atoms: C_17  and  O_26 
REMARK    4  A    between atoms: C_22  and  C_18 
REMARK    5  A    between atoms: C_22  and  O_28 
ROOT
HETATM    1  C   UNK N   1      33.649  14.546   4.282  0.00  0.00     0.018 C 
HETATM    2  C   UNK N   1      35.843  16.127  10.439  0.00  0.00     0.028 C 
HETATM    3  C   UNK N   1      34.025  17.731   7.167  0.00  0.00     0.020 C 
HETATM    4  C   UNK N   1      37.331  13.878   8.911  0.00  0.00     0.036 C 
HETATM    5  C   UNK N   1      36.257  13.317   7.987  0.00  0.00     0.013 C 
HETATM    6  C   UNK N   1      35.627  13.665  12.922  0.00  0.00     0.052 A 
HETATM    7  C   UNK N   1      35.036  14.473  12.033  0.00  0.00    -0.006 A 
HETATM    8  C   UNK N   1      35.278  15.356   5.931  0.00  0.00     0.043 C 
HETATM    9  C   UNK N   1      37.365  13.027  11.194  0.00  0.00     0.058 A 
HETATM   10  C   UNK N   1      33.130  16.289   8.945  0.00  0.00     0.048 C 
HETATM   11  C   UNK N   1      33.892  15.272   5.374  0.00  0.00    -0.047 C 
HETATM   12  C   UNK N   1      36.787  13.842  10.299  0.00  0.00    -0.061 A 
HETATM   13  C   UNK N   1      36.811  12.887  12.543  0.00  0.00     0.172 A 
HETATM   14  C   UNK N   1      34.926  14.084   8.104  0.00  0.00     0.035 C 
HETATM   15  C   UNK N   1      35.033  15.488   7.439  0.00  0.00     0.009 C 
HETATM   16  C   UNK N   1      33.059  14.911   9.620  0.00  0.00     0.160 C 
HETATM   17  C   UNK N   1      35.519  14.646  10.598  0.00  0.00     0.036 A 
HETATM   18  C   UNK N   1      33.703  16.268   7.512  0.00  0.00     0.005 C 
HETATM   19  C   UNK N   1      34.416  14.138   9.589  0.00  0.00     0.147 C 
HETATM   20  C   UNK N   1      32.819  15.646   6.371  0.00  0.00     0.150 C 
HETATM   21  F   UNK N   1      34.139  12.827   9.961  0.00  0.00    -0.238 F 
HETATM   22  O   UNK N   1      37.319  12.114  13.338  0.00  0.00    -0.289 OA
ENDROOT
BRANCH  20  23
HETATM   23  C   UNK N   1      31.735  16.596   5.879  0.00  0.00     0.189 C 
HETATM   24  O   UNK N   1      31.942  17.268   4.881  0.00  0.00    -0.292 OA
BRANCH  23  25
HETATM   25  C   UNK N   1      30.407  16.726   6.562  0.00  0.00     0.246 C 
BRANCH  25  26
HETATM   26  O   UNK N   1      29.511  15.777   6.070  0.00  0.00    -0.393 OA
HETATM   27  H   UNK N   1      29.289  14.837   5.981  0.00  0.00     0.209 HD
ENDBRANCH  25  26
ENDBRANCH  23  25
ENDBRANCH  20  23
BRANCH  20  28
HETATM   28  O   UNK N   1      32.185  14.466   6.769  0.00  0.00    -0.377 OA
HETATM   29  H   UNK N   1      31.495  13.787   6.819  0.00  0.00     0.211 HD
ENDBRANCH  20  28
BRANCH  16  30
HETATM   30  O   UNK N   1      32.578  15.061  10.921  0.00  0.00    -0.392 OA
HETATM   31  H   UNK N   1      31.623  15.094  11.085  0.00  0.00     0.210 HD
ENDBRANCH  16  30
TORSDOF 5
ENDMDL
MODEL 5
REMARK VINA RESULT:      -7.0      2.300      3.404
REMARK  5 active torsions:
REMARK  status: ('A' for Active; 'I' for Inactive)
REMARK    1  A    between atoms: C_18  and  C_11 
REMARK    2  A    between atoms: O_24  and  C_11 
REMARK    3  A    between atoms: C_17  and  O_26 
REMARK    4  A    between atoms: C_22  and  C_18 
REMARK    5  A    between atoms: C_22  and  O_28 
ROOT
HETATM    1  C   UNK N   1      33.081   9.079  10.437  0.00  0.00     0.018 C 
HETATM    2  C   UNK N   1      37.475  11.555  14.886  0.00  0.00     0.028 C 
HETATM    3  C   UNK N   1      37.271   9.517  11.366  0.00  0.00     0.020 C 
HETATM    4  C   UNK N   1      34.707  10.647  15.945  0.00  0.00     0.036 C 
HETATM    5  C   UNK N   1      33.796  10.827  14.736  0.00  0.00     0.013 C 
HETATM    6  C   UNK N   1      36.618  14.525  16.536  0.00  0.00     0.052 A 
HETATM    7  C   UNK N   1      36.886  13.860  15.405  0.00  0.00    -0.006 A 
HETATM    8  C   UNK N   1      34.551   9.001  12.403  0.00  0.00     0.043 C 
HETATM    9  C   UNK N   1      35.127  12.626  17.302  0.00  0.00     0.058 A 
HETATM   10  C   UNK N   1      36.962  11.908  11.848  0.00  0.00     0.048 C 
HETATM   11  C   UNK N   1      34.249   9.402  10.993  0.00  0.00    -0.047 C 
HETATM   12  C   UNK N   1      35.398  11.947  16.178  0.00  0.00    -0.061 A 
HETATM   13  C   UNK N   1      35.710  13.951  17.534  0.00  0.00     0.172 A 
HETATM   14  C   UNK N   1      34.567  11.300  13.489  0.00  0.00     0.035 C 
HETATM   15  C   UNK N   1      35.437  10.149  12.902  0.00  0.00     0.009 C 
HETATM   16  C   UNK N   1      36.119  13.035  12.463  0.00  0.00     0.160 C 
HETATM   17  C   UNK N   1      36.291  12.498  15.063  0.00  0.00     0.036 A 
HETATM   18  C   UNK N   1      36.197  10.585  11.632  0.00  0.00     0.005 C 
HETATM   19  C   UNK N   1      35.385  12.611  13.776  0.00  0.00     0.147 C 
HETATM   20  C   UNK N   1      35.117  10.533  10.491  0.00  0.00     0.150 C 
HETATM   21  F   UNK N   1      34.454  13.605  14.054  0.00  0.00    -0.238 F 
HETATM   22  O   UNK N   1      35.427  14.578  18.541  0.00  0.00    -0.289 OA
ENDROOT
BRANCH  20  23
HETATM   23  C   UNK N   1      35.728  10.358   9.106  0.00  0.00     0.189 C 
HETATM   24  O   UNK N   1      35.728   9.250   8.593  0.00  0.00    -0.292 OA
BRANCH  23  25
HETATM   25  C   UNK N   1      36.316  11.501   8.335  0.00  0.00     0.246 C 
BRANCH  25  26
HETATM   26  O   UNK N   1      35.305  12.277   7.769  0.00  0.00    -0.393 OA
HETATM   27  H   UNK N   1      34.409  12.302   7.399  0.00  0.00     0.209 HD
ENDBRANCH  25  26
ENDBRANCH  23  25
ENDBRANCH  20  23
BRANCH  20  28
HETATM   28  O   UNK N   1      34.326  11.684  10.451  0.00  0.00    -0.377 OA
HETATM   29  H   UNK N   1      33.632  12.290  10.149  0.00  0.00     0.211 HD
ENDBRANCH  20  28
BRANCH  16  30
HETATM   30  O   UNK N   1      36.924  14.157  12.660  0.00  0.00    -0.392 OA
HETATM   31  H   UNK N   1      37.752  14.254  12.165  0.00  0.00     0.210 HD
ENDBRANCH  16  30
TORSDOF 5
ENDMDL
MODEL 6
REMARK VINA RESULT:      -7.0      4.007      8.392
REMARK  5 active torsions:
REMARK  status: ('A' for Active; 'I' for Inactive)
REMARK    1  A    between atoms: C_18  and  C_11 
REMARK    2  A    between atoms: O_24  and  C_11 
REMARK    3  A    between atoms: C_17  and  O_26 
REMARK    4  A    between atoms: C_22  and  C_18 
REMARK    5  A    between atoms: C_22  and  O_28 
ROOT
HETATM    1  C   UNK N   1      38.861  13.339   9.724  0.00  0.00     0.018 C 
HETATM    2  C   UNK N   1      32.611  14.161   7.380  0.00  0.00     0.028 C 
HETATM    3  C   UNK N   1      34.707  12.385  10.387  0.00  0.00     0.020 C 
HETATM    4  C   UNK N   1      34.934  14.164   5.327  0.00  0.00     0.036 C 
HETATM    5  C   UNK N   1      36.121  14.657   6.146  0.00  0.00     0.013 C 
HETATM    6  C   UNK N   1      31.847  17.206   5.826  0.00  0.00     0.052 A 
HETATM    7  C   UNK N   1      32.229  16.519   6.910  0.00  0.00    -0.006 A 
HETATM    8  C   UNK N   1      36.874  12.744   8.409  0.00  0.00     0.043 C 
HETATM    9  C   UNK N   1      33.459  15.869   4.403  0.00  0.00     0.058 A 
HETATM   10  C   UNK N   1      34.067  14.735  10.058  0.00  0.00     0.048 C 
HETATM   11  C   UNK N   1      37.532  13.255   9.651  0.00  0.00    -0.047 C 
HETATM   12  C   UNK N   1      33.841  15.167   5.480  0.00  0.00    -0.061 A 
HETATM   13  C   UNK N   1      32.454  16.930   4.521  0.00  0.00     0.172 A 
HETATM   14  C   UNK N   1      35.755  14.888   7.624  0.00  0.00     0.035 C 
HETATM   15  C   UNK N   1      35.561  13.534   8.368  0.00  0.00     0.009 C 
HETATM   16  C   UNK N   1      34.235  16.058   9.295  0.00  0.00     0.160 C 
HETATM   17  C   UNK N   1      33.296  15.430   6.886  0.00  0.00     0.036 A 
HETATM   18  C   UNK N   1      35.224  13.733   9.861  0.00  0.00     0.005 C 
HETATM   19  C   UNK N   1      34.529  15.859   7.773  0.00  0.00     0.147 C 
HETATM   20  C   UNK N   1      36.606  14.060  10.535  0.00  0.00     0.150 C 
HETATM   21  F   UNK N   1      34.938  17.093   7.280  0.00  0.00    -0.238 F 
HETATM   22  O   UNK N   1      32.141  17.590   3.544  0.00  0.00    -0.289 OA
ENDROOT
BRANCH  20  23
HETATM   23  C   UNK N   1      36.631  13.732  12.022  0.00  0.00     0.189 C 
HETATM   24  O   UNK N   1      37.159  12.696  12.394  0.00  0.00    -0.292 OA
BRANCH  23  25
HETATM   25  C   UNK N   1      36.046  14.645  13.058  0.00  0.00     0.246 C 
BRANCH  25  26
HETATM   26  O   UNK N   1      36.926  14.789  14.131  0.00  0.00    -0.393 OA
HETATM   27  H   UNK N   1      37.115  15.229  14.974  0.00  0.00     0.209 HD
ENDBRANCH  25  26
ENDBRANCH  23  25
ENDBRANCH  20  23
BRANCH  20  28
HETATM   28  O   UNK N   1      36.962  15.405  10.402  0.00  0.00    -0.377 OA
HETATM   29  H   UNK N   1      37.188  16.237   9.959  0.00  0.00     0.211 HD
ENDBRANCH  20  28
BRANCH  16  30
HETATM   30  O   UNK N   1      33.110  16.856   9.505  0.00  0.00    -0.392 OA
HETATM   31  H   UNK N   1      32.555  17.120   8.755  0.00  0.00     0.210 HD
ENDBRANCH  16  30
TORSDOF 5
ENDMDL
MODEL 7
REMARK VINA RESULT:      -6.9     15.016     17.043
REMARK  5 active torsions:
REMARK  status: ('A' for Active; 'I' for Inactive)
REMARK    1  A    between atoms: C_18  and  C_11 
REMARK    2  A    between atoms: O_24  and  C_11 
REMARK    3  A    between atoms: C_17  and  O_26 
REMARK    4  A    between atoms: C_22  and  C_18 
REMARK    5  A    between atoms: C_22  and  O_28 
ROOT
HETATM    1  C   UNK N   1      19.730  16.564   0.851  0.00  0.00     0.018 C 
HETATM    2  C   UNK N   1      23.078  15.642   6.610  0.00  0.00     0.028 C 
HETATM    3  C   UNK N   1      23.011  17.973   3.271  0.00  0.00     0.020 C 
HETATM    4  C   UNK N   1      21.751  13.165   5.301  0.00  0.00     0.036 C 
HETATM    5  C   UNK N   1      20.586  13.767   4.523  0.00  0.00     0.013 C 
HETATM    6  C   UNK N   1      21.247  14.574   9.400  0.00  0.00     0.052 A 
HETATM    7  C   UNK N   1      21.491  15.486   8.450  0.00  0.00    -0.006 A 
HETATM    8  C   UNK N   1      21.497  15.635   2.282  0.00  0.00     0.043 C 
HETATM    9  C   UNK N   1      21.376  12.730   7.669  0.00  0.00     0.058 A 
HETATM   10  C   UNK N   1      21.582  18.006   5.271  0.00  0.00     0.048 C 
HETATM   11  C   UNK N   1      20.621  16.758   1.823  0.00  0.00    -0.047 C 
HETATM   12  C   UNK N   1      21.632  13.634   6.712  0.00  0.00    -0.061 A 
HETATM   13  C   UNK N   1      21.159  13.151   9.056  0.00  0.00     0.172 A 
HETATM   14  C   UNK N   1      20.550  15.303   4.618  0.00  0.00     0.035 C 
HETATM   15  C   UNK N   1      21.692  15.940   3.771  0.00  0.00     0.009 C 
HETATM   16  C   UNK N   1      20.483  17.354   6.122  0.00  0.00     0.160 C 
HETATM   17  C   UNK N   1      21.686  15.141   6.978  0.00  0.00     0.036 A 
HETATM   18  C   UNK N   1      21.662  17.482   3.822  0.00  0.00     0.005 C 
HETATM   19  C   UNK N   1      20.539  15.792   6.112  0.00  0.00     0.147 C 
HETATM   20  C   UNK N   1      20.515  17.885   2.826  0.00  0.00     0.150 C 
HETATM   21  F   UNK N   1      19.346  15.344   6.666  0.00  0.00    -0.238 F 
HETATM   22  O   UNK N   1      20.888  12.326   9.913  0.00  0.00    -0.289 OA
ENDROOT
BRANCH  20  23
HETATM   23  C   UNK N   1      20.676  19.298   2.279  0.00  0.00     0.189 C 
HETATM   24  O   UNK N   1      20.923  19.452   1.093  0.00  0.00    -0.292 OA
BRANCH  23  25
HETATM   25  C   UNK N   1      20.524  20.516   3.139  0.00  0.00     0.246 C 
BRANCH  25  26
HETATM   26  O   UNK N   1      21.323  21.554   2.660  0.00  0.00    -0.393 OA
HETATM   27  H   UNK N   1      21.831  22.353   2.868  0.00  0.00     0.209 HD
ENDBRANCH  25  26
ENDBRANCH  23  25
ENDBRANCH  20  23
BRANCH  20  28
HETATM   28  O   UNK N   1      19.248  17.810   3.410  0.00  0.00    -0.377 OA
HETATM   29  H   UNK N   1      18.430  17.406   3.739  0.00  0.00     0.211 HD
ENDBRANCH  20  28
BRANCH  16  30
HETATM   30  O   UNK N   1      20.541  17.864   7.419  0.00  0.00    -0.392 OA
HETATM   31  H   UNK N   1      21.029  18.683   7.598  0.00  0.00     0.210 HD
ENDBRANCH  16  30
TORSDOF 5
ENDMDL
MODEL 8
REMARK VINA RESULT:      -6.5      2.594      4.138
REMARK  5 active torsions:
REMARK  status: ('A' for Active; 'I' for Inactive)
REMARK    1  A    between atoms: C_18  and  C_11 
REMARK    2  A    between atoms: O_24  and  C_11 
REMARK    3  A    between atoms: C_17  and  O_26 
REMARK    4  A    between atoms: C_22  and  C_18 
REMARK    5  A    between atoms: C_22  and  O_28 
ROOT
HETATM    1  C   UNK N   1      38.377  13.088  10.567  0.00  0.00     0.018 C 
HETATM    2  C   UNK N   1      33.735  10.954  14.940  0.00  0.00     0.028 C 
HETATM    3  C   UNK N   1      34.512  11.211  10.951  0.00  0.00     0.020 C 
HETATM    4  C   UNK N   1      35.494  13.369  15.768  0.00  0.00     0.036 C 
HETATM    5  C   UNK N   1      36.781  13.146  14.982  0.00  0.00     0.013 C 
HETATM    6  C   UNK N   1      34.855   9.678  18.004  0.00  0.00     0.052 A 
HETATM    7  C   UNK N   1      34.808   9.616  16.667  0.00  0.00    -0.006 A 
HETATM    8  C   UNK N   1      36.362  13.286  11.957  0.00  0.00     0.043 C 
HETATM    9  C   UNK N   1      35.279  12.171  17.878  0.00  0.00     0.058 A 
HETATM   10  C   UNK N   1      35.381   9.663  12.651  0.00  0.00     0.048 C 
HETATM   11  C   UNK N   1      37.258  12.528  11.028  0.00  0.00    -0.047 C 
HETATM   12  C   UNK N   1      35.223  12.122  16.539  0.00  0.00    -0.061 A 
HETATM   13  C   UNK N   1      35.111  10.955  18.678  0.00  0.00     0.172 A 
HETATM   14  C   UNK N   1      36.701  11.909  14.068  0.00  0.00     0.035 C 
HETATM   15  C   UNK N   1      35.777  12.180  12.844  0.00  0.00     0.009 C 
HETATM   16  C   UNK N   1      36.264   9.410  13.882  0.00  0.00     0.160 C 
HETATM   17  C   UNK N   1      35.014  10.822  15.758  0.00  0.00     0.036 A 
HETATM   18  C   UNK N   1      35.702  10.968  11.892  0.00  0.00     0.005 C 
HETATM   19  C   UNK N   1      36.303  10.618  14.872  0.00  0.00     0.147 C 
HETATM   20  C   UNK N   1      37.040  11.033  11.068  0.00  0.00     0.150 C 
HETATM   21  F   UNK N   1      37.341  10.372  15.764  0.00  0.00    -0.238 F 
HETATM   22  O   UNK N   1      35.203  11.002  19.894  0.00  0.00    -0.289 OA
ENDROOT
BRANCH  20  23
HETATM   23  C   UNK N   1      36.940  10.324   9.723  0.00  0.00     0.189 C 
HETATM   24  O   UNK N   1      36.761  10.988   8.714  0.00  0.00    -0.292 OA
BRANCH  23  25
HETATM   25  C   UNK N   1      37.075   8.838   9.584  0.00  0.00     0.246 C 
BRANCH  25  26
HETATM   26  O   UNK N   1      38.394   8.445   9.811  0.00  0.00    -0.393 OA
HETATM   27  H   UNK N   1      38.994   7.749  10.121  0.00  0.00     0.209 HD
ENDBRANCH  25  26
ENDBRANCH  23  25
ENDBRANCH  20  23
BRANCH  20  28
HETATM   28  O   UNK N   1      38.118  10.468  11.754  0.00  0.00    -0.377 OA
HETATM   29  H   UNK N   1      38.606  10.058  12.485  0.00  0.00     0.211 HD
ENDBRANCH  20  28
BRANCH  16  30
HETATM   30  O   UNK N   1      35.848   8.238  14.513  0.00  0.00    -0.392 OA
HETATM   31  H   UNK N   1      35.004   8.215  14.990  0.00  0.00     0.210 HD
ENDBRANCH  16  30
TORSDOF 5
ENDMDL
MODEL 9
REMARK VINA RESULT:      -6.5     19.986     23.106
REMARK  5 active torsions:
REMARK  status: ('A' for Active; 'I' for Inactive)
REMARK    1  A    between atoms: C_18  and  C_11 
REMARK    2  A    between atoms: O_24  and  C_11 
REMARK    3  A    between atoms: C_17  and  O_26 
REMARK    4  A    between atoms: C_22  and  C_18 
REMARK    5  A    between atoms: C_22  and  O_28 
ROOT
HETATM    1  C   UNK N   1      31.541  20.721  -7.669  0.00  0.00     0.018 C 
HETATM    2  C   UNK N   1      27.450  23.885  -3.369  0.00  0.00     0.028 C 
HETATM    3  C   UNK N   1      30.510  21.200  -3.507  0.00  0.00     0.020 C 
HETATM    4  C   UNK N   1      26.372  23.292  -6.214  0.00  0.00     0.036 C 
HETATM    5  C   UNK N   1      27.637  23.258  -7.064  0.00  0.00     0.013 C 
HETATM    6  C   UNK N   1      26.458  27.147  -4.173  0.00  0.00     0.052 A 
HETATM    7  C   UNK N   1      27.423  26.264  -3.884  0.00  0.00    -0.006 A 
HETATM    8  C   UNK N   1      29.528  20.985  -6.287  0.00  0.00     0.043 C 
HETATM    9  C   UNK N   1      25.410  25.485  -5.771  0.00  0.00     0.058 A 
HETATM   10  C   UNK N   1      30.521  23.647  -3.739  0.00  0.00     0.048 C 
HETATM   11  C   UNK N   1      31.001  21.109  -6.513  0.00  0.00    -0.047 C 
HETATM   12  C   UNK N   1      26.365  24.590  -5.480  0.00  0.00    -0.061 A 
HETATM   13  C   UNK N   1      25.413  26.811  -5.145  0.00  0.00     0.172 A 
HETATM   14  C   UNK N   1      28.913  23.451  -6.223  0.00  0.00     0.035 C 
HETATM   15  C   UNK N   1      29.220  22.180  -5.377  0.00  0.00     0.009 C 
HETATM   16  C   UNK N   1      30.180  24.900  -4.560  0.00  0.00     0.160 C 
HETATM   17  C   UNK N   1      27.520  24.882  -4.520  0.00  0.00     0.036 A 
HETATM   18  C   UNK N   1      30.511  22.333  -4.547  0.00  0.00     0.005 C 
HETATM   19  C   UNK N   1      28.848  24.767  -5.365  0.00  0.00     0.147 C 
HETATM   20  C   UNK N   1      31.672  22.091  -5.579  0.00  0.00     0.150 C 
HETATM   21  F   UNK N   1      28.816  25.826  -6.266  0.00  0.00    -0.238 F 
HETATM   22  O   UNK N   1      24.563  27.633  -5.445  0.00  0.00    -0.289 OA
ENDROOT
BRANCH  20  23
HETATM   23  C   UNK N   1      32.964  21.627  -4.918  0.00  0.00     0.189 C 
HETATM   24  O   UNK N   1      33.733  22.461  -4.466  0.00  0.00    -0.292 OA
BRANCH  23  25
HETATM   25  C   UNK N   1      33.323  20.178  -4.780  0.00  0.00     0.246 C 
BRANCH  25  26
HETATM   26  O   UNK N   1      33.651  19.882  -3.457  0.00  0.00    -0.393 OA
HETATM   27  H   UNK N   1      34.306  19.955  -2.745  0.00  0.00     0.209 HD
ENDBRANCH  25  26
ENDBRANCH  23  25
ENDBRANCH  20  23
BRANCH  20  28
HETATM   28  O   UNK N   1      31.976  23.236  -6.320  0.00  0.00    -0.377 OA
HETATM   29  H   UNK N   1      31.857  23.947  -6.969  0.00  0.00     0.211 HD
ENDBRANCH  20  28
BRANCH  16  30
HETATM   30  O   UNK N   1      30.167  26.012  -3.719  0.00  0.00    -0.392 OA
HETATM   31  H   UNK N   1      29.752  26.838  -4.012  0.00  0.00     0.210 HD
ENDBRANCH  16  30
TORSDOF 5
ENDMDL
