REMARK  7 active torsions:
REMARK  status: ('A' for Active; 'I' for Inactive)
REMARK    1  A    between atoms: O_28  and  C_2 
REMARK    2  A    between atoms: C_16  and  C_15 
REMARK    3  A    between atoms: C_17  and  C_15 
REMARK    4  A    between atoms: C_20  and  C_15 
REMARK    5  A    between atoms: O_23  and  C_18 
REMARK    6  A    between atoms: O_24  and  C_19 
REMARK    7  A    between atoms: O_28  and  C_20 
ROOT
HETATM    1  C   UNK N   1       1.572  -1.056   0.750  0.00  0.00     0.169 C 
ENDROOT
BRANCH   1   2
HETATM    2  C   UNK N   1       1.691   0.477   0.656  0.00  0.00     0.070 A 
HETATM    3  C   UNK N   1       2.697   1.144  -0.088  0.00  0.00     0.092 A 
HETATM    4  C   UNK N   1       2.697   2.542  -0.143  0.00  0.00     0.032 A 
HETATM    5  C   UNK N   1       3.666   3.241  -0.878  0.00  0.00     0.017 A 
HETATM    6  C   UNK N   1       1.699   3.255   0.548  0.00  0.00     0.092 A 
HETATM    7  C   UNK N   1       3.632   4.638  -0.932  0.00  0.00     0.001 A 
HETATM    8  C   UNK N   1       2.632   5.341  -0.256  0.00  0.00     0.003 A 
HETATM    9  C   UNK N   1       1.669   4.651   0.486  0.00  0.00     0.038 A 
HETATM   10  O   UNK N   1       0.788   2.609   1.262  0.00  0.00    -0.274 OA
HETATM   11  C   UNK N   1       0.751   1.283   1.351  0.00  0.00     0.298 A 
HETATM   12  O   UNK N   1      -0.119   0.766   2.032  0.00  0.00    -0.259 OA
BRANCH   3  13
HETATM   13  O   UNK N   1       3.655   0.464  -0.743  0.00  0.00    -0.359 OA
HETATM   14  H   UNK N   1       3.579  -0.351  -1.199  0.00  0.00     0.217 HD
ENDBRANCH   3  13
ENDBRANCH   1   2
BRANCH   1  15
HETATM   15  C   UNK N   1       0.185  -1.641   0.476  0.00  0.00     0.070 A 
HETATM   16  C   UNK N   1      -0.775  -1.007  -0.347  0.00  0.00     0.092 A 
HETATM   17  C   UNK N   1      -2.043  -1.579  -0.481  0.00  0.00     0.032 A 
HETATM   18  C   UNK N   1      -3.040  -0.965  -1.250  0.00  0.00     0.017 A 
HETATM   19  C   UNK N   1      -2.320  -2.789   0.186  0.00  0.00     0.092 A 
HETATM   20  C   UNK N   1      -4.307  -1.547  -1.349  0.00  0.00     0.001 A 
HETATM   21  C   UNK N   1      -4.580  -2.748  -0.687  0.00  0.00     0.003 A 
HETATM   22  C   UNK N   1      -3.587  -3.370   0.076  0.00  0.00     0.038 A 
HETATM   23  O   UNK N   1      -1.388  -3.377   0.924  0.00  0.00    -0.274 OA
HETATM   24  C   UNK N   1      -0.174  -2.860   1.095  0.00  0.00     0.298 A 
HETATM   25  O   UNK N   1       0.625  -3.446   1.804  0.00  0.00    -0.259 OA
BRANCH  16  26
HETATM   26  O   UNK N   1      -0.492   0.140  -0.995  0.00  0.00    -0.359 OA
HETATM   27  H   UNK N   1       0.297   0.368  -1.445  0.00  0.00     0.217 HD
ENDBRANCH  16  26
ENDBRANCH   1  15
BRANCH   1  28
HETATM   28  C   UNK N   1       2.617  -1.905   0.077  0.00  0.00     0.272 C 
HETATM   29  O   UNK N   1       2.652  -1.981  -1.145  0.00  0.00    -0.264 OA
BRANCH  28  30
HETATM   30  O   UNK N   1       3.471  -2.632   0.841  0.00  0.00    -0.321 OA
BRANCH  30  31
HETATM   31  C   UNK N   1       4.392  -3.513   0.313  0.00  0.00     0.174 C 
HETATM   32  C   UNK N   1       3.697  -4.755  -0.220  0.00  0.00     0.034 C 
ENDBRANCH  30  31
ENDBRANCH  28  30
ENDBRANCH   1  28
TORSDOF 7
