REMARK  5 active torsions:
REMARK  status: ('A' for Active; 'I' for Inactive)
REMARK    1  A    between atoms: C_14  and  C_17 
REMARK    2  A    between atoms: C_17  and  C_19 
REMARK    3  A    between atoms: C_19  and  C_20 
REMARK    4  A    between atoms: C_20  and  C_21 
REMARK    5  A    between atoms: C_21  and  O_23 
ROOT
HETATM    1  C   UNK N   1      -2.796   1.803  -0.023  0.00  0.00     0.002 A 
HETATM    2  C   UNK N   1      -3.113   0.420  -0.112  0.00  0.00     0.012 A 
HETATM    3  C   UNK N   1      -2.072  -0.527  -0.128  0.00  0.00    -0.024 A 
HETATM    4  C   UNK N   1      -2.262  -1.916  -0.221  0.00  0.00     0.012 A 
HETATM    5  C   UNK N   1      -1.127  -2.774  -0.241  0.00  0.00     0.002 A 
HETATM    6  C   UNK N   1       0.188  -2.245  -0.181  0.00  0.00     0.013 A 
HETATM    7  C   UNK N   1       0.332  -0.858  -0.089  0.00  0.00    -0.013 A 
HETATM    8  C   UNK N   1      -0.782  -0.058  -0.059  0.00  0.00    -0.004 A 
HETATM    9  C   UNK N   1      -0.448   1.264   0.032  0.00  0.00    -0.013 A 
HETATM   10  C   UNK N   1      -1.450   2.238   0.051  0.00  0.00     0.013 A 
HETATM   11  C   UNK N   1       1.008   1.335   0.058  0.00  0.00    -0.014 A 
HETATM   12  C   UNK N   1       1.490   0.035  -0.034  0.00  0.00    -0.013 A 
HETATM   13  C   UNK N   1       2.856  -0.225  -0.099  0.00  0.00     0.028 A 
HETATM   14  C   UNK N   1       3.752   0.868  -0.051  0.00  0.00     0.011 A 
HETATM   15  C   UNK N   1       3.244   2.186   0.073  0.00  0.00     0.016 A 
HETATM   16  C   UNK N   1       1.862   2.428   0.122  0.00  0.00     0.014 A 
ENDROOT
BRANCH  14  17
HETATM   17  C   UNK N   1       5.218   0.659  -0.167  0.00  0.00     0.160 C 
HETATM   18  O   UNK N   1       5.975   1.613  -0.083  0.00  0.00    -0.292 OA
BRANCH  17  19
HETATM   19  C   UNK N   1       5.797  -0.694  -0.456  0.00  0.00     0.094 C 
BRANCH  19  20
HETATM   20  C   UNK N   1       5.443  -1.692   0.629  0.00  0.00     0.117 C 
BRANCH  20  21
HETATM   21  C   UNK N   1       5.059  -2.986  -0.005  0.00  0.00     0.139 C 
HETATM   22  O   UNK N   1       5.897  -3.662  -0.580  0.00  0.00    -0.650 OA
BRANCH  21  23
HETATM   23  O   UNK N   1       3.780  -3.401   0.045  0.00  0.00    -0.776 OA
HETATM   24  H   UNK N   1       3.085  -2.775   0.079  0.00  0.00     0.167 HD
ENDBRANCH  21  23
ENDBRANCH  20  21
ENDBRANCH  19  20
ENDBRANCH  17  19
ENDBRANCH  14  17
TORSDOF 5
