MODEL 1
REMARK VINA RESULT:      -5.1      0.000      0.000
REMARK  6 active torsions:
REMARK  status: ('A' for Active; 'I' for Inactive)
REMARK    1  A    between atoms: N_11  and  C_2 
REMARK    2  A    between atoms: C_10  and  C_7 
REMARK    3  A    between atoms: N_11  and  C_7 
REMARK    4  A    between atoms: C_10  and  C_8 
REMARK    5  A    between atoms: O_12  and  C_9 
REMARK    6  A    between atoms: O_13  and  C_10 
ROOT
HETATM    1  C   UNK N   1      35.836  10.648  18.289  0.00  0.00     0.003 A 
HETATM    2  C   UNK N   1      35.778  11.251  17.030  0.00  0.00     0.010 A 
HETATM    3  C   UNK N   1      35.536  11.390  19.434  0.00  0.00     0.036 A 
HETATM    4  C   UNK N   1      35.095  13.334  18.059  0.00  0.00     0.046 A 
HETATM    5  C   UNK N   1      35.407  12.600  16.903  0.00  0.00    -0.025 A 
HETATM    6  C   UNK N   1      35.171  12.733  19.318  0.00  0.00     0.066 A 
ENDROOT
BRANCH   5   7
HETATM    7  C   UNK N   1      35.314  13.255  15.545  0.00  0.00     0.168 C 
BRANCH   7   8
HETATM    8  C   UNK N   1      36.616  13.168  14.761  0.00  0.00     0.150 C 
BRANCH   8   9
HETATM    9  N   UNK N   1      36.786  14.376  13.966  0.00  0.00    -0.419 N 
HETATM   10  H   UNK N   1      37.078  15.291  14.314  0.00  0.00     0.153 HD
BRANCH   9  11
HETATM   11  C   UNK N   1      36.466  14.045  12.588  0.00  0.00     0.109 C 
HETATM   12  C   UNK N   1      35.765  15.217  11.926  0.00  0.00     0.026 C 
ENDBRANCH   9  11
ENDBRANCH   8   9
ENDBRANCH   7   8
BRANCH   7  13
HETATM   13  O   UNK N   1      34.284  12.693  14.784  0.00  0.00    -0.389 OA
HETATM   14  H   UNK N   1      33.949  13.134  13.988  0.00  0.00     0.210 HD
ENDBRANCH   7  13
ENDBRANCH   5   7
BRANCH   6  15
HETATM   15  O   UNK N   1      34.896  13.452  20.421  0.00  0.00    -0.361 OA
HETATM   16  H   UNK N   1      35.549  14.010  20.794  0.00  0.00     0.217 HD
ENDBRANCH   6  15
TORSDOF 6
ENDMDL
MODEL 2
REMARK VINA RESULT:      -5.0     22.616     24.878
REMARK  6 active torsions:
REMARK  status: ('A' for Active; 'I' for Inactive)
REMARK    1  A    between atoms: N_11  and  C_2 
REMARK    2  A    between atoms: C_10  and  C_7 
REMARK    3  A    between atoms: N_11  and  C_7 
REMARK    4  A    between atoms: C_10  and  C_8 
REMARK    5  A    between atoms: O_12  and  C_9 
REMARK    6  A    between atoms: O_13  and  C_10 
ROOT
HETATM    1  C   UNK N   1      30.158  22.231  -4.965  0.00  0.00     0.003 A 
HETATM    2  C   UNK N   1      29.003  22.976  -5.217  0.00  0.00     0.010 A 
HETATM    3  C   UNK N   1      30.707  22.205  -3.680  0.00  0.00     0.036 A 
HETATM    4  C   UNK N   1      28.931  23.650  -2.893  0.00  0.00     0.046 A 
HETATM    5  C   UNK N   1      28.378  23.692  -4.184  0.00  0.00    -0.025 A 
HETATM    6  C   UNK N   1      30.096  22.919  -2.647  0.00  0.00     0.066 A 
ENDROOT
BRANCH   5   7
HETATM    7  C   UNK N   1      27.114  24.479  -4.438  0.00  0.00     0.168 C 
BRANCH   7   8
HETATM    8  C   UNK N   1      26.320  23.946  -5.623  0.00  0.00     0.150 C 
BRANCH   8   9
HETATM    9  N   UNK N   1      25.135  24.769  -5.823  0.00  0.00    -0.419 N 
HETATM   10  H   UNK N   1      24.169  24.482  -5.663  0.00  0.00     0.153 HD
BRANCH   9  11
HETATM   11  C   UNK N   1      25.577  26.071  -6.292  0.00  0.00     0.109 C 
HETATM   12  C   UNK N   1      24.734  27.161  -5.659  0.00  0.00     0.026 C 
ENDBRANCH   9  11
ENDBRANCH   8   9
ENDBRANCH   7   8
BRANCH   7  13
HETATM   13  O   UNK N   1      26.293  24.492  -3.306  0.00  0.00    -0.389 OA
HETATM   14  H   UNK N   1      26.661  24.638  -2.420  0.00  0.00     0.210 HD
ENDBRANCH   7  13
ENDBRANCH   5   7
BRANCH   6  15
HETATM   15  O   UNK N   1      30.631  22.907  -1.414  0.00  0.00    -0.361 OA
HETATM   16  H   UNK N   1      31.202  23.598  -1.142  0.00  0.00     0.217 HD
ENDBRANCH   6  15
TORSDOF 6
ENDMDL
MODEL 3
REMARK VINA RESULT:      -4.9     17.548     19.816
REMARK  6 active torsions:
REMARK  status: ('A' for Active; 'I' for Inactive)
REMARK    1  A    between atoms: N_11  and  C_2 
REMARK    2  A    between atoms: C_10  and  C_7 
REMARK    3  A    between atoms: N_11  and  C_7 
REMARK    4  A    between atoms: C_10  and  C_8 
REMARK    5  A    between atoms: O_12  and  C_9 
REMARK    6  A    between atoms: O_13  and  C_10 
ROOT
HETATM    1  C   UNK N   1      25.593  20.192   3.212  0.00  0.00     0.003 A 
HETATM    2  C   UNK N   1      24.353  20.626   2.735  0.00  0.00     0.010 A 
HETATM    3  C   UNK N   1      25.661  19.133   4.121  0.00  0.00     0.036 A 
HETATM    4  C   UNK N   1      23.250  18.924   4.058  0.00  0.00     0.046 A 
HETATM    5  C   UNK N   1      23.170  19.996   3.154  0.00  0.00    -0.025 A 
HETATM    6  C   UNK N   1      24.489  18.504   4.546  0.00  0.00     0.066 A 
ENDROOT
BRANCH   5   7
HETATM    7  C   UNK N   1      21.826  20.438   2.624  0.00  0.00     0.168 C 
BRANCH   7   8
HETATM    8  C   UNK N   1      20.662  19.805   3.374  0.00  0.00     0.150 C 
BRANCH   8   9
HETATM    9  N   UNK N   1      19.672  19.325   2.420  0.00  0.00    -0.419 N 
HETATM   10  H   UNK N   1      18.776  19.767   2.209  0.00  0.00     0.153 HD
BRANCH   9  11
HETATM   11  C   UNK N   1      20.189  18.106   1.824  0.00  0.00     0.109 C 
HETATM   12  C   UNK N   1      20.229  17.001   2.863  0.00  0.00     0.026 C 
ENDBRANCH   9  11
ENDBRANCH   8   9
ENDBRANCH   7   8
BRANCH   7  13
HETATM   13  O   UNK N   1      21.699  21.830   2.674  0.00  0.00    -0.389 OA
HETATM   14  H   UNK N   1      20.881  22.271   2.394  0.00  0.00     0.210 HD
ENDBRANCH   7  13
ENDBRANCH   5   7
BRANCH   6  15
HETATM   15  O   UNK N   1      24.553  17.494   5.432  0.00  0.00    -0.361 OA
HETATM   16  H   UNK N   1      23.905  16.818   5.422  0.00  0.00     0.217 HD
ENDBRANCH   6  15
TORSDOF 6
ENDMDL
MODEL 4
REMARK VINA RESULT:      -4.9     22.728     25.775
REMARK  6 active torsions:
REMARK  status: ('A' for Active; 'I' for Inactive)
REMARK    1  A    between atoms: N_11  and  C_2 
REMARK    2  A    between atoms: C_10  and  C_7 
REMARK    3  A    between atoms: N_11  and  C_7 
REMARK    4  A    between atoms: C_10  and  C_8 
REMARK    5  A    between atoms: O_12  and  C_9 
REMARK    6  A    between atoms: O_13  and  C_10 
ROOT
HETATM    1  C   UNK N   1      24.891  26.914  -5.706  0.00  0.00     0.003 A 
HETATM    2  C   UNK N   1      25.428  25.658  -5.414  0.00  0.00     0.010 A 
HETATM    3  C   UNK N   1      25.148  27.998  -4.862  0.00  0.00     0.036 A 
HETATM    4  C   UNK N   1      26.501  26.574  -3.447  0.00  0.00     0.046 A 
HETATM    5  C   UNK N   1      26.238  25.476  -4.282  0.00  0.00    -0.025 A 
HETATM    6  C   UNK N   1      25.949  27.825  -3.731  0.00  0.00     0.066 A 
ENDROOT
BRANCH   5   7
HETATM    7  C   UNK N   1      26.847  24.128  -3.971  0.00  0.00     0.168 C 
BRANCH   7   8
HETATM    8  C   UNK N   1      28.219  23.944  -4.605  0.00  0.00     0.150 C 
BRANCH   8   9
HETATM    9  N   UNK N   1      29.103  23.273  -3.663  0.00  0.00    -0.419 N 
HETATM   10  H   UNK N   1      29.074  23.355  -2.646  0.00  0.00     0.153 HD
BRANCH   9  11
HETATM   11  C   UNK N   1      30.034  22.465  -4.431  0.00  0.00     0.109 C 
HETATM   12  C   UNK N   1      30.447  21.247  -3.626  0.00  0.00     0.026 C 
ENDBRANCH   9  11
ENDBRANCH   8   9
ENDBRANCH   7   8
BRANCH   7  13
HETATM   13  O   UNK N   1      26.950  23.929  -2.591  0.00  0.00    -0.389 OA
HETATM   14  H   UNK N   1      26.360  23.316  -2.126  0.00  0.00     0.210 HD
ENDBRANCH   7  13
ENDBRANCH   5   7
BRANCH   6  15
HETATM   15  O   UNK N   1      26.185  28.864  -2.911  0.00  0.00    -0.361 OA
HETATM   16  H   UNK N   1      25.558  29.097  -2.254  0.00  0.00     0.217 HD
ENDBRANCH   6  15
TORSDOF 6
ENDMDL
MODEL 5
REMARK VINA RESULT:      -4.9     10.405     12.601
REMARK  6 active torsions:
REMARK  status: ('A' for Active; 'I' for Inactive)
REMARK    1  A    between atoms: N_11  and  C_2 
REMARK    2  A    between atoms: C_10  and  C_7 
REMARK    3  A    between atoms: N_11  and  C_7 
REMARK    4  A    between atoms: C_10  and  C_8 
REMARK    5  A    between atoms: O_12  and  C_9 
REMARK    6  A    between atoms: O_13  and  C_10 
ROOT
HETATM    1  C   UNK N   1      30.548  16.444   6.346  0.00  0.00     0.003 A 
HETATM    2  C   UNK N   1      29.516  17.320   6.693  0.00  0.00     0.010 A 
HETATM    3  C   UNK N   1      31.598  16.212   7.238  0.00  0.00     0.036 A 
HETATM    4  C   UNK N   1      30.571  17.712   8.837  0.00  0.00     0.046 A 
HETATM    5  C   UNK N   1      29.517  17.963   7.942  0.00  0.00    -0.025 A 
HETATM    6  C   UNK N   1      31.610  16.850   8.480  0.00  0.00     0.066 A 
ENDROOT
BRANCH   5   7
HETATM    7  C   UNK N   1      28.394  18.891   8.339  0.00  0.00     0.168 C 
BRANCH   7   8
HETATM    8  C   UNK N   1      27.566  19.353   7.148  0.00  0.00     0.150 C 
BRANCH   8   9
HETATM    9  N   UNK N   1      26.604  20.356   7.585  0.00  0.00    -0.419 N 
HETATM   10  H   UNK N   1      25.964  20.272   8.376  0.00  0.00     0.153 HD
BRANCH   9  11
HETATM   11  C   UNK N   1      26.720  21.496   6.692  0.00  0.00     0.109 C 
HETATM   12  C   UNK N   1      27.048  21.021   5.289  0.00  0.00     0.026 C 
ENDBRANCH   9  11
ENDBRANCH   8   9
ENDBRANCH   7   8
BRANCH   7  13
HETATM   13  O   UNK N   1      27.549  18.286   9.275  0.00  0.00    -0.389 OA
HETATM   14  H   UNK N   1      26.641  18.034   9.045  0.00  0.00     0.210 HD
ENDBRANCH   7  13
ENDBRANCH   5   7
BRANCH   6  15
HETATM   15  O   UNK N   1      32.627  16.638   9.333  0.00  0.00    -0.361 OA
HETATM   16  H   UNK N   1      33.052  17.362   9.749  0.00  0.00     0.217 HD
ENDBRANCH   6  15
TORSDOF 6
ENDMDL
MODEL 6
REMARK VINA RESULT:      -4.9      7.495     11.018
REMARK  6 active torsions:
REMARK  status: ('A' for Active; 'I' for Inactive)
REMARK    1  A    between atoms: N_11  and  C_2 
REMARK    2  A    between atoms: C_10  and  C_7 
REMARK    3  A    between atoms: N_11  and  C_7 
REMARK    4  A    between atoms: C_10  and  C_8 
REMARK    5  A    between atoms: O_12  and  C_9 
REMARK    6  A    between atoms: O_13  and  C_10 
ROOT
HETATM    1  C   UNK N   1      33.079  17.213   4.944  0.00  0.00     0.003 A 
HETATM    2  C   UNK N   1      33.825  17.561   6.073  0.00  0.00     0.010 A 
HETATM    3  C   UNK N   1      31.717  16.927   5.066  0.00  0.00     0.036 A 
HETATM    4  C   UNK N   1      31.840  17.362   7.445  0.00  0.00     0.046 A 
HETATM    5  C   UNK N   1      33.212  17.639   7.334  0.00  0.00    -0.025 A 
HETATM    6  C   UNK N   1      31.100  16.997   6.317  0.00  0.00     0.066 A 
ENDROOT
BRANCH   5   7
HETATM    7  C   UNK N   1      34.002  18.041   8.558  0.00  0.00     0.168 C 
BRANCH   7   8
HETATM    8  C   UNK N   1      34.691  16.859   9.225  0.00  0.00     0.150 C 
BRANCH   8   9
HETATM    9  N   UNK N   1      35.055  17.216  10.590  0.00  0.00    -0.419 N 
HETATM   10  H   UNK N   1      35.091  18.161  10.976  0.00  0.00     0.153 HD
BRANCH   9  11
HETATM   11  C   UNK N   1      35.358  15.987  11.301  0.00  0.00     0.109 C 
HETATM   12  C   UNK N   1      34.710  14.810  10.596  0.00  0.00     0.026 C 
ENDBRANCH   9  11
ENDBRANCH   8   9
ENDBRANCH   7   8
BRANCH   7  13
HETATM   13  O   UNK N   1      34.960  19.010   8.242  0.00  0.00    -0.389 OA
HETATM   14  H   UNK N   1      35.206  19.193   7.322  0.00  0.00     0.210 HD
ENDBRANCH   7  13
ENDBRANCH   5   7
BRANCH   6  15
HETATM   15  O   UNK N   1      29.793  16.709   6.438  0.00  0.00    -0.361 OA
HETATM   16  H   UNK N   1      29.524  15.874   6.769  0.00  0.00     0.217 HD
ENDBRANCH   6  15
TORSDOF 6
ENDMDL
MODEL 7
REMARK VINA RESULT:      -4.8     14.333     15.422
REMARK  6 active torsions:
REMARK  status: ('A' for Active; 'I' for Inactive)
REMARK    1  A    between atoms: N_11  and  C_2 
REMARK    2  A    between atoms: C_10  and  C_7 
REMARK    3  A    between atoms: N_11  and  C_7 
REMARK    4  A    between atoms: C_10  and  C_8 
REMARK    5  A    between atoms: O_12  and  C_9 
REMARK    6  A    between atoms: O_13  and  C_10 
ROOT
HETATM    1  C   UNK N   1      24.464  12.584  10.204  0.00  0.00     0.003 A 
HETATM    2  C   UNK N   1      23.386  13.129   9.501  0.00  0.00     0.010 A 
HETATM    3  C   UNK N   1      24.254  11.974  11.444  0.00  0.00     0.036 A 
HETATM    4  C   UNK N   1      21.883  12.429  11.265  0.00  0.00     0.046 A 
HETATM    5  C   UNK N   1      22.085  13.056  10.025  0.00  0.00    -0.025 A 
HETATM    6  C   UNK N   1      22.964  11.902  11.975  0.00  0.00     0.066 A 
ENDROOT
BRANCH   5   7
HETATM    7  C   UNK N   1      20.909  13.616   9.261  0.00  0.00     0.168 C 
BRANCH   7   8
HETATM    8  C   UNK N   1      21.023  15.116   9.024  0.00  0.00     0.150 C 
BRANCH   8   9
HETATM    9  N   UNK N   1      19.691  15.700   8.955  0.00  0.00    -0.419 N 
HETATM   10  H   UNK N   1      18.967  15.634   9.672  0.00  0.00     0.153 HD
BRANCH   9  11
HETATM   11  C   UNK N   1      19.579  16.393   7.684  0.00  0.00     0.109 C 
HETATM   12  C   UNK N   1      20.957  16.789   7.190  0.00  0.00     0.026 C 
ENDBRANCH   9  11
ENDBRANCH   8   9
ENDBRANCH   7   8
BRANCH   7  13
HETATM   13  O   UNK N   1      20.753  12.969   8.031  0.00  0.00    -0.389 OA
HETATM   14  H   UNK N   1      21.109  12.079   7.883  0.00  0.00     0.210 HD
ENDBRANCH   7  13
ENDBRANCH   5   7
BRANCH   6  15
HETATM   15  O   UNK N   1      22.764  11.327  13.173  0.00  0.00    -0.361 OA
HETATM   16  H   UNK N   1      21.901  11.285  13.536  0.00  0.00     0.217 HD
ENDBRANCH   6  15
TORSDOF 6
ENDMDL
MODEL 8
REMARK VINA RESULT:      -4.8     16.883     19.895
REMARK  6 active torsions:
REMARK  status: ('A' for Active; 'I' for Inactive)
REMARK    1  A    between atoms: N_11  and  C_2 
REMARK    2  A    between atoms: C_10  and  C_7 
REMARK    3  A    between atoms: N_11  and  C_7 
REMARK    4  A    between atoms: C_10  and  C_8 
REMARK    5  A    between atoms: O_12  and  C_9 
REMARK    6  A    between atoms: O_13  and  C_10 
ROOT
HETATM    1  C   UNK N   1      20.839  18.608   3.425  0.00  0.00     0.003 A 
HETATM    2  C   UNK N   1      22.152  18.971   3.736  0.00  0.00     0.010 A 
HETATM    3  C   UNK N   1      20.143  19.292   2.424  0.00  0.00     0.036 A 
HETATM    4  C   UNK N   1      22.083  20.684   2.027  0.00  0.00     0.046 A 
HETATM    5  C   UNK N   1      22.787  20.012   3.040  0.00  0.00    -0.025 A 
HETATM    6  C   UNK N   1      20.765  20.332   1.730  0.00  0.00     0.066 A 
ENDROOT
BRANCH   5   7
HETATM    7  C   UNK N   1      24.215  20.394   3.348  0.00  0.00     0.168 C 
BRANCH   7   8
HETATM    8  C   UNK N   1      25.019  19.240   3.929  0.00  0.00     0.150 C 
BRANCH   8   9
HETATM    9  N   UNK N   1      25.408  19.557   5.296  0.00  0.00    -0.419 N 
HETATM   10  H   UNK N   1      24.924  19.259   6.145  0.00  0.00     0.153 HD
BRANCH   9  11
HETATM   11  C   UNK N   1      26.606  20.376   5.235  0.00  0.00     0.109 C 
HETATM   12  C   UNK N   1      26.576  21.418   6.337  0.00  0.00     0.026 C 
ENDBRANCH   9  11
ENDBRANCH   8   9
ENDBRANCH   7   8
BRANCH   7  13
HETATM   13  O   UNK N   1      24.865  20.875   2.207  0.00  0.00    -0.389 OA
HETATM   14  H   UNK N   1      25.762  20.585   1.979  0.00  0.00     0.210 HD
ENDBRANCH   7  13
ENDBRANCH   5   7
BRANCH   6  15
HETATM   15  O   UNK N   1      20.091  20.999   0.777  0.00  0.00    -0.361 OA
HETATM   16  H   UNK N   1      19.842  20.564  -0.015  0.00  0.00     0.217 HD
ENDBRANCH   6  15
TORSDOF 6
ENDMDL
MODEL 9
REMARK VINA RESULT:      -4.8     14.432     15.529
REMARK  6 active torsions:
REMARK  status: ('A' for Active; 'I' for Inactive)
REMARK    1  A    between atoms: N_11  and  C_2 
REMARK    2  A    between atoms: C_10  and  C_7 
REMARK    3  A    between atoms: N_11  and  C_7 
REMARK    4  A    between atoms: C_10  and  C_8 
REMARK    5  A    between atoms: O_12  and  C_9 
REMARK    6  A    between atoms: O_13  and  C_10 
ROOT
HETATM    1  C   UNK N   1      21.617  11.937  11.971  0.00  0.00     0.003 A 
HETATM    2  C   UNK N   1      21.101  12.581  10.844  0.00  0.00     0.010 A 
HETATM    3  C   UNK N   1      23.000  11.836  12.147  0.00  0.00     0.036 A 
HETATM    4  C   UNK N   1      23.351  13.047  10.080  0.00  0.00     0.046 A 
HETATM    5  C   UNK N   1      21.963  13.142   9.888  0.00  0.00    -0.025 A 
HETATM    6  C   UNK N   1      23.865  12.387  11.199  0.00  0.00     0.066 A 
ENDROOT
BRANCH   5   7
HETATM    7  C   UNK N   1      21.416  13.864   8.679  0.00  0.00     0.168 C 
BRANCH   7   8
HETATM    8  C   UNK N   1      20.463  14.992   9.050  0.00  0.00     0.150 C 
BRANCH   8   9
HETATM    9  N   UNK N   1      20.707  16.139   8.187  0.00  0.00    -0.419 N 
HETATM   10  H   UNK N   1      21.593  16.376   7.737  0.00  0.00     0.153 HD
BRANCH   9  11
HETATM   11  C   UNK N   1      19.465  16.883   8.081  0.00  0.00     0.109 C 
HETATM   12  C   UNK N   1      19.461  18.024   9.082  0.00  0.00     0.026 C 
ENDBRANCH   9  11
ENDBRANCH   8   9
ENDBRANCH   7   8
BRANCH   7  13
HETATM   13  O   UNK N   1      22.450  14.380   7.891  0.00  0.00    -0.389 OA
HETATM   14  H   UNK N   1      22.268  14.993   7.161  0.00  0.00     0.210 HD
ENDBRANCH   7  13
ENDBRANCH   5   7
BRANCH   6  15
HETATM   15  O   UNK N   1      25.195  12.278  11.361  0.00  0.00    -0.361 OA
HETATM   16  H   UNK N   1      25.775  12.532  10.670  0.00  0.00     0.217 HD
ENDBRANCH   6  15
TORSDOF 6
ENDMDL
