MODEL 1
REMARK VINA RESULT:      -7.7      0.000      0.000
REMARK  7 active torsions:
REMARK  status: ('A' for Active; 'I' for Inactive)
REMARK    1  A    between atoms: C_17  and  C_15 
REMARK    2  A    between atoms: C_18  and  C_15 
REMARK    3  A    between atoms: C_21  and  C_16 
REMARK    4  A    between atoms: N_22  and  C_16 
REMARK    5  A    between atoms: C_21  and  C_19 
REMARK    6  A    between atoms: O_23  and  C_20 
REMARK    7  A    between atoms: O_24  and  C_21 
ROOT
HETATM    1  C   UNK N   1      37.255  12.279  13.914  0.00  0.00     0.035 C 
HETATM    2  C   UNK N   1      36.774  14.658  14.328  0.00  0.00     0.035 C 
HETATM    3  C   UNK N   1      36.412  12.372  12.635  0.00  0.00     0.273 C 
HETATM    4  C   UNK N   1      35.936  14.670  13.053  0.00  0.00     0.273 C 
HETATM    5  C   UNK N   1      36.741  13.268  14.957  0.00  0.00    -0.007 C 
HETATM    6  N   UNK N   1      36.438  13.721  12.043  0.00  0.00     0.095 N 
ENDROOT
BRANCH   6   7
HETATM    7  C   UNK N   1      35.483  13.734  10.911  0.00  0.00     0.252 C 
HETATM    8  C   UNK N   1      34.632  12.463  10.826  0.00  0.00     0.046 C 
BRANCH   7   9
HETATM    9  C   UNK N   1      34.581  14.992  10.795  0.00  0.00     0.184 C 
BRANCH   9  10
HETATM   10  C   UNK N   1      34.569  15.749   9.483  0.00  0.00    -0.027 A 
HETATM   11  C   UNK N   1      34.902  15.106   8.279  0.00  0.00     0.012 A 
HETATM   12  C   UNK N   1      34.784  15.780   7.060  0.00  0.00     0.037 A 
HETATM   13  C   UNK N   1      34.324  17.101   7.030  0.00  0.00     0.065 A 
HETATM   14  C   UNK N   1      33.994  17.748   8.223  0.00  0.00     0.037 A 
HETATM   15  C   UNK N   1      34.106  17.073   9.440  0.00  0.00     0.012 A 
BRANCH  13  16
HETATM   16  O   UNK N   1      34.197  17.744   5.859  0.00  0.00    -0.361 OA
HETATM   17  H   UNK N   1      34.507  18.598   5.636  0.00  0.00     0.217 HD
ENDBRANCH  13  16
ENDBRANCH   9  10
BRANCH   9  18
HETATM   18  O   UNK N   1      33.288  14.746  11.267  0.00  0.00    -0.389 OA
HETATM   19  H   UNK N   1      32.779  13.994  10.927  0.00  0.00     0.210 HD
ENDBRANCH   9  18
ENDBRANCH   7   9
ENDBRANCH   6   7
BRANCH   5  20
HETATM   20  C   UNK N   1      35.346  12.833  15.444  0.00  0.00     0.043 C 
BRANCH  20  21
HETATM   21  C   UNK N   1      35.275  12.416  16.880  0.00  0.00    -0.058 A 
HETATM   22  C   UNK N   1      35.164  13.386  17.883  0.00  0.00     0.007 A 
HETATM   23  C   UNK N   1      35.143  13.006  19.229  0.00  0.00     0.001 A 
HETATM   24  C   UNK N   1      35.244  11.655  19.578  0.00  0.00     0.000 A 
HETATM   25  C   UNK N   1      35.370  10.684  18.580  0.00  0.00     0.001 A 
HETATM   26  C   UNK N   1      35.389  11.065  17.234  0.00  0.00     0.007 A 
ENDBRANCH  20  21
ENDBRANCH   5  20
TORSDOF 7
ENDMDL
MODEL 2
REMARK VINA RESULT:      -7.2      3.175      8.813
REMARK  7 active torsions:
REMARK  status: ('A' for Active; 'I' for Inactive)
REMARK    1  A    between atoms: C_17  and  C_15 
REMARK    2  A    between atoms: C_18  and  C_15 
REMARK    3  A    between atoms: C_21  and  C_16 
REMARK    4  A    between atoms: N_22  and  C_16 
REMARK    5  A    between atoms: C_21  and  C_19 
REMARK    6  A    between atoms: O_23  and  C_20 
REMARK    7  A    between atoms: O_24  and  C_21 
ROOT
HETATM    1  C   UNK N   1      36.137  14.718  12.061  0.00  0.00     0.035 C 
HETATM    2  C   UNK N   1      35.840  12.770  10.584  0.00  0.00     0.035 C 
HETATM    3  C   UNK N   1      35.489  13.908  13.192  0.00  0.00     0.273 C 
HETATM    4  C   UNK N   1      35.189  12.034  11.750  0.00  0.00     0.273 C 
HETATM    5  C   UNK N   1      35.586  14.270  10.710  0.00  0.00    -0.007 C 
HETATM    6  N   UNK N   1      35.728  12.462  13.055  0.00  0.00     0.095 N 
ENDROOT
BRANCH   6   7
HETATM    7  C   UNK N   1      34.942  11.773  14.105  0.00  0.00     0.252 C 
HETATM    8  C   UNK N   1      33.956  10.745  13.543  0.00  0.00     0.046 C 
BRANCH   7   9
HETATM    9  C   UNK N   1      35.760  11.152  15.269  0.00  0.00     0.184 C 
BRANCH   9  10
HETATM   10  C   UNK N   1      35.622  11.762  16.648  0.00  0.00    -0.027 A 
HETATM   11  C   UNK N   1      35.340  13.130  16.805  0.00  0.00     0.012 A 
HETATM   12  C   UNK N   1      35.107  13.664  18.076  0.00  0.00     0.037 A 
HETATM   13  C   UNK N   1      35.146  12.836  19.203  0.00  0.00     0.065 A 
HETATM   14  C   UNK N   1      35.429  11.476  19.056  0.00  0.00     0.037 A 
HETATM   15  C   UNK N   1      35.656  10.942  17.786  0.00  0.00     0.012 A 
BRANCH  13  16
HETATM   16  O   UNK N   1      34.909  13.345  20.422  0.00  0.00    -0.361 OA
HETATM   17  H   UNK N   1      35.342  14.062  20.839  0.00  0.00     0.217 HD
ENDBRANCH  13  16
ENDBRANCH   9  10
BRANCH   9  18
HETATM   18  O   UNK N   1      35.636   9.759  15.301  0.00  0.00    -0.389 OA
HETATM   19  H   UNK N   1      35.550   9.257  14.476  0.00  0.00     0.210 HD
ENDBRANCH   9  18
ENDBRANCH   7   9
ENDBRANCH   6   7
BRANCH   5  20
HETATM   20  C   UNK N   1      34.102  14.665  10.597  0.00  0.00     0.043 C 
BRANCH  20  21
HETATM   21  C   UNK N   1      33.809  15.765   9.623  0.00  0.00    -0.058 A 
HETATM   22  C   UNK N   1      34.750  16.780   9.414  0.00  0.00     0.007 A 
HETATM   23  C   UNK N   1      34.465  17.834   8.541  0.00  0.00     0.001 A 
HETATM   24  C   UNK N   1      33.232  17.884   7.882  0.00  0.00     0.000 A 
HETATM   25  C   UNK N   1      32.284  16.881   8.098  0.00  0.00     0.001 A 
HETATM   26  C   UNK N   1      32.571  15.826   8.970  0.00  0.00     0.007 A 
ENDBRANCH  20  21
ENDBRANCH   5  20
TORSDOF 7
ENDMDL
MODEL 3
REMARK VINA RESULT:      -7.2     19.285     23.311
REMARK  7 active torsions:
REMARK  status: ('A' for Active; 'I' for Inactive)
REMARK    1  A    between atoms: C_17  and  C_15 
REMARK    2  A    between atoms: C_18  and  C_15 
REMARK    3  A    between atoms: C_21  and  C_16 
REMARK    4  A    between atoms: N_22  and  C_16 
REMARK    5  A    between atoms: C_21  and  C_19 
REMARK    6  A    between atoms: O_23  and  C_20 
REMARK    7  A    between atoms: O_24  and  C_21 
ROOT
HETATM    1  C   UNK N   1      26.744  26.967  -7.385  0.00  0.00     0.035 C 
HETATM    2  C   UNK N   1      25.084  26.828  -5.571  0.00  0.00     0.035 C 
HETATM    3  C   UNK N   1      27.060  25.483  -7.155  0.00  0.00     0.273 C 
HETATM    4  C   UNK N   1      25.465  25.363  -5.388  0.00  0.00     0.273 C 
HETATM    5  C   UNK N   1      26.288  27.617  -6.081  0.00  0.00    -0.007 C 
HETATM    6  N   UNK N   1      25.897  24.734  -6.649  0.00  0.00     0.095 N 
ENDROOT
BRANCH   6   7
HETATM    7  C   UNK N   1      26.352  23.361  -6.326  0.00  0.00     0.252 C 
HETATM    8  C   UNK N   1      25.562  22.276  -7.065  0.00  0.00     0.046 C 
BRANCH   7   9
HETATM    9  C   UNK N   1      27.876  23.100  -6.459  0.00  0.00     0.184 C 
BRANCH   9  10
HETATM   10  C   UNK N   1      28.715  23.093  -5.198  0.00  0.00    -0.027 A 
HETATM   11  C   UNK N   1      28.407  23.943  -4.123  0.00  0.00     0.012 A 
HETATM   12  C   UNK N   1      29.118  23.853  -2.922  0.00  0.00     0.037 A 
HETATM   13  C   UNK N   1      30.139  22.908  -2.780  0.00  0.00     0.065 A 
HETATM   14  C   UNK N   1      30.454  22.061  -3.846  0.00  0.00     0.037 A 
HETATM   15  C   UNK N   1      29.740  22.147  -5.042  0.00  0.00     0.012 A 
BRANCH  13  16
HETATM   16  O   UNK N   1      30.813  22.812  -1.624  0.00  0.00    -0.361 OA
HETATM   17  H   UNK N   1      31.635  22.393  -1.471  0.00  0.00     0.217 HD
ENDBRANCH  13  16
ENDBRANCH   9  10
BRANCH   9  18
HETATM   18  O   UNK N   1      28.142  21.992  -7.269  0.00  0.00    -0.389 OA
HETATM   19  H   UNK N   1      27.758  21.127  -7.054  0.00  0.00     0.210 HD
ENDBRANCH   9  18
ENDBRANCH   7   9
ENDBRANCH   6   7
BRANCH   5  20
HETATM   20  C   UNK N   1      27.464  27.675  -5.089  0.00  0.00     0.043 C 
BRANCH  20  21
HETATM   21  C   UNK N   1      27.429  28.823  -4.128  0.00  0.00    -0.058 A 
HETATM   22  C   UNK N   1      26.688  29.969  -4.438  0.00  0.00     0.007 A 
HETATM   23  C   UNK N   1      26.687  31.062  -3.565  0.00  0.00     0.001 A 
HETATM   24  C   UNK N   1      27.437  31.019  -2.386  0.00  0.00     0.000 A 
HETATM   25  C   UNK N   1      28.190  29.882  -2.080  0.00  0.00     0.001 A 
HETATM   26  C   UNK N   1      28.189  28.789  -2.951  0.00  0.00     0.007 A 
ENDBRANCH  20  21
ENDBRANCH   5  20
TORSDOF 7
ENDMDL
MODEL 4
REMARK VINA RESULT:      -7.1      3.002      5.031
REMARK  7 active torsions:
REMARK  status: ('A' for Active; 'I' for Inactive)
REMARK    1  A    between atoms: C_17  and  C_15 
REMARK    2  A    between atoms: C_18  and  C_15 
REMARK    3  A    between atoms: C_21  and  C_16 
REMARK    4  A    between atoms: N_22  and  C_16 
REMARK    5  A    between atoms: C_21  and  C_19 
REMARK    6  A    between atoms: O_23  and  C_20 
REMARK    7  A    between atoms: O_24  and  C_21 
ROOT
HETATM    1  C   UNK N   1      34.348  13.530   9.452  0.00  0.00     0.035 C 
HETATM    2  C   UNK N   1      36.295  14.938   9.990  0.00  0.00     0.035 C 
HETATM    3  C   UNK N   1      33.572  14.807   9.101  0.00  0.00     0.273 C 
HETATM    4  C   UNK N   1      35.456  16.163   9.642  0.00  0.00     0.273 C 
HETATM    5  C   UNK N   1      35.394  13.827  10.523  0.00  0.00    -0.007 C 
HETATM    6  N   UNK N   1      34.451  15.878   8.601  0.00  0.00     0.095 N 
ENDROOT
BRANCH   6   7
HETATM    7  C   UNK N   1      33.626  17.098   8.437  0.00  0.00     0.252 C 
HETATM    8  C   UNK N   1      34.458  18.356   8.168  0.00  0.00     0.046 C 
BRANCH   7   9
HETATM    9  C   UNK N   1      32.460  16.998   7.417  0.00  0.00     0.184 C 
BRANCH   9  10
HETATM   10  C   UNK N   1      31.080  17.435   7.862  0.00  0.00    -0.027 A 
HETATM   11  C   UNK N   1      29.929  16.959   7.210  0.00  0.00     0.012 A 
HETATM   12  C   UNK N   1      28.657  17.281   7.694  0.00  0.00     0.037 A 
HETATM   13  C   UNK N   1      28.520  18.074   8.838  0.00  0.00     0.065 A 
HETATM   14  C   UNK N   1      29.659  18.554   9.489  0.00  0.00     0.037 A 
HETATM   15  C   UNK N   1      30.930  18.228   9.010  0.00  0.00     0.012 A 
BRANCH  13  16
HETATM   16  O   UNK N   1      27.301  18.371   9.310  0.00  0.00    -0.361 OA
HETATM   17  H   UNK N   1      26.942  19.218   9.481  0.00  0.00     0.217 HD
ENDBRANCH  13  16
ENDBRANCH   9  10
BRANCH   9  18
HETATM   18  O   UNK N   1      32.807  17.548   6.180  0.00  0.00    -0.389 OA
HETATM   19  H   UNK N   1      32.118  17.800   5.546  0.00  0.00     0.210 HD
ENDBRANCH   9  18
ENDBRANCH   7   9
ENDBRANCH   6   7
BRANCH   5  20
HETATM   20  C   UNK N   1      34.696  14.170  11.852  0.00  0.00     0.043 C 
BRANCH  20  21
HETATM   21  C   UNK N   1      35.350  13.610  13.077  0.00  0.00    -0.058 A 
HETATM   22  C   UNK N   1      34.975  12.348  13.553  0.00  0.00     0.007 A 
HETATM   23  C   UNK N   1      35.549  11.839  14.722  0.00  0.00     0.001 A 
HETATM   24  C   UNK N   1      36.493  12.594  15.426  0.00  0.00     0.000 A 
HETATM   25  C   UNK N   1      36.860  13.860  14.962  0.00  0.00     0.001 A 
HETATM   26  C   UNK N   1      36.287  14.368  13.792  0.00  0.00     0.007 A 
ENDBRANCH  20  21
ENDBRANCH   5  20
TORSDOF 7
ENDMDL
MODEL 5
REMARK VINA RESULT:      -7.1     18.754     22.694
REMARK  7 active torsions:
REMARK  status: ('A' for Active; 'I' for Inactive)
REMARK    1  A    between atoms: C_17  and  C_15 
REMARK    2  A    between atoms: C_18  and  C_15 
REMARK    3  A    between atoms: C_21  and  C_16 
REMARK    4  A    between atoms: N_22  and  C_16 
REMARK    5  A    between atoms: C_21  and  C_19 
REMARK    6  A    between atoms: O_23  and  C_20 
REMARK    7  A    between atoms: O_24  and  C_21 
ROOT
HETATM    1  C   UNK N   1      24.934  27.246  -5.566  0.00  0.00     0.035 C 
HETATM    2  C   UNK N   1      25.871  27.127  -3.292  0.00  0.00     0.035 C 
HETATM    3  C   UNK N   1      25.671  25.941  -5.895  0.00  0.00     0.273 C 
HETATM    4  C   UNK N   1      26.589  25.844  -3.697  0.00  0.00     0.273 C 
HETATM    5  C   UNK N   1      25.703  28.033  -4.509  0.00  0.00    -0.007 C 
HETATM    6  N   UNK N   1      25.841  25.079  -4.712  0.00  0.00     0.095 N 
ENDROOT
BRANCH   6   7
HETATM    7  C   UNK N   1      26.685  23.929  -5.111  0.00  0.00     0.252 C 
HETATM    8  C   UNK N   1      26.167  23.204  -6.357  0.00  0.00     0.046 C 
BRANCH   7   9
HETATM    9  C   UNK N   1      28.205  24.216  -5.250  0.00  0.00     0.184 C 
BRANCH   9  10
HETATM   10  C   UNK N   1      29.168  23.405  -4.409  0.00  0.00    -0.027 A 
HETATM   11  C   UNK N   1      29.683  22.185  -4.880  0.00  0.00     0.012 A 
HETATM   12  C   UNK N   1      30.654  21.496  -4.146  0.00  0.00     0.037 A 
HETATM   13  C   UNK N   1      31.127  22.022  -2.940  0.00  0.00     0.065 A 
HETATM   14  C   UNK N   1      30.618  23.232  -2.463  0.00  0.00     0.037 A 
HETATM   15  C   UNK N   1      29.652  23.923  -3.198  0.00  0.00     0.012 A 
BRANCH  13  16
HETATM   16  O   UNK N   1      32.069  21.368  -2.243  0.00  0.00    -0.361 OA
HETATM   17  H   UNK N   1      32.998  21.432  -2.334  0.00  0.00     0.217 HD
ENDBRANCH  13  16
ENDBRANCH   9  10
BRANCH   9  18
HETATM   18  O   UNK N   1      28.600  24.269  -6.590  0.00  0.00    -0.389 OA
HETATM   19  H   UNK N   1      28.440  23.514  -7.177  0.00  0.00     0.210 HD
ENDBRANCH   9  18
ENDBRANCH   7   9
ENDBRANCH   6   7
BRANCH   5  20
HETATM   20  C   UNK N   1      27.031  28.540  -5.101  0.00  0.00     0.043 C 
BRANCH  20  21
HETATM   21  C   UNK N   1      27.993  29.115  -4.106  0.00  0.00    -0.058 A 
HETATM   22  C   UNK N   1      29.217  28.477  -3.872  0.00  0.00     0.007 A 
HETATM   23  C   UNK N   1      30.100  28.983  -2.913  0.00  0.00     0.001 A 
HETATM   24  C   UNK N   1      29.757  30.121  -2.175  0.00  0.00     0.000 A 
HETATM   25  C   UNK N   1      28.530  30.752  -2.396  0.00  0.00     0.001 A 
HETATM   26  C   UNK N   1      27.648  30.247  -3.357  0.00  0.00     0.007 A 
ENDBRANCH  20  21
ENDBRANCH   5  20
TORSDOF 7
ENDMDL
MODEL 6
REMARK VINA RESULT:      -7.0      9.488     14.603
REMARK  7 active torsions:
REMARK  status: ('A' for Active; 'I' for Inactive)
REMARK    1  A    between atoms: C_17  and  C_15 
REMARK    2  A    between atoms: C_18  and  C_15 
REMARK    3  A    between atoms: C_21  and  C_16 
REMARK    4  A    between atoms: N_22  and  C_16 
REMARK    5  A    between atoms: C_21  and  C_19 
REMARK    6  A    between atoms: O_23  and  C_20 
REMARK    7  A    between atoms: O_24  and  C_21 
ROOT
HETATM    1  C   UNK N   1      25.921  20.212   3.170  0.00  0.00     0.035 C 
HETATM    2  C   UNK N   1      25.890  17.849   3.860  0.00  0.00     0.035 C 
HETATM    3  C   UNK N   1      26.548  20.558   4.527  0.00  0.00     0.273 C 
HETATM    4  C   UNK N   1      26.497  18.270   5.194  0.00  0.00     0.273 C 
HETATM    5  C   UNK N   1      25.030  18.980   3.300  0.00  0.00    -0.007 C 
HETATM    6  N   UNK N   1      27.364  19.456   5.065  0.00  0.00     0.095 N 
ENDROOT
BRANCH   6   7
HETATM    7  C   UNK N   1      27.794  19.839   6.430  0.00  0.00     0.252 C 
HETATM    8  C   UNK N   1      26.924  20.938   7.050  0.00  0.00     0.046 C 
BRANCH   7   9
HETATM    9  C   UNK N   1      27.983  18.673   7.437  0.00  0.00     0.184 C 
BRANCH   9  10
HETATM   10  C   UNK N   1      29.356  18.045   7.557  0.00  0.00    -0.027 A 
HETATM   11  C   UNK N   1      29.850  17.195   6.553  0.00  0.00     0.012 A 
HETATM   12  C   UNK N   1      31.159  16.707   6.618  0.00  0.00     0.037 A 
HETATM   13  C   UNK N   1      31.990  17.068   7.683  0.00  0.00     0.065 A 
HETATM   14  C   UNK N   1      31.506  17.910   8.687  0.00  0.00     0.037 A 
HETATM   15  C   UNK N   1      30.201  18.402   8.619  0.00  0.00     0.012 A 
BRANCH  13  16
HETATM   16  O   UNK N   1      33.250  16.611   7.739  0.00  0.00    -0.361 OA
HETATM   17  H   UNK N   1      33.919  16.690   7.089  0.00  0.00     0.217 HD
ENDBRANCH  13  16
ENDBRANCH   9  10
BRANCH   9  18
HETATM   18  O   UNK N   1      27.438  18.976   8.688  0.00  0.00    -0.389 OA
HETATM   19  H   UNK N   1      27.502  18.340   9.416  0.00  0.00     0.210 HD
ENDBRANCH   9  18
ENDBRANCH   7   9
ENDBRANCH   6   7
BRANCH   5  20
HETATM   20  C   UNK N   1      23.799  19.316   4.162  0.00  0.00     0.043 C 
BRANCH  20  21
HETATM   21  C   UNK N   1      22.477  19.113   3.489  0.00  0.00    -0.058 A 
HETATM   22  C   UNK N   1      21.851  20.187   2.846  0.00  0.00     0.007 A 
HETATM   23  C   UNK N   1      20.595  20.017   2.254  0.00  0.00     0.001 A 
HETATM   24  C   UNK N   1      19.955  18.774   2.313  0.00  0.00     0.000 A 
HETATM   25  C   UNK N   1      20.570  17.703   2.966  0.00  0.00     0.001 A 
HETATM   26  C   UNK N   1      21.827  17.874   3.556  0.00  0.00     0.007 A 
ENDBRANCH  20  21
ENDBRANCH   5  20
TORSDOF 7
ENDMDL
MODEL 7
REMARK VINA RESULT:      -7.0     18.488     22.854
REMARK  7 active torsions:
REMARK  status: ('A' for Active; 'I' for Inactive)
REMARK    1  A    between atoms: C_17  and  C_15 
REMARK    2  A    between atoms: C_18  and  C_15 
REMARK    3  A    between atoms: C_21  and  C_16 
REMARK    4  A    between atoms: N_22  and  C_16 
REMARK    5  A    between atoms: C_21  and  C_19 
REMARK    6  A    between atoms: O_23  and  C_20 
REMARK    7  A    between atoms: O_24  and  C_21 
ROOT
HETATM    1  C   UNK N   1      25.624  23.215  -6.202  0.00  0.00     0.035 C 
HETATM    2  C   UNK N   1      27.028  24.410  -4.569  0.00  0.00     0.035 C 
HETATM    3  C   UNK N   1      26.865  23.052  -7.089  0.00  0.00     0.273 C 
HETATM    4  C   UNK N   1      28.213  24.225  -5.511  0.00  0.00     0.273 C 
HETATM    5  C   UNK N   1      25.733  24.493  -5.373  0.00  0.00    -0.007 C 
HETATM    6  N   UNK N   1      28.111  22.987  -6.305  0.00  0.00     0.095 N 
ENDROOT
BRANCH   6   7
HETATM    7  C   UNK N   1      29.244  22.978  -7.259  0.00  0.00     0.252 C 
HETATM    8  C   UNK N   1      29.915  24.347  -7.410  0.00  0.00     0.046 C 
BRANCH   7   9
HETATM    9  C   UNK N   1      30.315  21.878  -7.034  0.00  0.00     0.184 C 
BRANCH   9  10
HETATM   10  C   UNK N   1      30.972  21.784  -5.673  0.00  0.00    -0.027 A 
HETATM   11  C   UNK N   1      30.280  21.245  -4.575  0.00  0.00     0.012 A 
HETATM   12  C   UNK N   1      30.928  21.061  -3.350  0.00  0.00     0.037 A 
HETATM   13  C   UNK N   1      32.276  21.406  -3.210  0.00  0.00     0.065 A 
HETATM   14  C   UNK N   1      32.971  21.945  -4.296  0.00  0.00     0.037 A 
HETATM   15  C   UNK N   1      32.325  22.123  -5.521  0.00  0.00     0.012 A 
BRANCH  13  16
HETATM   16  O   UNK N   1      32.902  21.217  -2.039  0.00  0.00    -0.361 OA
HETATM   17  H   UNK N   1      32.518  21.120  -1.191  0.00  0.00     0.217 HD
ENDBRANCH  13  16
ENDBRANCH   9  10
BRANCH   9  18
HETATM   18  O   UNK N   1      29.877  20.630  -7.489  0.00  0.00    -0.389 OA
HETATM   19  H   UNK N   1      30.111  20.324  -8.379  0.00  0.00     0.210 HD
ENDBRANCH   9  18
ENDBRANCH   7   9
ENDBRANCH   6   7
BRANCH   5  20
HETATM   20  C   UNK N   1      25.648  25.721  -6.298  0.00  0.00     0.043 C 
BRANCH  20  21
HETATM   21  C   UNK N   1      26.103  27.011  -5.686  0.00  0.00    -0.058 A 
HETATM   22  C   UNK N   1      25.479  27.491  -4.529  0.00  0.00     0.007 A 
HETATM   23  C   UNK N   1      25.868  28.716  -3.978  0.00  0.00     0.001 A 
HETATM   24  C   UNK N   1      26.875  29.472  -4.589  0.00  0.00     0.000 A 
HETATM   25  C   UNK N   1      27.491  29.002  -5.751  0.00  0.00     0.001 A 
HETATM   26  C   UNK N   1      27.103  27.776  -6.301  0.00  0.00     0.007 A 
ENDBRANCH  20  21
ENDBRANCH   5  20
TORSDOF 7
ENDMDL
MODEL 8
REMARK VINA RESULT:      -7.0     18.469     21.934
REMARK  7 active torsions:
REMARK  status: ('A' for Active; 'I' for Inactive)
REMARK    1  A    between atoms: C_17  and  C_15 
REMARK    2  A    between atoms: C_18  and  C_15 
REMARK    3  A    between atoms: C_21  and  C_16 
REMARK    4  A    between atoms: N_22  and  C_16 
REMARK    5  A    between atoms: C_21  and  C_19 
REMARK    6  A    between atoms: O_23  and  C_20 
REMARK    7  A    between atoms: O_24  and  C_21 
ROOT
HETATM    1  C   UNK N   1      30.504  24.300  -4.535  0.00  0.00     0.035 C 
HETATM    2  C   UNK N   1      28.558  23.881  -3.087  0.00  0.00     0.035 C 
HETATM    3  C   UNK N   1      29.553  24.322  -5.739  0.00  0.00     0.273 C 
HETATM    4  C   UNK N   1      27.677  23.897  -4.331  0.00  0.00     0.273 C 
HETATM    5  C   UNK N   1      29.955  23.382  -3.447  0.00  0.00    -0.007 C 
HETATM    6  N   UNK N   1      28.204  24.791  -5.380  0.00  0.00     0.095 N 
ENDROOT
BRANCH   6   7
HETATM    7  C   UNK N   1      27.339  24.632  -6.572  0.00  0.00     0.252 C 
HETATM    8  C   UNK N   1      26.257  23.562  -6.393  0.00  0.00     0.046 C 
BRANCH   7   9
HETATM    9  C   UNK N   1      26.716  25.936  -7.139  0.00  0.00     0.184 C 
BRANCH   9  10
HETATM   10  C   UNK N   1      26.491  27.095  -6.191  0.00  0.00    -0.027 A 
HETATM   11  C   UNK N   1      25.539  27.009  -5.161  0.00  0.00     0.012 A 
HETATM   12  C   UNK N   1      25.413  28.039  -4.223  0.00  0.00     0.037 A 
HETATM   13  C   UNK N   1      26.243  29.162  -4.300  0.00  0.00     0.065 A 
HETATM   14  C   UNK N   1      27.190  29.258  -5.323  0.00  0.00     0.037 A 
HETATM   15  C   UNK N   1      27.319  28.226  -6.255  0.00  0.00     0.012 A 
BRANCH  13  16
HETATM   16  O   UNK N   1      26.132  30.145  -3.393  0.00  0.00    -0.361 OA
HETATM   17  H   UNK N   1      26.275  30.092  -2.469  0.00  0.00     0.217 HD
ENDBRANCH  13  16
ENDBRANCH   9  10
BRANCH   9  18
HETATM   18  O   UNK N   1      27.350  26.342  -8.317  0.00  0.00    -0.389 OA
HETATM   19  H   UNK N   1      27.288  25.799  -9.118  0.00  0.00     0.210 HD
ENDBRANCH   9  18
ENDBRANCH   7   9
ENDBRANCH   6   7
BRANCH   5  20
HETATM   20  C   UNK N   1      29.993  21.920  -3.930  0.00  0.00     0.043 C 
BRANCH  20  21
HETATM   21  C   UNK N   1      31.343  21.272  -3.891  0.00  0.00    -0.058 A 
HETATM   22  C   UNK N   1      31.673  20.293  -4.835  0.00  0.00     0.007 A 
HETATM   23  C   UNK N   1      32.915  19.652  -4.778  0.00  0.00     0.001 A 
HETATM   24  C   UNK N   1      33.827  19.979  -3.769  0.00  0.00     0.000 A 
HETATM   25  C   UNK N   1      33.496  20.946  -2.816  0.00  0.00     0.001 A 
HETATM   26  C   UNK N   1      32.255  21.589  -2.876  0.00  0.00     0.007 A 
ENDBRANCH  20  21
ENDBRANCH   5  20
TORSDOF 7
ENDMDL
MODEL 9
REMARK VINA RESULT:      -7.0      5.280     11.210
REMARK  7 active torsions:
REMARK  status: ('A' for Active; 'I' for Inactive)
REMARK    1  A    between atoms: C_17  and  C_15 
REMARK    2  A    between atoms: C_18  and  C_15 
REMARK    3  A    between atoms: C_21  and  C_16 
REMARK    4  A    between atoms: N_22  and  C_16 
REMARK    5  A    between atoms: C_21  and  C_19 
REMARK    6  A    between atoms: O_23  and  C_20 
REMARK    7  A    between atoms: O_24  and  C_21 
ROOT
HETATM    1  C   UNK N   1      29.552  15.662   5.704  0.00  0.00     0.035 C 
HETATM    2  C   UNK N   1      29.577  17.333   7.512  0.00  0.00     0.035 C 
HETATM    3  C   UNK N   1      31.077  15.804   5.605  0.00  0.00     0.273 C 
HETATM    4  C   UNK N   1      31.090  17.435   7.343  0.00  0.00     0.273 C 
HETATM    5  C   UNK N   1      28.930  16.972   6.177  0.00  0.00    -0.007 C 
HETATM    6  N   UNK N   1      31.691  16.166   6.894  0.00  0.00     0.095 N 
ENDROOT
BRANCH   6   7
HETATM    7  C   UNK N   1      33.130  16.420   6.652  0.00  0.00     0.252 C 
HETATM    8  C   UNK N   1      33.405  17.090   5.302  0.00  0.00     0.046 C 
BRANCH   7   9
HETATM    9  C   UNK N   1      33.890  17.163   7.784  0.00  0.00     0.184 C 
BRANCH   9  10
HETATM   10  C   UNK N   1      34.691  16.340   8.771  0.00  0.00    -0.027 A 
HETATM   11  C   UNK N   1      35.216  15.088   8.406  0.00  0.00     0.012 A 
HETATM   12  C   UNK N   1      36.045  14.384   9.284  0.00  0.00     0.037 A 
HETATM   13  C   UNK N   1      36.365  14.925  10.534  0.00  0.00     0.065 A 
HETATM   14  C   UNK N   1      35.844  16.168  10.906  0.00  0.00     0.037 A 
HETATM   15  C   UNK N   1      35.021  16.874  10.026  0.00  0.00     0.012 A 
BRANCH  13  16
HETATM   16  O   UNK N   1      37.171  14.257  11.372  0.00  0.00    -0.361 OA
HETATM   17  H   UNK N   1      37.914  14.584  11.837  0.00  0.00     0.217 HD
ENDBRANCH  13  16
ENDBRANCH   9  10
BRANCH   9  18
HETATM   18  O   UNK N   1      34.626  18.244   7.289  0.00  0.00    -0.389 OA
HETATM   19  H   UNK N   1      35.102  18.167   6.447  0.00  0.00     0.210 HD
ENDBRANCH   9  18
ENDBRANCH   7   9
ENDBRANCH   6   7
BRANCH   5  20
HETATM   20  C   UNK N   1      29.096  18.050   5.089  0.00  0.00     0.043 C 
BRANCH  20  21
HETATM   21  C   UNK N   1      27.817  18.551   4.490  0.00  0.00    -0.058 A 
HETATM   22  C   UNK N   1      26.832  17.641   4.091  0.00  0.00     0.007 A 
HETATM   23  C   UNK N   1      25.655  18.099   3.489  0.00  0.00     0.001 A 
HETATM   24  C   UNK N   1      25.465  19.468   3.274  0.00  0.00     0.000 A 
HETATM   25  C   UNK N   1      26.452  20.379   3.658  0.00  0.00     0.001 A 
HETATM   26  C   UNK N   1      27.628  19.920   4.262  0.00  0.00     0.007 A 
ENDBRANCH  20  21
ENDBRANCH   5  20
TORSDOF 7
ENDMDL
