REMARK  15 active torsions:
REMARK  status: ('A' for Active; 'I' for Inactive)
REMARK    1  A    between atoms: C_1  and  C_4 
REMARK    2  A    between atoms: C_2  and  C_6 
REMARK    3  A    between atoms: C_4  and  C_17 
REMARK    4  A    between atoms: C_5  and  O_9 
REMARK    5  A    between atoms: C_10  and  C_11 
REMARK    6  A    between atoms: C_11  and  C_12 
REMARK    7  A    between atoms: C_11  and  O_24 
REMARK    8  A    between atoms: C_12  and  C_13 
REMARK    9  A    between atoms: C_13  and  C_14 
REMARK   10  A    between atoms: C_14  and  C_15 
REMARK   11  A    between atoms: C_17  and  C_18 
REMARK   12  A    between atoms: C_18  and  C_19 
REMARK   13  A    between atoms: C_19  and  C_20 
REMARK   14  A    between atoms: C_21  and  C_22 
REMARK   15  A    between atoms: C_22  and  O_23 
ROOT
HETATM    1  C   UNK N   1      -3.955   0.947   0.601  0.00  0.00     0.065 C 
HETATM    2  C   UNK N   1      -3.836  -0.458   0.039  0.00  0.00     0.048 C 
HETATM    3  C   UNK N   1      -5.382   1.196   0.264  0.00  0.00     0.134 C 
HETATM    4  C   UNK N   1      -5.168  -1.130   0.307  0.00  0.00     0.133 C 
HETATM    5  C   UNK N   1      -6.166  -0.034  -0.045  0.00  0.00     0.111 C 
HETATM    6  O   UNK N   1      -5.887   2.307   0.280  0.00  0.00    -0.297 OA
ENDROOT
BRANCH   2   7
HETATM    7  C   UNK N   1      -2.599  -1.221   0.372  0.00  0.00    -0.020 C 
HETATM    8  C   UNK N   1      -2.114  -2.027  -0.570  0.00  0.00     0.002 C 
BRANCH   8   9
HETATM    9  C   UNK N   1      -0.783  -2.715  -0.477  0.00  0.00     0.148 C 
BRANCH   9  10
HETATM   10  C   UNK N   1       0.424  -1.761  -0.570  0.00  0.00    -0.018 C 
HETATM   11  C   UNK N   1       0.557  -0.928   0.701  0.00  0.00     0.018 C 
HETATM   12  C   UNK N   1       0.255  -0.829  -1.767  0.00  0.00     0.018 C 
BRANCH  10  13
HETATM   13  C   UNK N   1       1.676  -2.614  -0.779  0.00  0.00     0.011 C 
BRANCH  13  14
HETATM   14  C   UNK N   1       2.954  -1.808  -0.960  0.00  0.00     0.000 C 
BRANCH  14  15
HETATM   15  C   UNK N   1       3.849  -2.024   0.240  0.00  0.00    -0.005 C 
HETATM   16  C   UNK N   1       5.293  -1.846  -0.174  0.00  0.00     0.005 C 
ENDBRANCH  14  15
ENDBRANCH  13  14
ENDBRANCH  10  13
ENDBRANCH   9  10
BRANCH   9  17
HETATM   17  O   UNK N   1      -0.716  -3.536   0.653  0.00  0.00    -0.391 OA
HETATM   18  H   UNK N   1      -1.185  -3.861   1.437  0.00  0.00     0.210 HD
ENDBRANCH   9  17
ENDBRANCH   8   9
ENDBRANCH   2   7
BRANCH   1  19
HETATM   19  C   UNK N   1      -3.015   1.913  -0.109  0.00  0.00     0.013 C 
BRANCH  19  20
HETATM   20  C   UNK N   1      -1.630   1.845   0.509  0.00  0.00     0.001 C 
BRANCH  20  21
HETATM   21  C   UNK N   1      -0.867   3.120   0.195  0.00  0.00     0.004 C 
BRANCH  21  22
HETATM   22  C   UNK N   1       0.612   2.928   0.472  0.00  0.00     0.027 C 
BRANCH  22  23
HETATM   23  C   UNK N   1       1.232   2.162  -0.655  0.00  0.00    -0.021 C 
HETATM   24  C   UNK N   1       2.497   1.713  -0.660  0.00  0.00     0.078 C 
BRANCH  24  25
HETATM   25  C   UNK N   1       3.495   1.912   0.412  0.00  0.00     0.282 C 
HETATM   26  O   UNK N   1       3.248   2.628   1.377  0.00  0.00    -0.260 OA
BRANCH  25  27
HETATM   27  O   UNK N   1       4.691   1.289   0.309  0.00  0.00    -0.323 OA
HETATM   28  C   UNK N   1       5.667   1.393   1.273  0.00  0.00     0.213 C 
ENDBRANCH  25  27
ENDBRANCH  24  25
ENDBRANCH  22  23
ENDBRANCH  21  22
ENDBRANCH  20  21
ENDBRANCH  19  20
ENDBRANCH   1  19
BRANCH   4  29
HETATM   29  O   UNK N   1      -5.346  -2.242  -0.516  0.00  0.00    -0.394 OA
HETATM   30  H   UNK N   1      -6.078  -2.521  -1.089  0.00  0.00     0.210 HD
ENDBRANCH   4  29
TORSDOF 15
