MODEL 1
REMARK VINA RESULT:      -4.5      0.000      0.000
REMARK  3 active torsions:
REMARK  status: ('A' for Active; 'I' for Inactive)
REMARK    1  A    between atoms: C_8  and  C_7 
REMARK    2  A    between atoms: C_9  and  C_7 
REMARK    3  A    between atoms: N_10  and  C_8 
ROOT
HETATM    1  C   UNK N   1      36.669  12.649  15.376  0.00  0.00     0.029 C 
ENDROOT
BRANCH   1   2
HETATM    2  C   UNK N   1      36.471  14.070  14.853  0.00  0.00     0.072 C 
HETATM    3  C   UNK N   1      37.326  15.046  15.651  0.00  0.00     0.031 C 
BRANCH   2   4
HETATM    4  N   UNK N   1      36.864  14.114  13.448  0.00  0.00    -0.422 N 
HETATM    5  C   UNK N   1      35.679  14.372  12.645  0.00  0.00     0.140 C 
HETATM    6  H   UNK N   1      37.811  13.987  13.089  0.00  0.00     0.153 HD
ENDBRANCH   2   4
ENDBRANCH   1   2
BRANCH   1   7
HETATM    7  C   UNK N   1      35.438  12.090  16.090  0.00  0.00    -0.013 C 
HETATM    8  C   UNK N   1      34.653  13.173  16.814  0.00  0.00     0.005 C 
HETATM    9  C   UNK N   1      35.085  13.103  18.258  0.00  0.00     0.000 C 
HETATM   10  C   UNK N   1      35.371  11.640  18.491  0.00  0.00     0.000 C 
HETATM   11  C   UNK N   1      35.893  11.116  17.166  0.00  0.00     0.005 C 
ENDBRANCH   1   7
TORSDOF 3
ENDMDL
MODEL 2
REMARK VINA RESULT:      -4.3      1.652      2.726
REMARK  3 active torsions:
REMARK  status: ('A' for Active; 'I' for Inactive)
REMARK    1  A    between atoms: C_8  and  C_7 
REMARK    2  A    between atoms: C_9  and  C_7 
REMARK    3  A    between atoms: N_10  and  C_8 
ROOT
HETATM    1  C   UNK N   1      34.410  12.639  15.558  0.00  0.00     0.029 C 
ENDROOT
BRANCH   1   2
HETATM    2  C   UNK N   1      34.709  11.771  14.337  0.00  0.00     0.072 C 
HETATM    3  C   UNK N   1      33.756  10.584  14.292  0.00  0.00     0.031 C 
BRANCH   2   4
HETATM    4  N   UNK N   1      34.541  12.578  13.132  0.00  0.00    -0.422 N 
HETATM    5  C   UNK N   1      35.608  13.565  13.085  0.00  0.00     0.140 C 
HETATM    6  H   UNK N   1      33.800  12.467  12.439  0.00  0.00     0.153 HD
ENDBRANCH   2   4
ENDBRANCH   1   2
BRANCH   1   7
HETATM    7  C   UNK N   1      35.568  12.701  16.555  0.00  0.00    -0.013 C 
HETATM    8  C   UNK N   1      35.884  11.338  17.153  0.00  0.00     0.005 C 
HETATM    9  C   UNK N   1      35.195  11.304  18.495  0.00  0.00     0.000 C 
HETATM   10  C   UNK N   1      35.250  12.734  18.977  0.00  0.00     0.000 C 
HETATM   11  C   UNK N   1      35.164  13.585  17.724  0.00  0.00     0.005 C 
ENDBRANCH   1   7
TORSDOF 3
ENDMDL
MODEL 3
REMARK VINA RESULT:      -4.1      6.456      9.739
REMARK  3 active torsions:
REMARK  status: ('A' for Active; 'I' for Inactive)
REMARK    1  A    between atoms: C_8  and  C_7 
REMARK    2  A    between atoms: C_9  and  C_7 
REMARK    3  A    between atoms: N_10  and  C_8 
ROOT
HETATM    1  C   UNK N   1      32.905  16.660   8.680  0.00  0.00     0.029 C 
ENDROOT
BRANCH   1   2
HETATM    2  C   UNK N   1      34.371  17.068   8.818  0.00  0.00     0.072 C 
HETATM    3  C   UNK N   1      34.594  18.439   8.194  0.00  0.00     0.031 C 
BRANCH   2   4
HETATM    4  N   UNK N   1      34.715  17.115  10.236  0.00  0.00    -0.422 N 
HETATM    5  C   UNK N   1      34.891  15.752  10.713  0.00  0.00     0.140 C 
HETATM    6  H   UNK N   1      34.817  17.961  10.797  0.00  0.00     0.153 HD
ENDBRANCH   2   4
ENDBRANCH   1   2
BRANCH   1   7
HETATM    7  C   UNK N   1      32.052  17.703   7.958  0.00  0.00    -0.013 C 
HETATM    8  C   UNK N   1      30.875  18.166   8.803  0.00  0.00     0.005 C 
HETATM    9  C   UNK N   1      29.683  17.375   8.323  0.00  0.00     0.000 C 
HETATM   10  C   UNK N   1      29.940  17.173   6.849  0.00  0.00     0.000 C 
HETATM   11  C   UNK N   1      31.448  17.071   6.714  0.00  0.00     0.005 C 
ENDBRANCH   1   7
TORSDOF 3
ENDMDL
MODEL 4
REMARK VINA RESULT:      -4.1      7.571     10.237
REMARK  3 active torsions:
REMARK  status: ('A' for Active; 'I' for Inactive)
REMARK    1  A    between atoms: C_8  and  C_7 
REMARK    2  A    between atoms: C_9  and  C_7 
REMARK    3  A    between atoms: N_10  and  C_8 
ROOT
HETATM    1  C   UNK N   1      31.875  18.284   8.494  0.00  0.00     0.029 C 
ENDROOT
BRANCH   1   2
HETATM    2  C   UNK N   1      33.101  17.400   8.279  0.00  0.00     0.072 C 
HETATM    3  C   UNK N   1      34.320  18.260   7.972  0.00  0.00     0.031 C 
BRANCH   2   4
HETATM    4  N   UNK N   1      33.343  16.627   9.494  0.00  0.00    -0.422 N 
HETATM    5  C   UNK N   1      34.763  16.686   9.803  0.00  0.00     0.140 C 
HETATM    6  H   UNK N   1      32.636  16.129  10.035  0.00  0.00     0.153 HD
ENDBRANCH   2   4
ENDBRANCH   1   2
BRANCH   1   7
HETATM    7  C   UNK N   1      30.601  17.491   8.787  0.00  0.00    -0.013 C 
HETATM    8  C   UNK N   1      29.842  17.134   7.518  0.00  0.00     0.005 C 
HETATM    9  C   UNK N   1      28.747  18.164   7.385  0.00  0.00     0.000 C 
HETATM   10  C   UNK N   1      28.373  18.494   8.810  0.00  0.00     0.000 C 
HETATM   11  C   UNK N   1      29.657  18.359   9.606  0.00  0.00     0.005 C 
ENDBRANCH   1   7
TORSDOF 3
ENDMDL
MODEL 5
REMARK VINA RESULT:      -4.0      6.183      9.571
REMARK  3 active torsions:
REMARK  status: ('A' for Active; 'I' for Inactive)
REMARK    1  A    between atoms: C_8  and  C_7 
REMARK    2  A    between atoms: C_9  and  C_7 
REMARK    3  A    between atoms: N_10  and  C_8 
ROOT
HETATM    1  C   UNK N   1      34.665  16.674   8.214  0.00  0.00     0.029 C 
ENDROOT
BRANCH   1   2
HETATM    2  C   UNK N   1      34.138  16.372   9.615  0.00  0.00     0.072 C 
HETATM    3  C   UNK N   1      34.121  14.868   9.855  0.00  0.00     0.031 C 
BRANCH   2   4
HETATM    4  N   UNK N   1      35.010  17.012  10.595  0.00  0.00    -0.422 N 
HETATM    5  C   UNK N   1      35.997  16.040  11.039  0.00  0.00     0.140 C 
HETATM    6  H   UNK N   1      34.940  17.979  10.915  0.00  0.00     0.153 HD
ENDBRANCH   2   4
ENDBRANCH   1   2
BRANCH   1   7
HETATM    7  C   UNK N   1      33.876  17.768   7.494  0.00  0.00    -0.013 C 
HETATM    8  C   UNK N   1      32.470  17.927   8.056  0.00  0.00     0.005 C 
HETATM    9  C   UNK N   1      31.563  17.156   7.129  0.00  0.00     0.000 C 
HETATM   10  C   UNK N   1      32.206  17.304   5.772  0.00  0.00     0.000 C 
HETATM   11  C   UNK N   1      33.698  17.370   6.037  0.00  0.00     0.005 C 
ENDBRANCH   1   7
TORSDOF 3
ENDMDL
MODEL 6
REMARK VINA RESULT:      -4.0     24.294     26.989
REMARK  3 active torsions:
REMARK  status: ('A' for Active; 'I' for Inactive)
REMARK    1  A    between atoms: C_8  and  C_7 
REMARK    2  A    between atoms: C_9  and  C_7 
REMARK    3  A    between atoms: N_10  and  C_8 
ROOT
HETATM    1  C   UNK N   1      26.631  25.417  -6.865  0.00  0.00     0.029 C 
ENDROOT
BRANCH   1   2
HETATM    2  C   UNK N   1      26.240  24.475  -5.728  0.00  0.00     0.072 C 
HETATM    3  C   UNK N   1      25.816  23.124  -6.289  0.00  0.00     0.031 C 
BRANCH   2   4
HETATM    4  N   UNK N   1      27.390  24.298  -4.846  0.00  0.00    -0.422 N 
HETATM    5  C   UNK N   1      26.924  24.326  -3.469  0.00  0.00     0.140 C 
HETATM    6  H   UNK N   1      28.357  24.174  -5.145  0.00  0.00     0.153 HD
ENDBRANCH   2   4
ENDBRANCH   1   2
BRANCH   1   7
HETATM    7  C   UNK N   1      25.990  26.800  -6.753  0.00  0.00    -0.013 C 
HETATM    8  C   UNK N   1      26.995  27.868  -6.347  0.00  0.00     0.005 C 
HETATM    9  C   UNK N   1      26.822  28.056  -4.860  0.00  0.00     0.000 C 
HETATM   10  C   UNK N   1      25.351  27.813  -4.623  0.00  0.00     0.000 C 
HETATM   11  C   UNK N   1      24.945  26.771  -5.648  0.00  0.00     0.005 C 
ENDBRANCH   1   7
TORSDOF 3
ENDMDL
MODEL 7
REMARK VINA RESULT:      -3.9     15.025     16.141
REMARK  3 active torsions:
REMARK  status: ('A' for Active; 'I' for Inactive)
REMARK    1  A    between atoms: C_8  and  C_7 
REMARK    2  A    between atoms: C_9  and  C_7 
REMARK    3  A    between atoms: N_10  and  C_8 
ROOT
HETATM    1  C   UNK N   1      21.255  14.469   9.527  0.00  0.00     0.029 C 
ENDROOT
BRANCH   1   2
HETATM    2  C   UNK N   1      20.551  15.072   8.314  0.00  0.00     0.072 C 
HETATM    3  C   UNK N   1      19.588  16.166   8.756  0.00  0.00     0.031 C 
BRANCH   2   4
HETATM    4  N   UNK N   1      21.556  15.639   7.419  0.00  0.00    -0.422 N 
HETATM    5  C   UNK N   1      21.075  16.927   6.943  0.00  0.00     0.140 C 
HETATM    6  H   UNK N   1      22.445  15.206   7.171  0.00  0.00     0.153 HD
ENDBRANCH   2   4
ENDBRANCH   1   2
BRANCH   1   7
HETATM    7  C   UNK N   1      21.163  12.944   9.584  0.00  0.00    -0.013 C 
HETATM    8  C   UNK N   1      20.983  12.432  11.006  0.00  0.00     0.005 C 
HETATM    9  C   UNK N   1      22.355  12.014  11.473  0.00  0.00     0.000 C 
HETATM   10  C   UNK N   1      23.037  11.512  10.224  0.00  0.00     0.000 C 
HETATM   11  C   UNK N   1      22.476  12.353   9.092  0.00  0.00     0.005 C 
ENDBRANCH   1   7
TORSDOF 3
ENDMDL
MODEL 8
REMARK VINA RESULT:      -3.9      9.575     11.704
REMARK  3 active torsions:
REMARK  status: ('A' for Active; 'I' for Inactive)
REMARK    1  A    between atoms: C_8  and  C_7 
REMARK    2  A    between atoms: C_9  and  C_7 
REMARK    3  A    between atoms: N_10  and  C_8 
ROOT
HETATM    1  C   UNK N   1      32.482  17.095   6.575  0.00  0.00     0.029 C 
ENDROOT
BRANCH   1   2
HETATM    2  C   UNK N   1      33.279  17.088   7.878  0.00  0.00     0.072 C 
HETATM    3  C   UNK N   1      34.181  18.312   7.946  0.00  0.00     0.031 C 
BRANCH   2   4
HETATM    4  N   UNK N   1      32.347  17.105   9.001  0.00  0.00    -0.422 N 
HETATM    5  C   UNK N   1      31.216  17.950   8.650  0.00  0.00     0.140 C 
HETATM    6  H   UNK N   1      32.468  16.607   9.884  0.00  0.00     0.153 HD
ENDBRANCH   2   4
ENDBRANCH   1   2
BRANCH   1   7
HETATM    7  C   UNK N   1      33.352  17.296   5.334  0.00  0.00    -0.013 C 
HETATM    8  C   UNK N   1      32.579  17.936   4.189  0.00  0.00     0.005 C 
HETATM    9  C   UNK N   1      32.168  16.803   3.282  0.00  0.00     0.000 C 
HETATM   10  C   UNK N   1      33.293  15.804   3.400  0.00  0.00     0.000 C 
HETATM   11  C   UNK N   1      33.803  15.937   4.823  0.00  0.00     0.005 C 
ENDBRANCH   1   7
TORSDOF 3
ENDMDL
MODEL 9
REMARK VINA RESULT:      -3.9     25.458     27.043
REMARK  3 active torsions:
REMARK  status: ('A' for Active; 'I' for Inactive)
REMARK    1  A    between atoms: C_8  and  C_7 
REMARK    2  A    between atoms: C_9  and  C_7 
REMARK    3  A    between atoms: N_10  and  C_8 
ROOT
HETATM    1  C   UNK N   1      25.872  25.352  -4.760  0.00  0.00     0.029 C 
ENDROOT
BRANCH   1   2
HETATM    2  C   UNK N   1      26.383  24.444  -5.877  0.00  0.00     0.072 C 
HETATM    3  C   UNK N   1      27.666  23.749  -5.441  0.00  0.00     0.031 C 
BRANCH   2   4
HETATM    4  N   UNK N   1      25.362  23.444  -6.174  0.00  0.00    -0.422 N 
HETATM    5  C   UNK N   1      25.924  22.474  -7.102  0.00  0.00     0.140 C 
HETATM    6  H   UNK N   1      24.415  23.427  -5.795  0.00  0.00     0.153 HD
ENDBRANCH   2   4
ENDBRANCH   1   2
BRANCH   1   7
HETATM    7  C   UNK N   1      25.348  26.697  -5.265  0.00  0.00    -0.013 C 
HETATM    8  C   UNK N   1      26.089  27.172  -6.507  0.00  0.00     0.005 C 
HETATM    9  C   UNK N   1      27.123  28.158  -6.022  0.00  0.00     0.000 C 
HETATM   10  C   UNK N   1      26.474  28.822  -4.832  0.00  0.00     0.000 C 
HETATM   11  C   UNK N   1      25.599  27.755  -4.202  0.00  0.00     0.005 C 
ENDBRANCH   1   7
TORSDOF 3
ENDMDL
