REMARK  18 active torsions:
REMARK  status: ('A' for Active; 'I' for Inactive)
REMARK    1  A    between atoms: C_1  and  O_11 
REMARK    2  A    between atoms: C_2  and  O_9 
REMARK    3  A    between atoms: C_3  and  O_10 
REMARK    4  A    between atoms: C_4  and  O_12 
REMARK    5  A    between atoms: C_5  and  O_7 
REMARK    6  A    between atoms: C_6  and  O_8 
REMARK    7  A    between atoms: C_20  and  O_7 
REMARK    8  A    between atoms: O_8  and  C_56 
REMARK    9  A    between atoms: C_47  and  O_9 
REMARK   10  A    between atoms: C_38  and  O_10 
REMARK   11  A    between atoms: C_65  and  O_11 
REMARK   12  A    between atoms: C_29  and  O_12 
REMARK   13  A    between atoms: C_16  and  C_20 
REMARK   14  A    between atoms: C_25  and  C_29 
REMARK   15  A    between atoms: C_34  and  C_38 
REMARK   16  A    between atoms: C_43  and  C_47 
REMARK   17  A    between atoms: C_52  and  C_56 
REMARK   18  A    between atoms: C_61  and  C_65 
ROOT
HETATM    1  C   UNK N   1       1.112  -1.237  -0.418  0.00  0.00     0.196 C 
HETATM    2  C   UNK N   1      -0.385  -1.253  -0.788  0.00  0.00     0.196 C 
HETATM    3  C   UNK N   1      -1.126  -0.366   0.241  0.00  0.00     0.196 C 
HETATM    4  C   UNK N   1      -0.671   1.113   0.300  0.00  0.00     0.196 C 
HETATM    5  C   UNK N   1       0.594   1.288  -0.563  0.00  0.00     0.196 C 
HETATM    6  C   UNK N   1       1.700   0.214  -0.328  0.00  0.00     0.196 C 
ENDROOT
BRANCH   1   7
HETATM    7  O   UNK N   1       1.218  -1.895   0.797  0.00  0.00    -0.306 OA
BRANCH   7   8
HETATM    8  C   UNK N   1       1.888  -3.053   1.032  0.00  0.00     0.295 C 
HETATM    9  O   UNK N   1       1.502  -3.761   1.950  0.00  0.00    -0.259 OA
BRANCH   8  10
HETATM   10  C   UNK N   1       3.084  -3.480   0.262  0.00  0.00     0.054 A 
HETATM   11  C   UNK N   1       3.672  -4.724   0.538  0.00  0.00     0.105 A 
HETATM   12  N   UNK N   1       4.798  -5.118  -0.115  0.00  0.00    -0.374 N 
HETATM   13  C   UNK N   1       5.394  -4.320  -1.041  0.00  0.00     0.087 A 
ATOM     14  HN  UNK N   1       5.204  -6.030   0.094  1.00  0.00     0.164 HD
HETATM   15  C   UNK N   1       4.847  -3.073  -1.347  0.00  0.00     0.018 A 
HETATM   16  C   UNK N   1       3.688  -2.654  -0.692  0.00  0.00     0.020 A 
ENDBRANCH   8  10
ENDBRANCH   7   8
ENDBRANCH   1   7
BRANCH   2  17
HETATM   17  O   UNK N   1      -0.835  -2.572  -0.875  0.00  0.00    -0.306 OA
BRANCH  17  18
HETATM   18  C   UNK N   1      -1.265  -3.380   0.142  0.00  0.00     0.295 C 
HETATM   19  O   UNK N   1      -1.568  -2.915   1.232  0.00  0.00    -0.259 OA
BRANCH  18  20
HETATM   20  C   UNK N   1      -1.339  -4.838  -0.057  0.00  0.00     0.054 A 
HETATM   21  C   UNK N   1      -1.900  -5.661   0.928  0.00  0.00     0.105 A 
HETATM   22  N   UNK N   1      -1.934  -7.010   0.759  0.00  0.00    -0.374 N 
HETATM   23  C   UNK N   1      -1.413  -7.598  -0.351  0.00  0.00     0.087 A 
ATOM     24  HN  UNK N   1      -2.359  -7.594   1.480  1.00  0.00     0.164 HD
HETATM   25  C   UNK N   1      -0.839  -6.815  -1.355  0.00  0.00     0.018 A 
HETATM   26  C   UNK N   1      -0.807  -5.428  -1.208  0.00  0.00     0.020 A 
ENDBRANCH  18  20
ENDBRANCH  17  18
ENDBRANCH   2  17
BRANCH   6  27
HETATM   27  O   UNK N   1       2.323   0.349   0.896  0.00  0.00    -0.306 OA
BRANCH  27  28
HETATM   28  C   UNK N   1       3.668   0.275   1.080  0.00  0.00     0.295 C 
HETATM   29  O   UNK N   1       4.088  -0.439   1.978  0.00  0.00    -0.259 OA
BRANCH  28  30
HETATM   30  C   UNK N   1       4.641   1.071   0.288  0.00  0.00     0.054 A 
HETATM   31  C   UNK N   1       6.016   0.929   0.535  0.00  0.00     0.105 A 
HETATM   32  N   UNK N   1       6.921   1.699  -0.127  0.00  0.00    -0.374 N 
HETATM   33  C   UNK N   1       6.526   2.633  -1.032  0.00  0.00     0.087 A 
ATOM     34  HN  UNK N   1       7.915   1.572   0.059  1.00  0.00     0.164 HD
HETATM   35  C   UNK N   1       5.169   2.810  -1.310  0.00  0.00     0.018 A 
HETATM   36  C   UNK N   1       4.225   2.023  -0.647  0.00  0.00     0.020 A 
ENDBRANCH  28  30
ENDBRANCH  27  28
ENDBRANCH   6  27
BRANCH   3  37
HETATM   37  O   UNK N   1      -2.474  -0.636   0.398  0.00  0.00    -0.306 OA
BRANCH  37  38
HETATM   38  C   UNK N   1      -3.470  -0.430  -0.500  0.00  0.00     0.295 C 
HETATM   39  O   UNK N   1      -3.323   0.336  -1.441  0.00  0.00    -0.259 OA
BRANCH  38  40
HETATM   40  C   UNK N   1      -4.733  -1.173  -0.334  0.00  0.00     0.054 A 
HETATM   41  C   UNK N   1      -5.873  -0.849  -1.079  0.00  0.00     0.105 A 
HETATM   42  N   UNK N   1      -7.020  -1.566  -0.921  0.00  0.00    -0.374 N 
HETATM   43  C   UNK N   1      -7.087  -2.622  -0.065  0.00  0.00     0.087 A 
ATOM     44  HN  UNK N   1      -7.848  -1.306  -1.457  1.00  0.00     0.164 HD
HETATM   45  C   UNK N   1      -5.970  -2.986   0.688  0.00  0.00     0.018 A 
HETATM   46  C   UNK N   1      -4.793  -2.250   0.558  0.00  0.00     0.020 A 
ENDBRANCH  38  40
ENDBRANCH  37  38
ENDBRANCH   3  37
BRANCH   5  47
HETATM   47  O   UNK N   1       1.005   2.608  -0.673  0.00  0.00    -0.306 OA
BRANCH  47  48
HETATM   48  C   UNK N   1       1.513   3.394   0.310  0.00  0.00     0.295 C 
HETATM   49  O   UNK N   1       1.906   2.905   1.363  0.00  0.00    -0.259 OA
BRANCH  48  50
HETATM   50  C   UNK N   1       1.551   4.857   0.125  0.00  0.00     0.054 A 
HETATM   51  C   UNK N   1       2.147   5.690   1.079  0.00  0.00     0.105 A 
HETATM   52  N   UNK N   1       2.143   7.040   0.911  0.00  0.00    -0.374 N 
HETATM   53  C   UNK N   1       1.554   7.619  -0.171  0.00  0.00     0.087 A 
ATOM     54  HN  UNK N   1       2.593   7.631   1.610  1.00  0.00     0.164 HD
HETATM   55  C   UNK N   1       0.942   6.827  -1.144  0.00  0.00     0.018 A 
HETATM   56  C   UNK N   1       0.945   5.439  -0.996  0.00  0.00     0.020 A 
ENDBRANCH  48  50
ENDBRANCH  47  48
ENDBRANCH   5  47
BRANCH   4  57
HETATM   57  O   UNK N   1      -1.681   1.947  -0.134  0.00  0.00    -0.306 OA
BRANCH  57  58
HETATM   58  C   UNK N   1      -2.039   3.083   0.522  0.00  0.00     0.295 C 
HETATM   59  O   UNK N   1      -1.281   3.594   1.333  0.00  0.00    -0.259 OA
BRANCH  58  60
HETATM   60  C   UNK N   1      -3.356   3.699   0.259  0.00  0.00     0.054 A 
HETATM   61  C   UNK N   1      -3.698   4.931   0.832  0.00  0.00     0.105 A 
HETATM   62  N   UNK N   1      -4.925   5.475   0.607  0.00  0.00    -0.374 N 
HETATM   63  C   UNK N   1      -5.854   4.842  -0.159  0.00  0.00     0.087 A 
ATOM     64  HN  UNK N   1      -5.154   6.379   1.022  1.00  0.00     0.164 HD
HETATM   65  C   UNK N   1      -5.556   3.610  -0.744  0.00  0.00     0.018 A 
HETATM   66  C   UNK N   1      -4.299   3.042  -0.537  0.00  0.00     0.020 A 
ENDBRANCH  58  60
ENDBRANCH  57  58
ENDBRANCH   4  57
TORSDOF 18
