MODEL 1
REMARK VINA RESULT:      -6.4      0.000      0.000
REMARK  15 active torsions:
REMARK  status: ('A' for Active; 'I' for Inactive)
REMARK    1  A    between atoms: C_1  and  C_4 
REMARK    2  A    between atoms: C_2  and  C_6 
REMARK    3  A    between atoms: C_4  and  C_17 
REMARK    4  A    between atoms: C_5  and  O_9 
REMARK    5  A    between atoms: C_10  and  C_11 
REMARK    6  A    between atoms: C_11  and  C_12 
REMARK    7  A    between atoms: C_11  and  O_24 
REMARK    8  A    between atoms: C_12  and  C_13 
REMARK    9  A    between atoms: C_13  and  C_14 
REMARK   10  A    between atoms: C_14  and  C_15 
REMARK   11  A    between atoms: C_17  and  C_18 
REMARK   12  A    between atoms: C_18  and  C_19 
REMARK   13  A    between atoms: C_19  and  C_20 
REMARK   14  A    between atoms: C_21  and  C_22 
REMARK   15  A    between atoms: C_22  and  O_23 
ROOT
HETATM    1  C   UNK N   1      27.970  18.921   4.885  0.00  0.00     0.065 C 
HETATM    2  C   UNK N   1      27.521  18.856   6.333  0.00  0.00     0.048 C 
HETATM    3  C   UNK N   1      27.277  20.179   4.499  0.00  0.00     0.134 C 
HETATM    4  C   UNK N   1      27.480  20.290   6.824  0.00  0.00     0.133 C 
HETATM    5  C   UNK N   1      26.840  21.020   5.650  0.00  0.00     0.111 C 
HETATM    6  O   UNK N   1      27.115  20.523   3.339  0.00  0.00    -0.297 OA
ENDROOT
BRANCH   2   7
HETATM    7  C   UNK N   1      28.187  17.848   7.207  0.00  0.00    -0.020 C 
HETATM    8  C   UNK N   1      29.488  18.013   7.438  0.00  0.00     0.002 C 
BRANCH   8   9
HETATM    9  C   UNK N   1      30.267  17.211   8.440  0.00  0.00     0.148 C 
BRANCH   9  10
HETATM   10  C   UNK N   1      31.702  16.871   7.991  0.00  0.00    -0.018 C 
HETATM   11  C   UNK N   1      32.166  15.554   8.606  0.00  0.00     0.018 C 
HETATM   12  C   UNK N   1      32.654  17.987   8.414  0.00  0.00     0.018 C 
BRANCH  10  13
HETATM   13  C   UNK N   1      31.701  16.772   6.465  0.00  0.00     0.011 C 
BRANCH  13  14
HETATM   14  C   UNK N   1      32.980  17.272   5.809  0.00  0.00     0.000 C 
BRANCH  14  15
HETATM   15  C   UNK N   1      32.686  17.650   4.375  0.00  0.00    -0.005 C 
HETATM   16  C   UNK N   1      31.271  17.241   4.030  0.00  0.00     0.005 C 
ENDBRANCH  14  15
ENDBRANCH  13  14
ENDBRANCH  10  13
ENDBRANCH   9  10
BRANCH   9  17
HETATM   17  O   UNK N   1      30.241  17.815   9.701  0.00  0.00    -0.391 OA
HETATM   18  H   UNK N   1      30.413  17.700  10.648  0.00  0.00     0.210 HD
ENDBRANCH   9  17
ENDBRANCH   8   9
ENDBRANCH   2   7
BRANCH   1  19
HETATM   19  C   UNK N   1      27.472  17.719   4.092  0.00  0.00     0.013 C 
BRANCH  19  20
HETATM   20  C   UNK N   1      26.116  17.276   4.610  0.00  0.00     0.001 C 
BRANCH  20  21
HETATM   21  C   UNK N   1      25.041  17.635   3.598  0.00  0.00     0.004 C 
BRANCH  21  22
HETATM   22  C   UNK N   1      24.018  18.562   4.225  0.00  0.00     0.027 C 
BRANCH  22  23
HETATM   23  C   UNK N   1      23.849  19.772   3.360  0.00  0.00    -0.021 C 
HETATM   24  C   UNK N   1      22.663  20.255   2.956  0.00  0.00     0.078 C 
BRANCH  24  25
HETATM   25  C   UNK N   1      21.338  19.676   3.263  0.00  0.00     0.282 C 
HETATM   26  O   UNK N   1      20.746  19.972   4.295  0.00  0.00    -0.260 OA
BRANCH  25  27
HETATM   27  O   UNK N   1      20.789  18.809   2.381  0.00  0.00    -0.323 OA
HETATM   28  C   UNK N   1      20.036  17.728   2.776  0.00  0.00     0.213 C 
ENDBRANCH  25  27
ENDBRANCH  24  25
ENDBRANCH  22  23
ENDBRANCH  21  22
ENDBRANCH  20  21
ENDBRANCH  19  20
ENDBRANCH   1  19
BRANCH   4  29
HETATM   29  O   UNK N   1      26.691  20.409   7.968  0.00  0.00    -0.394 OA
HETATM   30  H   UNK N   1      26.884  20.285   8.911  0.00  0.00     0.210 HD
ENDBRANCH   4  29
TORSDOF 15
ENDMDL
MODEL 2
REMARK VINA RESULT:      -6.0      3.420      7.165
REMARK  15 active torsions:
REMARK  status: ('A' for Active; 'I' for Inactive)
REMARK    1  A    between atoms: C_1  and  C_4 
REMARK    2  A    between atoms: C_2  and  C_6 
REMARK    3  A    between atoms: C_4  and  C_17 
REMARK    4  A    between atoms: C_5  and  O_9 
REMARK    5  A    between atoms: C_10  and  C_11 
REMARK    6  A    between atoms: C_11  and  C_12 
REMARK    7  A    between atoms: C_11  and  O_24 
REMARK    8  A    between atoms: C_12  and  C_13 
REMARK    9  A    between atoms: C_13  and  C_14 
REMARK   10  A    between atoms: C_14  and  C_15 
REMARK   11  A    between atoms: C_17  and  C_18 
REMARK   12  A    between atoms: C_18  and  C_19 
REMARK   13  A    between atoms: C_19  and  C_20 
REMARK   14  A    between atoms: C_21  and  C_22 
REMARK   15  A    between atoms: C_22  and  O_23 
ROOT
HETATM    1  C   UNK N   1      32.293  16.975   6.044  0.00  0.00     0.065 C 
HETATM    2  C   UNK N   1      31.125  17.303   6.956  0.00  0.00     0.048 C 
HETATM    3  C   UNK N   1      33.369  17.650   6.818  0.00  0.00     0.134 C 
HETATM    4  C   UNK N   1      31.669  17.249   8.370  0.00  0.00     0.133 C 
HETATM    5  C   UNK N   1      33.012  17.957   8.232  0.00  0.00     0.111 C 
HETATM    6  O   UNK N   1      34.471  17.895   6.353  0.00  0.00    -0.297 OA
ENDROOT
BRANCH   2   7
HETATM    7  C   UNK N   1      29.835  16.606   6.686  0.00  0.00    -0.020 C 
HETATM    8  C   UNK N   1      28.803  17.363   6.321  0.00  0.00     0.002 C 
BRANCH   8   9
HETATM    9  C   UNK N   1      27.496  16.813   5.828  0.00  0.00     0.148 C 
BRANCH   9  10
HETATM   10  C   UNK N   1      26.930  17.549   4.597  0.00  0.00    -0.018 C 
HETATM   11  C   UNK N   1      25.511  18.040   4.863  0.00  0.00     0.018 C 
HETATM   12  C   UNK N   1      26.921  16.610   3.393  0.00  0.00     0.018 C 
BRANCH  10  13
HETATM   13  C   UNK N   1      27.853  18.730   4.297  0.00  0.00     0.011 C 
BRANCH  13  14
HETATM   14  C   UNK N   1      27.172  20.088   4.384  0.00  0.00     0.000 C 
BRANCH  14  15
HETATM   15  C   UNK N   1      27.700  20.830   5.592  0.00  0.00    -0.005 C 
HETATM   16  C   UNK N   1      26.539  21.410   6.369  0.00  0.00     0.005 C 
ENDBRANCH  14  15
ENDBRANCH  13  14
ENDBRANCH  10  13
ENDBRANCH   9  10
BRANCH   9  17
HETATM   17  O   UNK N   1      27.574  15.432   5.623  0.00  0.00    -0.391 OA
HETATM   18  H   UNK N   1      27.212  14.671   5.143  0.00  0.00     0.210 HD
ENDBRANCH   9  17
ENDBRANCH   8   9
ENDBRANCH   2   7
BRANCH   1  19
HETATM   19  C   UNK N   1      32.107  17.582   4.659  0.00  0.00     0.013 C 
BRANCH  19  20
HETATM   20  C   UNK N   1      32.014  16.484   3.615  0.00  0.00     0.001 C 
BRANCH  20  21
HETATM   21  C   UNK N   1      30.604  16.431   3.054  0.00  0.00     0.004 C 
BRANCH  21  22
HETATM   22  C   UNK N   1      30.126  14.994   2.972  0.00  0.00     0.027 C 
BRANCH  22  23
HETATM   23  C   UNK N   1      30.714  14.210   4.104  0.00  0.00    -0.021 C 
HETATM   24  C   UNK N   1      30.174  13.091   4.612  0.00  0.00     0.078 C 
BRANCH  24  25
HETATM   25  C   UNK N   1      28.913  12.457   4.173  0.00  0.00     0.282 C 
HETATM   26  O   UNK N   1      27.860  12.674   4.764  0.00  0.00    -0.260 OA
BRANCH  25  27
HETATM   27  O   UNK N   1      28.941  11.628   3.104  0.00  0.00    -0.323 OA
HETATM   28  C   UNK N   1      29.976  10.753   2.871  0.00  0.00     0.213 C 
ENDBRANCH  25  27
ENDBRANCH  24  25
ENDBRANCH  22  23
ENDBRANCH  21  22
ENDBRANCH  20  21
ENDBRANCH  19  20
ENDBRANCH   1  19
BRANCH   4  29
HETATM   29  O   UNK N   1      30.839  17.935   9.256  0.00  0.00    -0.394 OA
HETATM   30  H   UNK N   1      29.935  17.767   9.567  0.00  0.00     0.210 HD
ENDBRANCH   4  29
TORSDOF 15
ENDMDL
MODEL 3
REMARK VINA RESULT:      -6.0     11.252     14.428
REMARK  15 active torsions:
REMARK  status: ('A' for Active; 'I' for Inactive)
REMARK    1  A    between atoms: C_1  and  C_4 
REMARK    2  A    between atoms: C_2  and  C_6 
REMARK    3  A    between atoms: C_4  and  C_17 
REMARK    4  A    between atoms: C_5  and  O_9 
REMARK    5  A    between atoms: C_10  and  C_11 
REMARK    6  A    between atoms: C_11  and  C_12 
REMARK    7  A    between atoms: C_11  and  O_24 
REMARK    8  A    between atoms: C_12  and  C_13 
REMARK    9  A    between atoms: C_13  and  C_14 
REMARK   10  A    between atoms: C_14  and  C_15 
REMARK   11  A    between atoms: C_17  and  C_18 
REMARK   12  A    between atoms: C_18  and  C_19 
REMARK   13  A    between atoms: C_19  and  C_20 
REMARK   14  A    between atoms: C_21  and  C_22 
REMARK   15  A    between atoms: C_22  and  O_23 
ROOT
HETATM    1  C   UNK N   1      25.955  28.223  -5.010  0.00  0.00     0.065 C 
HETATM    2  C   UNK N   1      27.048  27.832  -5.987  0.00  0.00     0.048 C 
HETATM    3  C   UNK N   1      26.712  29.240  -4.232  0.00  0.00     0.134 C 
HETATM    4  C   UNK N   1      27.817  29.104  -6.285  0.00  0.00     0.133 C 
HETATM    5  C   UNK N   1      27.941  29.744  -4.909  0.00  0.00     0.111 C 
HETATM    6  O   UNK N   1      26.340  29.664  -3.149  0.00  0.00    -0.297 OA
ENDROOT
BRANCH   2   7
HETATM    7  C   UNK N   1      26.653  26.977  -7.143  0.00  0.00    -0.020 C 
HETATM    8  C   UNK N   1      27.284  25.813  -7.277  0.00  0.00     0.002 C 
BRANCH   8   9
HETATM    9  C   UNK N   1      26.881  24.752  -8.261  0.00  0.00     0.148 C 
BRANCH   9  10
HETATM   10  C   UNK N   1      27.212  23.317  -7.807  0.00  0.00    -0.018 C 
HETATM   11  C   UNK N   1      27.162  22.350  -8.985  0.00  0.00     0.018 C 
HETATM   12  C   UNK N   1      26.212  22.868  -6.744  0.00  0.00     0.018 C 
BRANCH  10  13
HETATM   13  C   UNK N   1      28.612  23.335  -7.193  0.00  0.00     0.011 C 
BRANCH  13  14
HETATM   14  C   UNK N   1      28.919  22.135  -6.309  0.00  0.00     0.000 C 
BRANCH  14  15
HETATM   15  C   UNK N   1      30.064  21.354  -6.914  0.00  0.00    -0.005 C 
HETATM   16  C   UNK N   1      29.587  19.965  -7.276  0.00  0.00     0.005 C 
ENDBRANCH  14  15
ENDBRANCH  13  14
ENDBRANCH  10  13
ENDBRANCH   9  10
BRANCH   9  17
HETATM   17  O   UNK N   1      25.539  24.889  -8.630  0.00  0.00    -0.391 OA
HETATM   18  H   UNK N   1      24.626  24.972  -8.316  0.00  0.00     0.210 HD
ENDBRANCH   9  17
ENDBRANCH   8   9
ENDBRANCH   2   7
BRANCH   1  19
HETATM   19  C   UNK N   1      25.524  27.040  -4.152  0.00  0.00     0.013 C 
BRANCH  19  20
HETATM   20  C   UNK N   1      26.743  26.304  -3.625  0.00  0.00     0.001 C 
BRANCH  20  21
HETATM   21  C   UNK N   1      26.549  24.807  -3.793  0.00  0.00     0.004 C 
BRANCH  21  22
HETATM   22  C   UNK N   1      27.826  24.069  -3.439  0.00  0.00     0.027 C 
BRANCH  22  23
HETATM   23  C   UNK N   1      29.001  24.962  -3.693  0.00  0.00    -0.021 C 
HETATM   24  C   UNK N   1      30.277  24.621  -3.452  0.00  0.00     0.078 C 
BRANCH  24  25
HETATM   25  C   UNK N   1      30.742  23.341  -2.878  0.00  0.00     0.282 C 
HETATM   26  O   UNK N   1      30.614  23.104  -1.681  0.00  0.00    -0.260 OA
BRANCH  25  27
HETATM   27  O   UNK N   1      31.314  22.432  -3.700  0.00  0.00    -0.323 OA
HETATM   28  C   UNK N   1      31.266  21.078  -3.457  0.00  0.00     0.213 C 
ENDBRANCH  25  27
ENDBRANCH  24  25
ENDBRANCH  22  23
ENDBRANCH  21  22
ENDBRANCH  20  21
ENDBRANCH  19  20
ENDBRANCH   1  19
BRANCH   4  29
HETATM   29  O   UNK N   1      29.077  28.819  -6.812  0.00  0.00    -0.394 OA
HETATM   30  H   UNK N   1      29.959  28.775  -6.410  0.00  0.00     0.210 HD
ENDBRANCH   4  29
TORSDOF 15
ENDMDL
MODEL 4
REMARK VINA RESULT:      -6.0     10.960     13.620
REMARK  15 active torsions:
REMARK  status: ('A' for Active; 'I' for Inactive)
REMARK    1  A    between atoms: C_1  and  C_4 
REMARK    2  A    between atoms: C_2  and  C_6 
REMARK    3  A    between atoms: C_4  and  C_17 
REMARK    4  A    between atoms: C_5  and  O_9 
REMARK    5  A    between atoms: C_10  and  C_11 
REMARK    6  A    between atoms: C_11  and  C_12 
REMARK    7  A    between atoms: C_11  and  O_24 
REMARK    8  A    between atoms: C_12  and  C_13 
REMARK    9  A    between atoms: C_13  and  C_14 
REMARK   10  A    between atoms: C_14  and  C_15 
REMARK   11  A    between atoms: C_17  and  C_18 
REMARK   12  A    between atoms: C_18  and  C_19 
REMARK   13  A    between atoms: C_19  and  C_20 
REMARK   14  A    between atoms: C_21  and  C_22 
REMARK   15  A    between atoms: C_22  and  O_23 
ROOT
HETATM    1  C   UNK N   1      29.963  22.380  -4.919  0.00  0.00     0.065 C 
HETATM    2  C   UNK N   1      29.636  23.138  -3.646  0.00  0.00     0.048 C 
HETATM    3  C   UNK N   1      31.354  21.977  -4.582  0.00  0.00     0.134 C 
HETATM    4  C   UNK N   1      30.328  22.389  -2.524  0.00  0.00     0.133 C 
HETATM    5  C   UNK N   1      31.688  22.070  -3.132  0.00  0.00     0.111 C 
HETATM    6  O   UNK N   1      32.148  21.561  -5.410  0.00  0.00    -0.297 OA
ENDROOT
BRANCH   2   7
HETATM    7  C   UNK N   1      28.214  23.535  -3.436  0.00  0.00    -0.020 C 
HETATM    8  C   UNK N   1      27.897  24.803  -3.689  0.00  0.00     0.002 C 
BRANCH   8   9
HETATM    9  C   UNK N   1      26.488  25.322  -3.718  0.00  0.00     0.148 C 
BRANCH   9  10
HETATM   10  C   UNK N   1      26.310  26.606  -4.551  0.00  0.00    -0.018 C 
HETATM   11  C   UNK N   1      25.929  27.784  -3.660  0.00  0.00     0.018 C 
HETATM   12  C   UNK N   1      25.221  26.395  -5.599  0.00  0.00     0.018 C 
BRANCH  10  13
HETATM   13  C   UNK N   1      27.635  26.886  -5.263  0.00  0.00     0.011 C 
BRANCH  13  14
HETATM   14  C   UNK N   1      27.479  27.479  -6.656  0.00  0.00     0.000 C 
BRANCH  14  15
HETATM   15  C   UNK N   1      27.827  28.951  -6.608  0.00  0.00    -0.005 C 
HETATM   16  C   UNK N   1      28.977  29.224  -7.552  0.00  0.00     0.005 C 
ENDBRANCH  14  15
ENDBRANCH  13  14
ENDBRANCH  10  13
ENDBRANCH   9  10
BRANCH   9  17
HETATM   17  O   UNK N   1      25.588  24.321  -4.098  0.00  0.00    -0.391 OA
HETATM   18  H   UNK N   1      24.860  23.748  -3.815  0.00  0.00     0.210 HD
ENDBRANCH   9  17
ENDBRANCH   8   9
ENDBRANCH   2   7
BRANCH   1  19
HETATM   19  C   UNK N   1      29.903  23.289  -6.140  0.00  0.00     0.013 C 
BRANCH  19  20
HETATM   20  C   UNK N   1      28.641  23.013  -6.938  0.00  0.00     0.001 C 
BRANCH  20  21
HETATM   21  C   UNK N   1      28.802  21.720  -7.718  0.00  0.00     0.004 C 
BRANCH  21  22
HETATM   22  C   UNK N   1      27.848  21.696  -8.897  0.00  0.00     0.027 C 
BRANCH  22  23
HETATM   23  C   UNK N   1      26.746  20.720  -8.622  0.00  0.00    -0.021 C 
HETATM   24  C   UNK N   1      25.566  21.046  -8.071  0.00  0.00     0.078 C 
BRANCH  24  25
HETATM   25  C   UNK N   1      25.159  22.393  -7.620  0.00  0.00     0.282 C 
HETATM   26  O   UNK N   1      25.194  22.696  -6.432  0.00  0.00    -0.260 OA
BRANCH  25  27
HETATM   27  O   UNK N   1      24.743  23.289  -8.544  0.00  0.00    -0.323 OA
HETATM   28  C   UNK N   1      25.429  24.452  -8.809  0.00  0.00     0.213 C 
ENDBRANCH  25  27
ENDBRANCH  24  25
ENDBRANCH  22  23
ENDBRANCH  21  22
ENDBRANCH  20  21
ENDBRANCH  19  20
ENDBRANCH   1  19
BRANCH   4  29
HETATM   29  O   UNK N   1      30.469  23.194  -1.393  0.00  0.00    -0.394 OA
HETATM   30  H   UNK N   1      31.221  23.366  -0.803  0.00  0.00     0.210 HD
ENDBRANCH   4  29
TORSDOF 15
ENDMDL
MODEL 5
REMARK VINA RESULT:      -5.9      3.215      5.984
REMARK  15 active torsions:
REMARK  status: ('A' for Active; 'I' for Inactive)
REMARK    1  A    between atoms: C_1  and  C_4 
REMARK    2  A    between atoms: C_2  and  C_6 
REMARK    3  A    between atoms: C_4  and  C_17 
REMARK    4  A    between atoms: C_5  and  O_9 
REMARK    5  A    between atoms: C_10  and  C_11 
REMARK    6  A    between atoms: C_11  and  C_12 
REMARK    7  A    between atoms: C_11  and  O_24 
REMARK    8  A    between atoms: C_12  and  C_13 
REMARK    9  A    between atoms: C_13  and  C_14 
REMARK   10  A    between atoms: C_14  and  C_15 
REMARK   11  A    between atoms: C_17  and  C_18 
REMARK   12  A    between atoms: C_18  and  C_19 
REMARK   13  A    between atoms: C_19  and  C_20 
REMARK   14  A    between atoms: C_21  and  C_22 
REMARK   15  A    between atoms: C_22  and  O_23 
ROOT
HETATM    1  C   UNK N   1      28.468  18.424   4.968  0.00  0.00     0.065 C 
HETATM    2  C   UNK N   1      28.135  18.129   6.420  0.00  0.00     0.048 C 
HETATM    3  C   UNK N   1      27.643  19.650   4.801  0.00  0.00     0.134 C 
HETATM    4  C   UNK N   1      28.008  19.477   7.102  0.00  0.00     0.133 C 
HETATM    5  C   UNK N   1      27.222  20.289   6.080  0.00  0.00     0.111 C 
HETATM    6  O   UNK N   1      27.366  20.124   3.711  0.00  0.00    -0.297 OA
ENDROOT
BRANCH   2   7
HETATM    7  C   UNK N   1      28.948  17.083   7.104  0.00  0.00    -0.020 C 
HETATM    8  C   UNK N   1      30.255  17.312   7.218  0.00  0.00     0.002 C 
BRANCH   8   9
HETATM    9  C   UNK N   1      31.182  16.466   8.041  0.00  0.00     0.148 C 
BRANCH   9  10
HETATM   10  C   UNK N   1      32.675  16.676   7.719  0.00  0.00    -0.018 C 
HETATM   11  C   UNK N   1      33.549  15.768   8.579  0.00  0.00     0.018 C 
HETATM   12  C   UNK N   1      33.059  18.131   7.974  0.00  0.00     0.018 C 
BRANCH  10  13
HETATM   13  C   UNK N   1      32.880  16.361   6.237  0.00  0.00     0.011 C 
BRANCH  13  14
HETATM   14  C   UNK N   1      33.446  17.519   5.428  0.00  0.00     0.000 C 
BRANCH  14  15
HETATM   15  C   UNK N   1      32.640  17.677   4.158  0.00  0.00    -0.005 C 
HETATM   16  C   UNK N   1      32.878  16.481   3.263  0.00  0.00     0.005 C 
ENDBRANCH  14  15
ENDBRANCH  13  14
ENDBRANCH  10  13
ENDBRANCH   9  10
BRANCH   9  17
HETATM   17  O   UNK N   1      30.916  16.605   9.407  0.00  0.00    -0.391 OA
HETATM   18  H   UNK N   1      30.230  16.713  10.083  0.00  0.00     0.210 HD
ENDBRANCH   9  17
ENDBRANCH   8   9
ENDBRANCH   2   7
BRANCH   1  19
HETATM   19  C   UNK N   1      28.017  17.293   4.052  0.00  0.00     0.013 C 
BRANCH  19  20
HETATM   20  C   UNK N   1      29.215  16.677   3.353  0.00  0.00     0.001 C 
BRANCH  20  21
HETATM   21  C   UNK N   1      28.796  15.395   2.654  0.00  0.00     0.004 C 
BRANCH  21  22
HETATM   22  C   UNK N   1      29.562  14.214   3.221  0.00  0.00     0.027 C 
BRANCH  22  23
HETATM   23  C   UNK N   1      29.893  14.481   4.656  0.00  0.00    -0.021 C 
HETATM   24  C   UNK N   1      30.832  13.821   5.352  0.00  0.00     0.078 C 
BRANCH  24  25
HETATM   25  C   UNK N   1      31.675  12.717   4.846  0.00  0.00     0.282 C 
HETATM   26  O   UNK N   1      31.412  11.550   5.117  0.00  0.00    -0.260 OA
BRANCH  25  27
HETATM   27  O   UNK N   1      32.745  13.018   4.076  0.00  0.00    -0.323 OA
HETATM   28  C   UNK N   1      33.003  12.383   2.884  0.00  0.00     0.213 C 
ENDBRANCH  25  27
ENDBRANCH  24  25
ENDBRANCH  22  23
ENDBRANCH  21  22
ENDBRANCH  20  21
ENDBRANCH  19  20
ENDBRANCH   1  19
BRANCH   4  29
HETATM   29  O   UNK N   1      27.300  19.371   8.298  0.00  0.00    -0.394 OA
HETATM   30  H   UNK N   1      27.281  18.690   8.989  0.00  0.00     0.210 HD
ENDBRANCH   4  29
TORSDOF 15
ENDMDL
MODEL 6
REMARK VINA RESULT:      -5.9      4.466      7.594
REMARK  15 active torsions:
REMARK  status: ('A' for Active; 'I' for Inactive)
REMARK    1  A    between atoms: C_1  and  C_4 
REMARK    2  A    between atoms: C_2  and  C_6 
REMARK    3  A    between atoms: C_4  and  C_17 
REMARK    4  A    between atoms: C_5  and  O_9 
REMARK    5  A    between atoms: C_10  and  C_11 
REMARK    6  A    between atoms: C_11  and  C_12 
REMARK    7  A    between atoms: C_11  and  O_24 
REMARK    8  A    between atoms: C_12  and  C_13 
REMARK    9  A    between atoms: C_13  and  C_14 
REMARK   10  A    between atoms: C_14  and  C_15 
REMARK   11  A    between atoms: C_17  and  C_18 
REMARK   12  A    between atoms: C_18  and  C_19 
REMARK   13  A    between atoms: C_19  and  C_20 
REMARK   14  A    between atoms: C_21  and  C_22 
REMARK   15  A    between atoms: C_22  and  O_23 
ROOT
HETATM    1  C   UNK N   1      33.476  16.640   6.732  0.00  0.00     0.065 C 
HETATM    2  C   UNK N   1      33.554  17.403   8.042  0.00  0.00     0.048 C 
HETATM    3  C   UNK N   1      34.604  15.698   6.962  0.00  0.00     0.134 C 
HETATM    4  C   UNK N   1      33.948  16.387   9.096  0.00  0.00     0.133 C 
HETATM    5  C   UNK N   1      35.028  15.580   8.386  0.00  0.00     0.111 C 
HETATM    6  O   UNK N   1      35.116  15.041   6.070  0.00  0.00    -0.297 OA
ENDROOT
BRANCH   2   7
HETATM    7  C   UNK N   1      32.426  18.325   8.360  0.00  0.00    -0.020 C 
HETATM    8  C   UNK N   1      31.202  17.800   8.375  0.00  0.00     0.002 C 
BRANCH   8   9
HETATM    9  C   UNK N   1      29.985  18.532   8.860  0.00  0.00     0.148 C 
BRANCH   9  10
HETATM   10  C   UNK N   1      28.667  18.045   8.227  0.00  0.00    -0.018 C 
HETATM   11  C   UNK N   1      27.764  17.405   9.276  0.00  0.00     0.018 C 
HETATM   12  C   UNK N   1      28.965  17.027   7.130  0.00  0.00     0.018 C 
BRANCH  10  13
HETATM   13  C   UNK N   1      27.976  19.258   7.602  0.00  0.00     0.011 C 
BRANCH  13  14
HETATM   14  C   UNK N   1      27.759  19.144   6.100  0.00  0.00     0.000 C 
BRANCH  14  15
HETATM   15  C   UNK N   1      27.777  20.529   5.491  0.00  0.00    -0.005 C 
HETATM   16  C   UNK N   1      27.031  21.483   6.397  0.00  0.00     0.005 C 
ENDBRANCH  14  15
ENDBRANCH  13  14
ENDBRANCH  10  13
ENDBRANCH   9  10
BRANCH   9  17
HETATM   17  O   UNK N   1      29.923  18.540  10.257  0.00  0.00    -0.391 OA
HETATM   18  H   UNK N   1      29.928  19.088  11.057  0.00  0.00     0.210 HD
ENDBRANCH   9  17
ENDBRANCH   8   9
ENDBRANCH   2   7
BRANCH   1  19
HETATM   19  C   UNK N   1      33.720  17.555   5.539  0.00  0.00     0.013 C 
BRANCH  19  20
HETATM   20  C   UNK N   1      32.936  17.064   4.335  0.00  0.00     0.001 C 
BRANCH  20  21
HETATM   21  C   UNK N   1      31.462  17.380   4.520  0.00  0.00     0.004 C 
BRANCH  21  22
HETATM   22  C   UNK N   1      30.610  16.271   3.933  0.00  0.00     0.027 C 
BRANCH  22  23
HETATM   23  C   UNK N   1      30.794  15.024   4.741  0.00  0.00    -0.021 C 
HETATM   24  C   UNK N   1      31.081  13.821   4.221  0.00  0.00     0.078 C 
BRANCH  24  25
HETATM   25  C   UNK N   1      31.239  13.508   2.785  0.00  0.00     0.282 C 
HETATM   26  O   UNK N   1      32.352  13.436   2.275  0.00  0.00    -0.260 OA
BRANCH  25  27
HETATM   27  O   UNK N   1      30.129  13.304   2.040  0.00  0.00    -0.323 OA
HETATM   28  C   UNK N   1      28.982  12.747   2.555  0.00  0.00     0.213 C 
ENDBRANCH  25  27
ENDBRANCH  24  25
ENDBRANCH  22  23
ENDBRANCH  21  22
ENDBRANCH  20  21
ENDBRANCH  19  20
ENDBRANCH   1  19
BRANCH   4  29
HETATM   29  O   UNK N   1      34.464  17.012  10.231  0.00  0.00    -0.394 OA
HETATM   30  H   UNK N   1      34.064  17.595  10.895  0.00  0.00     0.210 HD
ENDBRANCH   4  29
TORSDOF 15
ENDMDL
MODEL 7
REMARK VINA RESULT:      -5.9     11.561     14.221
REMARK  15 active torsions:
REMARK  status: ('A' for Active; 'I' for Inactive)
REMARK    1  A    between atoms: C_1  and  C_4 
REMARK    2  A    between atoms: C_2  and  C_6 
REMARK    3  A    between atoms: C_4  and  C_17 
REMARK    4  A    between atoms: C_5  and  O_9 
REMARK    5  A    between atoms: C_10  and  C_11 
REMARK    6  A    between atoms: C_11  and  C_12 
REMARK    7  A    between atoms: C_11  and  O_24 
REMARK    8  A    between atoms: C_12  and  C_13 
REMARK    9  A    between atoms: C_13  and  C_14 
REMARK   10  A    between atoms: C_14  and  C_15 
REMARK   11  A    between atoms: C_17  and  C_18 
REMARK   12  A    between atoms: C_18  and  C_19 
REMARK   13  A    between atoms: C_19  and  C_20 
REMARK   14  A    between atoms: C_21  and  C_22 
REMARK   15  A    between atoms: C_22  and  O_23 
ROOT
HETATM    1  C   UNK N   1      29.330  22.328  -5.027  0.00  0.00     0.065 C 
HETATM    2  C   UNK N   1      29.460  23.235  -3.817  0.00  0.00     0.048 C 
HETATM    3  C   UNK N   1      30.492  21.440  -4.760  0.00  0.00     0.134 C 
HETATM    4  C   UNK N   1      29.937  22.351  -2.681  0.00  0.00     0.133 C 
HETATM    5  C   UNK N   1      30.996  21.491  -3.357  0.00  0.00     0.111 C 
HETATM    6  O   UNK N   1      30.971  20.697  -5.601  0.00  0.00    -0.297 OA
ENDROOT
BRANCH   2   7
HETATM    7  C   UNK N   1      28.327  24.165  -3.539  0.00  0.00    -0.020 C 
HETATM    8  C   UNK N   1      28.425  25.400  -4.026  0.00  0.00     0.002 C 
BRANCH   8   9
HETATM    9  C   UNK N   1      27.304  26.397  -4.007  0.00  0.00     0.148 C 
BRANCH   9  10
HETATM   10  C   UNK N   1      26.689  26.676  -5.393  0.00  0.00    -0.018 C 
HETATM   11  C   UNK N   1      25.428  25.844  -5.605  0.00  0.00     0.018 C 
HETATM   12  C   UNK N   1      27.703  26.341  -6.484  0.00  0.00     0.018 C 
BRANCH  10  13
HETATM   13  C   UNK N   1      26.360  28.167  -5.464  0.00  0.00     0.011 C 
BRANCH  13  14
HETATM   14  C   UNK N   1      27.549  29.051  -5.812  0.00  0.00     0.000 C 
BRANCH  14  15
HETATM   15  C   UNK N   1      27.578  30.234  -4.870  0.00  0.00    -0.005 C 
HETATM   16  C   UNK N   1      26.487  30.076  -3.834  0.00  0.00     0.005 C 
ENDBRANCH  14  15
ENDBRANCH  13  14
ENDBRANCH  10  13
ENDBRANCH   9  10
BRANCH   9  17
HETATM   17  O   UNK N   1      26.332  26.047  -3.064  0.00  0.00    -0.391 OA
HETATM   18  H   UNK N   1      25.421  25.747  -2.926  0.00  0.00     0.210 HD
ENDBRANCH   9  17
ENDBRANCH   8   9
ENDBRANCH   2   7
BRANCH   1  19
HETATM   19  C   UNK N   1      29.483  23.108  -6.327  0.00  0.00     0.013 C 
BRANCH  19  20
HETATM   20  C   UNK N   1      28.479  22.617  -7.354  0.00  0.00     0.001 C 
BRANCH  20  21
HETATM   21  C   UNK N   1      27.076  22.704  -6.778  0.00  0.00     0.004 C 
BRANCH  21  22
HETATM   22  C   UNK N   1      26.089  23.103  -7.859  0.00  0.00     0.027 C 
BRANCH  22  23
HETATM   23  C   UNK N   1      26.819  23.289  -9.153  0.00  0.00    -0.021 C 
HETATM   24  C   UNK N   1      26.539  24.248 -10.049  0.00  0.00     0.078 C 
BRANCH  24  25
HETATM   25  C   UNK N   1      25.465  25.257  -9.937  0.00  0.00     0.282 C 
HETATM   26  O   UNK N   1      25.539  26.168  -9.119  0.00  0.00    -0.260 OA
BRANCH  25  27
HETATM   27  O   UNK N   1      24.392  25.156 -10.755  0.00  0.00    -0.323 OA
HETATM   28  C   UNK N   1      24.026  26.158 -11.623  0.00  0.00     0.213 C 
ENDBRANCH  25  27
ENDBRANCH  24  25
ENDBRANCH  22  23
ENDBRANCH  21  22
ENDBRANCH  20  21
ENDBRANCH  19  20
ENDBRANCH   1  19
BRANCH   4  29
HETATM   29  O   UNK N   1      30.498  23.110  -1.654  0.00  0.00    -0.394 OA
HETATM   30  H   UNK N   1      31.158  22.902  -0.973  0.00  0.00     0.210 HD
ENDBRANCH   4  29
TORSDOF 15
ENDMDL
MODEL 8
REMARK VINA RESULT:      -5.8     11.159     15.256
REMARK  15 active torsions:
REMARK  status: ('A' for Active; 'I' for Inactive)
REMARK    1  A    between atoms: C_1  and  C_4 
REMARK    2  A    between atoms: C_2  and  C_6 
REMARK    3  A    between atoms: C_4  and  C_17 
REMARK    4  A    between atoms: C_5  and  O_9 
REMARK    5  A    between atoms: C_10  and  C_11 
REMARK    6  A    between atoms: C_11  and  C_12 
REMARK    7  A    between atoms: C_11  and  O_24 
REMARK    8  A    between atoms: C_12  and  C_13 
REMARK    9  A    between atoms: C_13  and  C_14 
REMARK   10  A    between atoms: C_14  and  C_15 
REMARK   11  A    between atoms: C_17  and  C_18 
REMARK   12  A    between atoms: C_18  and  C_19 
REMARK   13  A    between atoms: C_19  and  C_20 
REMARK   14  A    between atoms: C_21  and  C_22 
REMARK   15  A    between atoms: C_22  and  O_23 
ROOT
HETATM    1  C   UNK N   1      35.424  12.604  17.389  0.00  0.00     0.065 C 
HETATM    2  C   UNK N   1      35.136  11.168  17.789  0.00  0.00     0.048 C 
HETATM    3  C   UNK N   1      35.232  13.242  18.719  0.00  0.00     0.134 C 
HETATM    4  C   UNK N   1      35.700  11.002  19.186  0.00  0.00     0.133 C 
HETATM    5  C   UNK N   1      35.272  12.295  19.869  0.00  0.00     0.111 C 
HETATM    6  O   UNK N   1      35.096  14.446  18.867  0.00  0.00    -0.297 OA
ENDROOT
BRANCH   2   7
HETATM    7  C   UNK N   1      35.450  10.108  16.788  0.00  0.00    -0.020 C 
HETATM    8  C   UNK N   1      36.714  10.015  16.382  0.00  0.00     0.002 C 
BRANCH   8   9
HETATM    9  C   UNK N   1      37.239   8.893  15.534  0.00  0.00     0.148 C 
BRANCH   9  10
HETATM   10  C   UNK N   1      37.881   9.354  14.211  0.00  0.00    -0.018 C 
HETATM   11  C   UNK N   1      38.774   8.262  13.631  0.00  0.00     0.018 C 
HETATM   12  C   UNK N   1      38.714  10.610  14.451  0.00  0.00     0.018 C 
BRANCH  10  13
HETATM   13  C   UNK N   1      36.750   9.687  13.236  0.00  0.00     0.011 C 
BRANCH  13  14
HETATM   14  C   UNK N   1      35.627   8.661  13.214  0.00  0.00     0.000 C 
BRANCH  14  15
HETATM   15  C   UNK N   1      34.525   9.154  12.302  0.00  0.00    -0.005 C 
HETATM   16  C   UNK N   1      33.810  10.312  12.962  0.00  0.00     0.005 C 
ENDBRANCH  14  15
ENDBRANCH  13  14
ENDBRANCH  10  13
ENDBRANCH   9  10
BRANCH   9  17
HETATM   17  O   UNK N   1      38.090   8.060  16.267  0.00  0.00    -0.391 OA
HETATM   18  H   UNK N   1      38.798   7.399  16.224  0.00  0.00     0.210 HD
ENDBRANCH   9  17
ENDBRANCH   8   9
ENDBRANCH   2   7
BRANCH   1  19
HETATM   19  C   UNK N   1      34.424  13.106  16.355  0.00  0.00     0.013 C 
BRANCH  19  20
HETATM   20  C   UNK N   1      35.008  12.982  14.959  0.00  0.00     0.001 C 
BRANCH  20  21
HETATM   21  C   UNK N   1      36.332  13.722  14.892  0.00  0.00     0.004 C 
BRANCH  21  22
HETATM   22  C   UNK N   1      36.424  14.517  13.603  0.00  0.00     0.027 C 
BRANCH  22  23
HETATM   23  C   UNK N   1      35.321  14.097  12.682  0.00  0.00    -0.021 C 
HETATM   24  C   UNK N   1      35.045  14.692  11.511  0.00  0.00     0.078 C 
BRANCH  24  25
HETATM   25  C   UNK N   1      35.748  15.861  10.941  0.00  0.00     0.282 C 
HETATM   26  O   UNK N   1      35.230  16.973  10.951  0.00  0.00    -0.260 OA
BRANCH  25  27
HETATM   27  O   UNK N   1      36.977  15.681  10.406  0.00  0.00    -0.323 OA
HETATM   28  C   UNK N   1      37.351  14.514   9.782  0.00  0.00     0.213 C 
ENDBRANCH  25  27
ENDBRANCH  24  25
ENDBRANCH  22  23
ENDBRANCH  21  22
ENDBRANCH  20  21
ENDBRANCH  19  20
ENDBRANCH   1  19
BRANCH   4  29
HETATM   29  O   UNK N   1      35.139   9.897  19.827  0.00  0.00    -0.394 OA
HETATM   30  H   UNK N   1      34.254   9.730  20.188  0.00  0.00     0.210 HD
ENDBRANCH   4  29
TORSDOF 15
ENDMDL
MODEL 9
REMARK VINA RESULT:      -5.8      2.347      3.358
REMARK  15 active torsions:
REMARK  status: ('A' for Active; 'I' for Inactive)
REMARK    1  A    between atoms: C_1  and  C_4 
REMARK    2  A    between atoms: C_2  and  C_6 
REMARK    3  A    between atoms: C_4  and  C_17 
REMARK    4  A    between atoms: C_5  and  O_9 
REMARK    5  A    between atoms: C_10  and  C_11 
REMARK    6  A    between atoms: C_11  and  C_12 
REMARK    7  A    between atoms: C_11  and  O_24 
REMARK    8  A    between atoms: C_12  and  C_13 
REMARK    9  A    between atoms: C_13  and  C_14 
REMARK   10  A    between atoms: C_14  and  C_15 
REMARK   11  A    between atoms: C_17  and  C_18 
REMARK   12  A    between atoms: C_18  and  C_19 
REMARK   13  A    between atoms: C_19  and  C_20 
REMARK   14  A    between atoms: C_21  and  C_22 
REMARK   15  A    between atoms: C_22  and  O_23 
ROOT
HETATM    1  C   UNK N   1      28.012  18.920   4.817  0.00  0.00     0.065 C 
HETATM    2  C   UNK N   1      27.562  18.819   6.263  0.00  0.00     0.048 C 
HETATM    3  C   UNK N   1      27.221  20.117   4.425  0.00  0.00     0.134 C 
HETATM    4  C   UNK N   1      27.401  20.245   6.751  0.00  0.00     0.133 C 
HETATM    5  C   UNK N   1      26.710  20.920   5.573  0.00  0.00     0.111 C 
HETATM    6  O   UNK N   1      27.037  20.445   3.264  0.00  0.00    -0.297 OA
ENDROOT
BRANCH   2   7
HETATM    7  C   UNK N   1      28.304  17.869   7.141  0.00  0.00    -0.020 C 
HETATM    8  C   UNK N   1      29.625  18.019   7.214  0.00  0.00     0.002 C 
BRANCH   8   9
HETATM    9  C   UNK N   1      30.496  17.283   8.190  0.00  0.00     0.148 C 
BRANCH   9  10
HETATM   10  C   UNK N   1      31.840  16.814   7.600  0.00  0.00    -0.018 C 
HETATM   11  C   UNK N   1      32.206  15.426   8.117  0.00  0.00     0.018 C 
HETATM   12  C   UNK N   1      32.943  17.798   7.980  0.00  0.00     0.018 C 
BRANCH  10  13
HETATM   13  C   UNK N   1      31.698  16.793   6.077  0.00  0.00     0.011 C 
BRANCH  13  14
HETATM   14  C   UNK N   1      32.869  17.420   5.335  0.00  0.00     0.000 C 
BRANCH  14  15
HETATM   15  C   UNK N   1      32.448  17.721   3.913  0.00  0.00    -0.005 C 
HETATM   16  C   UNK N   1      32.731  16.518   3.042  0.00  0.00     0.005 C 
ENDBRANCH  14  15
ENDBRANCH  13  14
ENDBRANCH  10  13
ENDBRANCH   9  10
BRANCH   9  17
HETATM   17  O   UNK N   1      30.669  18.016   9.368  0.00  0.00    -0.391 OA
HETATM   18  H   UNK N   1      30.965  17.993  10.291  0.00  0.00     0.210 HD
ENDBRANCH   9  17
ENDBRANCH   8   9
ENDBRANCH   2   7
BRANCH   1  19
HETATM   19  C   UNK N   1      27.619  17.681   4.023  0.00  0.00     0.013 C 
BRANCH  19  20
HETATM   20  C   UNK N   1      28.858  16.992   3.480  0.00  0.00     0.001 C 
BRANCH  20  21
HETATM   21  C   UNK N   1      28.796  15.507   3.794  0.00  0.00     0.004 C 
BRANCH  21  22
HETATM   22  C   UNK N   1      28.455  14.720   2.542  0.00  0.00     0.027 C 
BRANCH  22  23
HETATM   23  C   UNK N   1      27.517  13.609   2.896  0.00  0.00    -0.021 C 
HETATM   24  C   UNK N   1      26.181  13.681   2.785  0.00  0.00     0.078 C 
BRANCH  24  25
HETATM   25  C   UNK N   1      25.408  14.856   2.328  0.00  0.00     0.282 C 
HETATM   26  O   UNK N   1      25.300  15.112   1.134  0.00  0.00    -0.260 OA
BRANCH  25  27
HETATM   27  O   UNK N   1      24.822  15.647   3.255  0.00  0.00    -0.323 OA
HETATM   28  C   UNK N   1      23.456  15.763   3.374  0.00  0.00     0.213 C 
ENDBRANCH  25  27
ENDBRANCH  24  25
ENDBRANCH  22  23
ENDBRANCH  21  22
ENDBRANCH  20  21
ENDBRANCH  19  20
ENDBRANCH   1  19
BRANCH   4  29
HETATM   29  O   UNK N   1      26.599  20.300   7.891  0.00  0.00    -0.394 OA
HETATM   30  H   UNK N   1      26.808  20.296   8.838  0.00  0.00     0.210 HD
ENDBRANCH   4  29
TORSDOF 15
ENDMDL
