MODEL 1
REMARK VINA RESULT:      -8.3      0.000      0.000
REMARK  4 active torsions:
REMARK  status: ('A' for Active; 'I' for Inactive)
REMARK    1  A    between atoms: S_1  and  N_2 
REMARK    2  A    between atoms: S_1  and  C_5 
REMARK       I    between atoms: N_2  and  C_3 
REMARK       I    between atoms: C_3  and  N_4 
REMARK    3  A    between atoms: C_15  and  N_4 
REMARK    4  A    between atoms: C_17  and  O_23 
ROOT
HETATM    1  N   UNK N   1      28.915  23.114  -2.475  0.00  0.00    -0.232 N 
HETATM    2  C   UNK N   1      27.895  23.899  -2.898  0.00  0.00     0.330 C 
HETATM    3  N   UNK N   1      28.050  24.747  -3.951  0.00  0.00    -0.335 N 
HETATM    4  O   UNK N   1      26.826  23.841  -2.314  0.00  0.00    -0.246 OA
HETATM    5  H   UNK N   1      28.775  22.580  -1.660  0.00  0.00     0.183 HD
HETATM    6  H   UNK N   1      28.922  24.820  -4.402  0.00  0.00     0.164 HD
ENDROOT
BRANCH   1   7
HETATM    7  S   UNK N   1      30.466  22.983  -3.284  0.00  0.00     0.266 S 
HETATM    8  O   UNK N   1      31.405  22.456  -2.187  0.00  0.00    -0.200 OA
HETATM    9  O   UNK N   1      30.978  24.414  -3.511  0.00  0.00    -0.200 OA
BRANCH   7  10
HETATM   10  C   UNK N   1      30.429  21.923  -4.720  0.00  0.00     0.080 A 
HETATM   11  C   UNK N   1      29.485  22.156  -5.725  0.00  0.00     0.026 A 
HETATM   12  C   UNK N   1      29.390  21.283  -6.811  0.00  0.00     0.008 A 
HETATM   13  C   UNK N   1      30.233  20.170  -6.889  0.00  0.00    -0.062 A 
HETATM   14  C   UNK N   1      31.177  19.935  -5.885  0.00  0.00     0.008 A 
HETATM   15  C   UNK N   1      30.119  19.233  -8.036  0.00  0.00     0.048 C 
HETATM   16  C   UNK N   1      31.272  20.809  -4.797  0.00  0.00     0.026 A 
ENDBRANCH   7  10
ENDBRANCH   1   7
BRANCH   3  17
HETATM   17  C   UNK N   1      26.931  25.542  -4.405  0.00  0.00     0.120 C 
HETATM   18  C   UNK N   1      27.264  27.031  -4.635  0.00  0.00     0.019 C 
HETATM   19  C   UNK N   1      25.885  27.697  -4.507  0.00  0.00     0.008 C 
HETATM   20  C   UNK N   1      27.514  27.137  -6.146  0.00  0.00    -0.032 C 
HETATM   21  C   UNK N   1      25.152  27.251  -5.782  0.00  0.00     0.013 C 
HETATM   22  C   UNK N   1      26.221  26.413  -6.502  0.00  0.00    -0.009 C 
HETATM   23  C   UNK N   1      26.411  25.078  -5.763  0.00  0.00     0.150 C 
HETATM   24  C   UNK N   1      25.931  26.245  -7.986  0.00  0.00     0.018 C 
HETATM   25  C   UNK N   1      27.589  28.585  -6.650  0.00  0.00     0.016 C 
HETATM   26  C   UNK N   1      28.791  26.429  -6.607  0.00  0.00     0.016 C 
BRANCH  23  27
HETATM   27  O   UNK N   1      25.224  24.353  -5.640  0.00  0.00    -0.393 OA
HETATM   28  H   UNK N   1      24.795  23.501  -5.468  0.00  0.00     0.210 HD
ENDBRANCH  23  27
ENDBRANCH   3  17
TORSDOF 4
ENDMDL
MODEL 2
REMARK VINA RESULT:      -7.9     17.151     19.852
REMARK  4 active torsions:
REMARK  status: ('A' for Active; 'I' for Inactive)
REMARK    1  A    between atoms: S_1  and  N_2 
REMARK    2  A    between atoms: S_1  and  C_5 
REMARK       I    between atoms: N_2  and  C_3 
REMARK       I    between atoms: C_3  and  N_4 
REMARK    3  A    between atoms: C_15  and  N_4 
REMARK    4  A    between atoms: C_17  and  O_23 
ROOT
HETATM    1  N   UNK N   1      36.419  15.538  11.620  0.00  0.00    -0.232 N 
HETATM    2  C   UNK N   1      35.664  16.216  10.724  0.00  0.00     0.330 C 
HETATM    3  N   UNK N   1      34.711  15.584   9.985  0.00  0.00    -0.335 N 
HETATM    4  O   UNK N   1      35.853  17.413  10.580  0.00  0.00    -0.246 OA
HETATM    5  H   UNK N   1      37.149  16.026  12.068  0.00  0.00     0.183 HD
HETATM    6  H   UNK N   1      34.580  14.612  10.076  0.00  0.00     0.164 HD
ENDROOT
BRANCH   1   7
HETATM    7  S   UNK N   1      36.185  13.851  12.039  0.00  0.00     0.266 S 
HETATM    8  O   UNK N   1      37.451  13.164  11.504  0.00  0.00    -0.200 OA
HETATM    9  O   UNK N   1      35.086  13.306  11.115  0.00  0.00    -0.200 OA
BRANCH   7  10
HETATM   10  C   UNK N   1      35.948  13.582  13.788  0.00  0.00     0.080 A 
HETATM   11  C   UNK N   1      34.935  12.721  14.221  0.00  0.00     0.026 A 
HETATM   12  C   UNK N   1      34.683  12.569  15.587  0.00  0.00     0.008 A 
HETATM   13  C   UNK N   1      35.439  13.284  16.521  0.00  0.00    -0.062 A 
HETATM   14  C   UNK N   1      36.452  14.146  16.089  0.00  0.00     0.008 A 
HETATM   15  C   UNK N   1      35.158  13.135  17.973  0.00  0.00     0.048 C 
HETATM   16  C   UNK N   1      36.704  14.299  14.722  0.00  0.00     0.026 A 
ENDBRANCH   7  10
ENDBRANCH   1   7
BRANCH   3  17
HETATM   17  C   UNK N   1      33.892  16.342   9.067  0.00  0.00     0.120 C 
HETATM   18  C   UNK N   1      34.545  16.586   7.690  0.00  0.00     0.019 C 
HETATM   19  C   UNK N   1      33.799  17.835   7.193  0.00  0.00     0.008 C 
HETATM   20  C   UNK N   1      33.950  15.496   6.788  0.00  0.00    -0.032 C 
HETATM   21  C   UNK N   1      32.390  17.309   6.878  0.00  0.00     0.013 C 
HETATM   22  C   UNK N   1      32.516  15.811   7.200  0.00  0.00    -0.009 C 
HETATM   23  C   UNK N   1      32.593  15.618   8.724  0.00  0.00     0.150 C 
HETATM   24  C   UNK N   1      31.428  14.977   6.540  0.00  0.00     0.018 C 
HETATM   25  C   UNK N   1      34.242  15.714   5.296  0.00  0.00     0.016 C 
HETATM   26  C   UNK N   1      34.421  14.083   7.141  0.00  0.00     0.016 C 
BRANCH  23  27
HETATM   27  O   UNK N   1      31.501  16.170   9.396  0.00  0.00    -0.393 OA
HETATM   28  H   UNK N   1      30.964  16.207  10.202  0.00  0.00     0.210 HD
ENDBRANCH  23  27
ENDBRANCH   3  17
TORSDOF 4
ENDMDL
MODEL 3
REMARK VINA RESULT:      -7.4     10.965     14.364
REMARK  4 active torsions:
REMARK  status: ('A' for Active; 'I' for Inactive)
REMARK    1  A    between atoms: S_1  and  N_2 
REMARK    2  A    between atoms: S_1  and  C_5 
REMARK       I    between atoms: N_2  and  C_3 
REMARK       I    between atoms: C_3  and  N_4 
REMARK    3  A    between atoms: C_15  and  N_4 
REMARK    4  A    between atoms: C_17  and  O_23 
ROOT
HETATM    1  N   UNK N   1      27.273  17.979   6.384  0.00  0.00    -0.232 N 
HETATM    2  C   UNK N   1      28.300  17.413   7.062  0.00  0.00     0.330 C 
HETATM    3  N   UNK N   1      29.466  17.096   6.437  0.00  0.00    -0.335 N 
HETATM    4  O   UNK N   1      28.163  17.183   8.252  0.00  0.00    -0.246 OA
HETATM    5  H   UNK N   1      26.424  18.113   6.864  0.00  0.00     0.183 HD
HETATM    6  H   UNK N   1      29.566  17.250   5.469  0.00  0.00     0.164 HD
ENDROOT
BRANCH   1   7
HETATM    7  S   UNK N   1      27.355  18.493   4.709  0.00  0.00     0.266 S 
HETATM    8  O   UNK N   1      27.914  17.262   3.977  0.00  0.00    -0.200 OA
HETATM    9  O   UNK N   1      28.508  19.504   4.603  0.00  0.00    -0.200 OA
BRANCH   7  10
HETATM   10  C   UNK N   1      25.782  19.023   4.052  0.00  0.00     0.080 A 
HETATM   11  C   UNK N   1      25.726  20.145   3.219  0.00  0.00     0.026 A 
HETATM   12  C   UNK N   1      24.491  20.620   2.769  0.00  0.00     0.008 A 
HETATM   13  C   UNK N   1      23.311  19.980   3.159  0.00  0.00    -0.062 A 
HETATM   14  C   UNK N   1      23.366  18.858   3.993  0.00  0.00     0.008 A 
HETATM   15  C   UNK N   1      21.998  20.498   2.694  0.00  0.00     0.048 C 
HETATM   16  C   UNK N   1      24.601  18.382   4.444  0.00  0.00     0.026 A 
ENDBRANCH   7  10
ENDBRANCH   1   7
BRANCH   3  17
HETATM   17  C   UNK N   1      30.558  16.530   7.196  0.00  0.00     0.120 C 
HETATM   18  C   UNK N   1      31.490  15.611   6.378  0.00  0.00     0.019 C 
HETATM   19  C   UNK N   1      32.119  14.731   7.470  0.00  0.00     0.008 C 
HETATM   20  C   UNK N   1      32.671  16.512   5.993  0.00  0.00    -0.032 C 
HETATM   21  C   UNK N   1      33.060  15.695   8.209  0.00  0.00     0.013 C 
HETATM   22  C   UNK N   1      32.879  17.003   7.421  0.00  0.00    -0.009 C 
HETATM   23  C   UNK N   1      31.500  17.605   7.735  0.00  0.00     0.150 C 
HETATM   24  C   UNK N   1      34.026  17.979   7.636  0.00  0.00     0.018 C 
HETATM   25  C   UNK N   1      33.862  15.737   5.410  0.00  0.00     0.016 C 
HETATM   26  C   UNK N   1      32.307  17.607   4.987  0.00  0.00     0.016 C 
BRANCH  23  27
HETATM   27  O   UNK N   1      31.302  17.826   9.099  0.00  0.00    -0.393 OA
HETATM   28  H   UNK N   1      30.693  17.826   9.853  0.00  0.00     0.210 HD
ENDBRANCH  23  27
ENDBRANCH   3  17
TORSDOF 4
ENDMDL
MODEL 4
REMARK VINA RESULT:      -7.4      1.725      3.114
REMARK  4 active torsions:
REMARK  status: ('A' for Active; 'I' for Inactive)
REMARK    1  A    between atoms: S_1  and  N_2 
REMARK    2  A    between atoms: S_1  and  C_5 
REMARK       I    between atoms: N_2  and  C_3 
REMARK       I    between atoms: C_3  and  N_4 
REMARK    3  A    between atoms: C_15  and  N_4 
REMARK    4  A    between atoms: C_17  and  O_23 
ROOT
HETATM    1  N   UNK N   1      31.253  24.686  -3.375  0.00  0.00    -0.232 N 
HETATM    2  C   UNK N   1      30.735  25.784  -3.974  0.00  0.00     0.330 C 
HETATM    3  N   UNK N   1      29.457  25.794  -4.440  0.00  0.00    -0.335 N 
HETATM    4  O   UNK N   1      31.438  26.774  -4.097  0.00  0.00    -0.246 OA
HETATM    5  H   UNK N   1      32.207  24.703  -3.130  0.00  0.00     0.183 HD
HETATM    6  H   UNK N   1      28.900  24.985  -4.372  0.00  0.00     0.164 HD
ENDROOT
BRANCH   1   7
HETATM    7  S   UNK N   1      30.340  23.235  -3.004  0.00  0.00     0.266 S 
HETATM    8  O   UNK N   1      28.954  23.768  -2.608  0.00  0.00    -0.200 OA
HETATM    9  O   UNK N   1      30.885  22.687  -1.675  0.00  0.00    -0.200 OA
BRANCH   7  10
HETATM   10  C   UNK N   1      30.266  22.078  -4.361  0.00  0.00     0.080 A 
HETATM   11  C   UNK N   1      31.110  20.964  -4.364  0.00  0.00     0.026 A 
HETATM   12  C   UNK N   1      31.123  20.098  -5.460  0.00  0.00     0.008 A 
HETATM   13  C   UNK N   1      30.297  20.351  -6.560  0.00  0.00    -0.062 A 
HETATM   14  C   UNK N   1      29.452  21.465  -6.559  0.00  0.00     0.008 A 
HETATM   15  C   UNK N   1      30.324  19.439  -7.733  0.00  0.00     0.048 C 
HETATM   16  C   UNK N   1      29.440  22.332  -5.462  0.00  0.00     0.026 A 
ENDBRANCH   7  10
ENDBRANCH   1   7
BRANCH   3  17
HETATM   17  C   UNK N   1      28.919  26.995  -5.038  0.00  0.00     0.120 C 
HETATM   18  C   UNK N   1      27.669  26.763  -5.913  0.00  0.00     0.019 C 
HETATM   19  C   UNK N   1      27.691  27.986  -6.843  0.00  0.00     0.008 C 
HETATM   20  C   UNK N   1      26.490  27.101  -4.991  0.00  0.00    -0.032 C 
HETATM   21  C   UNK N   1      27.314  29.150  -5.913  0.00  0.00     0.013 C 
HETATM   22  C   UNK N   1      27.087  28.439  -4.568  0.00  0.00    -0.009 C 
HETATM   23  C   UNK N   1      28.439  27.994  -3.987  0.00  0.00     0.150 C 
HETATM   24  C   UNK N   1      26.258  29.269  -3.600  0.00  0.00     0.018 C 
HETATM   25  C   UNK N   1      25.150  27.211  -5.732  0.00  0.00     0.016 C 
HETATM   26  C   UNK N   1      26.296  26.099  -3.849  0.00  0.00     0.016 C 
BRANCH  23  27
HETATM   27  O   UNK N   1      29.337  29.052  -3.833  0.00  0.00    -0.393 OA
HETATM   28  H   UNK N   1      29.917  29.706  -4.252  0.00  0.00     0.210 HD
ENDBRANCH  23  27
ENDBRANCH   3  17
TORSDOF 4
ENDMDL
MODEL 5
REMARK VINA RESULT:      -7.4     11.079     14.623
REMARK  4 active torsions:
REMARK  status: ('A' for Active; 'I' for Inactive)
REMARK    1  A    between atoms: S_1  and  N_2 
REMARK    2  A    between atoms: S_1  and  C_5 
REMARK       I    between atoms: N_2  and  C_3 
REMARK       I    between atoms: C_3  and  N_4 
REMARK    3  A    between atoms: C_15  and  N_4 
REMARK    4  A    between atoms: C_17  and  O_23 
ROOT
HETATM    1  N   UNK N   1      29.471  16.738   2.889  0.00  0.00    -0.232 N 
HETATM    2  C   UNK N   1      30.635  16.454   3.521  0.00  0.00     0.330 C 
HETATM    3  N   UNK N   1      30.669  16.213   4.860  0.00  0.00    -0.335 N 
HETATM    4  O   UNK N   1      31.665  16.423   2.869  0.00  0.00    -0.246 OA
HETATM    5  H   UNK N   1      29.513  16.985   1.937  0.00  0.00     0.183 HD
HETATM    6  H   UNK N   1      29.843  16.271   5.393  0.00  0.00     0.164 HD
ENDROOT
BRANCH   1   7
HETATM    7  S   UNK N   1      27.892  16.694   3.653  0.00  0.00     0.266 S 
HETATM    8  O   UNK N   1      27.971  15.472   4.582  0.00  0.00    -0.200 OA
HETATM    9  O   UNK N   1      26.886  16.242   2.582  0.00  0.00    -0.200 OA
BRANCH   7  10
HETATM   10  C   UNK N   1      27.487  18.195   4.530  0.00  0.00     0.080 A 
HETATM   11  C   UNK N   1      26.896  19.258   3.841  0.00  0.00     0.026 A 
HETATM   12  C   UNK N   1      26.653  20.468   4.496  0.00  0.00     0.008 A 
HETATM   13  C   UNK N   1      27.009  20.618   5.840  0.00  0.00    -0.062 A 
HETATM   14  C   UNK N   1      27.601  19.556   6.531  0.00  0.00     0.008 A 
HETATM   15  C   UNK N   1      26.767  21.911   6.530  0.00  0.00     0.048 C 
HETATM   16  C   UNK N   1      27.845  18.345   5.875  0.00  0.00     0.026 A 
ENDBRANCH   7  10
ENDBRANCH   1   7
BRANCH   3  17
HETATM   17  C   UNK N   1      31.920  15.872   5.498  0.00  0.00     0.120 C 
HETATM   18  C   UNK N   1      32.702  17.084   6.046  0.00  0.00     0.019 C 
HETATM   19  C   UNK N   1      34.142  16.548   6.093  0.00  0.00     0.008 C 
HETATM   20  C   UNK N   1      32.343  17.125   7.538  0.00  0.00    -0.032 C 
HETATM   21  C   UNK N   1      34.111  15.538   7.250  0.00  0.00     0.013 C 
HETATM   22  C   UNK N   1      32.660  15.649   7.748  0.00  0.00    -0.009 C 
HETATM   23  C   UNK N   1      31.715  14.992   6.729  0.00  0.00     0.150 C 
HETATM   24  C   UNK N   1      32.485  15.118   9.163  0.00  0.00     0.018 C 
HETATM   25  C   UNK N   1      33.227  18.084   8.350  0.00  0.00     0.016 C 
HETATM   26  C   UNK N   1      30.887  17.511   7.809  0.00  0.00     0.016 C 
BRANCH  23  27
HETATM   27  O   UNK N   1      32.040  13.659   6.468  0.00  0.00    -0.393 OA
HETATM   28  H   UNK N   1      31.734  12.754   6.305  0.00  0.00     0.210 HD
ENDBRANCH  23  27
ENDBRANCH   3  17
TORSDOF 4
ENDMDL
MODEL 6
REMARK VINA RESULT:      -7.2     15.229     18.840
REMARK  4 active torsions:
REMARK  status: ('A' for Active; 'I' for Inactive)
REMARK    1  A    between atoms: S_1  and  N_2 
REMARK    2  A    between atoms: S_1  and  C_5 
REMARK       I    between atoms: N_2  and  C_3 
REMARK       I    between atoms: C_3  and  N_4 
REMARK    3  A    between atoms: C_15  and  N_4 
REMARK    4  A    between atoms: C_17  and  O_23 
ROOT
HETATM    1  N   UNK N   1      34.030  17.458   9.379  0.00  0.00    -0.232 N 
HETATM    2  C   UNK N   1      34.950  16.696  10.018  0.00  0.00     0.330 C 
HETATM    3  N   UNK N   1      34.813  15.344  10.094  0.00  0.00    -0.335 N 
HETATM    4  O   UNK N   1      35.909  17.242  10.536  0.00  0.00    -0.246 OA
HETATM    5  H   UNK N   1      34.134  18.437   9.424  0.00  0.00     0.183 HD
HETATM    6  H   UNK N   1      34.021  14.905   9.706  0.00  0.00     0.164 HD
ENDROOT
BRANCH   1   7
HETATM    7  S   UNK N   1      32.669  16.820   8.475  0.00  0.00     0.266 S 
HETATM    8  O   UNK N   1      31.601  17.918   8.601  0.00  0.00    -0.200 OA
HETATM    9  O   UNK N   1      32.075  15.672   9.306  0.00  0.00    -0.200 OA
BRANCH   7  10
HETATM   10  C   UNK N   1      33.063  16.440   6.776  0.00  0.00     0.080 A 
HETATM   11  C   UNK N   1      32.781  17.376   5.777  0.00  0.00     0.026 A 
HETATM   12  C   UNK N   1      33.005  17.056   4.435  0.00  0.00     0.008 A 
HETATM   13  C   UNK N   1      33.502  15.795   4.091  0.00  0.00    -0.062 A 
HETATM   14  C   UNK N   1      33.783  14.857   5.089  0.00  0.00     0.008 A 
HETATM   15  C   UNK N   1      33.722  15.450   2.663  0.00  0.00     0.048 C 
HETATM   16  C   UNK N   1      33.559  15.177   6.432  0.00  0.00     0.026 A 
ENDBRANCH   7  10
ENDBRANCH   1   7
BRANCH   3  17
HETATM   17  C   UNK N   1      35.832  14.554  10.747  0.00  0.00     0.120 C 
HETATM   18  C   UNK N   1      35.367  13.143  11.166  0.00  0.00     0.019 C 
HETATM   19  C   UNK N   1      36.354  12.798  12.293  0.00  0.00     0.008 C 
HETATM   20  C   UNK N   1      35.861  12.228  10.038  0.00  0.00    -0.032 C 
HETATM   21  C   UNK N   1      37.681  12.575  11.552  0.00  0.00     0.013 C 
HETATM   22  C   UNK N   1      37.279  12.786  10.083  0.00  0.00    -0.009 C 
HETATM   23  C   UNK N   1      37.022  14.281   9.830  0.00  0.00     0.150 C 
HETATM   24  C   UNK N   1      38.275  12.172   9.110  0.00  0.00     0.018 C 
HETATM   25  C   UNK N   1      35.757  10.734  10.376  0.00  0.00     0.016 C 
HETATM   26  C   UNK N   1      35.132  12.444   8.709  0.00  0.00     0.016 C 
BRANCH  23  27
HETATM   27  O   UNK N   1      38.117  15.082  10.155  0.00  0.00    -0.393 OA
HETATM   28  H   UNK N   1      38.486  15.974  10.246  0.00  0.00     0.210 HD
ENDBRANCH  23  27
ENDBRANCH   3  17
TORSDOF 4
ENDMDL
MODEL 7
REMARK VINA RESULT:      -7.2     10.862     14.367
REMARK  4 active torsions:
REMARK  status: ('A' for Active; 'I' for Inactive)
REMARK    1  A    between atoms: S_1  and  N_2 
REMARK    2  A    between atoms: S_1  and  C_5 
REMARK       I    between atoms: N_2  and  C_3 
REMARK       I    between atoms: C_3  and  N_4 
REMARK    3  A    between atoms: C_15  and  N_4 
REMARK    4  A    between atoms: C_17  and  O_23 
ROOT
HETATM    1  N   UNK N   1      28.451  17.734   3.854  0.00  0.00    -0.232 N 
HETATM    2  C   UNK N   1      29.649  17.157   4.113  0.00  0.00     0.330 C 
HETATM    3  N   UNK N   1      30.167  17.144   5.371  0.00  0.00    -0.335 N 
HETATM    4  O   UNK N   1      30.267  16.648   3.192  0.00  0.00    -0.246 OA
HETATM    5  H   UNK N   1      28.160  17.789   2.915  0.00  0.00     0.183 HD
HETATM    6  H   UNK N   1      29.685  17.583   6.108  0.00  0.00     0.164 HD
ENDROOT
BRANCH   1   7
HETATM    7  S   UNK N   1      27.382  18.389   5.081  0.00  0.00     0.266 S 
HETATM    8  O   UNK N   1      28.235  19.465   5.771  0.00  0.00    -0.200 OA
HETATM    9  O   UNK N   1      27.238  17.317   6.173  0.00  0.00    -0.200 OA
BRANCH   7  10
HETATM   10  C   UNK N   1      25.860  19.045   4.417  0.00  0.00     0.080 A 
HETATM   11  C   UNK N   1      24.654  18.390   4.681  0.00  0.00     0.026 A 
HETATM   12  C   UNK N   1      23.468  18.843   4.097  0.00  0.00     0.008 A 
HETATM   13  C   UNK N   1      23.490  19.949   3.240  0.00  0.00    -0.062 A 
HETATM   14  C   UNK N   1      24.695  20.605   2.974  0.00  0.00     0.008 A 
HETATM   15  C   UNK N   1      22.231  20.419   2.606  0.00  0.00     0.048 C 
HETATM   16  C   UNK N   1      25.882  20.151   3.559  0.00  0.00     0.026 A 
ENDBRANCH   7  10
ENDBRANCH   1   7
BRANCH   3  17
HETATM   17  C   UNK N   1      31.428  16.484   5.622  0.00  0.00     0.120 C 
HETATM   18  C   UNK N   1      32.562  17.431   6.066  0.00  0.00     0.019 C 
HETATM   19  C   UNK N   1      33.820  16.637   5.681  0.00  0.00     0.008 C 
HETATM   20  C   UNK N   1      32.582  17.311   7.596  0.00  0.00    -0.032 C 
HETATM   21  C   UNK N   1      33.843  15.486   6.698  0.00  0.00     0.013 C 
HETATM   22  C   UNK N   1      32.610  15.787   7.567  0.00  0.00    -0.009 C 
HETATM   23  C   UNK N   1      31.332  15.479   6.769  0.00  0.00     0.150 C 
HETATM   24  C   UNK N   1      32.660  15.089   8.917  0.00  0.00     0.018 C 
HETATM   25  C   UNK N   1      33.818  17.955   8.241  0.00  0.00     0.016 C 
HETATM   26  C   UNK N   1      31.350  17.915   8.276  0.00  0.00     0.016 C 
BRANCH  23  27
HETATM   27  O   UNK N   1      31.288  14.165   6.301  0.00  0.00    -0.393 OA
HETATM   28  H   UNK N   1      31.374  13.219   6.495  0.00  0.00     0.210 HD
ENDBRANCH  23  27
ENDBRANCH   3  17
TORSDOF 4
ENDMDL
MODEL 8
REMARK VINA RESULT:      -7.1     15.827     18.617
REMARK  4 active torsions:
REMARK  status: ('A' for Active; 'I' for Inactive)
REMARK    1  A    between atoms: S_1  and  N_2 
REMARK    2  A    between atoms: S_1  and  C_5 
REMARK       I    between atoms: N_2  and  C_3 
REMARK       I    between atoms: C_3  and  N_4 
REMARK    3  A    between atoms: C_15  and  N_4 
REMARK    4  A    between atoms: C_17  and  O_23 
ROOT
HETATM    1  N   UNK N   1      36.268  15.896  11.612  0.00  0.00    -0.232 N 
HETATM    2  C   UNK N   1      35.535  16.468  10.627  0.00  0.00     0.330 C 
HETATM    3  N   UNK N   1      34.648  15.738   9.896  0.00  0.00    -0.335 N 
HETATM    4  O   UNK N   1      35.685  17.656  10.395  0.00  0.00    -0.246 OA
HETATM    5  H   UNK N   1      36.953  16.449  12.054  0.00  0.00     0.183 HD
HETATM    6  H   UNK N   1      34.551  14.772  10.059  0.00  0.00     0.164 HD
ENDROOT
BRANCH   1   7
HETATM    7  S   UNK N   1      36.079  14.240  12.155  0.00  0.00     0.266 S 
HETATM    8  O   UNK N   1      34.556  14.063  12.264  0.00  0.00    -0.200 OA
HETATM    9  O   UNK N   1      36.532  14.192  13.623  0.00  0.00    -0.200 OA
BRANCH   7  10
HETATM   10  C   UNK N   1      36.829  13.045  11.061  0.00  0.00     0.080 A 
HETATM   11  C   UNK N   1      38.159  13.212  10.667  0.00  0.00     0.026 A 
HETATM   12  C   UNK N   1      38.731  12.332   9.744  0.00  0.00     0.008 A 
HETATM   13  C   UNK N   1      37.969  11.289   9.208  0.00  0.00    -0.062 A 
HETATM   14  C   UNK N   1      36.638  11.121   9.601  0.00  0.00     0.008 A 
HETATM   15  C   UNK N   1      38.573  10.365   8.213  0.00  0.00     0.048 C 
HETATM   16  C   UNK N   1      36.065  12.002  10.524  0.00  0.00     0.026 A 
ENDBRANCH   7  10
ENDBRANCH   1   7
BRANCH   3  17
HETATM   17  C   UNK N   1      33.850  16.384   8.879  0.00  0.00     0.120 C 
HETATM   18  C   UNK N   1      34.539  16.484   7.502  0.00  0.00     0.019 C 
HETATM   19  C   UNK N   1      33.799  17.664   6.853  0.00  0.00     0.008 C 
HETATM   20  C   UNK N   1      33.976  15.297   6.708  0.00  0.00    -0.032 C 
HETATM   21  C   UNK N   1      32.403  17.094   6.559  0.00  0.00     0.013 C 
HETATM   22  C   UNK N   1      32.529  15.641   7.045  0.00  0.00    -0.009 C 
HETATM   23  C   UNK N   1      32.565  15.615   8.582  0.00  0.00     0.150 C 
HETATM   24  C   UNK N   1      31.466  14.730   6.451  0.00  0.00     0.018 C 
HETATM   25  C   UNK N   1      34.308  15.355   5.210  0.00  0.00     0.016 C 
HETATM   26  C   UNK N   1      34.446  13.934   7.225  0.00  0.00     0.016 C 
BRANCH  23  27
HETATM   27  O   UNK N   1      31.452  16.227   9.161  0.00  0.00    -0.393 OA
HETATM   28  H   UNK N   1      31.017  16.552   9.964  0.00  0.00     0.210 HD
ENDBRANCH  23  27
ENDBRANCH   3  17
TORSDOF 4
ENDMDL
MODEL 9
REMARK VINA RESULT:      -7.1     15.351     19.052
REMARK  4 active torsions:
REMARK  status: ('A' for Active; 'I' for Inactive)
REMARK    1  A    between atoms: S_1  and  N_2 
REMARK    2  A    between atoms: S_1  and  C_5 
REMARK       I    between atoms: N_2  and  C_3 
REMARK       I    between atoms: C_3  and  N_4 
REMARK    3  A    between atoms: C_15  and  N_4 
REMARK    4  A    between atoms: C_17  and  O_23 
ROOT
HETATM    1  N   UNK N   1      34.214  17.449   9.498  0.00  0.00    -0.232 N 
HETATM    2  C   UNK N   1      35.024  16.612  10.189  0.00  0.00     0.330 C 
HETATM    3  N   UNK N   1      35.479  15.456   9.634  0.00  0.00    -0.335 N 
HETATM    4  O   UNK N   1      35.340  16.908  11.329  0.00  0.00    -0.246 OA
HETATM    5  H   UNK N   1      33.847  18.230   9.973  0.00  0.00     0.183 HD
HETATM    6  H   UNK N   1      35.197  15.199   8.726  0.00  0.00     0.164 HD
ENDROOT
BRANCH   1   7
HETATM    7  S   UNK N   1      33.775  17.237   7.813  0.00  0.00     0.266 S 
HETATM    8  O   UNK N   1      34.403  15.885   7.440  0.00  0.00    -0.200 OA
HETATM    9  O   UNK N   1      34.613  18.237   7.000  0.00  0.00    -0.200 OA
BRANCH   7  10
HETATM   10  C   UNK N   1      32.013  17.275   7.529  0.00  0.00     0.080 A 
HETATM   11  C   UNK N   1      31.503  16.846   6.300  0.00  0.00     0.026 A 
HETATM   12  C   UNK N   1      30.136  16.951   6.035  0.00  0.00     0.008 A 
HETATM   13  C   UNK N   1      29.277  17.494   6.996  0.00  0.00    -0.062 A 
HETATM   14  C   UNK N   1      29.785  17.924   8.225  0.00  0.00     0.008 A 
HETATM   15  C   UNK N   1      27.825  17.622   6.705  0.00  0.00     0.048 C 
HETATM   16  C   UNK N   1      31.154  17.819   8.491  0.00  0.00     0.026 A 
ENDBRANCH   7  10
ENDBRANCH   1   7
BRANCH   3  17
HETATM   17  C   UNK N   1      36.375  14.603  10.382  0.00  0.00     0.120 C 
HETATM   18  C   UNK N   1      35.747  13.271  10.840  0.00  0.00     0.019 C 
HETATM   19  C   UNK N   1      36.631  12.889  12.038  0.00  0.00     0.008 C 
HETATM   20  C   UNK N   1      36.203  12.252   9.787  0.00  0.00    -0.032 C 
HETATM   21  C   UNK N   1      37.966  12.496  11.387  0.00  0.00     0.013 C 
HETATM   22  C   UNK N   1      37.667  12.667   9.888  0.00  0.00    -0.009 C 
HETATM   23  C   UNK N   1      37.577  14.164   9.550  0.00  0.00     0.150 C 
HETATM   24  C   UNK N   1      38.644  11.906   9.005  0.00  0.00     0.018 C 
HETATM   25  C   UNK N   1      35.928  10.796  10.190  0.00  0.00     0.016 C 
HETATM   26  C   UNK N   1      35.571  12.469   8.409  0.00  0.00     0.016 C 
BRANCH  23  27
HETATM   27  O   UNK N   1      38.731  14.869   9.899  0.00  0.00    -0.393 OA
HETATM   28  H   UNK N   1      39.699  14.899   9.928  0.00  0.00     0.210 HD
ENDBRANCH  23  27
ENDBRANCH   3  17
TORSDOF 4
ENDMDL
