MODEL 1
REMARK VINA RESULT:      -7.6      0.000      0.000
REMARK  10 active torsions:
REMARK  status: ('A' for Active; 'I' for Inactive)
REMARK    1  A    between atoms: C_3  and  N_4 
REMARK    2  A    between atoms: N_4  and  C_5 
REMARK    3  A    between atoms: C_6  and  C_7 
REMARK    4  A    between atoms: C_7  and  O_8 
REMARK    5  A    between atoms: O_8  and  C_9 
REMARK    6  A    between atoms: C_9  and  C_10 
REMARK    7  A    between atoms: C_10  and  C_11 
REMARK    8  A    between atoms: C_10  and  O_13 
REMARK    9  A    between atoms: C_11  and  O_12 
REMARK   10  A    between atoms: C_26  and  C_27 
ROOT
HETATM    1  N   UNK N   1      23.004  15.987   5.782  0.00  0.00    -0.355 N 
HETATM    2  H   UNK N   1      23.299  16.905   5.979  0.00  0.00     0.166 HD
ENDROOT
BRANCH   1   3
HETATM    3  C   UNK N   1      23.294  14.990   6.771  0.00  0.00     0.046 A 
HETATM    4  C   UNK N   1      22.398  14.557   7.794  0.00  0.00     0.018 A 
HETATM    5  C   UNK N   1      22.836  13.584   8.737  0.00  0.00     0.059 A 
HETATM    6  C   UNK N   1      21.103  15.073   7.924  0.00  0.00     0.016 A 
HETATM    7  N   UNK N   1      24.084  13.051   8.612  0.00  0.00    -0.364 N 
HETATM    8  C   UNK N   1      21.991  13.195   9.810  0.00  0.00     0.075 A 
HETATM    9  C   UNK N   1      24.931  13.420   7.622  0.00  0.00     0.090 A 
ATOM     10  HN  UNK N   1      24.391  12.351   9.288  1.00  0.00     0.165 HD
HETATM   11  C   UNK N   1      24.557  14.397   6.706  0.00  0.00     0.047 A 
HETATM   12  C   UNK N   1      20.707  13.750   9.899  0.00  0.00     0.018 A 
HETATM   13  C   UNK N   1      20.262  14.671   8.956  0.00  0.00     0.002 A 
BRANCH   8  14
HETATM   14  C   UNK N   1      22.407  12.237  10.906  0.00  0.00     0.419 C 
HETATM   15  F   UNK N   1      23.543  12.713  11.535  0.00  0.00    -0.166 F 
HETATM   16  F   UNK N   1      21.430  12.040  11.866  0.00  0.00    -0.166 F 
HETATM   17  F   UNK N   1      22.696  11.011  10.336  0.00  0.00    -0.166 F 
ENDBRANCH   8  14
ENDBRANCH   1   3
BRANCH   1  18
HETATM   18  C   UNK N   1      22.334  15.784   4.547  0.00  0.00     0.049 A 
HETATM   19  C   UNK N   1      21.599  16.842   3.988  0.00  0.00     0.066 A 
HETATM   20  C   UNK N   1      21.037  16.705   2.714  0.00  0.00     0.020 A 
HETATM   21  C   UNK N   1      21.164  15.498   2.020  0.00  0.00     0.001 A 
HETATM   22  C   UNK N   1      21.851  14.426   2.597  0.00  0.00     0.002 A 
HETATM   23  C   UNK N   1      22.445  14.569   3.854  0.00  0.00     0.030 A 
BRANCH  19  24
HETATM   24  C   UNK N   1      21.432  18.104   4.741  0.00  0.00     0.295 C 
HETATM   25  O   UNK N   1      21.142  18.067   5.924  0.00  0.00    -0.259 OA
BRANCH  24  26
HETATM   26  O   UNK N   1      21.622  19.306   4.138  0.00  0.00    -0.315 OA
BRANCH  26  27
HETATM   27  C   UNK N   1      20.572  20.026   3.598  0.00  0.00     0.212 C 
BRANCH  27  28
HETATM   28  C   UNK N   1      21.091  20.881   2.438  0.00  0.00     0.166 C 
BRANCH  28  29
HETATM   29  C   UNK N   1      21.064  20.112   1.121  0.00  0.00     0.198 C 
BRANCH  29  30
HETATM   30  O   UNK N   1      20.715  20.956   0.065  0.00  0.00    -0.398 OA
HETATM   31  H   UNK N   1      20.543  20.829  -0.882  0.00  0.00     0.209 HD
ENDBRANCH  29  30
ENDBRANCH  28  29
BRANCH  28  32
HETATM   32  O   UNK N   1      22.383  21.340   2.698  0.00  0.00    -0.391 OA
HETATM   33  H   UNK N   1      23.270  20.959   2.783  0.00  0.00     0.210 HD
ENDBRANCH  28  32
ENDBRANCH  27  28
ENDBRANCH  26  27
ENDBRANCH  24  26
ENDBRANCH  19  24
ENDBRANCH   1  18
TORSDOF 10
ENDMDL
MODEL 2
REMARK VINA RESULT:      -7.4     12.571     14.974
REMARK  10 active torsions:
REMARK  status: ('A' for Active; 'I' for Inactive)
REMARK    1  A    between atoms: C_3  and  N_4 
REMARK    2  A    between atoms: N_4  and  C_5 
REMARK    3  A    between atoms: C_6  and  C_7 
REMARK    4  A    between atoms: C_7  and  O_8 
REMARK    5  A    between atoms: O_8  and  C_9 
REMARK    6  A    between atoms: C_9  and  C_10 
REMARK    7  A    between atoms: C_10  and  C_11 
REMARK    8  A    between atoms: C_10  and  O_13 
REMARK    9  A    between atoms: C_11  and  O_12 
REMARK   10  A    between atoms: C_26  and  C_27 
ROOT
HETATM    1  N   UNK N   1      35.192  13.787  11.879  0.00  0.00    -0.355 N 
HETATM    2  H   UNK N   1      34.369  14.303  11.720  0.00  0.00     0.166 HD
ENDROOT
BRANCH   1   3
HETATM    3  C   UNK N   1      35.553  13.558  13.248  0.00  0.00     0.046 A 
HETATM    4  C   UNK N   1      35.108  12.460  14.046  0.00  0.00     0.018 A 
HETATM    5  C   UNK N   1      35.515  12.380  15.407  0.00  0.00     0.059 A 
HETATM    6  C   UNK N   1      34.259  11.465  13.545  0.00  0.00     0.016 A 
HETATM    7  N   UNK N   1      36.361  13.325  15.907  0.00  0.00    -0.364 N 
HETATM    8  C   UNK N   1      35.023  11.341  16.242  0.00  0.00     0.075 A 
HETATM    9  C   UNK N   1      36.826  14.348  15.151  0.00  0.00     0.090 A 
ATOM     10  HN  UNK N   1      36.653  13.259  16.882  1.00  0.00     0.165 HD
HETATM   11  C   UNK N   1      36.419  14.486  13.829  0.00  0.00     0.047 A 
HETATM   12  C   UNK N   1      34.168  10.377  15.693  0.00  0.00     0.018 A 
HETATM   13  C   UNK N   1      33.800  10.430  14.353  0.00  0.00     0.002 A 
BRANCH   8  14
HETATM   14  C   UNK N   1      35.330  11.231  17.721  0.00  0.00     0.419 C 
HETATM   15  F   UNK N   1      35.183  12.467  18.322  0.00  0.00    -0.166 F 
HETATM   16  F   UNK N   1      34.522  10.326  18.386  0.00  0.00    -0.166 F 
HETATM   17  F   UNK N   1      36.642  10.818  17.869  0.00  0.00    -0.166 F 
ENDBRANCH   8  14
ENDBRANCH   1   3
BRANCH   1  18
HETATM   18  C   UNK N   1      35.902  13.347  10.732  0.00  0.00     0.049 A 
HETATM   19  C   UNK N   1      36.319  14.296   9.783  0.00  0.00     0.066 A 
HETATM   20  C   UNK N   1      37.127  13.901   8.712  0.00  0.00     0.020 A 
HETATM   21  C   UNK N   1      37.478  12.557   8.557  0.00  0.00     0.001 A 
HETATM   22  C   UNK N   1      37.021  11.603   9.472  0.00  0.00     0.002 A 
HETATM   23  C   UNK N   1      36.243  11.996  10.564  0.00  0.00     0.030 A 
BRANCH  19  24
HETATM   24  C   UNK N   1      35.914  15.710   9.927  0.00  0.00     0.295 C 
HETATM   25  O   UNK N   1      36.390  16.386  10.823  0.00  0.00    -0.259 OA
BRANCH  24  26
HETATM   26  O   UNK N   1      35.036  16.276   9.059  0.00  0.00    -0.315 OA
BRANCH  26  27
HETATM   27  C   UNK N   1      33.694  15.945   9.057  0.00  0.00     0.212 C 
BRANCH  27  28
HETATM   28  C   UNK N   1      32.902  17.052   8.356  0.00  0.00     0.166 C 
BRANCH  28  29
HETATM   29  C   UNK N   1      33.789  18.244   8.014  0.00  0.00     0.198 C 
BRANCH  29  30
HETATM   30  O   UNK N   1      34.490  18.014   6.829  0.00  0.00    -0.398 OA
HETATM   31  H   UNK N   1      35.404  18.160   6.538  0.00  0.00     0.209 HD
ENDBRANCH  29  30
ENDBRANCH  28  29
BRANCH  28  32
HETATM   32  O   UNK N   1      31.824  17.465   9.140  0.00  0.00    -0.391 OA
HETATM   33  H   UNK N   1      31.686  18.016   9.927  0.00  0.00     0.210 HD
ENDBRANCH  28  32
ENDBRANCH  27  28
ENDBRANCH  26  27
ENDBRANCH  24  26
ENDBRANCH  19  24
ENDBRANCH   1  18
TORSDOF 10
ENDMDL
MODEL 3
REMARK VINA RESULT:      -7.4      6.193      8.469
REMARK  10 active torsions:
REMARK  status: ('A' for Active; 'I' for Inactive)
REMARK    1  A    between atoms: C_3  and  N_4 
REMARK    2  A    between atoms: N_4  and  C_5 
REMARK    3  A    between atoms: C_6  and  C_7 
REMARK    4  A    between atoms: C_7  and  O_8 
REMARK    5  A    between atoms: O_8  and  C_9 
REMARK    6  A    between atoms: C_9  and  C_10 
REMARK    7  A    between atoms: C_10  and  C_11 
REMARK    8  A    between atoms: C_10  and  O_13 
REMARK    9  A    between atoms: C_11  and  O_12 
REMARK   10  A    between atoms: C_26  and  C_27 
ROOT
HETATM    1  N   UNK N   1      25.925  17.717   4.581  0.00  0.00    -0.355 N 
HETATM    2  H   UNK N   1      25.994  17.650   5.560  0.00  0.00     0.166 HD
ENDROOT
BRANCH   1   3
HETATM    3  C   UNK N   1      24.886  18.560   4.064  0.00  0.00     0.046 A 
HETATM    4  C   UNK N   1      23.488  18.272   4.113  0.00  0.00     0.018 A 
HETATM    5  C   UNK N   1      22.569  19.184   3.523  0.00  0.00     0.059 A 
HETATM    6  C   UNK N   1      22.984  17.106   4.702  0.00  0.00     0.016 A 
HETATM    7  N   UNK N   1      23.038  20.337   2.967  0.00  0.00    -0.364 N 
HETATM    8  C   UNK N   1      21.182  18.882   3.489  0.00  0.00     0.075 A 
HETATM    9  C   UNK N   1      24.357  20.645   2.950  0.00  0.00     0.090 A 
ATOM     10  HN  UNK N   1      22.374  20.989   2.549  1.00  0.00     0.165 HD
HETATM   11  C   UNK N   1      25.292  19.762   3.479  0.00  0.00     0.047 A 
HETATM   12  C   UNK N   1      20.731  17.696   4.085  0.00  0.00     0.018 A 
HETATM   13  C   UNK N   1      21.623  16.823   4.699  0.00  0.00     0.002 A 
BRANCH   8  14
HETATM   14  C   UNK N   1      20.146  19.748   2.804  0.00  0.00     0.419 C 
HETATM   15  F   UNK N   1      20.517  19.969   1.491  0.00  0.00    -0.166 F 
HETATM   16  F   UNK N   1      18.877  19.198   2.810  0.00  0.00    -0.166 F 
HETATM   17  F   UNK N   1      20.085  20.965   3.459  0.00  0.00    -0.166 F 
ENDBRANCH   8  14
ENDBRANCH   1   3
BRANCH   1  18
HETATM   18  C   UNK N   1      26.863  16.969   3.822  0.00  0.00     0.049 A 
HETATM   19  C   UNK N   1      28.233  17.130   4.083  0.00  0.00     0.066 A 
HETATM   20  C   UNK N   1      29.166  16.312   3.436  0.00  0.00     0.020 A 
HETATM   21  C   UNK N   1      28.739  15.372   2.494  0.00  0.00     0.001 A 
HETATM   22  C   UNK N   1      27.379  15.246   2.195  0.00  0.00     0.002 A 
HETATM   23  C   UNK N   1      26.439  16.035   2.863  0.00  0.00     0.030 A 
BRANCH  19  24
HETATM   24  C   UNK N   1      28.686  18.152   5.050  0.00  0.00     0.295 C 
HETATM   25  O   UNK N   1      28.519  19.334   4.802  0.00  0.00    -0.259 OA
BRANCH  24  26
HETATM   26  O   UNK N   1      29.266  17.792   6.224  0.00  0.00    -0.315 OA
BRANCH  26  27
HETATM   27  C   UNK N   1      28.519  17.389   7.315  0.00  0.00     0.212 C 
BRANCH  27  28
HETATM   28  C   UNK N   1      28.478  18.520   8.345  0.00  0.00     0.166 C 
BRANCH  28  29
HETATM   29  C   UNK N   1      29.825  18.695   9.039  0.00  0.00     0.198 C 
BRANCH  29  30
HETATM   30  O   UNK N   1      29.690  18.552  10.421  0.00  0.00    -0.398 OA
HETATM   31  H   UNK N   1      30.230  18.800  11.188  0.00  0.00     0.209 HD
ENDBRANCH  29  30
ENDBRANCH  28  29
BRANCH  28  32
HETATM   32  O   UNK N   1      27.478  18.294   9.292  0.00  0.00    -0.391 OA
HETATM   33  H   UNK N   1      27.426  18.124  10.246  0.00  0.00     0.210 HD
ENDBRANCH  28  32
ENDBRANCH  27  28
ENDBRANCH  26  27
ENDBRANCH  24  26
ENDBRANCH  19  24
ENDBRANCH   1  18
TORSDOF 10
ENDMDL
MODEL 4
REMARK VINA RESULT:      -7.4      4.368      5.633
REMARK  10 active torsions:
REMARK  status: ('A' for Active; 'I' for Inactive)
REMARK    1  A    between atoms: C_3  and  N_4 
REMARK    2  A    between atoms: N_4  and  C_5 
REMARK    3  A    between atoms: C_6  and  C_7 
REMARK    4  A    between atoms: C_7  and  O_8 
REMARK    5  A    between atoms: O_8  and  C_9 
REMARK    6  A    between atoms: C_9  and  C_10 
REMARK    7  A    between atoms: C_10  and  C_11 
REMARK    8  A    between atoms: C_10  and  O_13 
REMARK    9  A    between atoms: C_11  and  O_12 
REMARK   10  A    between atoms: C_26  and  C_27 
ROOT
HETATM    1  N   UNK N   1      22.460  15.977   4.713  0.00  0.00    -0.355 N 
HETATM    2  H   UNK N   1      21.761  16.080   5.398  0.00  0.00     0.166 HD
ENDROOT
BRANCH   1   3
HETATM    3  C   UNK N   1      23.794  16.340   5.095  0.00  0.00     0.046 A 
HETATM    4  C   UNK N   1      24.464  17.542   4.713  0.00  0.00     0.018 A 
HETATM    5  C   UNK N   1      25.807  17.754   5.133  0.00  0.00     0.059 A 
HETATM    6  C   UNK N   1      23.855  18.516   3.912  0.00  0.00     0.016 A 
HETATM    7  N   UNK N   1      26.408  16.829   5.934  0.00  0.00    -0.364 N 
HETATM    8  C   UNK N   1      26.520  18.904   4.701  0.00  0.00     0.075 A 
HETATM    9  C   UNK N   1      25.772  15.704   6.340  0.00  0.00     0.090 A 
ATOM     10  HN  UNK N   1      27.369  16.988   6.236  1.00  0.00     0.165 HD
HETATM   11  C   UNK N   1      24.475  15.439   5.918  0.00  0.00     0.047 A 
HETATM   12  C   UNK N   1      25.866  19.843   3.892  0.00  0.00     0.018 A 
HETATM   13  C   UNK N   1      24.541  19.658   3.513  0.00  0.00     0.002 A 
BRANCH   8  14
HETATM   14  C   UNK N   1      27.976  19.164   5.024  0.00  0.00     0.419 C 
HETATM   15  F   UNK N   1      28.142  19.243   6.395  0.00  0.00    -0.166 F 
HETATM   16  F   UNK N   1      28.831  18.191   4.539  0.00  0.00    -0.166 F 
HETATM   17  F   UNK N   1      28.344  20.373   4.462  0.00  0.00    -0.166 F 
ENDBRANCH   8  14
ENDBRANCH   1   3
BRANCH   1  18
HETATM   18  C   UNK N   1      22.048  15.485   3.447  0.00  0.00     0.049 A 
HETATM   19  C   UNK N   1      21.041  16.168   2.746  0.00  0.00     0.066 A 
HETATM   20  C   UNK N   1      20.708  15.775   1.445  0.00  0.00     0.020 A 
HETATM   21  C   UNK N   1      21.340  14.672   0.864  0.00  0.00     0.001 A 
HETATM   22  C   UNK N   1      22.306  13.959   1.580  0.00  0.00     0.002 A 
HETATM   23  C   UNK N   1      22.668  14.367   2.867  0.00  0.00     0.030 A 
BRANCH  19  24
HETATM   24  C   UNK N   1      20.346  17.310   3.377  0.00  0.00     0.295 C 
HETATM   25  O   UNK N   1      19.884  17.190   4.499  0.00  0.00    -0.259 OA
BRANCH  24  26
HETATM   26  O   UNK N   1      20.235  18.500   2.734  0.00  0.00    -0.315 OA
BRANCH  26  27
HETATM   27  C   UNK N   1      20.479  19.702   3.374  0.00  0.00     0.212 C 
BRANCH  27  28
HETATM   28  C   UNK N   1      20.720  20.791   2.326  0.00  0.00     0.166 C 
BRANCH  28  29
HETATM   29  C   UNK N   1      21.100  20.194   0.975  0.00  0.00     0.198 C 
BRANCH  29  30
HETATM   30  O   UNK N   1      20.706  21.039  -0.065  0.00  0.00    -0.398 OA
HETATM   31  H   UNK N   1      20.024  20.999  -0.755  0.00  0.00     0.209 HD
ENDBRANCH  29  30
ENDBRANCH  28  29
BRANCH  28  32
HETATM   32  O   UNK N   1      21.710  21.679   2.751  0.00  0.00    -0.391 OA
HETATM   33  H   UNK N   1      22.586  21.625   3.164  0.00  0.00     0.210 HD
ENDBRANCH  28  32
ENDBRANCH  27  28
ENDBRANCH  26  27
ENDBRANCH  24  26
ENDBRANCH  19  24
ENDBRANCH   1  18
TORSDOF 10
ENDMDL
MODEL 5
REMARK VINA RESULT:      -7.3      1.611      2.300
REMARK  10 active torsions:
REMARK  status: ('A' for Active; 'I' for Inactive)
REMARK    1  A    between atoms: C_3  and  N_4 
REMARK    2  A    between atoms: N_4  and  C_5 
REMARK    3  A    between atoms: C_6  and  C_7 
REMARK    4  A    between atoms: C_7  and  O_8 
REMARK    5  A    between atoms: O_8  and  C_9 
REMARK    6  A    between atoms: C_9  and  C_10 
REMARK    7  A    between atoms: C_10  and  C_11 
REMARK    8  A    between atoms: C_10  and  O_13 
REMARK    9  A    between atoms: C_11  and  O_12 
REMARK   10  A    between atoms: C_26  and  C_27 
ROOT
HETATM    1  N   UNK N   1      23.299  15.867   5.530  0.00  0.00    -0.355 N 
HETATM    2  H   UNK N   1      22.447  15.889   5.038  0.00  0.00     0.166 HD
ENDROOT
BRANCH   1   3
HETATM    3  C   UNK N   1      23.445  14.842   6.522  0.00  0.00     0.046 A 
HETATM    4  C   UNK N   1      22.514  14.570   7.571  0.00  0.00     0.018 A 
HETATM    5  C   UNK N   1      22.808  13.544   8.512  0.00  0.00     0.059 A 
HETATM    6  C   UNK N   1      21.327  15.297   7.726  0.00  0.00     0.016 A 
HETATM    7  N   UNK N   1      23.946  12.809   8.364  0.00  0.00    -0.364 N 
HETATM    8  C   UNK N   1      21.937  13.308   9.609  0.00  0.00     0.075 A 
HETATM    9  C   UNK N   1      24.817  13.026   7.350  0.00  0.00     0.090 A 
ATOM     10  HN  UNK N   1      24.149  12.072   9.039  1.00  0.00     0.165 HD
HETATM   11  C   UNK N   1      24.589  14.046   6.433  0.00  0.00     0.047 A 
HETATM   12  C   UNK N   1      20.767  14.071   9.723  0.00  0.00     0.018 A 
HETATM   13  C   UNK N   1      20.457  15.047   8.782  0.00  0.00     0.002 A 
BRANCH   8  14
HETATM   14  C   UNK N   1      22.215  12.301  10.706  0.00  0.00     0.419 C 
HETATM   15  F   UNK N   1      21.095  12.158  11.503  0.00  0.00    -0.166 F 
HETATM   16  F   UNK N   1      22.571  11.052  10.229  0.00  0.00    -0.166 F 
HETATM   17  F   UNK N   1      23.257  12.773  11.484  0.00  0.00    -0.166 F 
ENDBRANCH   8  14
ENDBRANCH   1   3
BRANCH   1  18
HETATM   18  C   UNK N   1      24.260  16.855   5.188  0.00  0.00     0.049 A 
HETATM   19  C   UNK N   1      23.820  18.148   4.860  0.00  0.00     0.066 A 
HETATM   20  C   UNK N   1      24.753  19.168   4.644  0.00  0.00     0.020 A 
HETATM   21  C   UNK N   1      26.122  18.888   4.702  0.00  0.00     0.001 A 
HETATM   22  C   UNK N   1      26.561  17.590   4.977  0.00  0.00     0.002 A 
HETATM   23  C   UNK N   1      25.634  16.575   5.230  0.00  0.00     0.030 A 
BRANCH  19  24
HETATM   24  C   UNK N   1      22.373  18.433   4.760  0.00  0.00     0.295 C 
HETATM   25  O   UNK N   1      21.646  18.213   5.714  0.00  0.00    -0.259 OA
BRANCH  24  26
HETATM   26  O   UNK N   1      21.843  18.959   3.626  0.00  0.00    -0.315 OA
BRANCH  26  27
HETATM   27  C   UNK N   1      20.734  19.784   3.652  0.00  0.00     0.212 C 
BRANCH  27  28
HETATM   28  C   UNK N   1      20.807  20.765   2.478  0.00  0.00     0.166 C 
BRANCH  28  29
HETATM   29  C   UNK N   1      20.846  20.034   1.140  0.00  0.00     0.198 C 
BRANCH  29  30
HETATM   30  O   UNK N   1      20.790  20.943   0.081  0.00  0.00    -0.398 OA
HETATM   31  H   UNK N   1      21.350  21.677  -0.218  0.00  0.00     0.209 HD
ENDBRANCH  29  30
ENDBRANCH  28  29
BRANCH  28  32
HETATM   32  O   UNK N   1      21.916  21.602   2.599  0.00  0.00    -0.391 OA
HETATM   33  H   UNK N   1      22.243  22.266   3.227  0.00  0.00     0.210 HD
ENDBRANCH  28  32
ENDBRANCH  27  28
ENDBRANCH  26  27
ENDBRANCH  24  26
ENDBRANCH  19  24
ENDBRANCH   1  18
TORSDOF 10
ENDMDL
MODEL 6
REMARK VINA RESULT:      -7.3      5.833      7.567
REMARK  10 active torsions:
REMARK  status: ('A' for Active; 'I' for Inactive)
REMARK    1  A    between atoms: C_3  and  N_4 
REMARK    2  A    between atoms: N_4  and  C_5 
REMARK    3  A    between atoms: C_6  and  C_7 
REMARK    4  A    between atoms: C_7  and  O_8 
REMARK    5  A    between atoms: O_8  and  C_9 
REMARK    6  A    between atoms: C_9  and  C_10 
REMARK    7  A    between atoms: C_10  and  C_11 
REMARK    8  A    between atoms: C_10  and  O_13 
REMARK    9  A    between atoms: C_11  and  O_12 
REMARK   10  A    between atoms: C_26  and  C_27 
ROOT
HETATM    1  N   UNK N   1      26.441  18.091   5.756  0.00  0.00    -0.355 N 
HETATM    2  H   UNK N   1      25.837  17.851   6.495  0.00  0.00     0.166 HD
ENDROOT
BRANCH   1   3
HETATM    3  C   UNK N   1      27.789  17.611   5.845  0.00  0.00     0.046 A 
HETATM    4  C   UNK N   1      28.674  17.834   6.944  0.00  0.00     0.018 A 
HETATM    5  C   UNK N   1      30.004  17.332   6.880  0.00  0.00     0.059 A 
HETATM    6  C   UNK N   1      28.289  18.556   8.081  0.00  0.00     0.016 A 
HETATM    7  N   UNK N   1      30.390  16.605   5.792  0.00  0.00    -0.364 N 
HETATM    8  C   UNK N   1      30.925  17.608   7.924  0.00  0.00     0.075 A 
HETATM    9  C   UNK N   1      29.550  16.349   4.762  0.00  0.00     0.090 A 
ATOM     10  HN  UNK N   1      31.343  16.243   5.754  1.00  0.00     0.165 HD
HETATM   11  C   UNK N   1      28.256  16.856   4.766  0.00  0.00     0.047 A 
HETATM   12  C   UNK N   1      30.491  18.343   9.035  0.00  0.00     0.018 A 
HETATM   13  C   UNK N   1      29.181  18.801   9.120  0.00  0.00     0.002 A 
BRANCH   8  14
HETATM   14  C   UNK N   1      32.381  17.191   7.897  0.00  0.00     0.419 C 
HETATM   15  F   UNK N   1      32.989  17.693   6.762  0.00  0.00    -0.166 F 
HETATM   16  F   UNK N   1      33.098  17.620   9.000  0.00  0.00    -0.166 F 
HETATM   17  F   UNK N   1      32.444  15.810   7.861  0.00  0.00    -0.166 F 
ENDBRANCH   8  14
ENDBRANCH   1   3
BRANCH   1  18
HETATM   18  C   UNK N   1      25.891  18.878   4.711  0.00  0.00     0.049 A 
HETATM   19  C   UNK N   1      24.521  18.766   4.422  0.00  0.00     0.066 A 
HETATM   20  C   UNK N   1      23.934  19.622   3.483  0.00  0.00     0.020 A 
HETATM   21  C   UNK N   1      24.720  20.552   2.797  0.00  0.00     0.001 A 
HETATM   22  C   UNK N   1      26.093  20.630   3.046  0.00  0.00     0.002 A 
HETATM   23  C   UNK N   1      26.679  19.802   4.008  0.00  0.00     0.030 A 
BRANCH  19  24
HETATM   24  C   UNK N   1      23.700  17.754   5.120  0.00  0.00     0.295 C 
HETATM   25  O   UNK N   1      24.024  16.580   5.077  0.00  0.00    -0.259 OA
BRANCH  24  26
HETATM   26  O   UNK N   1      22.600  18.117   5.829  0.00  0.00    -0.315 OA
BRANCH  26  27
HETATM   27  C   UNK N   1      21.342  17.628   5.529  0.00  0.00     0.212 C 
BRANCH  27  28
HETATM   28  C   UNK N   1      20.869  16.722   6.669  0.00  0.00     0.166 C 
BRANCH  28  29
HETATM   29  C   UNK N   1      20.281  17.532   7.820  0.00  0.00     0.198 C 
BRANCH  29  30
HETATM   30  O   UNK N   1      20.649  18.875   7.716  0.00  0.00    -0.398 OA
HETATM   31  H   UNK N   1      20.436  19.595   7.101  0.00  0.00     0.209 HD
ENDBRANCH  29  30
ENDBRANCH  28  29
BRANCH  28  32
HETATM   32  O   UNK N   1      21.912  15.919   7.132  0.00  0.00    -0.391 OA
HETATM   33  H   UNK N   1      22.462  15.198   6.789  0.00  0.00     0.210 HD
ENDBRANCH  28  32
ENDBRANCH  27  28
ENDBRANCH  26  27
ENDBRANCH  24  26
ENDBRANCH  19  24
ENDBRANCH   1  18
TORSDOF 10
ENDMDL
MODEL 7
REMARK VINA RESULT:      -7.3      4.407      6.993
REMARK  10 active torsions:
REMARK  status: ('A' for Active; 'I' for Inactive)
REMARK    1  A    between atoms: C_3  and  N_4 
REMARK    2  A    between atoms: N_4  and  C_5 
REMARK    3  A    between atoms: C_6  and  C_7 
REMARK    4  A    between atoms: C_7  and  O_8 
REMARK    5  A    between atoms: O_8  and  C_9 
REMARK    6  A    between atoms: C_9  and  C_10 
REMARK    7  A    between atoms: C_10  and  C_11 
REMARK    8  A    between atoms: C_10  and  O_13 
REMARK    9  A    between atoms: C_11  and  O_12 
REMARK   10  A    between atoms: C_26  and  C_27 
ROOT
HETATM    1  N   UNK N   1      23.541  13.464   7.179  0.00  0.00    -0.355 N 
HETATM    2  H   UNK N   1      23.168  12.851   6.506  0.00  0.00     0.166 HD
ENDROOT
BRANCH   1   3
HETATM    3  C   UNK N   1      24.215  14.630   6.686  0.00  0.00     0.046 A 
HETATM    4  C   UNK N   1      23.595  15.703   5.977  0.00  0.00     0.018 A 
HETATM    5  C   UNK N   1      24.397  16.782   5.509  0.00  0.00     0.059 A 
HETATM    6  C   UNK N   1      22.223  15.725   5.700  0.00  0.00     0.016 A 
HETATM    7  N   UNK N   1      25.731  16.792   5.790  0.00  0.00    -0.364 N 
HETATM    8  C   UNK N   1      23.817  17.822   4.734  0.00  0.00     0.075 A 
HETATM    9  C   UNK N   1      26.326  15.802   6.497  0.00  0.00     0.090 A 
ATOM     10  HN  UNK N   1      26.300  17.570   5.456  1.00  0.00     0.165 HD
HETATM   11  C   UNK N   1      25.587  14.710   6.937  0.00  0.00     0.047 A 
HETATM   12  C   UNK N   1      22.440  17.790   4.478  0.00  0.00     0.018 A 
HETATM   13  C   UNK N   1      21.647  16.758   4.969  0.00  0.00     0.002 A 
BRANCH   8  14
HETATM   14  C   UNK N   1      24.608  18.958   4.121  0.00  0.00     0.419 C 
HETATM   15  F   UNK N   1      23.756  19.802   3.433  0.00  0.00    -0.166 F 
HETATM   16  F   UNK N   1      25.306  19.709   5.050  0.00  0.00    -0.166 F 
HETATM   17  F   UNK N   1      25.523  18.428   3.229  0.00  0.00    -0.166 F 
ENDBRANCH   8  14
ENDBRANCH   1   3
BRANCH   1  18
HETATM   18  C   UNK N   1      23.360  13.105   8.541  0.00  0.00     0.049 A 
HETATM   19  C   UNK N   1      22.055  13.002   9.051  0.00  0.00     0.066 A 
HETATM   20  C   UNK N   1      21.850  12.528  10.351  0.00  0.00     0.020 A 
HETATM   21  C   UNK N   1      22.944  12.206  11.159  0.00  0.00     0.001 A 
HETATM   22  C   UNK N   1      24.245  12.356  10.671  0.00  0.00     0.002 A 
HETATM   23  C   UNK N   1      24.456  12.796   9.361  0.00  0.00     0.030 A 
BRANCH  19  24
HETATM   24  C   UNK N   1      20.901  13.381   8.208  0.00  0.00     0.295 C 
HETATM   25  O   UNK N   1      20.708  12.802   7.153  0.00  0.00    -0.259 OA
BRANCH  24  26
HETATM   26  O   UNK N   1      20.037  14.351   8.604  0.00  0.00    -0.315 OA
BRANCH  26  27
HETATM   27  C   UNK N   1      20.470  15.618   8.950  0.00  0.00     0.212 C 
BRANCH  27  28
HETATM   28  C   UNK N   1      19.654  16.658   8.176  0.00  0.00     0.166 C 
BRANCH  28  29
HETATM   29  C   UNK N   1      19.644  18.005   8.891  0.00  0.00     0.198 C 
BRANCH  29  30
HETATM   30  O   UNK N   1      20.417  18.938   8.195  0.00  0.00    -0.398 OA
HETATM   31  H   UNK N   1      20.506  19.904   8.220  0.00  0.00     0.209 HD
ENDBRANCH  29  30
ENDBRANCH  28  29
BRANCH  28  32
HETATM   32  O   UNK N   1      18.347  16.214   7.974  0.00  0.00    -0.391 OA
HETATM   33  H   UNK N   1      17.522  16.570   7.607  0.00  0.00     0.210 HD
ENDBRANCH  28  32
ENDBRANCH  27  28
ENDBRANCH  26  27
ENDBRANCH  24  26
ENDBRANCH  19  24
ENDBRANCH   1  18
TORSDOF 10
ENDMDL
MODEL 8
REMARK VINA RESULT:      -7.2      4.927      7.273
REMARK  10 active torsions:
REMARK  status: ('A' for Active; 'I' for Inactive)
REMARK    1  A    between atoms: C_3  and  N_4 
REMARK    2  A    between atoms: N_4  and  C_5 
REMARK    3  A    between atoms: C_6  and  C_7 
REMARK    4  A    between atoms: C_7  and  O_8 
REMARK    5  A    between atoms: O_8  and  C_9 
REMARK    6  A    between atoms: C_9  and  C_10 
REMARK    7  A    between atoms: C_10  and  C_11 
REMARK    8  A    between atoms: C_10  and  O_13 
REMARK    9  A    between atoms: C_11  and  O_12 
REMARK   10  A    between atoms: C_26  and  C_27 
ROOT
HETATM    1  N   UNK N   1      20.535  17.317   3.939  0.00  0.00    -0.355 N 
HETATM    2  H   UNK N   1      19.954  17.493   4.713  0.00  0.00     0.166 HD
ENDROOT
BRANCH   1   3
HETATM    3  C   UNK N   1      21.555  18.287   3.665  0.00  0.00     0.046 A 
HETATM    4  C   UNK N   1      22.945  18.125   3.950  0.00  0.00     0.018 A 
HETATM    5  C   UNK N   1      23.843  19.191   3.661  0.00  0.00     0.059 A 
HETATM    6  C   UNK N   1      23.460  16.961   4.532  0.00  0.00     0.016 A 
HETATM    7  N   UNK N   1      23.364  20.324   3.071  0.00  0.00    -0.364 N 
HETATM    8  C   UNK N   1      25.216  19.085   4.007  0.00  0.00     0.075 A 
HETATM    9  C   UNK N   1      22.056  20.475   2.756  0.00  0.00     0.090 A 
ATOM     10  HN  UNK N   1      24.013  21.082   2.862  1.00  0.00     0.165 HD
HETATM   11  C   UNK N   1      21.140  19.475   3.059  0.00  0.00     0.047 A 
HETATM   12  C   UNK N   1      25.678  17.901   4.597  0.00  0.00     0.018 A 
HETATM   13  C   UNK N   1      24.810  16.842   4.844  0.00  0.00     0.002 A 
BRANCH   8  14
HETATM   14  C   UNK N   1      26.222  20.202   3.819  0.00  0.00     0.419 C 
HETATM   15  F   UNK N   1      27.504  19.686   3.865  0.00  0.00    -0.166 F 
HETATM   16  F   UNK N   1      26.070  20.885   2.626  0.00  0.00    -0.166 F 
HETATM   17  F   UNK N   1      26.071  21.110   4.851  0.00  0.00    -0.166 F 
ENDBRANCH   8  14
ENDBRANCH   1   3
BRANCH   1  18
HETATM   18  C   UNK N   1      20.277  16.130   3.204  0.00  0.00     0.049 A 
HETATM   19  C   UNK N   1      19.528  15.105   3.806  0.00  0.00     0.066 A 
HETATM   20  C   UNK N   1      19.156  13.983   3.059  0.00  0.00     0.020 A 
HETATM   21  C   UNK N   1      19.573  13.856   1.730  0.00  0.00     0.001 A 
HETATM   22  C   UNK N   1      20.362  14.851   1.145  0.00  0.00     0.002 A 
HETATM   23  C   UNK N   1      20.708  15.992   1.876  0.00  0.00     0.030 A 
BRANCH  19  24
HETATM   24  C   UNK N   1      19.122  15.222   5.223  0.00  0.00     0.295 C 
HETATM   25  O   UNK N   1      18.175  15.928   5.523  0.00  0.00    -0.259 OA
BRANCH  24  26
HETATM   26  O   UNK N   1      19.776  14.534   6.194  0.00  0.00    -0.315 OA
BRANCH  26  27
HETATM   27  C   UNK N   1      21.079  14.831   6.550  0.00  0.00     0.212 C 
BRANCH  27  28
HETATM   28  C   UNK N   1      21.073  15.943   7.602  0.00  0.00     0.166 C 
BRANCH  28  29
HETATM   29  C   UNK N   1      20.140  15.613   8.761  0.00  0.00     0.198 C 
BRANCH  29  30
HETATM   30  O   UNK N   1      18.859  16.114   8.521  0.00  0.00    -0.398 OA
HETATM   31  H   UNK N   1      17.959  15.809   8.718  0.00  0.00     0.209 HD
ENDBRANCH  29  30
ENDBRANCH  28  29
BRANCH  28  32
HETATM   32  O   UNK N   1      20.714  17.165   7.031  0.00  0.00    -0.391 OA
HETATM   33  H   UNK N   1      20.994  17.709   6.278  0.00  0.00     0.210 HD
ENDBRANCH  28  32
ENDBRANCH  27  28
ENDBRANCH  26  27
ENDBRANCH  24  26
ENDBRANCH  19  24
ENDBRANCH   1  18
TORSDOF 10
ENDMDL
MODEL 9
REMARK VINA RESULT:      -7.2      7.104      8.988
REMARK  10 active torsions:
REMARK  status: ('A' for Active; 'I' for Inactive)
REMARK    1  A    between atoms: C_3  and  N_4 
REMARK    2  A    between atoms: N_4  and  C_5 
REMARK    3  A    between atoms: C_6  and  C_7 
REMARK    4  A    between atoms: C_7  and  O_8 
REMARK    5  A    between atoms: O_8  and  C_9 
REMARK    6  A    between atoms: C_9  and  C_10 
REMARK    7  A    between atoms: C_10  and  C_11 
REMARK    8  A    between atoms: C_10  and  O_13 
REMARK    9  A    between atoms: C_11  and  O_12 
REMARK   10  A    between atoms: C_26  and  C_27 
ROOT
HETATM    1  N   UNK N   1      27.879  17.611   6.365  0.00  0.00    -0.355 N 
HETATM    2  H   UNK N   1      27.386  16.759   6.388  0.00  0.00     0.166 HD
ENDROOT
BRANCH   1   3
HETATM    3  C   UNK N   1      29.049  17.700   7.190  0.00  0.00     0.046 A 
HETATM    4  C   UNK N   1      30.395  17.563   6.731  0.00  0.00     0.018 A 
HETATM    5  C   UNK N   1      31.461  17.634   7.671  0.00  0.00     0.059 A 
HETATM    6  C   UNK N   1      30.708  17.333   5.386  0.00  0.00     0.016 A 
HETATM    7  N   UNK N   1      31.178  17.882   8.982  0.00  0.00    -0.364 N 
HETATM    8  C   UNK N   1      32.801  17.423   7.252  0.00  0.00     0.075 A 
HETATM    9  C   UNK N   1      29.911  18.057   9.425  0.00  0.00     0.090 A 
ATOM     10  HN  UNK N   1      31.947  17.937   9.650  1.00  0.00     0.165 HD
HETATM   11  C   UNK N   1      28.838  17.953   8.547  0.00  0.00     0.047 A 
HETATM   12  C   UNK N   1      33.058  17.187   5.895  0.00  0.00     0.018 A 
HETATM   13  C   UNK N   1      32.022  17.156   4.967  0.00  0.00     0.002 A 
BRANCH   8  14
HETATM   14  C   UNK N   1      33.985  17.391   8.195  0.00  0.00     0.419 C 
HETATM   15  F   UNK N   1      34.471  18.673   8.377  0.00  0.00    -0.166 F 
HETATM   16  F   UNK N   1      33.686  16.860   9.437  0.00  0.00    -0.166 F 
HETATM   17  F   UNK N   1      34.980  16.615   7.630  0.00  0.00    -0.166 F 
ENDBRANCH   8  14
ENDBRANCH   1   3
BRANCH   1  18
HETATM   18  C   UNK N   1      27.360  18.627   5.521  0.00  0.00     0.049 A 
HETATM   19  C   UNK N   1      26.835  18.269   4.268  0.00  0.00     0.066 A 
HETATM   20  C   UNK N   1      26.205  19.235   3.476  0.00  0.00     0.020 A 
HETATM   21  C   UNK N   1      26.143  20.563   3.906  0.00  0.00     0.001 A 
HETATM   22  C   UNK N   1      26.711  20.931   5.130  0.00  0.00     0.002 A 
HETATM   23  C   UNK N   1      27.311  19.964   5.943  0.00  0.00     0.030 A 
BRANCH  19  24
HETATM   24  C   UNK N   1      26.936  16.872   3.797  0.00  0.00     0.295 C 
HETATM   25  O   UNK N   1      28.002  16.451   3.380  0.00  0.00    -0.259 OA
BRANCH  24  26
HETATM   26  O   UNK N   1      25.863  16.041   3.843  0.00  0.00    -0.315 OA
BRANCH  26  27
HETATM   27  C   UNK N   1      25.825  14.943   4.682  0.00  0.00     0.212 C 
BRANCH  27  28
HETATM   28  C   UNK N   1      24.886  15.237   5.855  0.00  0.00     0.166 C 
BRANCH  28  29
HETATM   29  C   UNK N   1      23.674  16.049   5.412  0.00  0.00     0.198 C 
BRANCH  29  30
HETATM   30  O   UNK N   1      23.862  17.405   5.687  0.00  0.00    -0.398 OA
HETATM   31  H   UNK N   1      23.619  17.992   6.421  0.00  0.00     0.209 HD
ENDBRANCH  29  30
ENDBRANCH  28  29
BRANCH  28  32
HETATM   32  O   UNK N   1      25.563  15.905   6.877  0.00  0.00    -0.391 OA
HETATM   33  H   UNK N   1      25.353  16.564   7.558  0.00  0.00     0.210 HD
ENDBRANCH  28  32
ENDBRANCH  27  28
ENDBRANCH  26  27
ENDBRANCH  24  26
ENDBRANCH  19  24
ENDBRANCH   1  18
TORSDOF 10
ENDMDL
