MODEL 1
REMARK VINA RESULT:      -6.3      0.000      0.000
REMARK  6 active torsions:
REMARK  status: ('A' for Active; 'I' for Inactive)
REMARK    1  A    between atoms: C_9  and  C_8 
REMARK    2  A    between atoms: C_11  and  C_8 
REMARK    3  A    between atoms: C_12  and  C_10 
REMARK    4  A    between atoms: C_13  and  C_10 
REMARK    5  A    between atoms: O_16  and  C_13 
REMARK    6  A    between atoms: N_14  and  O_17 
ROOT
HETATM    1  C   UNK N   1      29.644  17.536   6.068  0.00  0.00     0.007 A 
HETATM    2  C   UNK N   1      29.529  18.450   8.305  0.00  0.00     0.007 A 
HETATM    3  C   UNK N   1      30.895  16.984   6.360  0.00  0.00     0.008 A 
HETATM    4  C   UNK N   1      30.772  17.897   8.598  0.00  0.00     0.008 A 
HETATM    5  C   UNK N   1      28.962  18.288   7.033  0.00  0.00    -0.058 A 
HETATM    6  C   UNK N   1      31.476  17.177   7.625  0.00  0.00    -0.046 A 
ENDROOT
BRANCH   6   7
HETATM    7  C   UNK N   1      32.860  16.672   7.963  0.00  0.00     0.091 C 
HETATM    8  C   UNK N   1      33.232  15.392   7.222  0.00  0.00     0.023 C 
BRANCH   7   9
HETATM    9  C   UNK N   1      33.911  17.729   7.706  0.00  0.00     0.143 C 
HETATM   10  N   UNK N   1      34.458  18.336   8.697  0.00  0.00    -0.251 N 
ATOM     11  HN  UNK N   1      34.187  18.095   9.650  1.00  0.00     0.196 HD
BRANCH  10  12
HETATM   12  O   UNK N   1      35.366  19.270   8.493  0.00  0.00    -0.288 OA
HETATM   13  H   UNK N   1      35.208  20.175   8.675  0.00  0.00     0.244 HD
ENDBRANCH  10  12
BRANCH   9  14
HETATM   14  O   UNK N   1      34.268  18.046   6.441  0.00  0.00    -0.348 OA
HETATM   15  H   UNK N   1      34.394  18.901   6.079  0.00  0.00     0.219 HD
ENDBRANCH   9  14
ENDBRANCH   7   9
ENDBRANCH   6   7
BRANCH   5  16
HETATM   16  C   UNK N   1      27.658  18.939   6.668  0.00  0.00     0.042 C 
BRANCH  16  17
HETATM   17  C   UNK N   1      27.801  20.212   5.833  0.00  0.00    -0.019 C 
HETATM   18  C   UNK N   1      26.971  21.314   6.452  0.00  0.00     0.010 C 
HETATM   19  C   UNK N   1      27.313  19.977   4.412  0.00  0.00     0.010 C 
ENDBRANCH  16  17
ENDBRANCH   5  16
TORSDOF 6
ENDMDL
MODEL 2
REMARK VINA RESULT:      -6.2     10.391     12.360
REMARK  6 active torsions:
REMARK  status: ('A' for Active; 'I' for Inactive)
REMARK    1  A    between atoms: C_9  and  C_8 
REMARK    2  A    between atoms: C_11  and  C_8 
REMARK    3  A    between atoms: C_12  and  C_10 
REMARK    4  A    between atoms: C_13  and  C_10 
REMARK    5  A    between atoms: O_16  and  C_13 
REMARK    6  A    between atoms: N_14  and  O_17 
ROOT
HETATM    1  C   UNK N   1      21.882  14.652   8.413  0.00  0.00     0.007 A 
HETATM    2  C   UNK N   1      20.270  13.827  10.017  0.00  0.00     0.007 A 
HETATM    3  C   UNK N   1      21.059  15.753   8.155  0.00  0.00     0.008 A 
HETATM    4  C   UNK N   1      19.452  14.924   9.764  0.00  0.00     0.008 A 
HETATM    5  C   UNK N   1      21.483  13.673   9.331  0.00  0.00    -0.058 A 
HETATM    6  C   UNK N   1      19.827  15.886   8.818  0.00  0.00    -0.046 A 
ENDROOT
BRANCH   6   7
HETATM    7  C   UNK N   1      18.866  17.012   8.514  0.00  0.00     0.091 C 
HETATM    8  C   UNK N   1      17.454  16.757   9.032  0.00  0.00     0.023 C 
BRANCH   7   9
HETATM    9  C   UNK N   1      19.372  18.330   9.057  0.00  0.00     0.143 C 
HETATM   10  N   UNK N   1      18.865  18.812  10.134  0.00  0.00    -0.251 N 
ATOM     11  HN  UNK N   1      18.130  18.298  10.621  1.00  0.00     0.196 HD
BRANCH  10  12
HETATM   12  O   UNK N   1      19.283  19.965  10.616  0.00  0.00    -0.288 OA
HETATM   13  H   UNK N   1      19.626  20.645  10.070  0.00  0.00     0.244 HD
ENDBRANCH  10  12
BRANCH   9  14
HETATM   14  O   UNK N   1      20.347  19.008   8.410  0.00  0.00    -0.348 OA
HETATM   15  H   UNK N   1      21.201  18.699   8.179  0.00  0.00     0.219 HD
ENDBRANCH   9  14
ENDBRANCH   7   9
ENDBRANCH   6   7
BRANCH   5  16
HETATM   16  C   UNK N   1      22.347  12.459   9.530  0.00  0.00     0.042 C 
BRANCH  16  17
HETATM   17  C   UNK N   1      23.362  12.588  10.668  0.00  0.00    -0.019 C 
HETATM   18  C   UNK N   1      24.691  12.020  10.221  0.00  0.00     0.010 C 
HETATM   19  C   UNK N   1      22.892  11.818  11.892  0.00  0.00     0.010 C 
ENDBRANCH  16  17
ENDBRANCH   5  16
TORSDOF 6
ENDMDL
MODEL 3
REMARK VINA RESULT:      -6.2      7.354      9.967
REMARK  6 active torsions:
REMARK  status: ('A' for Active; 'I' for Inactive)
REMARK    1  A    between atoms: C_9  and  C_8 
REMARK    2  A    between atoms: C_11  and  C_8 
REMARK    3  A    between atoms: C_12  and  C_10 
REMARK    4  A    between atoms: C_13  and  C_10 
REMARK    5  A    between atoms: O_16  and  C_13 
REMARK    6  A    between atoms: N_14  and  O_17 
ROOT
HETATM    1  C   UNK N   1      25.490  20.571   3.063  0.00  0.00     0.007 A 
HETATM    2  C   UNK N   1      25.173  18.913   4.796  0.00  0.00     0.007 A 
HETATM    3  C   UNK N   1      24.138  20.469   2.720  0.00  0.00     0.008 A 
HETATM    4  C   UNK N   1      23.827  18.813   4.458  0.00  0.00     0.008 A 
HETATM    5  C   UNK N   1      26.019  19.781   4.090  0.00  0.00    -0.058 A 
HETATM    6  C   UNK N   1      23.300  19.573   3.406  0.00  0.00    -0.046 A 
ENDROOT
BRANCH   6   7
HETATM    7  C   UNK N   1      21.854  19.365   3.021  0.00  0.00     0.091 C 
HETATM    8  C   UNK N   1      20.915  19.284   4.220  0.00  0.00     0.023 C 
BRANCH   7   9
HETATM    9  C   UNK N   1      21.375  20.446   2.076  0.00  0.00     0.143 C 
HETATM   10  N   UNK N   1      21.018  20.134   0.882  0.00  0.00    -0.251 N 
ATOM     11  HN  UNK N   1      21.052  19.160   0.582  1.00  0.00     0.196 HD
BRANCH  10  12
HETATM   12  O   UNK N   1      20.610  21.062   0.039  0.00  0.00    -0.288 OA
HETATM   13  H   UNK N   1      19.703  21.232  -0.122  0.00  0.00     0.244 HD
ENDBRANCH  10  12
BRANCH   9  14
HETATM   14  O   UNK N   1      21.330  21.736   2.477  0.00  0.00    -0.348 OA
HETATM   15  H   UNK N   1      21.461  22.502   1.954  0.00  0.00     0.219 HD
ENDBRANCH   9  14
ENDBRANCH   7   9
ENDBRANCH   6   7
BRANCH   5  16
HETATM   16  C   UNK N   1      27.491  19.851   4.384  0.00  0.00     0.042 C 
BRANCH  16  17
HETATM   17  C   UNK N   1      27.835  20.493   5.729  0.00  0.00    -0.019 C 
HETATM   18  C   UNK N   1      27.857  19.426   6.802  0.00  0.00     0.010 C 
HETATM   19  C   UNK N   1      26.794  21.536   6.104  0.00  0.00     0.010 C 
ENDBRANCH  16  17
ENDBRANCH   5  16
TORSDOF 6
ENDMDL
MODEL 4
REMARK VINA RESULT:      -5.9      1.977      2.281
REMARK  6 active torsions:
REMARK  status: ('A' for Active; 'I' for Inactive)
REMARK    1  A    between atoms: C_9  and  C_8 
REMARK    2  A    between atoms: C_11  and  C_8 
REMARK    3  A    between atoms: C_12  and  C_10 
REMARK    4  A    between atoms: C_13  and  C_10 
REMARK    5  A    between atoms: O_16  and  C_13 
REMARK    6  A    between atoms: N_14  and  O_17 
ROOT
HETATM    1  C   UNK N   1      30.221  16.995   6.430  0.00  0.00     0.007 A 
HETATM    2  C   UNK N   1      30.007  18.270   8.475  0.00  0.00     0.007 A 
HETATM    3  C   UNK N   1      31.567  16.755   6.722  0.00  0.00     0.008 A 
HETATM    4  C   UNK N   1      31.346  18.029   8.769  0.00  0.00     0.008 A 
HETATM    5  C   UNK N   1      29.438  17.769   7.295  0.00  0.00    -0.058 A 
HETATM    6  C   UNK N   1      32.144  17.288   7.888  0.00  0.00    -0.046 A 
ENDROOT
BRANCH   6   7
HETATM    7  C   UNK N   1      33.612  17.127   8.208  0.00  0.00     0.091 C 
HETATM    8  C   UNK N   1      34.398  18.429   8.106  0.00  0.00     0.023 C 
BRANCH   7   9
HETATM    9  C   UNK N   1      33.814  16.520   9.579  0.00  0.00     0.143 C 
HETATM   10  N   UNK N   1      33.155  15.469   9.913  0.00  0.00    -0.251 N 
ATOM     11  HN  UNK N   1      32.508  15.046   9.249  1.00  0.00     0.196 HD
BRANCH  10  12
HETATM   12  O   UNK N   1      33.308  14.933  11.108  0.00  0.00    -0.288 OA
HETATM   13  H   UNK N   1      33.385  14.008  11.239  0.00  0.00     0.244 HD
ENDBRANCH  10  12
BRANCH   9  14
HETATM   14  O   UNK N   1      34.675  17.084  10.457  0.00  0.00    -0.348 OA
HETATM   15  H   UNK N   1      34.660  17.960  10.789  0.00  0.00     0.219 HD
ENDBRANCH   9  14
ENDBRANCH   7   9
ENDBRANCH   6   7
BRANCH   5  16
HETATM   16  C   UNK N   1      28.017  18.080   6.917  0.00  0.00     0.042 C 
BRANCH  16  17
HETATM   17  C   UNK N   1      27.868  19.231   5.921  0.00  0.00    -0.019 C 
HETATM   18  C   UNK N   1      27.345  20.454   6.643  0.00  0.00     0.010 C 
HETATM   19  C   UNK N   1      26.886  18.861   4.820  0.00  0.00     0.010 C 
ENDBRANCH  16  17
ENDBRANCH   5  16
TORSDOF 6
ENDMDL
MODEL 5
REMARK VINA RESULT:      -5.9      8.278     11.098
REMARK  6 active torsions:
REMARK  status: ('A' for Active; 'I' for Inactive)
REMARK    1  A    between atoms: C_9  and  C_8 
REMARK    2  A    between atoms: C_11  and  C_8 
REMARK    3  A    between atoms: C_12  and  C_10 
REMARK    4  A    between atoms: C_13  and  C_10 
REMARK    5  A    between atoms: O_16  and  C_13 
REMARK    6  A    between atoms: N_14  and  O_17 
ROOT
HETATM    1  C   UNK N   1      34.510  12.319  15.277  0.00  0.00     0.007 A 
HETATM    2  C   UNK N   1      36.413  13.778  15.594  0.00  0.00     0.007 A 
HETATM    3  C   UNK N   1      34.612  12.489  13.893  0.00  0.00     0.008 A 
HETATM    4  C   UNK N   1      36.519  13.945  14.216  0.00  0.00     0.008 A 
HETATM    5  C   UNK N   1      35.398  12.977  16.136  0.00  0.00    -0.058 A 
HETATM    6  C   UNK N   1      35.609  13.320  13.354  0.00  0.00    -0.046 A 
ENDROOT
BRANCH   6   7
HETATM    7  C   UNK N   1      35.711  13.602  11.873  0.00  0.00     0.091 C 
HETATM    8  C   UNK N   1      35.217  12.449  11.004  0.00  0.00     0.023 C 
BRANCH   7   9
HETATM    9  C   UNK N   1      34.970  14.868  11.501  0.00  0.00     0.143 C 
HETATM   10  N   UNK N   1      35.628  15.952  11.295  0.00  0.00    -0.251 N 
ATOM     11  HN  UNK N   1      36.644  15.950  11.376  1.00  0.00     0.196 HD
BRANCH  10  12
HETATM   12  O   UNK N   1      35.001  17.069  10.983  0.00  0.00    -0.288 OA
HETATM   13  H   UNK N   1      35.449  17.884  10.871  0.00  0.00     0.244 HD
ENDBRANCH  10  12
BRANCH   9  14
HETATM   14  O   UNK N   1      33.623  14.867  11.394  0.00  0.00    -0.348 OA
HETATM   15  H   UNK N   1      33.111  14.873  10.609  0.00  0.00     0.219 HD
ENDBRANCH   9  14
ENDBRANCH   7   9
ENDBRANCH   6   7
BRANCH   5  16
HETATM   16  C   UNK N   1      35.216  12.842  17.622  0.00  0.00     0.042 C 
BRANCH  16  17
HETATM   17  C   UNK N   1      35.184  11.398  18.124  0.00  0.00    -0.019 C 
HETATM   18  C   UNK N   1      35.326  11.387  19.630  0.00  0.00     0.010 C 
HETATM   19  C   UNK N   1      36.328  10.598  17.523  0.00  0.00     0.010 C 
ENDBRANCH  16  17
ENDBRANCH   5  16
TORSDOF 6
ENDMDL
MODEL 6
REMARK VINA RESULT:      -5.6     15.192     16.337
REMARK  6 active torsions:
REMARK  status: ('A' for Active; 'I' for Inactive)
REMARK    1  A    between atoms: C_9  and  C_8 
REMARK    2  A    between atoms: C_11  and  C_8 
REMARK    3  A    between atoms: C_12  and  C_10 
REMARK    4  A    between atoms: C_13  and  C_10 
REMARK    5  A    between atoms: O_16  and  C_13 
REMARK    6  A    between atoms: N_14  and  O_17 
ROOT
HETATM    1  C   UNK N   1      25.259  27.114  -5.983  0.00  0.00     0.007 A 
HETATM    2  C   UNK N   1      26.578  26.079  -4.238  0.00  0.00     0.007 A 
HETATM    3  C   UNK N   1      25.443  25.985  -6.788  0.00  0.00     0.008 A 
HETATM    4  C   UNK N   1      26.757  24.954  -5.037  0.00  0.00     0.008 A 
HETATM    5  C   UNK N   1      25.841  27.175  -4.711  0.00  0.00    -0.058 A 
HETATM    6  C   UNK N   1      26.210  24.903  -6.325  0.00  0.00    -0.046 A 
ENDROOT
BRANCH   6   7
HETATM    7  C   UNK N   1      26.506  23.697  -7.187  0.00  0.00     0.091 C 
HETATM    8  C   UNK N   1      27.581  22.787  -6.603  0.00  0.00     0.023 C 
BRANCH   7   9
HETATM    9  C   UNK N   1      25.253  22.891  -7.456  0.00  0.00     0.143 C 
HETATM   10  N   UNK N   1      24.836  22.052  -6.577  0.00  0.00    -0.251 N 
ATOM     11  HN  UNK N   1      25.346  21.942  -5.701  1.00  0.00     0.196 HD
BRANCH  10  12
HETATM   12  O   UNK N   1      23.755  21.332  -6.797  0.00  0.00    -0.288 OA
HETATM   13  H   UNK N   1      23.651  20.800  -7.562  0.00  0.00     0.244 HD
ENDBRANCH  10  12
BRANCH   9  14
HETATM   14  O   UNK N   1      24.579  23.041  -8.618  0.00  0.00    -0.348 OA
HETATM   15  H   UNK N   1      24.885  22.856  -9.484  0.00  0.00     0.219 HD
ENDBRANCH   9  14
ENDBRANCH   7   9
ENDBRANCH   6   7
BRANCH   5  16
HETATM   16  C   UNK N   1      25.697  28.431  -3.899  0.00  0.00     0.042 C 
BRANCH  16  17
HETATM   17  C   UNK N   1      26.916  29.354  -3.945  0.00  0.00    -0.019 C 
HETATM   18  C   UNK N   1      26.504  30.750  -3.535  0.00  0.00     0.010 C 
HETATM   19  C   UNK N   1      27.489  29.411  -5.353  0.00  0.00     0.010 C 
ENDBRANCH  16  17
ENDBRANCH   5  16
TORSDOF 6
ENDMDL
MODEL 7
REMARK VINA RESULT:      -5.4      3.775      5.170
REMARK  6 active torsions:
REMARK  status: ('A' for Active; 'I' for Inactive)
REMARK    1  A    between atoms: C_9  and  C_8 
REMARK    2  A    between atoms: C_11  and  C_8 
REMARK    3  A    between atoms: C_12  and  C_10 
REMARK    4  A    between atoms: C_13  and  C_10 
REMARK    5  A    between atoms: O_16  and  C_13 
REMARK    6  A    between atoms: N_14  and  O_17 
ROOT
HETATM    1  C   UNK N   1      34.156  15.777   6.334  0.00  0.00     0.007 A 
HETATM    2  C   UNK N   1      33.764  17.905   7.415  0.00  0.00     0.007 A 
HETATM    3  C   UNK N   1      34.656  15.261   7.534  0.00  0.00     0.008 A 
HETATM    4  C   UNK N   1      34.257  17.392   8.610  0.00  0.00     0.008 A 
HETATM    5  C   UNK N   1      33.724  17.106   6.263  0.00  0.00    -0.058 A 
HETATM    6  C   UNK N   1      34.726  16.074   8.678  0.00  0.00    -0.046 A 
ENDROOT
BRANCH   6   7
HETATM    7  C   UNK N   1      35.333  15.591   9.975  0.00  0.00     0.091 C 
HETATM    8  C   UNK N   1      35.585  16.711  10.978  0.00  0.00     0.023 C 
BRANCH   7   9
HETATM    9  C   UNK N   1      34.479  14.519  10.617  0.00  0.00     0.143 C 
HETATM   10  N   UNK N   1      34.912  13.311  10.674  0.00  0.00    -0.251 N 
ATOM     11  HN  UNK N   1      35.830  13.084  10.294  1.00  0.00     0.196 HD
BRANCH  10  12
HETATM   12  O   UNK N   1      34.178  12.360  11.218  0.00  0.00    -0.288 OA
HETATM   13  H   UNK N   1      34.529  11.737  11.823  0.00  0.00     0.244 HD
ENDBRANCH  10  12
BRANCH   9  14
HETATM   14  O   UNK N   1      33.262  14.824  11.121  0.00  0.00    -0.348 OA
HETATM   15  H   UNK N   1      33.070  15.241  11.938  0.00  0.00     0.219 HD
ENDBRANCH   9  14
ENDBRANCH   7   9
ENDBRANCH   6   7
BRANCH   5  16
HETATM   16  C   UNK N   1      33.268  17.659   4.942  0.00  0.00     0.042 C 
BRANCH  16  17
HETATM   17  C   UNK N   1      32.105  16.895   4.307  0.00  0.00    -0.019 C 
HETATM   18  C   UNK N   1      32.203  16.993   2.801  0.00  0.00     0.010 C 
HETATM   19  C   UNK N   1      30.774  17.486   4.746  0.00  0.00     0.010 C 
ENDBRANCH  16  17
ENDBRANCH   5  16
TORSDOF 6
ENDMDL
MODEL 8
REMARK VINA RESULT:      -5.2     10.955     13.518
REMARK  6 active torsions:
REMARK  status: ('A' for Active; 'I' for Inactive)
REMARK    1  A    between atoms: C_9  and  C_8 
REMARK    2  A    between atoms: C_11  and  C_8 
REMARK    3  A    between atoms: C_12  and  C_10 
REMARK    4  A    between atoms: C_13  and  C_10 
REMARK    5  A    between atoms: O_16  and  C_13 
REMARK    6  A    between atoms: N_14  and  O_17 
ROOT
HETATM    1  C   UNK N   1      35.863  10.838  17.017  0.00  0.00     0.007 A 
HETATM    2  C   UNK N   1      35.071  12.516  18.570  0.00  0.00     0.007 A 
HETATM    3  C   UNK N   1      36.124  11.838  16.073  0.00  0.00     0.008 A 
HETATM    4  C   UNK N   1      35.334  13.511  17.633  0.00  0.00     0.008 A 
HETATM    5  C   UNK N   1      35.318  11.171  18.263  0.00  0.00    -0.058 A 
HETATM    6  C   UNK N   1      35.843  13.182  16.371  0.00  0.00    -0.046 A 
ENDROOT
BRANCH   6   7
HETATM    7  C   UNK N   1      36.029  14.288  15.358  0.00  0.00     0.091 C 
HETATM    8  C   UNK N   1      37.271  15.135  15.610  0.00  0.00     0.023 C 
BRANCH   7   9
HETATM    9  C   UNK N   1      36.068  13.741  13.947  0.00  0.00     0.143 C 
HETATM   10  N   UNK N   1      37.199  13.578  13.359  0.00  0.00    -0.251 N 
ATOM     11  HN  UNK N   1      38.062  13.810  13.850  1.00  0.00     0.196 HD
BRANCH  10  12
HETATM   12  O   UNK N   1      37.253  13.116  12.126  0.00  0.00    -0.288 OA
HETATM   13  H   UNK N   1      37.524  12.241  11.927  0.00  0.00     0.244 HD
ENDBRANCH  10  12
BRANCH   9  14
HETATM   14  O   UNK N   1      34.921  13.435  13.299  0.00  0.00    -0.348 OA
HETATM   15  H   UNK N   1      34.826  12.943  12.508  0.00  0.00     0.219 HD
ENDBRANCH   9  14
ENDBRANCH   7   9
ENDBRANCH   6   7
BRANCH   5  16
HETATM   16  C   UNK N   1      34.972  10.071  19.228  0.00  0.00     0.042 C 
BRANCH  16  17
HETATM   17  C   UNK N   1      35.425  10.329  20.666  0.00  0.00    -0.019 C 
HETATM   18  C   UNK N   1      36.926  10.169  20.755  0.00  0.00     0.010 C 
HETATM   19  C   UNK N   1      34.774   9.337  21.617  0.00  0.00     0.010 C 
ENDBRANCH  16  17
ENDBRANCH   5  16
TORSDOF 6
ENDMDL
MODEL 9
REMARK VINA RESULT:      -5.2      8.498     11.303
REMARK  6 active torsions:
REMARK  status: ('A' for Active; 'I' for Inactive)
REMARK    1  A    between atoms: C_9  and  C_8 
REMARK    2  A    between atoms: C_11  and  C_8 
REMARK    3  A    between atoms: C_12  and  C_10 
REMARK    4  A    between atoms: C_13  and  C_10 
REMARK    5  A    between atoms: O_16  and  C_13 
REMARK    6  A    between atoms: N_14  and  O_17 
ROOT
HETATM    1  C   UNK N   1      34.283  11.263  14.944  0.00  0.00     0.007 A 
HETATM    2  C   UNK N   1      36.616  11.736  15.374  0.00  0.00     0.007 A 
HETATM    3  C   UNK N   1      34.462  11.608  13.601  0.00  0.00     0.008 A 
HETATM    4  C   UNK N   1      36.796  12.077  14.037  0.00  0.00     0.008 A 
HETATM    5  C   UNK N   1      35.354  11.342  15.842  0.00  0.00    -0.058 A 
HETATM    6  C   UNK N   1      35.720  12.036  13.142  0.00  0.00    -0.046 A 
ENDROOT
BRANCH   6   7
HETATM    7  C   UNK N   1      35.946  12.498  11.722  0.00  0.00     0.091 C 
HETATM    8  C   UNK N   1      34.965  11.888  10.725  0.00  0.00     0.023 C 
BRANCH   7   9
HETATM    9  C   UNK N   1      35.897  14.007  11.619  0.00  0.00     0.143 C 
HETATM   10  N   UNK N   1      36.911  14.646  11.155  0.00  0.00    -0.251 N 
ATOM     11  HN  UNK N   1      37.737  14.131  10.852  1.00  0.00     0.196 HD
BRANCH  10  12
HETATM   12  O   UNK N   1      36.894  15.961  11.070  0.00  0.00    -0.288 OA
HETATM   13  H   UNK N   1      37.353  16.512  11.673  0.00  0.00     0.244 HD
ENDBRANCH  10  12
BRANCH   9  14
HETATM   14  O   UNK N   1      34.800  14.686  12.022  0.00  0.00    -0.348 OA
HETATM   15  H   UNK N   1      34.549  14.899  12.899  0.00  0.00     0.219 HD
ENDBRANCH   9  14
ENDBRANCH   7   9
ENDBRANCH   6   7
BRANCH   5  16
HETATM   16  C   UNK N   1      35.116  11.044  17.296  0.00  0.00     0.042 C 
BRANCH  16  17
HETATM   17  C   UNK N   1      35.647  12.112  18.253  0.00  0.00    -0.019 C 
HETATM   18  C   UNK N   1      35.307  11.724  19.675  0.00  0.00     0.010 C 
HETATM   19  C   UNK N   1      35.013  13.461  17.953  0.00  0.00     0.010 C 
ENDBRANCH  16  17
ENDBRANCH   5  16
TORSDOF 6
ENDMDL
