MODEL 1
REMARK VINA RESULT:      -7.4      0.000      0.000
REMARK  9 active torsions:
REMARK  status: ('A' for Active; 'I' for Inactive)
REMARK    1  A    between atoms: C_11  and  C_10 
REMARK    2  A    between atoms: N_23  and  C_10 
REMARK    3  A    between atoms: O_25  and  C_11 
REMARK    4  A    between atoms: C_14  and  C_12 
REMARK    5  A    between atoms: C_15  and  C_12 
REMARK    6  A    between atoms: N_23  and  C_14 
REMARK    7  A    between atoms: C_18  and  C_16 
REMARK    8  A    between atoms: C_19  and  C_17 
REMARK    9  A    between atoms: O_25  and  C_18 
ROOT
HETATM    1  C   UNK N   1      37.545  12.626  11.764  0.00  0.00     0.032 C 
HETATM    2  C   UNK N   1      36.388  13.626  11.715  0.00  0.00     0.076 C 
ENDROOT
BRANCH   2   3
HETATM    3  C   UNK N   1      35.758  13.937  13.075  0.00  0.00     0.062 C 
BRANCH   3   4
HETATM    4  C   UNK N   1      35.228  12.753  13.811  0.00  0.00    -0.056 A 
HETATM    5  C   UNK N   1      34.474  11.785  13.139  0.00  0.00     0.007 A 
HETATM    6  C   UNK N   1      34.036  10.646  13.816  0.00  0.00     0.001 A 
HETATM    7  C   UNK N   1      34.363  10.464  15.161  0.00  0.00     0.016 A 
HETATM    8  C   UNK N   1      35.124  11.426  15.840  0.00  0.00     0.048 A 
HETATM    9  C   UNK N   1      35.559  12.570  15.156  0.00  0.00     0.023 A 
BRANCH   8  10
HETATM   10  C   UNK N   1      35.475  11.216  17.282  0.00  0.00     0.417 C 
HETATM   11  F   UNK N   1      34.524  10.402  17.871  0.00  0.00    -0.166 F 
HETATM   12  F   UNK N   1      36.717  10.616  17.413  0.00  0.00    -0.166 F 
HETATM   13  F   UNK N   1      35.498  12.434  17.935  0.00  0.00    -0.166 F 
ENDBRANCH   8  10
ENDBRANCH   3   4
ENDBRANCH   2   3
BRANCH   2  14
HETATM   14  N   UNK N   1      36.768  14.874  11.044  0.00  0.00    -0.415 N 
HETATM   15  H   UNK N   1      37.633  15.001  10.520  0.00  0.00     0.153 HD
BRANCH  14  16
HETATM   16  C   UNK N   1      35.750  15.913  11.223  0.00  0.00     0.141 C 
BRANCH  16  17
HETATM   17  C   UNK N   1      34.973  16.192   9.934  0.00  0.00     0.198 C 
BRANCH  17  18
HETATM   18  O   UNK N   1      34.785  17.544   9.752  0.00  0.00    -0.316 OA
BRANCH  18  19
HETATM   19  C   UNK N   1      34.560  18.158   8.555  0.00  0.00     0.293 C 
HETATM   20  O   UNK N   1      35.294  19.078   8.235  0.00  0.00    -0.259 OA
BRANCH  19  21
HETATM   21  C   UNK N   1      33.443  17.776   7.636  0.00  0.00     0.039 A 
HETATM   22  C   UNK N   1      33.717  17.560   6.276  0.00  0.00     0.017 A 
HETATM   23  C   UNK N   1      32.689  17.229   5.389  0.00  0.00     0.001 A 
HETATM   24  C   UNK N   1      31.379  17.094   5.853  0.00  0.00     0.000 A 
HETATM   25  C   UNK N   1      31.096  17.287   7.207  0.00  0.00     0.001 A 
HETATM   26  C   UNK N   1      32.122  17.628   8.089  0.00  0.00     0.017 A 
ENDBRANCH  19  21
ENDBRANCH  18  19
ENDBRANCH  17  18
ENDBRANCH  16  17
ENDBRANCH  14  16
ENDBRANCH   2  14
TORSDOF 9
ENDMDL
MODEL 2
REMARK VINA RESULT:      -7.3     20.620     22.452
REMARK  9 active torsions:
REMARK  status: ('A' for Active; 'I' for Inactive)
REMARK    1  A    between atoms: C_11  and  C_10 
REMARK    2  A    between atoms: N_23  and  C_10 
REMARK    3  A    between atoms: O_25  and  C_11 
REMARK    4  A    between atoms: C_14  and  C_12 
REMARK    5  A    between atoms: C_15  and  C_12 
REMARK    6  A    between atoms: N_23  and  C_14 
REMARK    7  A    between atoms: C_18  and  C_16 
REMARK    8  A    between atoms: C_19  and  C_17 
REMARK    9  A    between atoms: O_25  and  C_18 
ROOT
HETATM    1  C   UNK N   1      28.998  20.368  -7.780  0.00  0.00     0.032 C 
HETATM    2  C   UNK N   1      28.186  21.664  -7.726  0.00  0.00     0.076 C 
ENDROOT
BRANCH   2   3
HETATM    3  C   UNK N   1      29.015  22.941  -7.875  0.00  0.00     0.062 C 
BRANCH   3   4
HETATM    4  C   UNK N   1      29.082  23.796  -6.655  0.00  0.00    -0.056 A 
HETATM    5  C   UNK N   1      30.082  24.767  -6.529  0.00  0.00     0.007 A 
HETATM    6  C   UNK N   1      30.102  25.609  -5.417  0.00  0.00     0.001 A 
HETATM    7  C   UNK N   1      29.116  25.492  -4.434  0.00  0.00     0.016 A 
HETATM    8  C   UNK N   1      28.108  24.525  -4.557  0.00  0.00     0.048 A 
HETATM    9  C   UNK N   1      28.094  23.680  -5.675  0.00  0.00     0.023 A 
BRANCH   8  10
HETATM   10  C   UNK N   1      27.051  24.415  -3.498  0.00  0.00     0.417 C 
HETATM   11  F   UNK N   1      25.896  23.899  -4.057  0.00  0.00    -0.166 F 
HETATM   12  F   UNK N   1      27.458  23.583  -2.469  0.00  0.00    -0.166 F 
HETATM   13  F   UNK N   1      26.784  25.668  -2.979  0.00  0.00    -0.166 F 
ENDBRANCH   8  10
ENDBRANCH   3   4
ENDBRANCH   2   3
BRANCH   2  14
HETATM   14  N   UNK N   1      27.088  21.664  -8.699  0.00  0.00    -0.415 N 
HETATM   15  H   UNK N   1      27.210  21.815  -9.700  0.00  0.00     0.153 HD
BRANCH  14  16
HETATM   16  C   UNK N   1      25.796  21.423  -8.053  0.00  0.00     0.141 C 
BRANCH  16  17
HETATM   17  C   UNK N   1      25.376  22.581  -7.144  0.00  0.00     0.198 C 
BRANCH  17  18
HETATM   18  O   UNK N   1      24.904  23.644  -7.881  0.00  0.00    -0.316 OA
BRANCH  18  19
HETATM   19  C   UNK N   1      25.658  24.680  -8.349  0.00  0.00     0.293 C 
HETATM   20  O   UNK N   1      26.060  24.625  -9.499  0.00  0.00    -0.259 OA
BRANCH  19  21
HETATM   21  C   UNK N   1      26.036  25.860  -7.510  0.00  0.00     0.039 A 
HETATM   22  C   UNK N   1      27.154  26.629  -7.872  0.00  0.00     0.017 A 
HETATM   23  C   UNK N   1      27.547  27.720  -7.094  0.00  0.00     0.001 A 
HETATM   24  C   UNK N   1      26.819  28.065  -5.952  0.00  0.00     0.000 A 
HETATM   25  C   UNK N   1      25.695  27.321  -5.592  0.00  0.00     0.001 A 
HETATM   26  C   UNK N   1      25.309  26.225  -6.366  0.00  0.00     0.017 A 
ENDBRANCH  19  21
ENDBRANCH  18  19
ENDBRANCH  17  18
ENDBRANCH  16  17
ENDBRANCH  14  16
ENDBRANCH   2  14
TORSDOF 9
ENDMDL
MODEL 3
REMARK VINA RESULT:      -7.1     17.635     20.493
REMARK  9 active torsions:
REMARK  status: ('A' for Active; 'I' for Inactive)
REMARK    1  A    between atoms: C_11  and  C_10 
REMARK    2  A    between atoms: N_23  and  C_10 
REMARK    3  A    between atoms: O_25  and  C_11 
REMARK    4  A    between atoms: C_14  and  C_12 
REMARK    5  A    between atoms: C_15  and  C_12 
REMARK    6  A    between atoms: N_23  and  C_14 
REMARK    7  A    between atoms: C_18  and  C_16 
REMARK    8  A    between atoms: C_19  and  C_17 
REMARK    9  A    between atoms: O_25  and  C_18 
ROOT
HETATM    1  C   UNK N   1      29.589  25.357  -4.881  0.00  0.00     0.032 C 
HETATM    2  C   UNK N   1      28.643  24.301  -4.307  0.00  0.00     0.076 C 
ENDROOT
BRANCH   2   3
HETATM    3  C   UNK N   1      29.297  23.330  -3.321  0.00  0.00     0.062 C 
BRANCH   3   4
HETATM    4  C   UNK N   1      30.172  22.295  -3.940  0.00  0.00    -0.056 A 
HETATM    5  C   UNK N   1      29.802  21.687  -5.145  0.00  0.00     0.007 A 
HETATM    6  C   UNK N   1      30.655  20.767  -5.756  0.00  0.00     0.001 A 
HETATM    7  C   UNK N   1      31.887  20.462  -5.172  0.00  0.00     0.016 A 
HETATM    8  C   UNK N   1      32.268  21.072  -3.968  0.00  0.00     0.048 A 
HETATM    9  C   UNK N   1      31.405  21.993  -3.357  0.00  0.00     0.023 A 
BRANCH   8  10
HETATM   10  C   UNK N   1      33.596  20.741  -3.354  0.00  0.00     0.417 C 
HETATM   11  F   UNK N   1      33.872  19.401  -3.553  0.00  0.00    -0.166 F 
HETATM   12  F   UNK N   1      34.610  21.494  -3.922  0.00  0.00    -0.166 F 
HETATM   13  F   UNK N   1      33.556  21.001  -1.997  0.00  0.00    -0.166 F 
ENDBRANCH   8  10
ENDBRANCH   3   4
ENDBRANCH   2   3
BRANCH   2  14
HETATM   14  N   UNK N   1      27.452  24.903  -3.700  0.00  0.00    -0.415 N 
HETATM   15  H   UNK N   1      27.470  25.723  -3.094  0.00  0.00     0.153 HD
BRANCH  14  16
HETATM   16  C   UNK N   1      26.234  24.178  -4.072  0.00  0.00     0.141 C 
BRANCH  16  17
HETATM   17  C   UNK N   1      26.068  24.061  -5.589  0.00  0.00     0.198 C 
BRANCH  17  18
HETATM   18  O   UNK N   1      25.271  25.072  -6.079  0.00  0.00    -0.316 OA
BRANCH  18  19
HETATM   19  C   UNK N   1      25.716  26.191  -6.720  0.00  0.00     0.293 C 
HETATM   20  O   UNK N   1      25.717  26.192  -7.940  0.00  0.00    -0.259 OA
BRANCH  19  21
HETATM   21  C   UNK N   1      26.227  27.398  -5.999  0.00  0.00     0.039 A 
HETATM   22  C   UNK N   1      25.610  27.795  -4.802  0.00  0.00     0.017 A 
HETATM   23  C   UNK N   1      26.048  28.933  -4.121  0.00  0.00     0.001 A 
HETATM   24  C   UNK N   1      27.118  29.680  -4.620  0.00  0.00     0.000 A 
HETATM   25  C   UNK N   1      27.752  29.286  -5.799  0.00  0.00     0.001 A 
HETATM   26  C   UNK N   1      27.306  28.154  -6.484  0.00  0.00     0.017 A 
ENDBRANCH  19  21
ENDBRANCH  18  19
ENDBRANCH  17  18
ENDBRANCH  16  17
ENDBRANCH  14  16
ENDBRANCH   2  14
TORSDOF 9
ENDMDL
MODEL 4
REMARK VINA RESULT:      -7.0     18.335     21.193
REMARK  9 active torsions:
REMARK  status: ('A' for Active; 'I' for Inactive)
REMARK    1  A    between atoms: C_11  and  C_10 
REMARK    2  A    between atoms: N_23  and  C_10 
REMARK    3  A    between atoms: O_25  and  C_11 
REMARK    4  A    between atoms: C_14  and  C_12 
REMARK    5  A    between atoms: C_15  and  C_12 
REMARK    6  A    between atoms: N_23  and  C_14 
REMARK    7  A    between atoms: C_18  and  C_16 
REMARK    8  A    between atoms: C_19  and  C_17 
REMARK    9  A    between atoms: O_25  and  C_18 
ROOT
HETATM    1  C   UNK N   1      31.562  28.605  -4.987  0.00  0.00     0.032 C 
HETATM    2  C   UNK N   1      30.052  28.359  -4.986  0.00  0.00     0.076 C 
ENDROOT
BRANCH   2   3
HETATM    3  C   UNK N   1      29.574  27.339  -3.951  0.00  0.00     0.062 C 
BRANCH   3   4
HETATM    4  C   UNK N   1      29.670  25.914  -4.378  0.00  0.00    -0.056 A 
HETATM    5  C   UNK N   1      29.532  25.572  -5.728  0.00  0.00     0.007 A 
HETATM    6  C   UNK N   1      29.689  24.245  -6.133  0.00  0.00     0.001 A 
HETATM    7  C   UNK N   1      29.999  23.260  -5.193  0.00  0.00     0.016 A 
HETATM    8  C   UNK N   1      30.145  23.596  -3.839  0.00  0.00     0.048 A 
HETATM    9  C   UNK N   1      29.984  24.929  -3.438  0.00  0.00     0.023 A 
BRANCH   8  10
HETATM   10  C   UNK N   1      30.485  22.530  -2.841  0.00  0.00     0.417 C 
HETATM   11  F   UNK N   1      30.005  21.313  -3.288  0.00  0.00    -0.166 F 
HETATM   12  F   UNK N   1      31.855  22.430  -2.662  0.00  0.00    -0.166 F 
HETATM   13  F   UNK N   1      29.899  22.831  -1.625  0.00  0.00    -0.166 F 
ENDBRANCH   8  10
ENDBRANCH   3   4
ENDBRANCH   2   3
BRANCH   2  14
HETATM   14  N   UNK N   1      29.293  29.607  -4.844  0.00  0.00    -0.415 N 
HETATM   15  H   UNK N   1      29.671  30.465  -4.444  0.00  0.00     0.153 HD
BRANCH  14  16
HETATM   16  C   UNK N   1      27.925  29.465  -5.349  0.00  0.00     0.141 C 
BRANCH  16  17
HETATM   17  C   UNK N   1      26.877  29.848  -4.301  0.00  0.00     0.198 C 
BRANCH  17  18
HETATM   18  O   UNK N   1      25.853  28.927  -4.264  0.00  0.00    -0.316 OA
BRANCH  18  19
HETATM   19  C   UNK N   1      25.921  27.690  -3.694  0.00  0.00     0.293 C 
HETATM   20  O   UNK N   1      25.982  27.620  -2.478  0.00  0.00    -0.259 OA
BRANCH  19  21
HETATM   21  C   UNK N   1      25.952  26.423  -4.490  0.00  0.00     0.039 A 
HETATM   22  C   UNK N   1      26.256  25.214  -3.843  0.00  0.00     0.017 A 
HETATM   23  C   UNK N   1      26.319  24.020  -4.565  0.00  0.00     0.001 A 
HETATM   24  C   UNK N   1      26.064  24.016  -5.938  0.00  0.00     0.000 A 
HETATM   25  C   UNK N   1      25.742  25.208  -6.590  0.00  0.00     0.001 A 
HETATM   26  C   UNK N   1      25.689  26.402  -5.869  0.00  0.00     0.017 A 
ENDBRANCH  19  21
ENDBRANCH  18  19
ENDBRANCH  17  18
ENDBRANCH  16  17
ENDBRANCH  14  16
ENDBRANCH   2  14
TORSDOF 9
ENDMDL
MODEL 5
REMARK VINA RESULT:      -7.0     18.770     21.259
REMARK  9 active torsions:
REMARK  status: ('A' for Active; 'I' for Inactive)
REMARK    1  A    between atoms: C_11  and  C_10 
REMARK    2  A    between atoms: N_23  and  C_10 
REMARK    3  A    between atoms: O_25  and  C_11 
REMARK    4  A    between atoms: C_14  and  C_12 
REMARK    5  A    between atoms: C_15  and  C_12 
REMARK    6  A    between atoms: N_23  and  C_14 
REMARK    7  A    between atoms: C_18  and  C_16 
REMARK    8  A    between atoms: C_19  and  C_17 
REMARK    9  A    between atoms: O_25  and  C_18 
ROOT
HETATM    1  C   UNK N   1      28.876  20.801  -9.643  0.00  0.00     0.032 C 
HETATM    2  C   UNK N   1      28.200  21.472  -8.446  0.00  0.00     0.076 C 
ENDROOT
BRANCH   2   3
HETATM    3  C   UNK N   1      29.078  22.480  -7.702  0.00  0.00     0.062 C 
BRANCH   3   4
HETATM    4  C   UNK N   1      29.514  22.054  -6.341  0.00  0.00    -0.056 A 
HETATM    5  C   UNK N   1      30.245  20.873  -6.173  0.00  0.00     0.007 A 
HETATM    6  C   UNK N   1      30.709  20.512  -4.907  0.00  0.00     0.001 A 
HETATM    7  C   UNK N   1      30.454  21.336  -3.808  0.00  0.00     0.016 A 
HETATM    8  C   UNK N   1      29.728  22.524  -3.970  0.00  0.00     0.048 A 
HETATM    9  C   UNK N   1      29.262  22.881  -5.244  0.00  0.00     0.023 A 
BRANCH   8  10
HETATM   10  C   UNK N   1      29.467  23.405  -2.784  0.00  0.00     0.417 C 
HETATM   11  F   UNK N   1      30.298  23.029  -1.745  0.00  0.00    -0.166 F 
HETATM   12  F   UNK N   1      29.705  24.735  -3.087  0.00  0.00    -0.166 F 
HETATM   13  F   UNK N   1      28.151  23.267  -2.386  0.00  0.00    -0.166 F 
ENDBRANCH   8  10
ENDBRANCH   3   4
ENDBRANCH   2   3
BRANCH   2  14
HETATM   14  N   UNK N   1      26.925  22.096  -8.815  0.00  0.00    -0.415 N 
HETATM   15  H   UNK N   1      26.823  22.807  -9.539  0.00  0.00     0.153 HD
BRANCH  14  16
HETATM   16  C   UNK N   1      25.817  21.572  -8.012  0.00  0.00     0.141 C 
BRANCH  16  17
HETATM   17  C   UNK N   1      25.552  22.419  -6.765  0.00  0.00     0.198 C 
BRANCH  17  18
HETATM   18  O   UNK N   1      25.141  23.688  -7.106  0.00  0.00    -0.316 OA
BRANCH  18  19
HETATM   19  C   UNK N   1      25.891  24.821  -6.991  0.00  0.00     0.293 C 
HETATM   20  O   UNK N   1      26.602  25.137  -7.930  0.00  0.00    -0.259 OA
BRANCH  19  21
HETATM   21  C   UNK N   1      25.902  25.674  -5.761  0.00  0.00     0.039 A 
HETATM   22  C   UNK N   1      25.305  26.944  -5.801  0.00  0.00     0.017 A 
HETATM   23  C   UNK N   1      25.324  27.772  -4.676  0.00  0.00     0.001 A 
HETATM   24  C   UNK N   1      25.927  27.336  -3.494  0.00  0.00     0.000 A 
HETATM   25  C   UNK N   1      26.508  26.068  -3.436  0.00  0.00     0.001 A 
HETATM   26  C   UNK N   1      26.497  25.246  -4.563  0.00  0.00     0.017 A 
ENDBRANCH  19  21
ENDBRANCH  18  19
ENDBRANCH  17  18
ENDBRANCH  16  17
ENDBRANCH  14  16
ENDBRANCH   2  14
TORSDOF 9
ENDMDL
MODEL 6
REMARK VINA RESULT:      -7.0     18.320     21.246
REMARK  9 active torsions:
REMARK  status: ('A' for Active; 'I' for Inactive)
REMARK    1  A    between atoms: C_11  and  C_10 
REMARK    2  A    between atoms: N_23  and  C_10 
REMARK    3  A    between atoms: O_25  and  C_11 
REMARK    4  A    between atoms: C_14  and  C_12 
REMARK    5  A    between atoms: C_15  and  C_12 
REMARK    6  A    between atoms: N_23  and  C_14 
REMARK    7  A    between atoms: C_18  and  C_16 
REMARK    8  A    between atoms: C_19  and  C_17 
REMARK    9  A    between atoms: O_25  and  C_18 
ROOT
HETATM    1  C   UNK N   1      25.345  27.676  -4.512  0.00  0.00     0.032 C 
HETATM    2  C   UNK N   1      25.990  26.513  -5.269  0.00  0.00     0.076 C 
ENDROOT
BRANCH   2   3
HETATM    3  C   UNK N   1      26.407  25.334  -4.387  0.00  0.00     0.062 C 
BRANCH   3   4
HETATM    4  C   UNK N   1      27.872  25.220  -4.136  0.00  0.00    -0.056 A 
HETATM    5  C   UNK N   1      28.727  26.281  -4.457  0.00  0.00     0.007 A 
HETATM    6  C   UNK N   1      30.088  26.197  -4.160  0.00  0.00     0.001 A 
HETATM    7  C   UNK N   1      30.596  25.060  -3.528  0.00  0.00     0.016 A 
HETATM    8  C   UNK N   1      29.745  23.996  -3.197  0.00  0.00     0.048 A 
HETATM    9  C   UNK N   1      28.379  24.084  -3.501  0.00  0.00     0.023 A 
BRANCH   8  10
HETATM   10  C   UNK N   1      30.301  22.783  -2.513  0.00  0.00     0.417 C 
HETATM   11  F   UNK N   1      29.728  21.647  -3.055  0.00  0.00    -0.166 F 
HETATM   12  F   UNK N   1      31.675  22.707  -2.669  0.00  0.00    -0.166 F 
HETATM   13  F   UNK N   1      30.009  22.839  -1.163  0.00  0.00    -0.166 F 
ENDBRANCH   8  10
ENDBRANCH   3   4
ENDBRANCH   2   3
BRANCH   2  14
HETATM   14  N   UNK N   1      25.145  26.039  -6.370  0.00  0.00    -0.415 N 
HETATM   15  H   UNK N   1      24.155  25.814  -6.276  0.00  0.00     0.153 HD
BRANCH  14  16
HETATM   16  C   UNK N   1      25.902  25.929  -7.620  0.00  0.00     0.141 C 
BRANCH  16  17
HETATM   17  C   UNK N   1      25.606  24.625  -8.365  0.00  0.00     0.198 C 
BRANCH  17  18
HETATM   18  O   UNK N   1      26.711  23.804  -8.386  0.00  0.00    -0.316 OA
BRANCH  18  19
HETATM   19  C   UNK N   1      27.199  23.105  -7.322  0.00  0.00     0.293 C 
HETATM   20  O   UNK N   1      26.402  22.556  -6.581  0.00  0.00    -0.259 OA
BRANCH  19  21
HETATM   21  C   UNK N   1      28.659  23.005  -7.008  0.00  0.00     0.039 A 
HETATM   22  C   UNK N   1      29.507  24.074  -7.340  0.00  0.00     0.017 A 
HETATM   23  C   UNK N   1      30.878  23.999  -7.083  0.00  0.00     0.001 A 
HETATM   24  C   UNK N   1      31.416  22.861  -6.478  0.00  0.00     0.000 A 
HETATM   25  C   UNK N   1      30.582  21.799  -6.125  0.00  0.00     0.001 A 
HETATM   26  C   UNK N   1      29.213  21.872  -6.391  0.00  0.00     0.017 A 
ENDBRANCH  19  21
ENDBRANCH  18  19
ENDBRANCH  17  18
ENDBRANCH  16  17
ENDBRANCH  14  16
ENDBRANCH   2  14
TORSDOF 9
ENDMDL
MODEL 7
REMARK VINA RESULT:      -7.0      4.926      9.583
REMARK  9 active torsions:
REMARK  status: ('A' for Active; 'I' for Inactive)
REMARK    1  A    between atoms: C_11  and  C_10 
REMARK    2  A    between atoms: N_23  and  C_10 
REMARK    3  A    between atoms: O_25  and  C_11 
REMARK    4  A    between atoms: C_14  and  C_12 
REMARK    5  A    between atoms: C_15  and  C_12 
REMARK    6  A    between atoms: N_23  and  C_14 
REMARK    7  A    between atoms: C_18  and  C_16 
REMARK    8  A    between atoms: C_19  and  C_17 
REMARK    9  A    between atoms: O_25  and  C_18 
ROOT
HETATM    1  C   UNK N   1      35.282  12.129   9.984  0.00  0.00     0.032 C 
HETATM    2  C   UNK N   1      34.776  13.566  10.123  0.00  0.00     0.076 C 
ENDROOT
BRANCH   2   3
HETATM    3  C   UNK N   1      33.571  13.904   9.243  0.00  0.00     0.062 C 
BRANCH   3   4
HETATM    4  C   UNK N   1      33.398  15.354   8.939  0.00  0.00    -0.056 A 
HETATM    5  C   UNK N   1      34.505  16.139   8.596  0.00  0.00     0.007 A 
HETATM    6  C   UNK N   1      34.330  17.479   8.248  0.00  0.00     0.001 A 
HETATM    7  C   UNK N   1      33.049  18.034   8.228  0.00  0.00     0.016 A 
HETATM    8  C   UNK N   1      31.935  17.252   8.564  0.00  0.00     0.048 A 
HETATM    9  C   UNK N   1      32.116  15.908   8.916  0.00  0.00     0.023 A 
BRANCH   8  10
HETATM   10  C   UNK N   1      30.563  17.858   8.532  0.00  0.00     0.417 C 
HETATM   11  F   UNK N   1      30.624  19.154   9.012  0.00  0.00    -0.166 F 
HETATM   12  F   UNK N   1      30.058  17.884   7.243  0.00  0.00    -0.166 F 
HETATM   13  F   UNK N   1      29.711  17.117   9.330  0.00  0.00    -0.166 F 
ENDBRANCH   8  10
ENDBRANCH   3   4
ENDBRANCH   2   3
BRANCH   2  14
HETATM   14  N   UNK N   1      34.488  13.914  11.519  0.00  0.00    -0.415 N 
HETATM   15  H   UNK N   1      33.606  13.714  11.989  0.00  0.00     0.153 HD
BRANCH  14  16
HETATM   16  C   UNK N   1      35.626  14.586  12.152  0.00  0.00     0.141 C 
BRANCH  16  17
HETATM   17  C   UNK N   1      35.973  13.981  13.514  0.00  0.00     0.198 C 
BRANCH  17  18
HETATM   18  O   UNK N   1      34.843  13.519  14.153  0.00  0.00    -0.316 OA
BRANCH  18  19
HETATM   19  C   UNK N   1      34.760  12.371  14.885  0.00  0.00     0.293 C 
HETATM   20  O   UNK N   1      34.466  11.340  14.304  0.00  0.00    -0.259 OA
BRANCH  19  21
HETATM   21  C   UNK N   1      34.984  12.325  16.364  0.00  0.00     0.039 A 
HETATM   22  C   UNK N   1      35.199  11.085  16.986  0.00  0.00     0.017 A 
HETATM   23  C   UNK N   1      35.384  11.008  18.369  0.00  0.00     0.001 A 
HETATM   24  C   UNK N   1      35.370  12.170  19.144  0.00  0.00     0.000 A 
HETATM   25  C   UNK N   1      35.176  13.411  18.535  0.00  0.00     0.001 A 
HETATM   26  C   UNK N   1      34.982  13.485  17.154  0.00  0.00     0.017 A 
ENDBRANCH  19  21
ENDBRANCH  18  19
ENDBRANCH  17  18
ENDBRANCH  16  17
ENDBRANCH  14  16
ENDBRANCH   2  14
TORSDOF 9
ENDMDL
MODEL 8
REMARK VINA RESULT:      -7.0     21.689     24.252
REMARK  9 active torsions:
REMARK  status: ('A' for Active; 'I' for Inactive)
REMARK    1  A    between atoms: C_11  and  C_10 
REMARK    2  A    between atoms: N_23  and  C_10 
REMARK    3  A    between atoms: O_25  and  C_11 
REMARK    4  A    between atoms: C_14  and  C_12 
REMARK    5  A    between atoms: C_15  and  C_12 
REMARK    6  A    between atoms: N_23  and  C_14 
REMARK    7  A    between atoms: C_18  and  C_16 
REMARK    8  A    between atoms: C_19  and  C_17 
REMARK    9  A    between atoms: O_25  and  C_18 
ROOT
HETATM    1  C   UNK N   1      29.965  25.289  -8.630  0.00  0.00     0.032 C 
HETATM    2  C   UNK N   1      28.506  25.678  -8.877  0.00  0.00     0.076 C 
ENDROOT
BRANCH   2   3
HETATM    3  C   UNK N   1      28.253  27.186  -8.951  0.00  0.00     0.062 C 
BRANCH   3   4
HETATM    4  C   UNK N   1      27.926  27.835  -7.649  0.00  0.00    -0.056 A 
HETATM    5  C   UNK N   1      28.575  29.014  -7.267  0.00  0.00     0.007 A 
HETATM    6  C   UNK N   1      28.220  29.655  -6.079  0.00  0.00     0.001 A 
HETATM    7  C   UNK N   1      27.205  29.126  -5.277  0.00  0.00     0.016 A 
HETATM    8  C   UNK N   1      26.546  27.948  -5.657  0.00  0.00     0.048 A 
HETATM    9  C   UNK N   1      26.909  27.308  -6.849  0.00  0.00     0.023 A 
BRANCH   8  10
HETATM   10  C   UNK N   1      25.454  27.395  -4.790  0.00  0.00     0.417 C 
HETATM   11  F   UNK N   1      25.141  28.314  -3.805  0.00  0.00    -0.166 F 
HETATM   12  F   UNK N   1      24.314  27.130  -5.531  0.00  0.00    -0.166 F 
HETATM   13  F   UNK N   1      25.882  26.222  -4.198  0.00  0.00    -0.166 F 
ENDBRANCH   8  10
ENDBRANCH   3   4
ENDBRANCH   2   3
BRANCH   2  14
HETATM   14  N   UNK N   1      27.957  25.021 -10.068  0.00  0.00    -0.415 N 
HETATM   15  H   UNK N   1      28.465  24.339 -10.631  0.00  0.00     0.153 HD
BRANCH  14  16
HETATM   16  C   UNK N   1      26.590  25.468 -10.348  0.00  0.00     0.141 C 
BRANCH  16  17
HETATM   17  C   UNK N   1      25.602  24.301 -10.427  0.00  0.00     0.198 C 
BRANCH  17  18
HETATM   18  O   UNK N   1      24.952  24.120  -9.227  0.00  0.00    -0.316 OA
BRANCH  18  19
HETATM   19  C   UNK N   1      25.166  23.091  -8.358  0.00  0.00     0.293 C 
HETATM   20  O   UNK N   1      24.299  22.239  -8.253  0.00  0.00    -0.259 OA
BRANCH  19  21
HETATM   21  C   UNK N   1      26.395  22.975  -7.512  0.00  0.00     0.039 A 
HETATM   22  C   UNK N   1      26.528  23.796  -6.381  0.00  0.00     0.017 A 
HETATM   23  C   UNK N   1      27.676  23.730  -5.588  0.00  0.00     0.001 A 
HETATM   24  C   UNK N   1      28.698  22.831  -5.907  0.00  0.00     0.000 A 
HETATM   25  C   UNK N   1      28.568  21.996  -7.017  0.00  0.00     0.001 A 
HETATM   26  C   UNK N   1      27.425  22.071  -7.814  0.00  0.00     0.017 A 
ENDBRANCH  19  21
ENDBRANCH  18  19
ENDBRANCH  17  18
ENDBRANCH  16  17
ENDBRANCH  14  16
ENDBRANCH   2  14
TORSDOF 9
ENDMDL
MODEL 9
REMARK VINA RESULT:      -6.9      1.507      2.245
REMARK  9 active torsions:
REMARK  status: ('A' for Active; 'I' for Inactive)
REMARK    1  A    between atoms: C_11  and  C_10 
REMARK    2  A    between atoms: N_23  and  C_10 
REMARK    3  A    between atoms: O_25  and  C_11 
REMARK    4  A    between atoms: C_14  and  C_12 
REMARK    5  A    between atoms: C_15  and  C_12 
REMARK    6  A    between atoms: N_23  and  C_14 
REMARK    7  A    between atoms: C_18  and  C_16 
REMARK    8  A    between atoms: C_19  and  C_17 
REMARK    9  A    between atoms: O_25  and  C_18 
ROOT
HETATM    1  C   UNK N   1      35.085  12.647  12.486  0.00  0.00     0.032 C 
HETATM    2  C   UNK N   1      35.654  13.988  12.955  0.00  0.00     0.076 C 
ENDROOT
BRANCH   2   3
HETATM    3  C   UNK N   1      36.711  13.881  14.056  0.00  0.00     0.062 C 
BRANCH   3   4
HETATM    4  C   UNK N   1      36.367  12.954  15.172  0.00  0.00    -0.056 A 
HETATM    5  C   UNK N   1      35.480  13.358  16.177  0.00  0.00     0.007 A 
HETATM    6  C   UNK N   1      35.110  12.466  17.183  0.00  0.00     0.001 A 
HETATM    7  C   UNK N   1      35.613  11.162  17.181  0.00  0.00     0.016 A 
HETATM    8  C   UNK N   1      36.497  10.748  16.174  0.00  0.00     0.048 A 
HETATM    9  C   UNK N   1      36.868  11.650  15.168  0.00  0.00     0.023 A 
BRANCH   8  10
HETATM   10  C   UNK N   1      37.024   9.344  16.179  0.00  0.00     0.417 C 
HETATM   11  F   UNK N   1      37.033   8.863  17.476  0.00  0.00    -0.166 F 
HETATM   12  F   UNK N   1      36.238   8.512  15.401  0.00  0.00    -0.166 F 
HETATM   13  F   UNK N   1      38.313   9.333  15.681  0.00  0.00    -0.166 F 
ENDBRANCH   8  10
ENDBRANCH   3   4
ENDBRANCH   2   3
BRANCH   2  14
HETATM   14  N   UNK N   1      36.176  14.782  11.838  0.00  0.00    -0.415 N 
HETATM   15  H   UNK N   1      37.016  14.546  11.310  0.00  0.00     0.153 HD
BRANCH  14  16
HETATM   16  C   UNK N   1      35.341  15.958  11.577  0.00  0.00     0.141 C 
BRANCH  16  17
HETATM   17  C   UNK N   1      35.279  16.307  10.087  0.00  0.00     0.198 C 
BRANCH  17  18
HETATM   18  O   UNK N   1      34.871  17.608   9.900  0.00  0.00    -0.316 OA
BRANCH  18  19
HETATM   19  C   UNK N   1      34.655  18.205   8.692  0.00  0.00     0.293 C 
HETATM   20  O   UNK N   1      35.355  19.156   8.388  0.00  0.00    -0.259 OA
BRANCH  19  21
HETATM   21  C   UNK N   1      33.585  17.766   7.742  0.00  0.00     0.039 A 
HETATM   22  C   UNK N   1      32.260  17.670   8.198  0.00  0.00     0.017 A 
HETATM   23  C   UNK N   1      31.245  17.237   7.342  0.00  0.00     0.001 A 
HETATM   24  C   UNK N   1      31.538  16.909   6.016  0.00  0.00     0.000 A 
HETATM   25  C   UNK N   1      32.848  17.019   5.545  0.00  0.00     0.001 A 
HETATM   26  C   UNK N   1      33.863  17.442   6.405  0.00  0.00     0.017 A 
ENDBRANCH  19  21
ENDBRANCH  18  19
ENDBRANCH  17  18
ENDBRANCH  16  17
ENDBRANCH  14  16
ENDBRANCH   2  14
TORSDOF 9
ENDMDL
