MODEL 1
REMARK VINA RESULT:      -4.2      0.000      0.000
REMARK  7 active torsions:
REMARK  status: ('A' for Active; 'I' for Inactive)
REMARK    1  A    between atoms: C_2  and  C_3 
REMARK    2  A    between atoms: C_3  and  C_4 
REMARK    3  A    between atoms: C_4  and  C_5 
REMARK    4  A    between atoms: C_5  and  C_6 
REMARK    5  A    between atoms: C_6  and  C_7 
REMARK    6  A    between atoms: C_7  and  N_9 
REMARK    7  A    between atoms: N_9  and  N_10 
ROOT
HETATM    1  C   UNK N   1      23.613  11.908  11.325  0.00  0.00     0.094 C 
HETATM    2  C   UNK N   1      23.099  11.910  12.761  0.00  0.00     0.033 C 
ENDROOT
BRANCH   1   3
HETATM    3  C   UNK N   1      22.706  12.753  10.437  0.00  0.00     0.026 C 
BRANCH   3   4
HETATM    4  C   UNK N   1      21.242  12.467  10.725  0.00  0.00     0.002 C 
BRANCH   4   5
HETATM    5  C   UNK N   1      20.369  13.565  10.154  0.00  0.00     0.000 C 
BRANCH   5   6
HETATM    6  C   UNK N   1      21.250  14.541   9.404  0.00  0.00    -0.000 C 
BRANCH   6   7
HETATM    7  C   UNK N   1      20.628  14.884   8.068  0.00  0.00    -0.005 C 
HETATM    8  C   UNK N   1      21.616  15.691   7.252  0.00  0.00     0.005 C 
ENDBRANCH   6   7
ENDBRANCH   5   6
ENDBRANCH   4   5
ENDBRANCH   3   4
ENDBRANCH   1   3
BRANCH   1   9
HETATM    9  N   UNK N   1      24.960  12.458  11.281  0.00  0.00    -0.339 N 
HETATM   10  H   UNK N   1      25.712  12.262  11.942  0.00  0.00     0.180 HD
BRANCH   9  11
HETATM   11  N   UNK N   1      25.040  13.309  10.165  0.00  0.00    -0.349 N 
HETATM   12  H   UNK N   1      24.258  13.586   9.573  0.00  0.00     0.176 HD
HETATM   13  H   UNK N   1      25.960  13.682   9.928  0.00  0.00     0.176 HD
ENDBRANCH   9  11
ENDBRANCH   1   9
TORSDOF 7
ENDMDL
MODEL 2
REMARK VINA RESULT:      -3.9      1.536      1.878
REMARK  7 active torsions:
REMARK  status: ('A' for Active; 'I' for Inactive)
REMARK    1  A    between atoms: C_2  and  C_3 
REMARK    2  A    between atoms: C_3  and  C_4 
REMARK    3  A    between atoms: C_4  and  C_5 
REMARK    4  A    between atoms: C_5  and  C_6 
REMARK    5  A    between atoms: C_6  and  C_7 
REMARK    6  A    between atoms: C_7  and  N_9 
REMARK    7  A    between atoms: N_9  and  N_10 
ROOT
HETATM    1  C   UNK N   1      22.767  12.026  10.931  0.00  0.00     0.094 C 
HETATM    2  C   UNK N   1      21.475  11.987  11.738  0.00  0.00     0.033 C 
ENDROOT
BRANCH   1   3
HETATM    3  C   UNK N   1      22.696  13.120   9.871  0.00  0.00     0.026 C 
BRANCH   3   4
HETATM    4  C   UNK N   1      21.365  13.850   9.928  0.00  0.00     0.002 C 
BRANCH   4   5
HETATM    5  C   UNK N   1      21.169  14.687   8.682  0.00  0.00     0.000 C 
BRANCH   5   6
HETATM    6  C   UNK N   1      19.961  15.577   8.884  0.00  0.00    -0.000 C 
BRANCH   6   7
HETATM    7  C   UNK N   1      20.232  16.958   8.327  0.00  0.00    -0.005 C 
HETATM    8  C   UNK N   1      19.376  17.968   9.063  0.00  0.00     0.005 C 
ENDBRANCH   6   7
ENDBRANCH   5   6
ENDBRANCH   4   5
ENDBRANCH   3   4
ENDBRANCH   1   3
BRANCH   1   9
HETATM    9  N   UNK N   1      23.894  12.295  11.812  0.00  0.00    -0.339 N 
HETATM   10  H   UNK N   1      23.885  12.249  12.831  0.00  0.00     0.180 HD
BRANCH   9  11
HETATM   11  N   UNK N   1      24.997  12.630  11.008  0.00  0.00    -0.349 N 
HETATM   12  H   UNK N   1      25.909  12.178  11.034  0.00  0.00     0.176 HD
HETATM   13  H   UNK N   1      24.873  13.392  10.340  0.00  0.00     0.176 HD
ENDBRANCH   9  11
ENDBRANCH   1   9
TORSDOF 7
ENDMDL
MODEL 3
REMARK VINA RESULT:      -3.8     18.852     20.328
REMARK  7 active torsions:
REMARK  status: ('A' for Active; 'I' for Inactive)
REMARK    1  A    between atoms: C_2  and  C_3 
REMARK    2  A    between atoms: C_3  and  C_4 
REMARK    3  A    between atoms: C_4  and  C_5 
REMARK    4  A    between atoms: C_5  and  C_6 
REMARK    5  A    between atoms: C_6  and  C_7 
REMARK    6  A    between atoms: C_7  and  N_9 
REMARK    7  A    between atoms: N_9  and  N_10 
ROOT
HETATM    1  C   UNK N   1      25.511  28.152  -4.593  0.00  0.00     0.094 C 
HETATM    2  C   UNK N   1      26.887  28.518  -5.138  0.00  0.00     0.033 C 
ENDROOT
BRANCH   1   3
HETATM    3  C   UNK N   1      24.916  26.996  -5.390  0.00  0.00     0.026 C 
BRANCH   3   4
HETATM    4  C   UNK N   1      25.976  25.959  -5.719  0.00  0.00     0.002 C 
BRANCH   4   5
HETATM    5  C   UNK N   1      25.582  24.607  -5.163  0.00  0.00     0.000 C 
BRANCH   5   6
HETATM    6  C   UNK N   1      26.459  24.302  -3.967  0.00  0.00    -0.000 C 
BRANCH   6   7
HETATM    7  C   UNK N   1      27.804  24.979  -4.121  0.00  0.00    -0.005 C 
HETATM    8  C   UNK N   1      28.894  24.022  -3.685  0.00  0.00     0.005 C 
ENDBRANCH   6   7
ENDBRANCH   5   6
ENDBRANCH   4   5
ENDBRANCH   3   4
ENDBRANCH   1   3
BRANCH   1   9
HETATM    9  N   UNK N   1      25.621  27.756  -3.197  0.00  0.00    -0.339 N 
HETATM   10  H   UNK N   1      24.990  27.128  -2.698  0.00  0.00     0.180 HD
BRANCH   9  11
HETATM   11  N   UNK N   1      26.752  28.394  -2.658  0.00  0.00    -0.349 N 
HETATM   12  H   UNK N   1      26.894  28.617  -1.674  0.00  0.00     0.176 HD
HETATM   13  H   UNK N   1      27.494  28.655  -3.307  0.00  0.00     0.176 HD
ENDBRANCH   9  11
ENDBRANCH   1   9
TORSDOF 7
ENDMDL
MODEL 4
REMARK VINA RESULT:      -3.8      9.522     10.370
REMARK  7 active torsions:
REMARK  status: ('A' for Active; 'I' for Inactive)
REMARK    1  A    between atoms: C_2  and  C_3 
REMARK    2  A    between atoms: C_3  and  C_4 
REMARK    3  A    between atoms: C_4  and  C_5 
REMARK    4  A    between atoms: C_5  and  C_6 
REMARK    5  A    between atoms: C_6  and  C_7 
REMARK    6  A    between atoms: C_7  and  N_9 
REMARK    7  A    between atoms: N_9  and  N_10 
ROOT
HETATM    1  C   UNK N   1      28.942  18.324   9.472  0.00  0.00     0.094 C 
HETATM    2  C   UNK N   1      29.179  17.025  10.234  0.00  0.00     0.033 C 
ENDROOT
BRANCH   1   3
HETATM    3  C   UNK N   1      29.748  18.334   8.178  0.00  0.00     0.026 C 
BRANCH   3   4
HETATM    4  C   UNK N   1      30.378  16.977   7.918  0.00  0.00     0.002 C 
BRANCH   4   5
HETATM    5  C   UNK N   1      31.744  17.142   7.285  0.00  0.00     0.000 C 
BRANCH   5   6
HETATM    6  C   UNK N   1      32.624  17.927   8.235  0.00  0.00    -0.000 C 
BRANCH   6   7
HETATM    7  C   UNK N   1      34.043  17.975   7.712  0.00  0.00    -0.005 C 
HETATM    8  C   UNK N   1      34.105  17.261   6.377  0.00  0.00     0.005 C 
ENDBRANCH   6   7
ENDBRANCH   5   6
ENDBRANCH   4   5
ENDBRANCH   3   4
ENDBRANCH   1   3
BRANCH   1   9
HETATM    9  N   UNK N   1      27.529  18.457   9.148  0.00  0.00    -0.339 N 
HETATM   10  H   UNK N   1      26.758  17.972   9.607  0.00  0.00     0.180 HD
BRANCH   9  11
HETATM   11  N   UNK N   1      27.416  19.373   8.088  0.00  0.00    -0.349 N 
HETATM   12  H   UNK N   1      26.544  19.751   7.721  0.00  0.00     0.176 HD
HETATM   13  H   UNK N   1      28.282  19.687   7.649  0.00  0.00     0.176 HD
ENDBRANCH   9  11
ENDBRANCH   1   9
TORSDOF 7
ENDMDL
MODEL 5
REMARK VINA RESULT:      -3.8     14.093     15.330
REMARK  7 active torsions:
REMARK  status: ('A' for Active; 'I' for Inactive)
REMARK    1  A    between atoms: C_2  and  C_3 
REMARK    2  A    between atoms: C_3  and  C_4 
REMARK    3  A    between atoms: C_4  and  C_5 
REMARK    4  A    between atoms: C_5  and  C_6 
REMARK    5  A    between atoms: C_6  and  C_7 
REMARK    6  A    between atoms: C_7  and  N_9 
REMARK    7  A    between atoms: N_9  and  N_10 
ROOT
HETATM    1  C   UNK N   1      36.398  12.600  13.642  0.00  0.00     0.094 C 
HETATM    2  C   UNK N   1      37.512  11.864  14.377  0.00  0.00     0.033 C 
ENDROOT
BRANCH   1   3
HETATM    3  C   UNK N   1      35.374  13.139  14.636  0.00  0.00     0.026 C 
BRANCH   3   4
HETATM    4  C   UNK N   1      36.014  13.404  15.988  0.00  0.00     0.002 C 
BRANCH   4   5
HETATM    5  C   UNK N   1      35.078  12.991  17.104  0.00  0.00     0.000 C 
BRANCH   5   6
HETATM    6  C   UNK N   1      35.297  11.522  17.398  0.00  0.00    -0.000 C 
BRANCH   6   7
HETATM    7  C   UNK N   1      35.494  11.310  18.883  0.00  0.00    -0.005 C 
HETATM    8  C   UNK N   1      35.246  12.617  19.608  0.00  0.00     0.005 C 
ENDBRANCH   6   7
ENDBRANCH   5   6
ENDBRANCH   4   5
ENDBRANCH   3   4
ENDBRANCH   1   3
BRANCH   1   9
HETATM    9  N   UNK N   1      36.954  13.715  12.888  0.00  0.00    -0.339 N 
HETATM   10  H   UNK N   1      36.818  14.705  13.090  0.00  0.00     0.180 HD
BRANCH   9  11
HETATM   11  N   UNK N   1      37.713  13.182  11.832  0.00  0.00    -0.349 N 
HETATM   12  H   UNK N   1      38.596  12.682  11.929  0.00  0.00     0.176 HD
HETATM   13  H   UNK N   1      37.348  13.305  10.887  0.00  0.00     0.176 HD
ENDBRANCH   9  11
ENDBRANCH   1   9
TORSDOF 7
ENDMDL
MODEL 6
REMARK VINA RESULT:      -3.8     14.151     15.009
REMARK  7 active torsions:
REMARK  status: ('A' for Active; 'I' for Inactive)
REMARK    1  A    between atoms: C_2  and  C_3 
REMARK    2  A    between atoms: C_3  and  C_4 
REMARK    3  A    between atoms: C_4  and  C_5 
REMARK    4  A    between atoms: C_5  and  C_6 
REMARK    5  A    between atoms: C_6  and  C_7 
REMARK    6  A    between atoms: C_7  and  N_9 
REMARK    7  A    between atoms: N_9  and  N_10 
ROOT
HETATM    1  C   UNK N   1      35.742  13.600  14.454  0.00  0.00     0.094 C 
HETATM    2  C   UNK N   1      35.712  12.311  13.641  0.00  0.00     0.033 C 
ENDROOT
BRANCH   1   3
HETATM    3  C   UNK N   1      36.152  13.308  15.894  0.00  0.00     0.026 C 
BRANCH   3   4
HETATM    4  C   UNK N   1      34.933  13.131  16.783  0.00  0.00     0.002 C 
BRANCH   4   5
HETATM    5  C   UNK N   1      35.222  12.128  17.880  0.00  0.00     0.000 C 
BRANCH   5   6
HETATM    6  C   UNK N   1      35.855  10.901  17.259  0.00  0.00    -0.000 C 
BRANCH   6   7
HETATM    7  C   UNK N   1      34.786   9.997  16.686  0.00  0.00    -0.005 C 
HETATM    8  C   UNK N   1      35.400   9.115  15.619  0.00  0.00     0.005 C 
ENDBRANCH   6   7
ENDBRANCH   5   6
ENDBRANCH   4   5
ENDBRANCH   3   4
ENDBRANCH   1   3
BRANCH   1   9
HETATM    9  N   UNK N   1      36.698  14.530  13.872  0.00  0.00    -0.339 N 
HETATM   10  H   UNK N   1      36.908  14.634  12.879  0.00  0.00     0.180 HD
BRANCH   9  11
HETATM   11  N   UNK N   1      37.280  15.261  14.922  0.00  0.00    -0.349 N 
HETATM   12  H   UNK N   1      37.736  14.861  15.741  0.00  0.00     0.176 HD
HETATM   13  H   UNK N   1      37.244  16.279  14.858  0.00  0.00     0.176 HD
ENDBRANCH   9  11
ENDBRANCH   1   9
TORSDOF 7
ENDMDL
MODEL 7
REMARK VINA RESULT:      -3.7     13.271     14.762
REMARK  7 active torsions:
REMARK  status: ('A' for Active; 'I' for Inactive)
REMARK    1  A    between atoms: C_2  and  C_3 
REMARK    2  A    between atoms: C_3  and  C_4 
REMARK    3  A    between atoms: C_4  and  C_5 
REMARK    4  A    between atoms: C_5  and  C_6 
REMARK    5  A    between atoms: C_6  and  C_7 
REMARK    6  A    between atoms: C_7  and  N_9 
REMARK    7  A    between atoms: N_9  and  N_10 
ROOT
HETATM    1  C   UNK N   1      35.530  12.066  19.078  0.00  0.00     0.094 C 
HETATM    2  C   UNK N   1      35.124  10.737  18.450  0.00  0.00     0.033 C 
ENDROOT
BRANCH   1   3
HETATM    3  C   UNK N   1      35.030  13.228  18.226  0.00  0.00     0.026 C 
BRANCH   3   4
HETATM    4  C   UNK N   1      35.706  13.236  16.866  0.00  0.00     0.002 C 
BRANCH   4   5
HETATM    5  C   UNK N   1      34.680  13.053  15.767  0.00  0.00     0.000 C 
BRANCH   5   6
HETATM    6  C   UNK N   1      35.355  12.395  14.581  0.00  0.00    -0.000 C 
BRANCH   6   7
HETATM    7  C   UNK N   1      35.048  10.914  14.562  0.00  0.00    -0.005 C 
HETATM    8  C   UNK N   1      33.550  10.715  14.656  0.00  0.00     0.005 C 
ENDBRANCH   6   7
ENDBRANCH   5   6
ENDBRANCH   4   5
ENDBRANCH   3   4
ENDBRANCH   1   3
BRANCH   1   9
HETATM    9  N   UNK N   1      34.956  12.178  20.411  0.00  0.00    -0.339 N 
HETATM   10  H   UNK N   1      34.845  11.420  21.084  0.00  0.00     0.180 HD
BRANCH   9  11
HETATM   11  N   UNK N   1      34.582  13.519  20.606  0.00  0.00    -0.349 N 
HETATM   12  H   UNK N   1      33.637  13.889  20.518  0.00  0.00     0.176 HD
HETATM   13  H   UNK N   1      35.320  14.178  20.857  0.00  0.00     0.176 HD
ENDBRANCH   9  11
ENDBRANCH   1   9
TORSDOF 7
ENDMDL
MODEL 8
REMARK VINA RESULT:      -3.7     14.459     15.434
REMARK  7 active torsions:
REMARK  status: ('A' for Active; 'I' for Inactive)
REMARK    1  A    between atoms: C_2  and  C_3 
REMARK    2  A    between atoms: C_3  and  C_4 
REMARK    3  A    between atoms: C_4  and  C_5 
REMARK    4  A    between atoms: C_5  and  C_6 
REMARK    5  A    between atoms: C_6  and  C_7 
REMARK    6  A    between atoms: C_7  and  N_9 
REMARK    7  A    between atoms: N_9  and  N_10 
ROOT
HETATM    1  C   UNK N   1      36.863  14.088  15.011  0.00  0.00     0.094 C 
HETATM    2  C   UNK N   1      37.293  15.222  15.935  0.00  0.00     0.033 C 
ENDROOT
BRANCH   1   3
HETATM    3  C   UNK N   1      35.557  13.473  15.500  0.00  0.00     0.026 C 
BRANCH   3   4
HETATM    4  C   UNK N   1      35.816  12.212  16.307  0.00  0.00     0.002 C 
BRANCH   4   5
HETATM    5  C   UNK N   1      35.227  12.345  17.695  0.00  0.00     0.000 C 
BRANCH   5   6
HETATM    6  C   UNK N   1      35.346  11.010  18.400  0.00  0.00    -0.000 C 
BRANCH   6   7
HETATM    7  C   UNK N   1      34.718   9.919  17.561  0.00  0.00    -0.005 C 
HETATM    8  C   UNK N   1      34.900   8.587  18.259  0.00  0.00     0.005 C 
ENDBRANCH   6   7
ENDBRANCH   5   6
ENDBRANCH   4   5
ENDBRANCH   3   4
ENDBRANCH   1   3
BRANCH   1   9
HETATM    9  N   UNK N   1      36.668  14.598  13.661  0.00  0.00    -0.339 N 
HETATM   10  H   UNK N   1      36.325  15.525  13.412  0.00  0.00     0.180 HD
BRANCH   9  11
HETATM   11  N   UNK N   1      37.036  13.582  12.762  0.00  0.00    -0.349 N 
HETATM   12  H   UNK N   1      36.645  13.444  11.831  0.00  0.00     0.176 HD
HETATM   13  H   UNK N   1      37.757  12.928  13.067  0.00  0.00     0.176 HD
ENDBRANCH   9  11
ENDBRANCH   1   9
TORSDOF 7
ENDMDL
MODEL 9
REMARK VINA RESULT:      -3.7     19.129     21.050
REMARK  7 active torsions:
REMARK  status: ('A' for Active; 'I' for Inactive)
REMARK    1  A    between atoms: C_2  and  C_3 
REMARK    2  A    between atoms: C_3  and  C_4 
REMARK    3  A    between atoms: C_4  and  C_5 
REMARK    4  A    between atoms: C_5  and  C_6 
REMARK    5  A    between atoms: C_6  and  C_7 
REMARK    6  A    between atoms: C_7  and  N_9 
REMARK    7  A    between atoms: N_9  and  N_10 
ROOT
HETATM    1  C   UNK N   1      25.460  24.968  -5.611  0.00  0.00     0.094 C 
HETATM    2  C   UNK N   1      26.410  24.527  -4.503  0.00  0.00     0.033 C 
ENDROOT
BRANCH   1   3
HETATM    3  C   UNK N   1      25.781  26.393  -6.049  0.00  0.00     0.026 C 
BRANCH   3   4
HETATM    4  C   UNK N   1      24.922  27.399  -5.303  0.00  0.00     0.002 C 
BRANCH   4   5
HETATM    5  C   UNK N   1      25.786  28.280  -4.424  0.00  0.00     0.000 C 
BRANCH   5   6
HETATM    6  C   UNK N   1      27.010  28.696  -5.211  0.00  0.00    -0.000 C 
BRANCH   6   7
HETATM    7  C   UNK N   1      27.415  30.105  -4.839  0.00  0.00    -0.005 C 
HETATM    8  C   UNK N   1      26.458  30.638  -3.793  0.00  0.00     0.005 C 
ENDBRANCH   6   7
ENDBRANCH   5   6
ENDBRANCH   4   5
ENDBRANCH   3   4
ENDBRANCH   1   3
BRANCH   1   9
HETATM    9  N   UNK N   1      25.591  24.081  -6.758  0.00  0.00    -0.339 N 
HETATM   10  H   UNK N   1      25.859  24.356  -7.703  0.00  0.00     0.180 HD
BRANCH   9  11
HETATM   11  N   UNK N   1      25.282  22.778  -6.331  0.00  0.00    -0.349 N 
HETATM   12  H   UNK N   1      24.348  22.426  -6.130  0.00  0.00     0.176 HD
HETATM   13  H   UNK N   1      26.061  22.129  -6.213  0.00  0.00     0.176 HD
ENDBRANCH   9  11
ENDBRANCH   1   9
TORSDOF 7
ENDMDL
