REMARK  8 active torsions:
REMARK  status: ('A' for Active; 'I' for Inactive)
REMARK    1  A    between atoms: C_3  and  C_2 
REMARK    2  A    between atoms: C_4  and  C_3 
REMARK    3  A    between atoms: C_5  and  C_4 
REMARK    4  A    between atoms: C_6  and  C_5 
REMARK    5  A    between atoms: N_13  and  C_6 
REMARK    6  A    between atoms: O_18  and  C_9 
REMARK    7  A    between atoms: N_17  and  C_10 
REMARK    8  A    between atoms: O_19  and  C_10 
ROOT
HETATM    1  C   UNK N   1       3.874   4.650   0.053  0.00  0.00     0.152 A 
HETATM    2  C   UNK N   1       5.101   5.305   0.003  0.00  0.00     0.183 A 
HETATM    3  C   UNK N   1       5.121   6.694  -0.079  0.00  0.00     0.185 A 
HETATM    4  C   UNK N   1       2.748   6.737  -0.080  0.00  0.00     0.335 A 
HETATM    5  F   UNK N   1       6.255   4.596   0.049  0.00  0.00    -0.200 F 
HETATM    6  N   UNK N   1       3.956   7.382  -0.127  0.00  0.00    -0.286 N 
ATOM      7  HN  UNK N   1       3.977   8.400  -0.198  1.00  0.00     0.172 HD
HETATM    8  N   UNK N   1       2.705   5.351   0.021  0.00  0.00    -0.237 N 
HETATM    9  O   UNK N   1       1.725   7.397  -0.124  0.00  0.00    -0.246 OA
ENDROOT
BRANCH   8  10
HETATM   10  C   UNK N   1       1.464   4.611   0.127  0.00  0.00     0.227 C 
HETATM   11  N   UNK N   1       0.337   5.232   0.197  0.00  0.00    -0.356 N 
ATOM     12  HN  UNK N   1       0.333   6.251   0.147  1.00  0.00     0.163 HD
BRANCH  11  13
HETATM   13  C   UNK N   1      -0.913   4.540   0.343  0.00  0.00     0.123 C 
BRANCH  13  14
HETATM   14  C   UNK N   1      -2.031   5.549   0.474  0.00  0.00     0.020 C 
BRANCH  14  15
HETATM   15  C   UNK N   1      -2.984   5.375  -0.686  0.00  0.00     0.002 C 
BRANCH  15  16
HETATM   16  C   UNK N   1      -4.347   5.911  -0.307  0.00  0.00    -0.000 C 
BRANCH  16  17
HETATM   17  C   UNK N   1      -5.298   4.750  -0.107  0.00  0.00    -0.005 C 
HETATM   18  C   UNK N   1      -6.690   5.280   0.161  0.00  0.00     0.005 C 
ENDBRANCH  16  17
ENDBRANCH  15  16
ENDBRANCH  14  15
ENDBRANCH  13  14
ENDBRANCH  11  13
BRANCH  10  19
HETATM   19  O   UNK N   1       1.493   3.259   0.190  0.00  0.00    -0.332 OA
HETATM   20  H   UNK N   1       0.693   2.774   0.234  0.00  0.00     0.221 HD
ENDBRANCH  10  19
ENDBRANCH   8  10
BRANCH   3  21
HETATM   21  O   UNK N   1       6.290   7.355  -0.108  0.00  0.00    -0.344 OA
HETATM   22  H   UNK N   1       7.097   6.879  -0.129  0.00  0.00     0.219 HD
ENDBRANCH   3  21
TORSDOF 8
