REMARK  3 active torsions:
REMARK  status: ('A' for Active; 'I' for Inactive)
REMARK    1  A    between atoms: N_1  and  N_2 
REMARK    2  A    between atoms: N_1  and  C_4 
REMARK    3  A    between atoms: C_3  and  C_4 
ROOT
HETATM    1  C   UNK N   1       1.394   0.415  -0.337  0.00  0.00     0.127 C 
HETATM    2  C   UNK N   1       2.684  -0.382  -0.197  0.00  0.00     0.039 C 
ENDROOT
BRANCH   1   3
HETATM    3  N   UNK N   1       1.415   1.520   0.610  0.00  0.00    -0.334 N 
HETATM    4  H   UNK N   1       1.778   1.495   1.563  0.00  0.00     0.180 HD
BRANCH   3   5
HETATM    5  N   UNK N   1       0.841   2.624  -0.036  0.00  0.00    -0.349 N 
HETATM    6  H   UNK N   1       1.329   3.387  -0.506  0.00  0.00     0.176 HD
HETATM    7  H   UNK N   1      -0.178   2.670  -0.036  0.00  0.00     0.176 HD
ENDBRANCH   3   5
ENDBRANCH   1   3
BRANCH   1   8
HETATM    8  C   UNK N   1       0.147  -0.422  -0.157  0.00  0.00    -0.035 A 
HETATM    9  C   UNK N   1      -1.111   0.189  -0.270  0.00  0.00     0.009 A 
HETATM   10  C   UNK N   1      -2.279  -0.561  -0.115  0.00  0.00     0.001 A 
HETATM   11  C   UNK N   1      -2.202  -1.932   0.145  0.00  0.00     0.000 A 
HETATM   12  C   UNK N   1      -0.954  -2.552   0.252  0.00  0.00     0.001 A 
HETATM   13  C   UNK N   1       0.215  -1.801   0.104  0.00  0.00     0.009 A 
ENDBRANCH   1   8
TORSDOF 3
