MODEL 1
REMARK VINA RESULT:      -5.6      0.000      0.000
REMARK  6 active torsions:
REMARK  status: ('A' for Active; 'I' for Inactive)
REMARK    1  A    between atoms: C_12  and  C_9 
REMARK    2  A    between atoms: C_14  and  C_9 
REMARK    3  A    between atoms: C_11  and  C_10 
REMARK    4  A    between atoms: N_16  and  C_10 
REMARK    5  A    between atoms: C_14  and  C_11 
REMARK    6  A    between atoms: O_17  and  C_14 
ROOT
HETATM    1  C   UNK N   1      36.966  14.996  15.189  0.00  0.00     0.046 C 
HETATM    2  C   UNK N   1      36.459  13.669  14.631  0.00  0.00     0.063 C 
ENDROOT
BRANCH   2   3
HETATM    3  C   UNK N   1      35.221  13.169  15.398  0.00  0.00     0.076 C 
BRANCH   3   4
HETATM    4  C   UNK N   1      35.363  12.552  16.758  0.00  0.00    -0.055 A 
HETATM    5  C   UNK N   1      35.570  11.170  16.844  0.00  0.00     0.009 A 
HETATM    6  C   UNK N   1      35.621  10.539  18.090  0.00  0.00     0.024 A 
HETATM    7  C   UNK N   1      35.460  11.287  19.258  0.00  0.00     0.034 A 
HETATM    8  C   UNK N   1      35.249  12.667  19.178  0.00  0.00     0.024 A 
HETATM    9 Cl   UNK N   1      35.507  10.493  20.817  0.00  0.00    -0.084 Cl
HETATM   10  C   UNK N   1      35.190  13.296  17.931  0.00  0.00     0.009 A 
ENDBRANCH   3   4
ENDBRANCH   2   3
BRANCH   2  11
HETATM   11  C   UNK N   1      36.189  13.735  13.104  0.00  0.00     0.044 C 
HETATM   12  C   UNK N   1      35.009  12.902  12.622  0.00  0.00     0.015 C 
BRANCH  11  13
HETATM   13  C   UNK N   1      36.136  15.149  12.509  0.00  0.00     0.278 C 
BRANCH  13  14
HETATM   14  N   UNK N   1      35.711  15.155  11.119  0.00  0.00     0.080 N 
HETATM   15  C   UNK N   1      35.314  16.518  10.813  0.00  0.00     0.309 C 
HETATM   16  C   UNK N   1      36.885  14.876  10.311  0.00  0.00     0.309 C 
ENDBRANCH  13  14
ENDBRANCH  11  13
ENDBRANCH   2  11
BRANCH   2  17
HETATM   17  O   UNK N   1      37.449  12.713  14.858  0.00  0.00    -0.390 OA
HETATM   18  H   UNK N   1      37.430  12.176  15.665  0.00  0.00     0.210 HD
ENDBRANCH   2  17
TORSDOF 6
ENDMDL
MODEL 2
REMARK VINA RESULT:      -5.4      1.628      2.763
REMARK  6 active torsions:
REMARK  status: ('A' for Active; 'I' for Inactive)
REMARK    1  A    between atoms: C_12  and  C_9 
REMARK    2  A    between atoms: C_14  and  C_9 
REMARK    3  A    between atoms: C_11  and  C_10 
REMARK    4  A    between atoms: N_16  and  C_10 
REMARK    5  A    between atoms: C_14  and  C_11 
REMARK    6  A    between atoms: O_17  and  C_14 
ROOT
HETATM    1  C   UNK N   1      34.227  11.595  14.453  0.00  0.00     0.046 C 
HETATM    2  C   UNK N   1      35.039  12.518  15.358  0.00  0.00     0.063 C 
ENDROOT
BRANCH   2   3
HETATM    3  C   UNK N   1      35.918  11.719  16.338  0.00  0.00     0.076 C 
BRANCH   3   4
HETATM    4  C   UNK N   1      35.311  11.042  17.531  0.00  0.00    -0.055 A 
HETATM    5  C   UNK N   1      35.455  11.647  18.785  0.00  0.00     0.009 A 
HETATM    6  C   UNK N   1      34.981  11.011  19.935  0.00  0.00     0.024 A 
HETATM    7  C   UNK N   1      34.365   9.762  19.839  0.00  0.00     0.034 A 
HETATM    8  C   UNK N   1      34.221   9.150  18.589  0.00  0.00     0.024 A 
HETATM    9 Cl   UNK N   1      33.788   8.958  21.282  0.00  0.00    -0.084 Cl
HETATM   10  C   UNK N   1      34.702   9.785  17.440  0.00  0.00     0.009 A 
ENDBRANCH   3   4
ENDBRANCH   2   3
BRANCH   2  11
HETATM   11  C   UNK N   1      35.880  13.544  14.552  0.00  0.00     0.044 C 
HETATM   12  C   UNK N   1      36.901  14.323  15.370  0.00  0.00     0.015 C 
BRANCH  11  13
HETATM   13  C   UNK N   1      36.514  13.003  13.263  0.00  0.00     0.278 C 
BRANCH  13  14
HETATM   14  N   UNK N   1      36.541  13.989  12.196  0.00  0.00     0.080 N 
HETATM   15  C   UNK N   1      37.031  13.306  11.012  0.00  0.00     0.309 C 
HETATM   16  C   UNK N   1      35.163  14.356  11.919  0.00  0.00     0.309 C 
ENDBRANCH  13  14
ENDBRANCH  11  13
ENDBRANCH   2  11
BRANCH   2  17
HETATM   17  O   UNK N   1      34.138  13.223  16.156  0.00  0.00    -0.390 OA
HETATM   18  H   UNK N   1      33.628  12.761  16.838  0.00  0.00     0.210 HD
ENDBRANCH   2  17
TORSDOF 6
ENDMDL
MODEL 3
REMARK VINA RESULT:      -5.3      1.485      2.342
REMARK  6 active torsions:
REMARK  status: ('A' for Active; 'I' for Inactive)
REMARK    1  A    between atoms: C_12  and  C_9 
REMARK    2  A    between atoms: C_14  and  C_9 
REMARK    3  A    between atoms: C_11  and  C_10 
REMARK    4  A    between atoms: N_16  and  C_10 
REMARK    5  A    between atoms: C_14  and  C_11 
REMARK    6  A    between atoms: O_17  and  C_14 
ROOT
HETATM    1  C   UNK N   1      36.870  11.908  13.439  0.00  0.00     0.046 C 
HETATM    2  C   UNK N   1      35.453  12.349  13.082  0.00  0.00     0.063 C 
ENDROOT
BRANCH   2   3
HETATM    3  C   UNK N   1      34.413  11.739  14.040  0.00  0.00     0.076 C 
BRANCH   3   4
HETATM    4  C   UNK N   1      34.665  11.704  15.519  0.00  0.00    -0.055 A 
HETATM    5  C   UNK N   1      34.712  12.918  16.215  0.00  0.00     0.009 A 
HETATM    6  C   UNK N   1      35.028  12.940  17.576  0.00  0.00     0.024 A 
HETATM    7  C   UNK N   1      35.307  11.748  18.248  0.00  0.00     0.034 A 
HETATM    8  C   UNK N   1      35.266  10.533  17.556  0.00  0.00     0.024 A 
HETATM    9 Cl   UNK N   1      35.721  11.779  19.947  0.00  0.00    -0.084 Cl
HETATM   10  C   UNK N   1      34.956  10.513  16.193  0.00  0.00     0.009 A 
ENDBRANCH   3   4
ENDBRANCH   2   3
BRANCH   2  11
HETATM   11  C   UNK N   1      35.316  13.893  13.008  0.00  0.00     0.044 C 
HETATM   12  C   UNK N   1      36.423  14.671  13.704  0.00  0.00     0.015 C 
BRANCH  11  13
HETATM   13  C   UNK N   1      35.049  14.460  11.607  0.00  0.00     0.278 C 
BRANCH  13  14
HETATM   14  N   UNK N   1      36.100  15.360  11.159  0.00  0.00     0.080 N 
HETATM   15  C   UNK N   1      36.721  14.731  10.008  0.00  0.00     0.309 C 
HETATM   16  C   UNK N   1      35.451  16.564  10.671  0.00  0.00     0.309 C 
ENDBRANCH  13  14
ENDBRANCH  11  13
ENDBRANCH   2  11
BRANCH   2  17
HETATM   17  O   UNK N   1      35.154  11.822  11.825  0.00  0.00    -0.390 OA
HETATM   18  H   UNK N   1      34.752  12.385  11.146  0.00  0.00     0.210 HD
ENDBRANCH   2  17
TORSDOF 6
ENDMDL
MODEL 4
REMARK VINA RESULT:      -5.3      2.189      2.948
REMARK  6 active torsions:
REMARK  status: ('A' for Active; 'I' for Inactive)
REMARK    1  A    between atoms: C_12  and  C_9 
REMARK    2  A    between atoms: C_14  and  C_9 
REMARK    3  A    between atoms: C_11  and  C_10 
REMARK    4  A    between atoms: N_16  and  C_10 
REMARK    5  A    between atoms: C_14  and  C_11 
REMARK    6  A    between atoms: O_17  and  C_14 
ROOT
HETATM    1  C   UNK N   1      35.140   9.197  12.972  0.00  0.00     0.046 C 
HETATM    2  C   UNK N   1      34.671  10.648  13.036  0.00  0.00     0.063 C 
ENDROOT
BRANCH   2   3
HETATM    3  C   UNK N   1      33.780  10.901  14.267  0.00  0.00     0.076 C 
BRANCH   3   4
HETATM    4  C   UNK N   1      34.391  11.132  15.617  0.00  0.00    -0.055 A 
HETATM    5  C   UNK N   1      34.600  10.028  16.452  0.00  0.00     0.009 A 
HETATM    6  C   UNK N   1      35.086  10.205  17.750  0.00  0.00     0.024 A 
HETATM    7  C   UNK N   1      35.360  11.490  18.224  0.00  0.00     0.034 A 
HETATM    8  C   UNK N   1      35.149  12.597  17.396  0.00  0.00     0.024 A 
HETATM    9 Cl   UNK N   1      35.952  11.711  19.856  0.00  0.00    -0.084 Cl
HETATM   10  C   UNK N   1      34.656  12.419  16.100  0.00  0.00     0.009 A 
ENDBRANCH   3   4
ENDBRANCH   2   3
BRANCH   2  11
HETATM   11  C   UNK N   1      35.852  11.653  12.978  0.00  0.00     0.044 C 
HETATM   12  C   UNK N   1      37.233  11.018  12.882  0.00  0.00     0.015 C 
BRANCH  11  13
HETATM   13  C   UNK N   1      35.701  12.784  11.951  0.00  0.00     0.278 C 
BRANCH  13  14
HETATM   14  N   UNK N   1      35.204  14.015  12.543  0.00  0.00     0.080 N 
HETATM   15  C   UNK N   1      36.243  14.492  13.439  0.00  0.00     0.309 C 
HETATM   16  C   UNK N   1      35.101  14.992  11.474  0.00  0.00     0.309 C 
ENDBRANCH  13  14
ENDBRANCH  11  13
ENDBRANCH   2  11
BRANCH   2  17
HETATM   17  O   UNK N   1      33.851  10.874  11.930  0.00  0.00    -0.390 OA
HETATM   18  H   UNK N   1      32.917  10.616  11.958  0.00  0.00     0.210 HD
ENDBRANCH   2  17
TORSDOF 6
ENDMDL
MODEL 5
REMARK VINA RESULT:      -5.2      5.064      8.608
REMARK  6 active torsions:
REMARK  status: ('A' for Active; 'I' for Inactive)
REMARK    1  A    between atoms: C_12  and  C_9 
REMARK    2  A    between atoms: C_14  and  C_9 
REMARK    3  A    between atoms: C_11  and  C_10 
REMARK    4  A    between atoms: N_16  and  C_10 
REMARK    5  A    between atoms: C_14  and  C_11 
REMARK    6  A    between atoms: O_17  and  C_14 
ROOT
HETATM    1  C   UNK N   1      36.480  14.447   9.300  0.00  0.00     0.046 C 
HETATM    2  C   UNK N   1      36.101  15.054  10.648  0.00  0.00     0.063 C 
ENDROOT
BRANCH   2   3
HETATM    3  C   UNK N   1      34.711  15.714  10.601  0.00  0.00     0.076 C 
BRANCH   3   4
HETATM    4  C   UNK N   1      34.157  16.236   9.308  0.00  0.00    -0.055 A 
HETATM    5  C   UNK N   1      33.292  15.417   8.573  0.00  0.00     0.009 A 
HETATM    6  C   UNK N   1      32.821  15.826   7.324  0.00  0.00     0.024 A 
HETATM    7  C   UNK N   1      33.218  17.057   6.797  0.00  0.00     0.034 A 
HETATM    8  C   UNK N   1      34.085  17.879   7.524  0.00  0.00     0.024 A 
HETATM    9 Cl   UNK N   1      32.641  17.561   5.224  0.00  0.00    -0.084 Cl
HETATM   10  C   UNK N   1      34.561  17.465   8.771  0.00  0.00     0.009 A 
ENDBRANCH   3   4
ENDBRANCH   2   3
BRANCH   2  11
HETATM   11  C   UNK N   1      36.200  14.026  11.807  0.00  0.00     0.044 C 
HETATM   12  C   UNK N   1      37.334  13.018  11.678  0.00  0.00     0.015 C 
BRANCH  11  13
HETATM   13  C   UNK N   1      36.163  14.625  13.219  0.00  0.00     0.278 C 
BRANCH  13  14
HETATM   14  N   UNK N   1      36.496  13.654  14.248  0.00  0.00     0.080 N 
HETATM   15  C   UNK N   1      37.014  14.407  15.376  0.00  0.00     0.309 C 
HETATM   16  C   UNK N   1      35.249  13.054  14.690  0.00  0.00     0.309 C 
ENDBRANCH  13  14
ENDBRANCH  11  13
ENDBRANCH   2  11
BRANCH   2  17
HETATM   17  O   UNK N   1      36.997  16.092  10.908  0.00  0.00    -0.390 OA
HETATM   18  H   UNK N   1      37.937  15.986  10.697  0.00  0.00     0.210 HD
ENDBRANCH   2  17
TORSDOF 6
ENDMDL
MODEL 6
REMARK VINA RESULT:      -5.2     25.219     26.184
REMARK  6 active torsions:
REMARK  status: ('A' for Active; 'I' for Inactive)
REMARK    1  A    between atoms: C_12  and  C_9 
REMARK    2  A    between atoms: C_14  and  C_9 
REMARK    3  A    between atoms: C_11  and  C_10 
REMARK    4  A    between atoms: N_16  and  C_10 
REMARK    5  A    between atoms: C_14  and  C_11 
REMARK    6  A    between atoms: O_17  and  C_14 
ROOT
HETATM    1  C   UNK N   1      24.822  27.307  -5.465  0.00  0.00     0.046 C 
HETATM    2  C   UNK N   1      25.874  27.525  -4.381  0.00  0.00     0.063 C 
ENDROOT
BRANCH   2   3
HETATM    3  C   UNK N   1      26.365  26.189  -3.793  0.00  0.00     0.076 C 
BRANCH   3   4
HETATM    4  C   UNK N   1      26.682  25.030  -4.691  0.00  0.00    -0.055 A 
HETATM    5  C   UNK N   1      28.015  24.825  -5.069  0.00  0.00     0.009 A 
HETATM    6  C   UNK N   1      28.345  23.812  -5.972  0.00  0.00     0.024 A 
HETATM    7  C   UNK N   1      27.344  23.000  -6.509  0.00  0.00     0.034 A 
HETATM    8  C   UNK N   1      26.010  23.203  -6.139  0.00  0.00     0.024 A 
HETATM    9 Cl   UNK N   1      27.757  21.743  -7.654  0.00  0.00    -0.084 Cl
HETATM   10  C   UNK N   1      25.680  24.222  -5.240  0.00  0.00     0.009 A 
ENDBRANCH   3   4
ENDBRANCH   2   3
BRANCH   2  11
HETATM   11  C   UNK N   1      27.061  28.394  -4.875  0.00  0.00     0.044 C 
HETATM   12  C   UNK N   1      27.353  28.296  -6.367  0.00  0.00     0.015 C 
BRANCH  11  13
HETATM   13  C   UNK N   1      27.032  29.861  -4.422  0.00  0.00     0.278 C 
BRANCH  13  14
HETATM   14  N   UNK N   1      28.213  30.234  -3.661  0.00  0.00     0.080 N 
HETATM   15  C   UNK N   1      27.750  31.039  -2.546  0.00  0.00     0.309 C 
HETATM   16  C   UNK N   1      28.758  29.014  -3.091  0.00  0.00     0.309 C 
ENDBRANCH  13  14
ENDBRANCH  11  13
ENDBRANCH   2  11
BRANCH   2  17
HETATM   17  O   UNK N   1      25.255  28.192  -3.323  0.00  0.00    -0.390 OA
HETATM   18  H   UNK N   1      25.597  28.096  -2.421  0.00  0.00     0.210 HD
ENDBRANCH   2  17
TORSDOF 6
ENDMDL
MODEL 7
REMARK VINA RESULT:      -5.2     24.500     26.092
REMARK  6 active torsions:
REMARK  status: ('A' for Active; 'I' for Inactive)
REMARK    1  A    between atoms: C_12  and  C_9 
REMARK    2  A    between atoms: C_14  and  C_9 
REMARK    3  A    between atoms: C_11  and  C_10 
REMARK    4  A    between atoms: N_16  and  C_10 
REMARK    5  A    between atoms: C_14  and  C_11 
REMARK    6  A    between atoms: O_17  and  C_14 
ROOT
HETATM    1  C   UNK N   1      27.705  29.354  -5.596  0.00  0.00     0.046 C 
HETATM    2  C   UNK N   1      27.212  29.825  -4.230  0.00  0.00     0.063 C 
ENDROOT
BRANCH   2   3
HETATM    3  C   UNK N   1      26.118  28.896  -3.673  0.00  0.00     0.076 C 
BRANCH   3   4
HETATM    4  C   UNK N   1      25.951  27.505  -4.209  0.00  0.00    -0.055 A 
HETATM    5  C   UNK N   1      26.637  26.461  -3.578  0.00  0.00     0.009 A 
HETATM    6  C   UNK N   1      26.580  25.164  -4.094  0.00  0.00     0.024 A 
HETATM    7  C   UNK N   1      25.842  24.904  -5.251  0.00  0.00     0.034 A 
HETATM    8  C   UNK N   1      25.158  25.944  -5.889  0.00  0.00     0.024 A 
HETATM    9 Cl   UNK N   1      25.787  23.283  -5.907  0.00  0.00    -0.084 Cl
HETATM   10  C   UNK N   1      25.222  27.243  -5.375  0.00  0.00     0.009 A 
ENDBRANCH   3   4
ENDBRANCH   2   3
BRANCH   2  11
HETATM   11  C   UNK N   1      28.371  30.006  -3.214  0.00  0.00     0.044 C 
HETATM   12  C   UNK N   1      28.050  29.579  -1.788  0.00  0.00     0.015 C 
BRANCH  11  13
HETATM   13  C   UNK N   1      29.727  29.441  -3.659  0.00  0.00     0.278 C 
BRANCH  13  14
HETATM   14  N   UNK N   1      30.145  28.298  -2.864  0.00  0.00     0.080 N 
HETATM   15  C   UNK N   1      30.191  27.161  -3.765  0.00  0.00     0.309 C 
HETATM   16  C   UNK N   1      31.512  28.548  -2.443  0.00  0.00     0.309 C 
ENDBRANCH  13  14
ENDBRANCH  11  13
ENDBRANCH   2  11
BRANCH   2  17
HETATM   17  O   UNK N   1      26.593  31.062  -4.411  0.00  0.00    -0.390 OA
HETATM   18  H   UNK N   1      26.125  31.255  -5.238  0.00  0.00     0.210 HD
ENDBRANCH   2  17
TORSDOF 6
ENDMDL
MODEL 8
REMARK VINA RESULT:      -5.2      1.577      2.575
REMARK  6 active torsions:
REMARK  status: ('A' for Active; 'I' for Inactive)
REMARK    1  A    between atoms: C_12  and  C_9 
REMARK    2  A    between atoms: C_14  and  C_9 
REMARK    3  A    between atoms: C_11  and  C_10 
REMARK    4  A    between atoms: N_16  and  C_10 
REMARK    5  A    between atoms: C_14  and  C_11 
REMARK    6  A    between atoms: O_17  and  C_14 
ROOT
HETATM    1  C   UNK N   1      35.558  11.515  12.436  0.00  0.00     0.046 C 
HETATM    2  C   UNK N   1      35.782  13.000  12.710  0.00  0.00     0.063 C 
ENDROOT
BRANCH   2   3
HETATM    3  C   UNK N   1      36.569  13.221  14.015  0.00  0.00     0.076 C 
BRANCH   3   4
HETATM    4  C   UNK N   1      36.144  12.548  15.286  0.00  0.00    -0.055 A 
HETATM    5  C   UNK N   1      35.383  13.280  16.206  0.00  0.00     0.009 A 
HETATM    6  C   UNK N   1      35.038  12.723  17.440  0.00  0.00     0.024 A 
HETATM    7  C   UNK N   1      35.458  11.431  17.765  0.00  0.00     0.034 A 
HETATM    8  C   UNK N   1      36.222  10.697  16.852  0.00  0.00     0.024 A 
HETATM    9 Cl   UNK N   1      35.041  10.742  19.318  0.00  0.00    -0.084 Cl
HETATM   10  C   UNK N   1      36.573  11.258  15.621  0.00  0.00     0.009 A 
ENDBRANCH   3   4
ENDBRANCH   2   3
BRANCH   2  11
HETATM   11  C   UNK N   1      36.455  13.725  11.514  0.00  0.00     0.044 C 
HETATM   12  C   UNK N   1      37.745  13.086  11.017  0.00  0.00     0.015 C 
BRANCH  11  13
HETATM   13  C   UNK N   1      35.524  14.055  10.339  0.00  0.00     0.278 C 
BRANCH  13  14
HETATM   14  N   UNK N   1      35.774  15.373   9.780  0.00  0.00     0.080 N 
HETATM   15  C   UNK N   1      34.716  15.622   8.817  0.00  0.00     0.309 C 
HETATM   16  C   UNK N   1      35.591  16.334  10.853  0.00  0.00     0.309 C 
ENDBRANCH  13  14
ENDBRANCH  11  13
ENDBRANCH   2  11
BRANCH   2  17
HETATM   17  O   UNK N   1      34.532  13.580  12.925  0.00  0.00    -0.390 OA
HETATM   18  H   UNK N   1      33.878  13.132  13.484  0.00  0.00     0.210 HD
ENDBRANCH   2  17
TORSDOF 6
ENDMDL
MODEL 9
REMARK VINA RESULT:      -5.1      7.074     10.006
REMARK  6 active torsions:
REMARK  status: ('A' for Active; 'I' for Inactive)
REMARK    1  A    between atoms: C_12  and  C_9 
REMARK    2  A    between atoms: C_14  and  C_9 
REMARK    3  A    between atoms: C_11  and  C_10 
REMARK    4  A    between atoms: N_16  and  C_10 
REMARK    5  A    between atoms: C_14  and  C_11 
REMARK    6  A    between atoms: O_17  and  C_14 
ROOT
HETATM    1  C   UNK N   1      33.516  14.745   5.286  0.00  0.00     0.046 C 
HETATM    2  C   UNK N   1      34.019  15.724   6.345  0.00  0.00     0.063 C 
ENDROOT
BRANCH   2   3
HETATM    3  C   UNK N   1      33.314  17.089   6.233  0.00  0.00     0.076 C 
BRANCH   3   4
HETATM    4  C   UNK N   1      32.005  17.332   6.924  0.00  0.00    -0.055 A 
HETATM    5  C   UNK N   1      32.018  17.971   8.169  0.00  0.00     0.009 A 
HETATM    6  C   UNK N   1      30.832  18.141   8.889  0.00  0.00     0.024 A 
HETATM    7  C   UNK N   1      29.626  17.666   8.370  0.00  0.00     0.034 A 
HETATM    8  C   UNK N   1      29.607  17.022   7.128  0.00  0.00     0.024 A 
HETATM    9 Cl   UNK N   1      28.145  17.864   9.280  0.00  0.00    -0.084 Cl
HETATM   10  C   UNK N   1      30.796  16.847   6.413  0.00  0.00     0.009 A 
ENDBRANCH   3   4
ENDBRANCH   2   3
BRANCH   2  11
HETATM   11  C   UNK N   1      33.908  15.147   7.782  0.00  0.00     0.044 C 
HETATM   12  C   UNK N   1      33.004  13.929   7.918  0.00  0.00     0.015 C 
BRANCH  11  13
HETATM   13  C   UNK N   1      35.244  14.916   8.500  0.00  0.00     0.278 C 
BRANCH  13  14
HETATM   14  N   UNK N   1      35.201  15.302   9.901  0.00  0.00     0.080 N 
HETATM   15  C   UNK N   1      36.509  15.000  10.454  0.00  0.00     0.309 C 
HETATM   16  C   UNK N   1      35.059  16.747   9.941  0.00  0.00     0.309 C 
ENDBRANCH  13  14
ENDBRANCH  11  13
ENDBRANCH   2  11
BRANCH   2  17
HETATM   17  O   UNK N   1      35.364  15.976   6.078  0.00  0.00    -0.390 OA
HETATM   18  H   UNK N   1      35.927  15.276   5.713  0.00  0.00     0.210 HD
ENDBRANCH   2  17
TORSDOF 6
ENDMDL
