REMARK  9 active torsions:
REMARK  status: ('A' for Active; 'I' for Inactive)
REMARK    1  A    between atoms: C_17  and  N_2 
REMARK    2  A    between atoms: C_5  and  N_14 
REMARK    3  A    between atoms: C_20  and  C_7 
REMARK    4  A    between atoms: N_10  and  C_13 
REMARK       I    between atoms: C_19  and  N_14 
REMARK    5  A    between atoms: C_25  and  C_19 
REMARK    6  A    between atoms: O_36  and  C_20 
REMARK       I    between atoms: C_22  and  N_23 
REMARK    7  A    between atoms: C_32  and  C_22 
REMARK    8  A    between atoms: N_23  and  C_25 
REMARK    9  A    between atoms: N_38  and  C_32 
ROOT
HETATM    1  C   UNK N   1       3.884   1.256  -0.226  0.00  0.00     0.128 A 
HETATM    2  N   UNK N   1       4.973   0.461   0.047  0.00  0.00    -0.303 N 
HETATM    3  C   UNK N   1       3.977   2.660  -0.208  0.00  0.00     0.063 A 
HETATM    4  C   UNK N   1       6.334   2.447   0.300  0.00  0.00     0.104 A 
HETATM    5  N   UNK N   1       2.707   0.689  -0.544  0.00  0.00    -0.325 N 
ATOM      6  HN  UNK N   1       2.664  -0.329  -0.582  1.00  0.00     0.169 HD
HETATM    7  C   UNK N   1       5.205   3.261   0.067  0.00  0.00     0.204 A 
HETATM    8  C   UNK N   1       6.182   1.050   0.285  0.00  0.00     0.121 A 
HETATM    9  C   UNK N   1       1.582   1.377  -0.815  0.00  0.00     0.144 A 
HETATM   10  C   UNK N   1       2.824   3.420  -0.478  0.00  0.00     0.065 A 
HETATM   11  C   UNK N   1       1.614   2.782  -0.772  0.00  0.00     0.161 A 
HETATM   12  O   UNK N   1       5.297   4.479   0.087  0.00  0.00    -0.286 OA
HETATM   13  F   UNK N   1       0.504   3.523  -1.014  0.00  0.00    -0.202 F 
ENDROOT
BRANCH   9  14
HETATM   14  N   UNK N   1       0.397   0.634  -1.035  0.00  0.00    -0.364 N 
HETATM   15  C   UNK N   1      -0.842   1.147  -0.564  0.00  0.00     0.131 C 
HETATM   16  C   UNK N   1      -1.172   0.208   0.584  0.00  0.00     0.034 A 
HETATM   17  C   UNK N   1      -1.769  -1.090   0.116  0.00  0.00     0.096 A 
HETATM   18  C   UNK N   1      -0.288  -1.040   0.365  0.00  0.00     0.034 A 
HETATM   19  C   UNK N   1       0.467  -0.793  -0.917  0.00  0.00     0.131 C 
BRANCH  17  20
HETATM   20  N   UNK N   1      -2.543  -1.562   1.233  0.00  0.00    -0.354 N 
HETATM   21  C   UNK N   1      -3.880  -1.690   1.098  0.00  0.00     0.240 C 
HETATM   22  O   UNK N   1      -4.551  -2.051   2.051  0.00  0.00    -0.271 OA
HETATM   23  H   UNK N   1      -2.103  -1.789   2.084  0.00  0.00     0.162 HD
BRANCH  21  24
HETATM   24  C   UNK N   1      -4.518  -1.417  -0.241  0.00  0.00     0.172 C 
HETATM   25  C   UNK N   1      -5.033  -2.680  -0.906  0.00  0.00     0.042 C 
BRANCH  24  26
HETATM   26  N   UNK N   1      -5.507  -0.359  -0.225  0.00  0.00    -0.346 N 
HETATM   27  C   UNK N   1      -6.745  -0.488   0.322  0.00  0.00     0.240 C 
HETATM   28  O   UNK N   1      -7.074  -1.529   0.872  0.00  0.00    -0.271 OA
HETATM   29  H   UNK N   1      -5.269   0.504  -0.634  0.00  0.00     0.163 HD
BRANCH  27  30
HETATM   30  C   UNK N   1      -7.747   0.629   0.217  0.00  0.00     0.163 C 
HETATM   31  C   UNK N   1      -7.180   1.875  -0.444  0.00  0.00     0.041 C 
BRANCH  30  32
HETATM   32  N   UNK N   1      -8.896   0.171  -0.546  0.00  0.00    -0.419 N 
HETATM   33  H   UNK N   1      -9.577   0.708  -1.081  0.00  0.00     0.150 HD
HETATM   34  H   UNK N   1      -9.042  -0.839  -0.546  0.00  0.00     0.150 HD
ENDBRANCH  30  32
ENDBRANCH  27  30
ENDBRANCH  24  26
ENDBRANCH  21  24
ENDBRANCH  17  20
ENDBRANCH   9  14
BRANCH   2  35
HETATM   35  C   UNK N   1       4.842  -0.999   0.099  0.00  0.00     0.079 A 
HETATM   36  C   UNK N   1       5.934  -1.862  -0.149  0.00  0.00     0.146 A 
HETATM   37  C   UNK N   1       5.753  -3.254  -0.120  0.00  0.00     0.086 A 
HETATM   38  F   UNK N   1       7.154  -1.372  -0.473  0.00  0.00    -0.204 F 
HETATM   39  C   UNK N   1       4.503  -3.805   0.175  0.00  0.00     0.119 A 
HETATM   40  C   UNK N   1       3.426  -2.971   0.447  0.00  0.00     0.045 A 
HETATM   41  F   UNK N   1       4.332  -5.149   0.189  0.00  0.00    -0.206 F 
HETATM   42  C   UNK N   1       3.596  -1.591   0.408  0.00  0.00     0.036 A 
ENDBRANCH   2  35
BRANCH   4  43
HETATM   43  C   UNK N   1       7.682   3.015   0.555  0.00  0.00     0.181 C 
HETATM   44  O   UNK N   1       7.860   4.223   0.573  0.00  0.00    -0.646 OA
BRANCH  43  45
HETATM   45  O   UNK N   1       8.731   2.193   0.750  0.00  0.00    -0.772 OA
HETATM   46  H   UNK N   1       8.600   1.275   0.886  0.00  0.00     0.167 HD
ENDBRANCH  43  45
ENDBRANCH   4  43
TORSDOF 9
