MODEL 1
REMARK VINA RESULT:      -5.9      0.000      0.000
REMARK  6 active torsions:
REMARK  status: ('A' for Active; 'I' for Inactive)
REMARK    1  A    between atoms: C_14  and  C_13 
REMARK    2  A    between atoms: N_20  and  C_13 
REMARK    3  A    between atoms: O_21  and  C_14 
REMARK    4  A    between atoms: C_18  and  C_15 
REMARK    5  A    between atoms: C_18  and  C_16 
REMARK    6  A    between atoms: O_21  and  C_18 
ROOT
HETATM    1  C   UNK N   1      24.880  26.895  -5.724  0.00  0.00     0.057 C 
HETATM    2  C   UNK N   1      26.392  27.114  -5.813  0.00  0.00     0.111 C 
ENDROOT
BRANCH   2   3
HETATM    3  C   UNK N   1      26.806  28.494  -5.279  0.00  0.00    -0.020 A 
HETATM    4  C   UNK N   1      27.773  29.274  -5.941  0.00  0.00     0.010 A 
HETATM    5  C   UNK N   1      28.120  30.536  -5.452  0.00  0.00     0.001 A 
HETATM    6  C   UNK N   1      27.506  31.034  -4.301  0.00  0.00     0.000 A 
HETATM    7  C   UNK N   1      26.543  30.270  -3.637  0.00  0.00     0.001 A 
HETATM    8  C   UNK N   1      26.193  29.010  -4.125  0.00  0.00     0.010 A 
ENDBRANCH   2   3
BRANCH   2   9
HETATM    9  C   UNK N   1      27.067  26.095  -4.908  0.00  0.00    -0.019 A 
HETATM   10  C   UNK N   1      26.315  25.224  -4.106  0.00  0.00     0.012 A 
HETATM   11  C   UNK N   1      26.949  24.244  -3.337  0.00  0.00     0.024 A 
HETATM   12  C   UNK N   1      28.342  24.126  -3.365  0.00  0.00     0.034 A 
HETATM   13  C   UNK N   1      29.101  24.994  -4.150  0.00  0.00     0.024 A 
HETATM   14 Cl   UNK N   1      29.134  22.878  -2.428  0.00  0.00    -0.084 Cl
HETATM   15  C   UNK N   1      28.471  25.973  -4.919  0.00  0.00     0.012 A 
ENDBRANCH   2   9
BRANCH   2  16
HETATM   16  O   UNK N   1      26.773  26.854  -7.171  0.00  0.00    -0.369 OA
BRANCH  16  17
HETATM   17  C   UNK N   1      25.878  26.015  -7.869  0.00  0.00     0.200 C 
BRANCH  17  18
HETATM   18  C   UNK N   1      26.523  24.693  -8.266  0.00  0.00     0.297 C 
BRANCH  18  19
HETATM   19  N   UNK N   1      26.014  23.617  -7.426  0.00  0.00     0.082 N 
HETATM   20  C   UNK N   1      27.157  22.894  -6.902  0.00  0.00     0.309 C 
HETATM   21  C   UNK N   1      25.272  22.687  -8.264  0.00  0.00     0.309 C 
ENDBRANCH  18  19
ENDBRANCH  17  18
ENDBRANCH  16  17
ENDBRANCH   2  16
TORSDOF 6
ENDMDL
MODEL 2
REMARK VINA RESULT:      -5.8     23.794     26.721
REMARK  6 active torsions:
REMARK  status: ('A' for Active; 'I' for Inactive)
REMARK    1  A    between atoms: C_14  and  C_13 
REMARK    2  A    between atoms: N_20  and  C_13 
REMARK    3  A    between atoms: O_21  and  C_14 
REMARK    4  A    between atoms: C_18  and  C_15 
REMARK    5  A    between atoms: C_18  and  C_16 
REMARK    6  A    between atoms: O_21  and  C_18 
ROOT
HETATM    1  C   UNK N   1      33.669  10.932  14.679  0.00  0.00     0.057 C 
HETATM    2  C   UNK N   1      34.923  11.753  14.988  0.00  0.00     0.111 C 
ENDROOT
BRANCH   2   3
HETATM    3  C   UNK N   1      35.049  12.070  16.486  0.00  0.00    -0.020 A 
HETATM    4  C   UNK N   1      35.199  11.046  17.442  0.00  0.00     0.010 A 
HETATM    5  C   UNK N   1      35.333  11.357  18.797  0.00  0.00     0.001 A 
HETATM    6  C   UNK N   1      35.321  12.690  19.214  0.00  0.00     0.000 A 
HETATM    7  C   UNK N   1      35.175  13.715  18.275  0.00  0.00     0.001 A 
HETATM    8  C   UNK N   1      35.043  13.407  16.921  0.00  0.00     0.010 A 
ENDBRANCH   2   3
BRANCH   2   9
HETATM    9  C   UNK N   1      36.136  10.907  14.636  0.00  0.00    -0.019 A 
HETATM   10  C   UNK N   1      37.434  11.438  14.696  0.00  0.00     0.012 A 
HETATM   11  C   UNK N   1      38.544  10.627  14.442  0.00  0.00     0.024 A 
HETATM   12  C   UNK N   1      38.365   9.276  14.127  0.00  0.00     0.034 A 
HETATM   13  C   UNK N   1      37.080   8.740  14.054  0.00  0.00     0.024 A 
HETATM   14 Cl   UNK N   1      39.756   8.252  13.841  0.00  0.00    -0.084 Cl
HETATM   15  C   UNK N   1      35.970   9.547  14.307  0.00  0.00     0.012 A 
ENDBRANCH   2   9
BRANCH   2  16
HETATM   16  O   UNK N   1      34.893  12.902  14.130  0.00  0.00    -0.369 OA
BRANCH  16  17
HETATM   17  C   UNK N   1      34.803  12.591  12.756  0.00  0.00     0.200 C 
BRANCH  17  18
HETATM   18  C   UNK N   1      34.910  13.833  11.880  0.00  0.00     0.297 C 
BRANCH  18  19
HETATM   19  N   UNK N   1      36.273  14.347  11.908  0.00  0.00     0.082 N 
HETATM   20  C   UNK N   1      36.348  15.435  10.951  0.00  0.00     0.309 C 
HETATM   21  C   UNK N   1      37.173  13.305  11.438  0.00  0.00     0.309 C 
ENDBRANCH  18  19
ENDBRANCH  17  18
ENDBRANCH  16  17
ENDBRANCH   2  16
TORSDOF 6
ENDMDL
MODEL 3
REMARK VINA RESULT:      -5.5     12.535     14.881
REMARK  6 active torsions:
REMARK  status: ('A' for Active; 'I' for Inactive)
REMARK    1  A    between atoms: C_14  and  C_13 
REMARK    2  A    between atoms: N_20  and  C_13 
REMARK    3  A    between atoms: O_21  and  C_14 
REMARK    4  A    between atoms: C_18  and  C_15 
REMARK    5  A    between atoms: C_18  and  C_16 
REMARK    6  A    between atoms: O_21  and  C_18 
ROOT
HETATM    1  C   UNK N   1      27.869  16.886   8.138  0.00  0.00     0.057 C 
HETATM    2  C   UNK N   1      28.558  17.195   6.808  0.00  0.00     0.111 C 
ENDROOT
BRANCH   2   3
HETATM    3  C   UNK N   1      28.106  18.543   6.225  0.00  0.00    -0.020 A 
HETATM    4  C   UNK N   1      28.081  18.769   4.835  0.00  0.00     0.010 A 
HETATM    5  C   UNK N   1      27.646  19.995   4.325  0.00  0.00     0.001 A 
HETATM    6  C   UNK N   1      27.230  21.007   5.193  0.00  0.00     0.000 A 
HETATM    7  C   UNK N   1      27.248  20.793   6.574  0.00  0.00     0.001 A 
HETATM    8  C   UNK N   1      27.680  19.569   7.086  0.00  0.00     0.010 A 
ENDBRANCH   2   3
BRANCH   2   9
HETATM    9  C   UNK N   1      30.049  17.331   7.071  0.00  0.00    -0.019 A 
HETATM   10  C   UNK N   1      30.991  17.071   6.063  0.00  0.00     0.012 A 
HETATM   11  C   UNK N   1      32.354  17.274   6.299  0.00  0.00     0.024 A 
HETATM   12  C   UNK N   1      32.786  17.739   7.544  0.00  0.00     0.034 A 
HETATM   13  C   UNK N   1      31.860  17.990   8.557  0.00  0.00     0.024 A 
HETATM   14 Cl   UNK N   1      34.490  18.024   7.829  0.00  0.00    -0.084 Cl
HETATM   15  C   UNK N   1      30.499  17.790   8.324  0.00  0.00     0.012 A 
ENDBRANCH   2   9
BRANCH   2  16
HETATM   16  O   UNK N   1      28.338  16.066   5.951  0.00  0.00    -0.369 OA
BRANCH  16  17
HETATM   17  C   UNK N   1      27.046  15.508   6.055  0.00  0.00     0.200 C 
BRANCH  17  18
HETATM   18  C   UNK N   1      26.581  14.888   4.743  0.00  0.00     0.297 C 
BRANCH  18  19
HETATM   19  N   UNK N   1      25.434  15.621   4.224  0.00  0.00     0.082 N 
HETATM   20  C   UNK N   1      25.887  16.379   3.073  0.00  0.00     0.309 C 
HETATM   21  C   UNK N   1      25.007  16.585   5.226  0.00  0.00     0.309 C 
ENDBRANCH  18  19
ENDBRANCH  17  18
ENDBRANCH  16  17
ENDBRANCH   2  16
TORSDOF 6
ENDMDL
MODEL 4
REMARK VINA RESULT:      -5.4     12.806     14.977
REMARK  6 active torsions:
REMARK  status: ('A' for Active; 'I' for Inactive)
REMARK    1  A    between atoms: C_14  and  C_13 
REMARK    2  A    between atoms: N_20  and  C_13 
REMARK    3  A    between atoms: O_21  and  C_14 
REMARK    4  A    between atoms: C_18  and  C_15 
REMARK    5  A    between atoms: C_18  and  C_16 
REMARK    6  A    between atoms: O_21  and  C_18 
ROOT
HETATM    1  C   UNK N   1      28.907  16.493   3.728  0.00  0.00     0.057 C 
HETATM    2  C   UNK N   1      29.293  16.824   5.171  0.00  0.00     0.111 C 
ENDROOT
BRANCH   2   3
HETATM    3  C   UNK N   1      30.807  17.033   5.328  0.00  0.00    -0.020 A 
HETATM    4  C   UNK N   1      31.608  17.433   4.240  0.00  0.00     0.010 A 
HETATM    5  C   UNK N   1      32.979  17.638   4.409  0.00  0.00     0.001 A 
HETATM    6  C   UNK N   1      33.566  17.451   5.662  0.00  0.00     0.000 A 
HETATM    7  C   UNK N   1      32.782  17.057   6.749  0.00  0.00     0.001 A 
HETATM    8  C   UNK N   1      31.411  16.853   6.584  0.00  0.00     0.010 A 
ENDBRANCH   2   3
BRANCH   2   9
HETATM    9  C   UNK N   1      28.646  18.150   5.538  0.00  0.00    -0.019 A 
HETATM   10  C   UNK N   1      28.247  19.062   4.549  0.00  0.00     0.012 A 
HETATM   11  C   UNK N   1      27.586  20.243   4.900  0.00  0.00     0.024 A 
HETATM   12  C   UNK N   1      27.318  20.521   6.243  0.00  0.00     0.034 A 
HETATM   13  C   UNK N   1      27.721  19.628   7.236  0.00  0.00     0.024 A 
HETATM   14 Cl   UNK N   1      26.462  21.984   6.680  0.00  0.00    -0.084 Cl
HETATM   15  C   UNK N   1      28.380  18.448   6.889  0.00  0.00     0.012 A 
ENDBRANCH   2   9
BRANCH   2  16
HETATM   16  O   UNK N   1      28.740  15.792   5.999  0.00  0.00    -0.369 OA
BRANCH  16  17
HETATM   17  C   UNK N   1      27.646  15.114   5.419  0.00  0.00     0.200 C 
BRANCH  17  18
HETATM   18  C   UNK N   1      26.423  15.116   6.327  0.00  0.00     0.297 C 
BRANCH  18  19
HETATM   19  N   UNK N   1      25.222  15.384   5.546  0.00  0.00     0.082 N 
HETATM   20  C   UNK N   1      25.312  16.750   5.065  0.00  0.00     0.309 C 
HETATM   21  C   UNK N   1      24.069  15.321   6.431  0.00  0.00     0.309 C 
ENDBRANCH  18  19
ENDBRANCH  17  18
ENDBRANCH  16  17
ENDBRANCH   2  16
TORSDOF 6
ENDMDL
MODEL 5
REMARK VINA RESULT:      -5.4      2.984      4.900
REMARK  6 active torsions:
REMARK  status: ('A' for Active; 'I' for Inactive)
REMARK    1  A    between atoms: C_14  and  C_13 
REMARK    2  A    between atoms: N_20  and  C_13 
REMARK    3  A    between atoms: O_21  and  C_14 
REMARK    4  A    between atoms: C_18  and  C_15 
REMARK    5  A    between atoms: C_18  and  C_16 
REMARK    6  A    between atoms: O_21  and  C_18 
ROOT
HETATM    1  C   UNK N   1      29.664  25.292  -5.278  0.00  0.00     0.057 C 
HETATM    2  C   UNK N   1      28.298  24.926  -4.694  0.00  0.00     0.111 C 
ENDROOT
BRANCH   2   3
HETATM    3  C   UNK N   1      27.381  26.152  -4.564  0.00  0.00    -0.020 A 
HETATM    4  C   UNK N   1      26.603  26.366  -3.410  0.00  0.00     0.010 A 
HETATM    5  C   UNK N   1      25.792  27.499  -3.304  0.00  0.00     0.001 A 
HETATM    6  C   UNK N   1      25.749  28.430  -4.343  0.00  0.00     0.000 A 
HETATM    7  C   UNK N   1      26.519  28.230  -5.492  0.00  0.00     0.001 A 
HETATM    8  C   UNK N   1      27.332  27.101  -5.601  0.00  0.00     0.010 A 
ENDBRANCH   2   3
BRANCH   2   9
HETATM    9  C   UNK N   1      27.606  23.987  -5.669  0.00  0.00    -0.019 A 
HETATM   10  C   UNK N   1      28.337  23.269  -6.629  0.00  0.00     0.012 A 
HETATM   11  C   UNK N   1      27.695  22.354  -7.468  0.00  0.00     0.024 A 
HETATM   12  C   UNK N   1      26.317  22.147  -7.353  0.00  0.00     0.034 A 
HETATM   13  C   UNK N   1      25.579  22.863  -6.410  0.00  0.00     0.024 A 
HETATM   14 Cl   UNK N   1      25.519  20.977  -8.381  0.00  0.00    -0.084 Cl
HETATM   15  C   UNK N   1      26.217  23.777  -5.571  0.00  0.00     0.012 A 
ENDBRANCH   2   9
BRANCH   2  16
HETATM   16  O   UNK N   1      28.542  24.225  -3.467  0.00  0.00    -0.369 OA
BRANCH  16  17
HETATM   17  C   UNK N   1      29.910  24.053  -3.165  0.00  0.00     0.200 C 
BRANCH  17  18
HETATM   18  C   UNK N   1      30.153  22.842  -2.273  0.00  0.00     0.297 C 
BRANCH  18  19
HETATM   19  N   UNK N   1      31.175  21.986  -2.862  0.00  0.00     0.082 N 
HETATM   20  C   UNK N   1      31.978  22.811  -3.745  0.00  0.00     0.309 C 
HETATM   21  C   UNK N   1      30.521  20.986  -3.692  0.00  0.00     0.309 C 
ENDBRANCH  18  19
ENDBRANCH  17  18
ENDBRANCH  16  17
ENDBRANCH   2  16
TORSDOF 6
ENDMDL
MODEL 6
REMARK VINA RESULT:      -5.3     23.289     26.069
REMARK  6 active torsions:
REMARK  status: ('A' for Active; 'I' for Inactive)
REMARK    1  A    between atoms: C_14  and  C_13 
REMARK    2  A    between atoms: N_20  and  C_13 
REMARK    3  A    between atoms: O_21  and  C_14 
REMARK    4  A    between atoms: C_18  and  C_15 
REMARK    5  A    between atoms: C_18  and  C_16 
REMARK    6  A    between atoms: O_21  and  C_18 
ROOT
HETATM    1  C   UNK N   1      34.760  12.299  14.065  0.00  0.00     0.057 C 
HETATM    2  C   UNK N   1      36.207  12.648  14.416  0.00  0.00     0.111 C 
ENDROOT
BRANCH   2   3
HETATM    3  C   UNK N   1      36.294  13.613  15.608  0.00  0.00    -0.020 A 
HETATM    4  C   UNK N   1      37.173  14.714  15.598  0.00  0.00     0.010 A 
HETATM    5  C   UNK N   1      37.221  15.591  16.683  0.00  0.00     0.001 A 
HETATM    6  C   UNK N   1      36.393  15.384  17.789  0.00  0.00     0.000 A 
HETATM    7  C   UNK N   1      35.515  14.297  17.810  0.00  0.00     0.001 A 
HETATM    8  C   UNK N   1      35.464  13.420  16.726  0.00  0.00     0.010 A 
ENDBRANCH   2   3
BRANCH   2   9
HETATM    9  C   UNK N   1      36.905  11.372  14.858  0.00  0.00    -0.019 A 
HETATM   10  C   UNK N   1      36.272  10.457  15.714  0.00  0.00     0.012 A 
HETATM   11  C   UNK N   1      36.897   9.253  16.051  0.00  0.00     0.024 A 
HETATM   12  C   UNK N   1      38.161   8.953  15.534  0.00  0.00     0.034 A 
HETATM   13  C   UNK N   1      38.805   9.859  14.692  0.00  0.00     0.024 A 
HETATM   14 Cl   UNK N   1      38.930   7.432  15.931  0.00  0.00    -0.084 Cl
HETATM   15  C   UNK N   1      38.183  11.062  14.353  0.00  0.00     0.012 A 
ENDBRANCH   2   9
BRANCH   2  16
HETATM   16  O   UNK N   1      36.826  13.123  13.212  0.00  0.00    -0.369 OA
BRANCH  16  17
HETATM   17  C   UNK N   1      35.917  13.397  12.168  0.00  0.00     0.200 C 
BRANCH  17  18
HETATM   18  C   UNK N   1      36.559  14.201  11.044  0.00  0.00     0.297 C 
BRANCH  18  19
HETATM   19  N   UNK N   1      35.589  15.127  10.475  0.00  0.00     0.082 N 
HETATM   20  C   UNK N   1      34.311  14.862  11.108  0.00  0.00     0.309 C 
HETATM   21  C   UNK N   1      35.433  14.825   9.061  0.00  0.00     0.309 C 
ENDBRANCH  18  19
ENDBRANCH  17  18
ENDBRANCH  16  17
ENDBRANCH   2  16
TORSDOF 6
ENDMDL
MODEL 7
REMARK VINA RESULT:      -5.2     12.245     14.532
REMARK  6 active torsions:
REMARK  status: ('A' for Active; 'I' for Inactive)
REMARK    1  A    between atoms: C_14  and  C_13 
REMARK    2  A    between atoms: N_20  and  C_13 
REMARK    3  A    between atoms: O_21  and  C_14 
REMARK    4  A    between atoms: C_18  and  C_15 
REMARK    5  A    between atoms: C_18  and  C_16 
REMARK    6  A    between atoms: O_21  and  C_18 
ROOT
HETATM    1  C   UNK N   1      27.799  16.590   7.429  0.00  0.00     0.057 C 
HETATM    2  C   UNK N   1      28.517  17.145   6.197  0.00  0.00     0.111 C 
ENDROOT
BRANCH   2   3
HETATM    3  C   UNK N   1      27.997  18.537   5.806  0.00  0.00    -0.020 A 
HETATM    4  C   UNK N   1      27.772  19.533   6.776  0.00  0.00     0.010 A 
HETATM    5  C   UNK N   1      27.319  20.799   6.397  0.00  0.00     0.001 A 
HETATM    6  C   UNK N   1      27.087  21.086   5.050  0.00  0.00     0.000 A 
HETATM    7  C   UNK N   1      27.309  20.106   4.079  0.00  0.00     0.001 A 
HETATM    8  C   UNK N   1      27.763  18.841   4.454  0.00  0.00     0.010 A 
ENDBRANCH   2   3
BRANCH   2   9
HETATM    9  C   UNK N   1      29.984  17.330   6.552  0.00  0.00    -0.019 A 
HETATM   10  C   UNK N   1      30.391  17.526   7.881  0.00  0.00     0.012 A 
HETATM   11  C   UNK N   1      31.749  17.620   8.199  0.00  0.00     0.024 A 
HETATM   12  C   UNK N   1      32.712  17.518   7.190  0.00  0.00     0.034 A 
HETATM   13  C   UNK N   1      32.319  17.335   5.865  0.00  0.00     0.024 A 
HETATM   14 Cl   UNK N   1      34.413  17.603   7.593  0.00  0.00    -0.084 Cl
HETATM   15  C   UNK N   1      30.964  17.240   5.544  0.00  0.00     0.012 A 
ENDBRANCH   2   9
BRANCH   2  16
HETATM   16  O   UNK N   1      28.410  16.152   5.168  0.00  0.00    -0.369 OA
BRANCH  16  17
HETATM   17  C   UNK N   1      27.452  15.149   5.434  0.00  0.00     0.200 C 
BRANCH  17  18
HETATM   18  C   UNK N   1      26.912  14.519   4.156  0.00  0.00     0.297 C 
BRANCH  18  19
HETATM   19  N   UNK N   1      27.367  15.274   2.996  0.00  0.00     0.082 N 
HETATM   20  C   UNK N   1      26.190  15.764   2.306  0.00  0.00     0.309 C 
HETATM   21  C   UNK N   1      28.045  14.363   2.087  0.00  0.00     0.309 C 
ENDBRANCH  18  19
ENDBRANCH  17  18
ENDBRANCH  16  17
ENDBRANCH   2  16
TORSDOF 6
ENDMDL
MODEL 8
REMARK VINA RESULT:      -5.2     15.922     17.923
REMARK  6 active torsions:
REMARK  status: ('A' for Active; 'I' for Inactive)
REMARK    1  A    between atoms: C_14  and  C_13 
REMARK    2  A    between atoms: N_20  and  C_13 
REMARK    3  A    between atoms: O_21  and  C_14 
REMARK    4  A    between atoms: C_18  and  C_15 
REMARK    5  A    between atoms: C_18  and  C_16 
REMARK    6  A    between atoms: O_21  and  C_18 
ROOT
HETATM    1  C   UNK N   1      33.436  18.343   8.084  0.00  0.00     0.057 C 
HETATM    2  C   UNK N   1      32.518  17.126   7.951  0.00  0.00     0.111 C 
ENDROOT
BRANCH   2   3
HETATM    3  C   UNK N   1      31.033  17.514   8.038  0.00  0.00    -0.020 A 
HETATM    4  C   UNK N   1      30.112  17.108   7.053  0.00  0.00     0.010 A 
HETATM    5  C   UNK N   1      28.763  17.453   7.162  0.00  0.00     0.001 A 
HETATM    6  C   UNK N   1      28.318  18.204   8.251  0.00  0.00     0.000 A 
HETATM    7  C   UNK N   1      29.222  18.611   9.236  0.00  0.00     0.001 A 
HETATM    8  C   UNK N   1      30.570  18.266   9.131  0.00  0.00     0.010 A 
ENDBRANCH   2   3
BRANCH   2   9
HETATM    9  C   UNK N   1      32.717  16.536   6.565  0.00  0.00    -0.019 A 
HETATM   10  C   UNK N   1      33.097  17.342   5.480  0.00  0.00     0.012 A 
HETATM   11  C   UNK N   1      33.349  16.772   4.229  0.00  0.00     0.024 A 
HETATM   12  C   UNK N   1      33.223  15.390   4.051  0.00  0.00     0.034 A 
HETATM   13  C   UNK N   1      32.834  14.581   5.119  0.00  0.00     0.024 A 
HETATM   14 Cl   UNK N   1      33.569  14.673   2.493  0.00  0.00    -0.084 Cl
HETATM   15  C   UNK N   1      32.583  15.148   6.370  0.00  0.00     0.012 A 
ENDBRANCH   2   9
BRANCH   2  16
HETATM   16  O   UNK N   1      32.947  16.170   8.930  0.00  0.00    -0.369 OA
BRANCH  16  17
HETATM   17  C   UNK N   1      34.269  16.366   9.385  0.00  0.00     0.200 C 
BRANCH  17  18
HETATM   18  C   UNK N   1      35.152  15.153   9.123  0.00  0.00     0.297 C 
BRANCH  18  19
HETATM   19  N   UNK N   1      35.877  14.793  10.334  0.00  0.00     0.082 N 
HETATM   20  C   UNK N   1      35.890  15.959  11.197  0.00  0.00     0.309 C 
HETATM   21  C   UNK N   1      37.260  14.512   9.981  0.00  0.00     0.309 C 
ENDBRANCH  18  19
ENDBRANCH  17  18
ENDBRANCH  16  17
ENDBRANCH   2  16
TORSDOF 6
ENDMDL
MODEL 9
REMARK VINA RESULT:      -5.0     12.630     15.414
REMARK  6 active torsions:
REMARK  status: ('A' for Active; 'I' for Inactive)
REMARK    1  A    between atoms: C_14  and  C_13 
REMARK    2  A    between atoms: N_20  and  C_13 
REMARK    3  A    between atoms: O_21  and  C_14 
REMARK    4  A    between atoms: C_18  and  C_15 
REMARK    5  A    between atoms: C_18  and  C_16 
REMARK    6  A    between atoms: O_21  and  C_18 
ROOT
HETATM    1  C   UNK N   1      28.507  15.910   5.436  0.00  0.00     0.057 C 
HETATM    2  C   UNK N   1      29.504  17.032   5.733  0.00  0.00     0.111 C 
ENDROOT
BRANCH   2   3
HETATM    3  C   UNK N   1      29.419  17.505   7.193  0.00  0.00    -0.020 A 
HETATM    4  C   UNK N   1      28.229  17.382   7.935  0.00  0.00     0.010 A 
HETATM    5  C   UNK N   1      28.179  17.799   9.267  0.00  0.00     0.001 A 
HETATM    6  C   UNK N   1      29.314  18.341   9.874  0.00  0.00     0.000 A 
HETATM    7  C   UNK N   1      30.502  18.466   9.149  0.00  0.00     0.001 A 
HETATM    8  C   UNK N   1      30.555  18.048   7.818  0.00  0.00     0.010 A 
ENDBRANCH   2   3
BRANCH   2   9
HETATM    9  C   UNK N   1      30.906  16.473   5.555  0.00  0.00    -0.019 A 
HETATM   10  C   UNK N   1      31.899  17.203   4.881  0.00  0.00     0.012 A 
HETATM   11  C   UNK N   1      33.203  16.708   4.792  0.00  0.00     0.024 A 
HETATM   12  C   UNK N   1      33.527  15.480   5.375  0.00  0.00     0.034 A 
HETATM   13  C   UNK N   1      32.546  14.740   6.037  0.00  0.00     0.024 A 
HETATM   14 Cl   UNK N   1      35.167  14.875   5.290  0.00  0.00    -0.084 Cl
HETATM   15  C   UNK N   1      31.243  15.232   6.129  0.00  0.00     0.012 A 
ENDBRANCH   2   9
BRANCH   2  16
HETATM   16  O   UNK N   1      29.284  18.057   4.754  0.00  0.00    -0.369 OA
BRANCH  16  17
HETATM   17  C   UNK N   1      28.102  17.888   4.001  0.00  0.00     0.200 C 
BRANCH  17  18
HETATM   18  C   UNK N   1      27.219  19.129   4.033  0.00  0.00     0.297 C 
BRANCH  18  19
HETATM   19  N   UNK N   1      26.408  19.132   5.244  0.00  0.00     0.082 N 
HETATM   20  C   UNK N   1      25.020  19.013   4.838  0.00  0.00     0.309 C 
HETATM   21  C   UNK N   1      26.550  20.426   5.894  0.00  0.00     0.309 C 
ENDBRANCH  18  19
ENDBRANCH  17  18
ENDBRANCH  16  17
ENDBRANCH   2  16
TORSDOF 6
ENDMDL
