MODEL 1
REMARK VINA RESULT:      -4.7      0.000      0.000
REMARK  3 active torsions:
REMARK  status: ('A' for Active; 'I' for Inactive)
REMARK    1  A    between atoms: N_1  and  N_2 
REMARK    2  A    between atoms: N_1  and  C_4 
REMARK    3  A    between atoms: C_3  and  C_4 
ROOT
HETATM    1  C   UNK N   1      35.685  13.392  15.233  0.00  0.00     0.127 C 
HETATM    2  C   UNK N   1      35.120  12.489  14.145  0.00  0.00     0.039 C 
ENDROOT
BRANCH   1   3
HETATM    3  N   UNK N   1      37.077  13.687  14.928  0.00  0.00    -0.334 N 
HETATM    4  H   UNK N   1      37.840  13.012  14.862  0.00  0.00     0.180 HD
BRANCH   3   5
HETATM    5  N   UNK N   1      37.171  15.074  14.744  0.00  0.00    -0.349 N 
HETATM    6  H   UNK N   1      36.402  15.738  14.652  0.00  0.00     0.176 HD
HETATM    7  H   UNK N   1      38.113  15.462  14.696  0.00  0.00     0.176 HD
ENDBRANCH   3   5
ENDBRANCH   1   3
BRANCH   1   8
HETATM    8  C   UNK N   1      35.552  12.814  16.625  0.00  0.00    -0.035 A 
HETATM    9  C   UNK N   1      35.765  11.441  16.820  0.00  0.00     0.009 A 
HETATM   10  C   UNK N   1      35.655  10.881  18.095  0.00  0.00     0.001 A 
HETATM   11  C   UNK N   1      35.341  11.690  19.190  0.00  0.00     0.000 A 
HETATM   12  C   UNK N   1      35.134  13.060  19.008  0.00  0.00     0.001 A 
HETATM   13  C   UNK N   1      35.237  13.620  17.732  0.00  0.00     0.009 A 
ENDBRANCH   1   8
TORSDOF 3
ENDMDL
MODEL 2
REMARK VINA RESULT:      -4.6     12.840     14.939
REMARK  3 active torsions:
REMARK  status: ('A' for Active; 'I' for Inactive)
REMARK    1  A    between atoms: N_1  and  N_2 
REMARK    2  A    between atoms: N_1  and  C_4 
REMARK    3  A    between atoms: C_3  and  C_4 
ROOT
HETATM    1  C   UNK N   1      28.601  18.901   7.939  0.00  0.00     0.127 C 
HETATM    2  C   UNK N   1      29.488  17.692   7.673  0.00  0.00     0.039 C 
ENDROOT
BRANCH   1   3
HETATM    3  N   UNK N   1      27.604  18.546   8.938  0.00  0.00    -0.334 N 
HETATM    4  H   UNK N   1      27.072  19.193   9.520  0.00  0.00     0.180 HD
BRANCH   3   5
HETATM    5  N   UNK N   1      27.514  17.147   8.948  0.00  0.00    -0.349 N 
HETATM    6  H   UNK N   1      28.263  16.479   8.764  0.00  0.00     0.176 HD
HETATM    7  H   UNK N   1      26.598  16.753   9.163  0.00  0.00     0.176 HD
ENDBRANCH   3   5
ENDBRANCH   1   3
BRANCH   1   8
HETATM    8  C   UNK N   1      27.941  19.448   6.693  0.00  0.00    -0.035 A 
HETATM    9  C   UNK N   1      27.087  20.557   6.800  0.00  0.00     0.009 A 
HETATM   10  C   UNK N   1      26.470  21.087   5.665  0.00  0.00     0.001 A 
HETATM   11  C   UNK N   1      26.706  20.521   4.409  0.00  0.00     0.000 A 
HETATM   12  C   UNK N   1      27.560  19.421   4.290  0.00  0.00     0.001 A 
HETATM   13  C   UNK N   1      28.173  18.886   5.426  0.00  0.00     0.009 A 
ENDBRANCH   1   8
TORSDOF 3
ENDMDL
MODEL 3
REMARK VINA RESULT:      -4.5     16.474     17.719
REMARK  3 active torsions:
REMARK  status: ('A' for Active; 'I' for Inactive)
REMARK    1  A    between atoms: N_1  and  N_2 
REMARK    2  A    between atoms: N_1  and  C_4 
REMARK    3  A    between atoms: C_3  and  C_4 
ROOT
HETATM    1  C   UNK N   1      43.828  22.628   3.306  0.00  0.00     0.127 C 
HETATM    2  C   UNK N   1      44.872  21.699   3.912  0.00  0.00     0.039 C 
ENDROOT
BRANCH   1   3
HETATM    3  N   UNK N   1      43.579  23.725   4.229  0.00  0.00    -0.334 N 
HETATM    4  H   UNK N   1      43.424  24.702   3.981  0.00  0.00     0.180 HD
BRANCH   3   5
HETATM    5  N   UNK N   1      43.593  23.184   5.522  0.00  0.00    -0.349 N 
HETATM    6  H   UNK N   1      42.953  23.398   6.288  0.00  0.00     0.176 HD
HETATM    7  H   UNK N   1      44.324  22.501   5.720  0.00  0.00     0.176 HD
ENDBRANCH   3   5
ENDBRANCH   1   3
BRANCH   1   8
HETATM    8  C   UNK N   1      42.538  21.927   2.944  0.00  0.00    -0.035 A 
HETATM    9  C   UNK N   1      42.283  20.648   3.462  0.00  0.00     0.009 A 
HETATM   10  C   UNK N   1      41.097  19.981   3.149  0.00  0.00     0.001 A 
HETATM   11  C   UNK N   1      40.147  20.589   2.324  0.00  0.00     0.000 A 
HETATM   12  C   UNK N   1      40.387  21.866   1.809  0.00  0.00     0.001 A 
HETATM   13  C   UNK N   1      41.577  22.531   2.116  0.00  0.00     0.009 A 
ENDBRANCH   1   8
TORSDOF 3
ENDMDL
MODEL 4
REMARK VINA RESULT:      -4.5      2.747      3.726
REMARK  3 active torsions:
REMARK  status: ('A' for Active; 'I' for Inactive)
REMARK    1  A    between atoms: N_1  and  N_2 
REMARK    2  A    between atoms: N_1  and  C_4 
REMARK    3  A    between atoms: C_3  and  C_4 
ROOT
HETATM    1  C   UNK N   1      35.099  13.743  18.318  0.00  0.00     0.127 C 
HETATM    2  C   UNK N   1      36.067  14.832  17.875  0.00  0.00     0.039 C 
ENDROOT
BRANCH   1   3
HETATM    3  N   UNK N   1      35.533  13.219  19.604  0.00  0.00    -0.334 N 
HETATM    4  H   UNK N   1      36.372  12.666  19.782  0.00  0.00     0.180 HD
BRANCH   3   5
HETATM    5  N   UNK N   1      34.579  13.616  20.552  0.00  0.00    -0.349 N 
HETATM    6  H   UNK N   1      33.567  13.500  20.495  0.00  0.00     0.176 HD
HETATM    7  H   UNK N   1      34.936  14.071  21.392  0.00  0.00     0.176 HD
ENDBRANCH   3   5
ENDBRANCH   1   3
BRANCH   1   8
HETATM    8  C   UNK N   1      34.945  12.628  17.308  0.00  0.00    -0.035 A 
HETATM    9  C   UNK N   1      35.252  11.313  17.687  0.00  0.00     0.009 A 
HETATM   10  C   UNK N   1      35.113  10.262  16.777  0.00  0.00     0.001 A 
HETATM   11  C   UNK N   1      34.656  10.515  15.481  0.00  0.00     0.000 A 
HETATM   12  C   UNK N   1      34.339  11.820  15.095  0.00  0.00     0.001 A 
HETATM   13  C   UNK N   1      34.485  12.872  16.003  0.00  0.00     0.009 A 
ENDBRANCH   1   8
TORSDOF 3
ENDMDL
MODEL 5
REMARK VINA RESULT:      -4.5     26.242     27.190
REMARK  3 active torsions:
REMARK  status: ('A' for Active; 'I' for Inactive)
REMARK    1  A    between atoms: N_1  and  N_2 
REMARK    2  A    between atoms: N_1  and  C_4 
REMARK    3  A    between atoms: C_3  and  C_4 
ROOT
HETATM    1  C   UNK N   1      26.117  23.852  -5.457  0.00  0.00     0.127 C 
HETATM    2  C   UNK N   1      27.567  23.495  -5.754  0.00  0.00     0.039 C 
ENDROOT
BRANCH   1   3
HETATM    3  N   UNK N   1      25.321  23.640  -6.657  0.00  0.00    -0.334 N 
HETATM    4  H   UNK N   1      25.035  24.353  -7.329  0.00  0.00     0.180 HD
BRANCH   3   5
HETATM    5  N   UNK N   1      25.021  22.272  -6.712  0.00  0.00    -0.349 N 
HETATM    6  H   UNK N   1      24.095  21.843  -6.745  0.00  0.00     0.176 HD
HETATM    7  H   UNK N   1      25.816  21.633  -6.722  0.00  0.00     0.176 HD
ENDBRANCH   3   5
ENDBRANCH   1   3
BRANCH   1   8
HETATM    8  C   UNK N   1      25.939  25.262  -4.937  0.00  0.00    -0.035 A 
HETATM    9  C   UNK N   1      25.205  26.185  -5.698  0.00  0.00     0.009 A 
HETATM   10  C   UNK N   1      25.020  27.491  -5.240  0.00  0.00     0.001 A 
HETATM   11  C   UNK N   1      25.557  27.886  -4.011  0.00  0.00     0.000 A 
HETATM   12  C   UNK N   1      26.283  26.972  -3.243  0.00  0.00     0.001 A 
HETATM   13  C   UNK N   1      26.475  25.667  -3.704  0.00  0.00     0.009 A 
ENDBRANCH   1   8
TORSDOF 3
ENDMDL
MODEL 6
REMARK VINA RESULT:      -4.3     26.134     27.416
REMARK  3 active torsions:
REMARK  status: ('A' for Active; 'I' for Inactive)
REMARK    1  A    between atoms: N_1  and  N_2 
REMARK    2  A    between atoms: N_1  and  C_4 
REMARK    3  A    between atoms: C_3  and  C_4 
ROOT
HETATM    1  C   UNK N   1      25.717  28.014  -4.366  0.00  0.00     0.127 C 
HETATM    2  C   UNK N   1      26.741  28.994  -4.922  0.00  0.00     0.039 C 
ENDROOT
BRANCH   1   3
HETATM    3  N   UNK N   1      25.840  27.972  -2.916  0.00  0.00    -0.334 N 
HETATM    4  H   UNK N   1      25.245  27.451  -2.272  0.00  0.00     0.180 HD
BRANCH   3   5
HETATM    5  N   UNK N   1      26.930  28.785  -2.574  0.00  0.00    -0.349 N 
HETATM    6  H   UNK N   1      27.289  28.974  -1.639  0.00  0.00     0.176 HD
HETATM    7  H   UNK N   1      27.417  29.239  -3.347  0.00  0.00     0.176 HD
ENDBRANCH   3   5
ENDBRANCH   1   3
BRANCH   1   8
HETATM    8  C   UNK N   1      25.832  26.625  -4.954  0.00  0.00    -0.035 A 
HETATM    9  C   UNK N   1      26.192  25.555  -4.120  0.00  0.00     0.009 A 
HETATM   10  C   UNK N   1      26.300  24.261  -4.635  0.00  0.00     0.001 A 
HETATM   11  C   UNK N   1      26.039  24.021  -5.987  0.00  0.00     0.000 A 
HETATM   12  C   UNK N   1      25.672  25.078  -6.824  0.00  0.00     0.001 A 
HETATM   13  C   UNK N   1      25.571  26.374  -6.312  0.00  0.00     0.009 A 
ENDBRANCH   1   8
TORSDOF 3
ENDMDL
MODEL 7
REMARK VINA RESULT:      -4.3      1.962      2.682
REMARK  3 active torsions:
REMARK  status: ('A' for Active; 'I' for Inactive)
REMARK    1  A    between atoms: N_1  and  N_2 
REMARK    2  A    between atoms: N_1  and  C_4 
REMARK    3  A    between atoms: C_3  and  C_4 
ROOT
HETATM    1  C   UNK N   1      35.647  11.563  15.291  0.00  0.00     0.127 C 
HETATM    2  C   UNK N   1      36.832  12.227  14.603  0.00  0.00     0.039 C 
ENDROOT
BRANCH   1   3
HETATM    3  N   UNK N   1      34.431  11.893  14.563  0.00  0.00    -0.334 N 
HETATM    4  H   UNK N   1      34.247  12.755  14.049  0.00  0.00     0.180 HD
BRANCH   3   5
HETATM    5  N   UNK N   1      33.560  10.804  14.703  0.00  0.00    -0.349 N 
HETATM    6  H   UNK N   1      33.766   9.899  15.128  0.00  0.00     0.176 HD
HETATM    7  H   UNK N   1      32.615  10.929  14.340  0.00  0.00     0.176 HD
ENDBRANCH   3   5
ENDBRANCH   1   3
BRANCH   1   8
HETATM    8  C   UNK N   1      35.514  11.931  16.752  0.00  0.00    -0.035 A 
HETATM    9  C   UNK N   1      35.257  13.266  17.101  0.00  0.00     0.009 A 
HETATM   10  C   UNK N   1      35.123  13.633  18.442  0.00  0.00     0.001 A 
HETATM   11  C   UNK N   1      35.236  12.669  19.448  0.00  0.00     0.000 A 
HETATM   12  C   UNK N   1      35.485  11.336  19.110  0.00  0.00     0.001 A 
HETATM   13  C   UNK N   1      35.626  10.969  17.769  0.00  0.00     0.009 A 
ENDBRANCH   1   8
TORSDOF 3
ENDMDL
MODEL 8
REMARK VINA RESULT:      -4.2     11.325     12.707
REMARK  3 active torsions:
REMARK  status: ('A' for Active; 'I' for Inactive)
REMARK    1  A    between atoms: N_1  and  N_2 
REMARK    2  A    between atoms: N_1  and  C_4 
REMARK    3  A    between atoms: C_3  and  C_4 
ROOT
HETATM    1  C   UNK N   1      31.735  16.723   4.292  0.00  0.00     0.127 C 
HETATM    2  C   UNK N   1      32.817  16.834   3.226  0.00  0.00     0.039 C 
ENDROOT
BRANCH   1   3
HETATM    3  N   UNK N   1      30.587  17.521   3.886  0.00  0.00    -0.334 N 
HETATM    4  H   UNK N   1      30.253  18.375   4.333  0.00  0.00     0.180 HD
BRANCH   3   5
HETATM    5  N   UNK N   1      30.027  16.892   2.765  0.00  0.00    -0.349 N 
HETATM    6  H   UNK N   1      29.912  15.889   2.612  0.00  0.00     0.176 HD
HETATM    7  H   UNK N   1      29.698  17.504   2.018  0.00  0.00     0.176 HD
ENDBRANCH   3   5
ENDBRANCH   1   3
BRANCH   1   8
HETATM    8  C   UNK N   1      32.206  17.125   5.672  0.00  0.00    -0.035 A 
HETATM    9  C   UNK N   1      31.285  17.151   6.730  0.00  0.00     0.009 A 
HETATM   10  C   UNK N   1      31.694  17.512   8.016  0.00  0.00     0.001 A 
HETATM   11  C   UNK N   1      33.030  17.842   8.259  0.00  0.00     0.000 A 
HETATM   12  C   UNK N   1      33.957  17.812   7.214  0.00  0.00     0.001 A 
HETATM   13  C   UNK N   1      33.547  17.457   5.926  0.00  0.00     0.009 A 
ENDBRANCH   1   8
TORSDOF 3
ENDMDL
MODEL 9
REMARK VINA RESULT:      -4.1      3.595      4.810
REMARK  3 active torsions:
REMARK  status: ('A' for Active; 'I' for Inactive)
REMARK    1  A    between atoms: N_1  and  N_2 
REMARK    2  A    between atoms: N_1  and  C_4 
REMARK    3  A    between atoms: C_3  and  C_4 
ROOT
HETATM    1  C   UNK N   1      35.722  10.863  20.314  0.00  0.00     0.127 C 
HETATM    2  C   UNK N   1      36.914   9.920  20.218  0.00  0.00     0.039 C 
ENDROOT
BRANCH   1   3
HETATM    3  N   UNK N   1      34.534  10.091  20.647  0.00  0.00    -0.334 N 
HETATM    4  H   UNK N   1      34.261   9.194  20.245  0.00  0.00     0.180 HD
BRANCH   3   5
HETATM    5  N   UNK N   1      33.836  10.815  21.624  0.00  0.00    -0.349 N 
HETATM    6  H   UNK N   1      33.589  10.505  22.564  0.00  0.00     0.176 HD
HETATM    7  H   UNK N   1      33.542  11.757  21.366  0.00  0.00     0.176 HD
ENDBRANCH   3   5
ENDBRANCH   1   3
BRANCH   1   8
HETATM    8  C   UNK N   1      35.498  11.678  19.060  0.00  0.00    -0.035 A 
HETATM    9  C   UNK N   1      35.456  11.028  17.817  0.00  0.00     0.009 A 
HETATM   10  C   UNK N   1      35.244  11.756  16.644  0.00  0.00     0.001 A 
HETATM   11  C   UNK N   1      35.061  13.140  16.702  0.00  0.00     0.000 A 
HETATM   12  C   UNK N   1      35.093  13.797  17.935  0.00  0.00     0.001 A 
HETATM   13  C   UNK N   1      35.313  13.070  19.109  0.00  0.00     0.009 A 
ENDBRANCH   1   8
TORSDOF 3
ENDMDL
