REMARK  5 active torsions:
REMARK  status: ('A' for Active; 'I' for Inactive)
REMARK    1  A    between atoms: O_1  and  C_5 
REMARK    2  A    between atoms: O_1  and  C_7 
REMARK    3  A    between atoms: N_2  and  N_3 
REMARK    4  A    between atoms: N_2  and  C_4 
REMARK    5  A    between atoms: C_4  and  C_5 
ROOT
HETATM    1  C   UNK N   1      -0.907   0.789  -0.749  0.00  0.00     0.196 C 
ENDROOT
BRANCH   1   2
HETATM    2  O   UNK N   1      -1.646  -0.121  -0.026  0.00  0.00    -0.350 OA
BRANCH   2   3
HETATM    3  C   UNK N   1      -1.320  -1.436   0.018  0.00  0.00     0.068 A 
HETATM    4  C   UNK N   1      -0.137  -1.918  -0.574  0.00  0.00     0.037 A 
HETATM    5  C   UNK N   1       0.180  -3.276  -0.517  0.00  0.00     0.003 A 
HETATM    6  C   UNK N   1      -0.683  -4.166   0.128  0.00  0.00     0.000 A 
HETATM    7  C   UNK N   1      -1.860  -3.695   0.719  0.00  0.00     0.003 A 
HETATM    8  C   UNK N   1      -2.176  -2.333   0.666  0.00  0.00     0.037 A 
ENDBRANCH   2   3
ENDBRANCH   1   2
BRANCH   1   9
HETATM    9  C   UNK N   1      -0.223   1.783   0.172  0.00  0.00     0.091 C 
HETATM   10  C   UNK N   1      -1.164   2.956   0.403  0.00  0.00     0.029 C 
BRANCH   9  11
HETATM   11  N   UNK N   1       1.034   2.215  -0.451  0.00  0.00    -0.257 NA
HETATM   12  H   UNK N   1       1.641   1.369  -0.560  0.00  0.00     0.140 HD
BRANCH  11  13
HETATM   13  N   UNK N   1       1.731   3.111   0.386  0.00  0.00    -0.270 NA
HETATM   14  H   UNK N   1       1.720   2.779   1.379  0.00  0.00     0.137 HD
HETATM   15  H   UNK N   1       1.298   4.058   0.304  0.00  0.00     0.137 HD
ENDBRANCH  11  13
ENDBRANCH   9  11
ENDBRANCH   1   9
TORSDOF 5
