MODEL 1
REMARK VINA RESULT:      -5.6      0.000      0.000
REMARK  5 active torsions:
REMARK  status: ('A' for Active; 'I' for Inactive)
REMARK    1  A    between atoms: N_1  and  N_2 
REMARK    2  A    between atoms: N_2  and  C_3 
REMARK    3  A    between atoms: C_3  and  C_4 
REMARK    4  A    between atoms: C_4  and  C_5 
REMARK    5  A    between atoms: C_5  and  C_6 
ROOT
HETATM    1  C   UNK N   1      25.573  19.554   3.667  0.00  0.00    -0.055 A 
HETATM    2  C   UNK N   1      24.935  18.382   4.155  0.00  0.00     0.010 A 
HETATM    3  C   UNK N   1      23.539  18.248   4.078  0.00  0.00     0.040 A 
HETATM    4  C   UNK N   1      22.827  19.300   3.516  0.00  0.00     0.105 A 
HETATM    5  C   UNK N   1      23.422  20.408   3.056  0.00  0.00     0.105 A 
HETATM    6  C   UNK N   1      24.801  20.585   3.104  0.00  0.00     0.047 A 
HETATM    7  O   UNK N   1      22.500  21.238   2.579  0.00  0.00    -0.323 OA
HETATM    8  C   UNK N   1      21.244  20.639   2.738  0.00  0.00     0.352 A 
HETATM    9  O   UNK N   1      21.512  19.406   3.340  0.00  0.00    -0.323 OA
ENDROOT
BRANCH   1  10
HETATM   10  C   UNK N   1      27.058  19.722   3.735  0.00  0.00     0.041 C 
BRANCH  10  11
HETATM   11  C   UNK N   1      27.587  19.642   5.159  0.00  0.00     0.031 C 
BRANCH  11  12
HETATM   12  C   UNK N   1      26.837  20.587   6.072  0.00  0.00     0.095 C 
HETATM   13  C   UNK N   1      27.552  21.921   6.066  0.00  0.00     0.033 C 
BRANCH  12  14
HETATM   14  N   UNK N   1      26.805  20.056   7.425  0.00  0.00    -0.339 N 
HETATM   15  H   UNK N   1      27.297  19.232   7.767  0.00  0.00     0.180 HD
BRANCH  14  16
HETATM   16  N   UNK N   1      25.967  20.898   8.169  0.00  0.00    -0.349 N 
HETATM   17  H   UNK N   1      25.434  21.730   7.917  0.00  0.00     0.176 HD
HETATM   18  H   UNK N   1      25.872  20.626   9.147  0.00  0.00     0.176 HD
ENDBRANCH  14  16
ENDBRANCH  12  14
ENDBRANCH  11  12
ENDBRANCH  10  11
ENDBRANCH   1  10
TORSDOF 5
ENDMDL
MODEL 2
REMARK VINA RESULT:      -5.6      6.366      8.561
REMARK  5 active torsions:
REMARK  status: ('A' for Active; 'I' for Inactive)
REMARK    1  A    between atoms: N_1  and  N_2 
REMARK    2  A    between atoms: N_2  and  C_3 
REMARK    3  A    between atoms: C_3  and  C_4 
REMARK    4  A    between atoms: C_4  and  C_5 
REMARK    5  A    between atoms: C_5  and  C_6 
ROOT
HETATM    1  C   UNK N   1      30.726  17.041   6.165  0.00  0.00    -0.055 A 
HETATM    2  C   UNK N   1      31.588  17.120   5.039  0.00  0.00     0.010 A 
HETATM    3  C   UNK N   1      32.947  17.434   5.203  0.00  0.00     0.040 A 
HETATM    4  C   UNK N   1      33.397  17.663   6.497  0.00  0.00     0.105 A 
HETATM    5  C   UNK N   1      32.590  17.591   7.563  0.00  0.00     0.105 A 
HETATM    6  C   UNK N   1      31.239  17.278   7.453  0.00  0.00     0.047 A 
HETATM    7  O   UNK N   1      33.288  17.858   8.663  0.00  0.00    -0.323 OA
HETATM    8  C   UNK N   1      34.613  18.115   8.292  0.00  0.00     0.352 A 
HETATM    9  O   UNK N   1      34.626  17.976   6.900  0.00  0.00    -0.323 OA
ENDROOT
BRANCH   1  10
HETATM   10  C   UNK N   1      29.275  16.707   6.019  0.00  0.00     0.041 C 
BRANCH  10  11
HETATM   11  C   UNK N   1      28.467  17.865   5.453  0.00  0.00     0.031 C 
BRANCH  11  12
HETATM   12  C   UNK N   1      27.493  18.401   6.479  0.00  0.00     0.095 C 
HETATM   13  C   UNK N   1      27.849  19.845   6.763  0.00  0.00     0.033 C 
BRANCH  12  14
HETATM   14  N   UNK N   1      27.582  17.627   7.706  0.00  0.00    -0.339 N 
HETATM   15  H   UNK N   1      27.594  16.611   7.784  0.00  0.00     0.180 HD
BRANCH  14  16
HETATM   16  N   UNK N   1      27.648  18.547   8.760  0.00  0.00    -0.349 N 
HETATM   17  H   UNK N   1      28.426  18.881   9.330  0.00  0.00     0.176 HD
HETATM   18  H   UNK N   1      26.749  18.960   9.005  0.00  0.00     0.176 HD
ENDBRANCH  14  16
ENDBRANCH  12  14
ENDBRANCH  11  12
ENDBRANCH  10  11
ENDBRANCH   1  10
TORSDOF 5
ENDMDL
MODEL 3
REMARK VINA RESULT:      -5.5      8.205     10.459
REMARK  5 active torsions:
REMARK  status: ('A' for Active; 'I' for Inactive)
REMARK    1  A    between atoms: N_1  and  N_2 
REMARK    2  A    between atoms: N_2  and  C_3 
REMARK    3  A    between atoms: C_3  and  C_4 
REMARK    4  A    between atoms: C_4  and  C_5 
REMARK    5  A    between atoms: C_5  and  C_6 
ROOT
HETATM    1  C   UNK N   1      32.418  17.011   7.738  0.00  0.00    -0.055 A 
HETATM    2  C   UNK N   1      33.305  18.089   7.475  0.00  0.00     0.010 A 
HETATM    3  C   UNK N   1      34.471  18.254   8.241  0.00  0.00     0.040 A 
HETATM    4  C   UNK N   1      34.707  17.331   9.251  0.00  0.00     0.105 A 
HETATM    5  C   UNK N   1      33.874  16.313   9.506  0.00  0.00     0.105 A 
HETATM    6  C   UNK N   1      32.711  16.104   8.772  0.00  0.00     0.047 A 
HETATM    7  O   UNK N   1      34.349  15.599  10.521  0.00  0.00    -0.323 OA
HETATM    8  C   UNK N   1      35.548  16.181  10.947  0.00  0.00     0.352 A 
HETATM    9  O   UNK N   1      35.729  17.281  10.102  0.00  0.00    -0.323 OA
ENDROOT
BRANCH   1  10
HETATM   10  C   UNK N   1      31.170  16.811   6.938  0.00  0.00     0.041 C 
BRANCH  10  11
HETATM   11  C   UNK N   1      29.915  16.865   7.796  0.00  0.00     0.031 C 
BRANCH  11  12
HETATM   12  C   UNK N   1      29.529  18.294   8.105  0.00  0.00     0.095 C 
HETATM   13  C   UNK N   1      29.762  18.541   9.581  0.00  0.00     0.033 C 
BRANCH  12  14
HETATM   14  N   UNK N   1      28.127  18.514   7.790  0.00  0.00    -0.339 N 
HETATM   15  H   UNK N   1      27.708  18.534   6.861  0.00  0.00     0.180 HD
BRANCH  14  16
HETATM   16  N   UNK N   1      27.462  18.691   9.010  0.00  0.00    -0.349 N 
HETATM   17  H   UNK N   1      27.720  19.182   9.866  0.00  0.00     0.176 HD
HETATM   18  H   UNK N   1      26.547  18.243   9.051  0.00  0.00     0.176 HD
ENDBRANCH  14  16
ENDBRANCH  12  14
ENDBRANCH  11  12
ENDBRANCH  10  11
ENDBRANCH   1  10
TORSDOF 5
ENDMDL
MODEL 4
REMARK VINA RESULT:      -5.4      4.186      6.104
REMARK  5 active torsions:
REMARK  status: ('A' for Active; 'I' for Inactive)
REMARK    1  A    between atoms: N_1  and  N_2 
REMARK    2  A    between atoms: N_2  and  C_3 
REMARK    3  A    between atoms: C_3  and  C_4 
REMARK    4  A    between atoms: C_4  and  C_5 
REMARK    5  A    between atoms: C_5  and  C_6 
ROOT
HETATM    1  C   UNK N   1      24.113  19.514   3.714  0.00  0.00    -0.055 A 
HETATM    2  C   UNK N   1      24.869  20.412   2.914  0.00  0.00     0.010 A 
HETATM    3  C   UNK N   1      26.253  20.549   3.113  0.00  0.00     0.040 A 
HETATM    4  C   UNK N   1      26.833  19.781   4.114  0.00  0.00     0.105 A 
HETATM    5  C   UNK N   1      26.125  18.934   4.873  0.00  0.00     0.105 A 
HETATM    6  C   UNK N   1      24.755  18.758   4.711  0.00  0.00     0.047 A 
HETATM    7  O   UNK N   1      26.935  18.341   5.744  0.00  0.00    -0.323 OA
HETATM    8  C   UNK N   1      28.232  18.826   5.540  0.00  0.00     0.352 A 
HETATM    9  O   UNK N   1      28.109  19.740   4.489  0.00  0.00    -0.323 OA
ENDROOT
BRANCH   1  10
HETATM   10  C   UNK N   1      22.638  19.347   3.523  0.00  0.00     0.041 C 
BRANCH  10  11
HETATM   11  C   UNK N   1      22.035  20.450   2.666  0.00  0.00     0.031 C 
BRANCH  11  12
HETATM   12  C   UNK N   1      20.598  20.139   2.311  0.00  0.00     0.095 C 
HETATM   13  C   UNK N   1      20.171  18.915   3.092  0.00  0.00     0.033 C 
BRANCH  12  14
HETATM   14  N   UNK N   1      20.480  19.874   0.887  0.00  0.00    -0.339 N 
HETATM   15  H   UNK N   1      20.430  18.959   0.440  0.00  0.00     0.180 HD
BRANCH  14  16
HETATM   16  N   UNK N   1      20.448  21.119   0.245  0.00  0.00    -0.349 N 
HETATM   17  H   UNK N   1      19.745  21.571  -0.339  0.00  0.00     0.176 HD
HETATM   18  H   UNK N   1      21.287  21.680   0.390  0.00  0.00     0.176 HD
ENDBRANCH  14  16
ENDBRANCH  12  14
ENDBRANCH  11  12
ENDBRANCH  10  11
ENDBRANCH   1  10
TORSDOF 5
ENDMDL
MODEL 5
REMARK VINA RESULT:      -5.3      6.737      8.056
REMARK  5 active torsions:
REMARK  status: ('A' for Active; 'I' for Inactive)
REMARK    1  A    between atoms: N_1  and  N_2 
REMARK    2  A    between atoms: N_2  and  C_3 
REMARK    3  A    between atoms: C_3  and  C_4 
REMARK    4  A    between atoms: C_4  and  C_5 
REMARK    5  A    between atoms: C_5  and  C_6 
ROOT
HETATM    1  C   UNK N   1      21.248  14.156   8.597  0.00  0.00    -0.055 A 
HETATM    2  C   UNK N   1      20.263  14.975   9.212  0.00  0.00     0.010 A 
HETATM    3  C   UNK N   1      20.047  16.288   8.762  0.00  0.00     0.040 A 
HETATM    4  C   UNK N   1      20.832  16.738   7.708  0.00  0.00     0.105 A 
HETATM    5  C   UNK N   1      21.763  15.973   7.125  0.00  0.00     0.105 A 
HETATM    6  C   UNK N   1      22.011  14.665   7.530  0.00  0.00     0.047 A 
HETATM    7  O   UNK N   1      22.355  16.661   6.155  0.00  0.00    -0.323 OA
HETATM    8  C   UNK N   1      21.780  17.937   6.106  0.00  0.00     0.352 A 
HETATM    9  O   UNK N   1      20.815  17.931   7.117  0.00  0.00    -0.323 OA
ENDROOT
BRANCH   1  10
HETATM   10  C   UNK N   1      21.498  12.754   9.055  0.00  0.00     0.041 C 
BRANCH  10  11
HETATM   11  C   UNK N   1      22.240  12.701  10.382  0.00  0.00     0.031 C 
BRANCH  11  12
HETATM   12  C   UNK N   1      23.738  12.728  10.169  0.00  0.00     0.095 C 
HETATM   13  C   UNK N   1      24.077  11.759   9.057  0.00  0.00     0.033 C 
BRANCH  12  14
HETATM   14  N   UNK N   1      24.424  12.331  11.387  0.00  0.00    -0.339 N 
HETATM   15  H   UNK N   1      25.426  12.183  11.501  0.00  0.00     0.180 HD
BRANCH  14  16
HETATM   16  N   UNK N   1      23.442  12.194  12.378  0.00  0.00    -0.349 N 
HETATM   17  H   UNK N   1      23.376  12.551  13.331  0.00  0.00     0.176 HD
HETATM   18  H   UNK N   1      22.644  11.629  12.092  0.00  0.00     0.176 HD
ENDBRANCH  14  16
ENDBRANCH  12  14
ENDBRANCH  11  12
ENDBRANCH  10  11
ENDBRANCH   1  10
TORSDOF 5
ENDMDL
MODEL 6
REMARK VINA RESULT:      -5.3      1.383      2.350
REMARK  5 active torsions:
REMARK  status: ('A' for Active; 'I' for Inactive)
REMARK    1  A    between atoms: N_1  and  N_2 
REMARK    2  A    between atoms: N_2  and  C_3 
REMARK    3  A    between atoms: C_3  and  C_4 
REMARK    4  A    between atoms: C_4  and  C_5 
REMARK    5  A    between atoms: C_5  and  C_6 
ROOT
HETATM    1  C   UNK N   1      25.636  18.910   4.187  0.00  0.00    -0.055 A 
HETATM    2  C   UNK N   1      25.959  20.031   3.377  0.00  0.00     0.010 A 
HETATM    3  C   UNK N   1      24.942  20.791   2.776  0.00  0.00     0.040 A 
HETATM    4  C   UNK N   1      23.630  20.397   3.006  0.00  0.00     0.105 A 
HETATM    5  C   UNK N   1      23.318  19.341   3.768  0.00  0.00     0.105 A 
HETATM    6  C   UNK N   1      24.288  18.561   4.389  0.00  0.00     0.047 A 
HETATM    7  O   UNK N   1      21.997  19.201   3.809  0.00  0.00    -0.323 OA
HETATM    8  C   UNK N   1      21.423  20.217   3.035  0.00  0.00     0.352 A 
HETATM    9  O   UNK N   1      22.510  20.950   2.548  0.00  0.00    -0.323 OA
ENDROOT
BRANCH   1  10
HETATM   10  C   UNK N   1      26.698  18.083   4.840  0.00  0.00     0.041 C 
BRANCH  10  11
HETATM   11  C   UNK N   1      27.827  18.931   5.406  0.00  0.00     0.031 C 
BRANCH  11  12
HETATM   12  C   UNK N   1      28.223  18.457   6.787  0.00  0.00     0.095 C 
HETATM   13  C   UNK N   1      27.930  16.975   6.883  0.00  0.00     0.033 C 
BRANCH  12  14
HETATM   14  N   UNK N   1      27.462  19.171   7.799  0.00  0.00    -0.339 N 
HETATM   15  H   UNK N   1      26.892  20.003   7.657  0.00  0.00     0.180 HD
BRANCH  14  16
HETATM   16  N   UNK N   1      27.664  18.493   9.009  0.00  0.00    -0.349 N 
HETATM   17  H   UNK N   1      27.742  18.819   9.972  0.00  0.00     0.176 HD
HETATM   18  H   UNK N   1      27.749  17.482   8.907  0.00  0.00     0.176 HD
ENDBRANCH  14  16
ENDBRANCH  12  14
ENDBRANCH  11  12
ENDBRANCH  10  11
ENDBRANCH   1  10
TORSDOF 5
ENDMDL
MODEL 7
REMARK VINA RESULT:      -5.3     17.552     19.215
REMARK  5 active torsions:
REMARK  status: ('A' for Active; 'I' for Inactive)
REMARK    1  A    between atoms: N_1  and  N_2 
REMARK    2  A    between atoms: N_2  and  C_3 
REMARK    3  A    between atoms: C_3  and  C_4 
REMARK    4  A    between atoms: C_4  and  C_5 
REMARK    5  A    between atoms: C_5  and  C_6 
ROOT
HETATM    1  C   UNK N   1      35.297  11.414  18.294  0.00  0.00    -0.055 A 
HETATM    2  C   UNK N   1      35.189  12.830  18.313  0.00  0.00     0.010 A 
HETATM    3  C   UNK N   1      35.014  13.547  17.117  0.00  0.00     0.040 A 
HETATM    4  C   UNK N   1      34.958  12.815  15.938  0.00  0.00     0.105 A 
HETATM    5  C   UNK N   1      35.061  11.480  15.912  0.00  0.00     0.105 A 
HETATM    6  C   UNK N   1      35.228  10.726  17.069  0.00  0.00     0.047 A 
HETATM    7  O   UNK N   1      34.976  11.056  14.656  0.00  0.00    -0.323 OA
HETATM    8  C   UNK N   1      34.809  12.170  13.825  0.00  0.00     0.352 A 
HETATM    9  O   UNK N   1      34.804  13.265  14.695  0.00  0.00    -0.323 OA
ENDROOT
BRANCH   1  10
HETATM   10  C   UNK N   1      35.482  10.626  19.552  0.00  0.00     0.041 C 
BRANCH  10  11
HETATM   11  C   UNK N   1      34.344   9.646  19.796  0.00  0.00     0.031 C 
BRANCH  11  12
HETATM   12  C   UNK N   1      33.810   9.773  21.205  0.00  0.00     0.095 C 
HETATM   13  C   UNK N   1      32.375   9.290  21.215  0.00  0.00     0.033 C 
BRANCH  12  14
HETATM   14  N   UNK N   1      33.861  11.160  21.637  0.00  0.00    -0.339 N 
HETATM   15  H   UNK N   1      34.473  11.888  21.273  0.00  0.00     0.180 HD
BRANCH  14  16
HETATM   16  N   UNK N   1      32.905  11.303  22.651  0.00  0.00    -0.349 N 
HETATM   17  H   UNK N   1      31.902  11.489  22.626  0.00  0.00     0.176 HD
HETATM   18  H   UNK N   1      33.283  11.202  23.593  0.00  0.00     0.176 HD
ENDBRANCH  14  16
ENDBRANCH  12  14
ENDBRANCH  11  12
ENDBRANCH  10  11
ENDBRANCH   1  10
TORSDOF 5
ENDMDL
MODEL 8
REMARK VINA RESULT:      -5.2     11.928     13.241
REMARK  5 active torsions:
REMARK  status: ('A' for Active; 'I' for Inactive)
REMARK    1  A    between atoms: N_1  and  N_2 
REMARK    2  A    between atoms: N_2  and  C_3 
REMARK    3  A    between atoms: C_3  and  C_4 
REMARK    4  A    between atoms: C_4  and  C_5 
REMARK    5  A    between atoms: C_5  and  C_6 
ROOT
HETATM    1  C   UNK N   1      25.870  27.262  -5.449  0.00  0.00    -0.055 A 
HETATM    2  C   UNK N   1      26.851  27.729  -6.365  0.00  0.00     0.010 A 
HETATM    3  C   UNK N   1      27.563  28.911  -6.103  0.00  0.00     0.040 A 
HETATM    4  C   UNK N   1      27.264  29.589  -4.928  0.00  0.00     0.105 A 
HETATM    5  C   UNK N   1      26.341  29.155  -4.061  0.00  0.00     0.105 A 
HETATM    6  C   UNK N   1      25.613  27.988  -4.273  0.00  0.00     0.047 A 
HETATM    7  O   UNK N   1      26.267  29.999  -3.037  0.00  0.00    -0.323 OA
HETATM    8  C   UNK N   1      27.188  31.031  -3.250  0.00  0.00     0.352 A 
HETATM    9  O   UNK N   1      27.797  30.719  -4.469  0.00  0.00    -0.323 OA
ENDROOT
BRANCH   1  10
HETATM   10  C   UNK N   1      25.098  26.006  -5.702  0.00  0.00     0.041 C 
BRANCH  10  11
HETATM   11  C   UNK N   1      25.746  24.787  -5.064  0.00  0.00     0.031 C 
BRANCH  11  12
HETATM   12  C   UNK N   1      25.984  23.699  -6.088  0.00  0.00     0.095 C 
HETATM   13  C   UNK N   1      27.478  23.525  -6.258  0.00  0.00     0.033 C 
BRANCH  12  14
HETATM   14  N   UNK N   1      25.387  24.069  -7.360  0.00  0.00    -0.339 N 
HETATM   15  H   UNK N   1      25.379  24.998  -7.781  0.00  0.00     0.180 HD
BRANCH  14  16
HETATM   16  N   UNK N   1      24.827  22.903  -7.899  0.00  0.00    -0.349 N 
HETATM   17  H   UNK N   1      24.321  22.127  -7.474  0.00  0.00     0.176 HD
HETATM   18  H   UNK N   1      24.950  22.814  -8.907  0.00  0.00     0.176 HD
ENDBRANCH  14  16
ENDBRANCH  12  14
ENDBRANCH  11  12
ENDBRANCH  10  11
ENDBRANCH   1  10
TORSDOF 5
ENDMDL
MODEL 9
REMARK VINA RESULT:      -5.2     16.675     18.314
REMARK  5 active torsions:
REMARK  status: ('A' for Active; 'I' for Inactive)
REMARK    1  A    between atoms: N_1  and  N_2 
REMARK    2  A    between atoms: N_2  and  C_3 
REMARK    3  A    between atoms: C_3  and  C_4 
REMARK    4  A    between atoms: C_4  and  C_5 
REMARK    5  A    between atoms: C_5  and  C_6 
ROOT
HETATM    1  C   UNK N   1      34.975  10.799  16.447  0.00  0.00    -0.055 A 
HETATM    2  C   UNK N   1      34.110  10.405  15.391  0.00  0.00     0.010 A 
HETATM    3  C   UNK N   1      34.031  11.168  14.215  0.00  0.00     0.040 A 
HETATM    4  C   UNK N   1      34.822  12.307  14.138  0.00  0.00     0.105 A 
HETATM    5  C   UNK N   1      35.638  12.685  15.131  0.00  0.00     0.105 A 
HETATM    6  C   UNK N   1      35.757  11.960  16.312  0.00  0.00     0.047 A 
HETATM    7  O   UNK N   1      36.265  13.804  14.784  0.00  0.00    -0.323 OA
HETATM    8  C   UNK N   1      35.834  14.171  13.503  0.00  0.00     0.352 A 
HETATM    9  O   UNK N   1      34.916  13.182  13.140  0.00  0.00    -0.323 OA
ENDROOT
BRANCH   1  10
HETATM   10  C   UNK N   1      35.080  10.004  17.711  0.00  0.00     0.041 C 
BRANCH  10  11
HETATM   11  C   UNK N   1      35.889  10.721  18.781  0.00  0.00     0.031 C 
BRANCH  11  12
HETATM   12  C   UNK N   1      35.274  10.523  20.150  0.00  0.00     0.095 C 
HETATM   13  C   UNK N   1      34.144   9.524  20.023  0.00  0.00     0.033 C 
BRANCH  12  14
HETATM   14  N   UNK N   1      34.756  11.785  20.653  0.00  0.00    -0.339 N 
HETATM   15  H   UNK N   1      33.961  11.910  21.277  0.00  0.00     0.180 HD
BRANCH  14  16
HETATM   16  N   UNK N   1      35.563  12.796  20.114  0.00  0.00    -0.349 N 
HETATM   17  H   UNK N   1      35.366  13.553  19.459  0.00  0.00     0.176 HD
HETATM   18  H   UNK N   1      36.529  12.770  20.438  0.00  0.00     0.176 HD
ENDBRANCH  14  16
ENDBRANCH  12  14
ENDBRANCH  11  12
ENDBRANCH  10  11
ENDBRANCH   1  10
TORSDOF 5
ENDMDL
