REMARK  9 active torsions:
REMARK  status: ('A' for Active; 'I' for Inactive)
REMARK    1  A    between atoms: N_21  and  C_3 
REMARK    2  A    between atoms: N_21  and  C_4 
REMARK    3  A    between atoms: C_16  and  C_15 
REMARK    4  A    between atoms: N_21  and  C_15 
REMARK    5  A    between atoms: O_24  and  C_16 
REMARK    6  A    between atoms: C_20  and  C_17 
REMARK    7  A    between atoms: C_20  and  C_18 
REMARK    8  A    between atoms: C_20  and  C_19 
REMARK    9  A    between atoms: O_24  and  C_19 
ROOT
HETATM    1  C   UNK N   1       8.827  -1.025  -0.673  0.00  0.00     0.201 C 
HETATM    2  O   UNK N   1       8.592  -1.078  -2.052  0.00  0.00    -0.371 OA
HETATM    3  H   UNK N   1       8.478  -0.955  -3.007  0.00  0.00     0.212 HD
ENDROOT
BRANCH   1   4
HETATM    4  C   UNK N   1       9.717  -2.230  -0.329  0.00  0.00    -0.009 A 
HETATM    5  C   UNK N   1      10.933  -2.386  -1.024  0.00  0.00     0.011 A 
HETATM    6  C   UNK N   1      11.790  -3.452  -0.742  0.00  0.00     0.001 A 
HETATM    7  C   UNK N   1      11.446  -4.382   0.238  0.00  0.00     0.000 A 
HETATM    8  C   UNK N   1      10.242  -4.248   0.933  0.00  0.00     0.001 A 
HETATM    9  C   UNK N   1       9.383  -3.181   0.650  0.00  0.00     0.011 A 
ENDBRANCH   1   4
BRANCH   1  10
HETATM   10  C   UNK N   1       9.553   0.291  -0.357  0.00  0.00    -0.009 A 
HETATM   11  C   UNK N   1       8.976   1.517  -0.738  0.00  0.00     0.011 A 
HETATM   12  C   UNK N   1       9.609   2.728  -0.446  0.00  0.00     0.001 A 
HETATM   13  C   UNK N   1      10.832   2.732   0.225  0.00  0.00     0.000 A 
HETATM   14  C   UNK N   1      11.423   1.526   0.606  0.00  0.00     0.001 A 
HETATM   15  C   UNK N   1      10.788   0.315   0.320  0.00  0.00     0.011 A 
ENDBRANCH   1  10
BRANCH   1  16
HETATM   16  C   UNK N   1       7.455  -0.969   0.010  0.00  0.00     0.303 C 
HETATM   17  O   UNK N   1       6.710  -0.040  -0.264  0.00  0.00    -0.261 OA
BRANCH  16  18
HETATM   18  O   UNK N   1       7.045  -1.913   0.898  0.00  0.00    -0.317 OA
BRANCH  18  19
HETATM   19  C   UNK N   1       5.867  -1.817   1.619  0.00  0.00     0.209 C 
BRANCH  19  20
HETATM   20  C   UNK N   1       4.636  -2.200   0.790  0.00  0.00     0.299 C 
BRANCH  20  21
HETATM   21  N   UNK N   1       4.220  -1.114  -0.098  0.00  0.00     0.089 N 
BRANCH  21  22
HETATM   22  C   UNK N   1       3.235  -1.605  -1.069  0.00  0.00     0.268 C 
HETATM   23  C   UNK N   1       1.931  -2.072  -0.424  0.00  0.00     0.037 C 
ENDBRANCH  21  22
BRANCH  21  24
HETATM   24  C   UNK N   1       3.668  -0.004   0.676  0.00  0.00     0.268 C 
HETATM   25  C   UNK N   1       3.993   1.314  -0.003  0.00  0.00     0.037 C 
ENDBRANCH  21  24
ENDBRANCH  20  21
ENDBRANCH  19  20
ENDBRANCH  18  19
ENDBRANCH  16  18
ENDBRANCH   1  16
TORSDOF 9
