MODEL 1
REMARK VINA RESULT:      -5.3      0.000      0.000
REMARK  5 active torsions:
REMARK  status: ('A' for Active; 'I' for Inactive)
REMARK    1  A    between atoms: C_4  and  O_10 
REMARK    2  A    between atoms: C_5  and  O_7 
REMARK    3  A    between atoms: O_7  and  C_8 
REMARK    4  A    between atoms: C_8  and  C_9 
REMARK    5  A    between atoms: O_10  and  C_11 
ROOT
HETATM    1  C   UNK N   1      22.941  11.863  12.078  0.00  0.00     0.003 A 
HETATM    2  C   UNK N   1      24.240  11.944  11.590  0.00  0.00     0.003 A 
HETATM    3  C   UNK N   1      24.476  12.475  10.323  0.00  0.00     0.039 A 
HETATM    4  C   UNK N   1      23.426  12.927   9.517  0.00  0.00     0.102 A 
HETATM    5  C   UNK N   1      22.076  12.811  10.002  0.00  0.00     0.102 A 
HETATM    6  C   UNK N   1      21.874  12.290  11.292  0.00  0.00     0.039 A 
ENDROOT
BRANCH   5   7
HETATM    7  O   UNK N   1      20.961  13.132   9.305  0.00  0.00    -0.346 OA
BRANCH   7   8
HETATM    8  C   UNK N   1      20.194  14.250   9.535  0.00  0.00     0.209 C 
BRANCH   8   9
HETATM    9  C   UNK N   1      20.762  15.443   8.793  0.00  0.00     0.163 C 
HETATM   10  O   UNK N   1      21.112  15.036   7.494  0.00  0.00    -0.381 OA
HETATM   11  C   UNK N   1      21.758  16.124   6.885  0.00  0.00     0.187 C 
HETATM   12  C   UNK N   1      20.737  17.239   6.663  0.00  0.00     0.140 C 
HETATM   13  N   UNK N   1      20.228  17.693   7.957  0.00  0.00    -0.417 N 
HETATM   14  C   UNK N   1      19.704  16.551   8.713  0.00  0.00     0.147 C 
HETATM   15  H   UNK N   1      20.237  18.659   8.286  0.00  0.00     0.153 HD
ENDBRANCH   8   9
ENDBRANCH   7   8
ENDBRANCH   5   7
BRANCH   4  16
HETATM   16  O   UNK N   1      23.785  13.463   8.316  0.00  0.00    -0.349 OA
BRANCH  16  17
HETATM   17  C   UNK N   1      25.027  13.405   7.737  0.00  0.00     0.171 C 
HETATM   18  C   UNK N   1      25.340  14.744   7.099  0.00  0.00     0.034 C 
ENDBRANCH  16  17
ENDBRANCH   4  16
TORSDOF 5
ENDMDL
MODEL 2
REMARK VINA RESULT:      -5.3     13.811     15.255
REMARK  5 active torsions:
REMARK  status: ('A' for Active; 'I' for Inactive)
REMARK    1  A    between atoms: C_4  and  O_10 
REMARK    2  A    between atoms: C_5  and  O_7 
REMARK    3  A    between atoms: O_7  and  C_8 
REMARK    4  A    between atoms: C_8  and  C_9 
REMARK    5  A    between atoms: O_10  and  C_11 
ROOT
HETATM    1  C   UNK N   1      35.186  12.654  19.543  0.00  0.00     0.003 A 
HETATM    2  C   UNK N   1      35.294  11.269  19.481  0.00  0.00     0.003 A 
HETATM    3  C   UNK N   1      35.474  10.641  18.249  0.00  0.00     0.039 A 
HETATM    4  C   UNK N   1      35.541  11.374  17.061  0.00  0.00     0.102 A 
HETATM    5  C   UNK N   1      35.392  12.805  17.116  0.00  0.00     0.102 A 
HETATM    6  C   UNK N   1      35.232  13.409  18.375  0.00  0.00     0.039 A 
ENDROOT
BRANCH   5   7
HETATM    7  O   UNK N   1      35.356  13.633  16.045  0.00  0.00    -0.346 OA
BRANCH   7   8
HETATM    8  C   UNK N   1      36.423  13.873  15.212  0.00  0.00     0.209 C 
BRANCH   8   9
HETATM    9  C   UNK N   1      35.988  13.799  13.761  0.00  0.00     0.163 C 
HETATM   10  O   UNK N   1      36.248  15.041  13.155  0.00  0.00    -0.381 OA
HETATM   11  C   UNK N   1      35.709  14.981  11.859  0.00  0.00     0.187 C 
HETATM   12  C   UNK N   1      36.525  13.987  11.033  0.00  0.00     0.140 C 
HETATM   13  N   UNK N   1      36.403  12.654  11.626  0.00  0.00    -0.417 N 
HETATM   14  C   UNK N   1      36.783  12.703  13.041  0.00  0.00     0.147 C 
HETATM   15  H   UNK N   1      36.100  11.816  11.129  0.00  0.00     0.153 HD
ENDBRANCH   8   9
ENDBRANCH   7   8
ENDBRANCH   5   7
BRANCH   4  16
HETATM   16  O   UNK N   1      35.760  10.652  15.926  0.00  0.00    -0.349 OA
BRANCH  16  17
HETATM   17  C   UNK N   1      34.850   9.853  15.281  0.00  0.00     0.171 C 
HETATM   18  C   UNK N   1      33.773  10.724  14.666  0.00  0.00     0.034 C 
ENDBRANCH  16  17
ENDBRANCH   4  16
TORSDOF 5
ENDMDL
MODEL 3
REMARK VINA RESULT:      -5.2     12.482     13.665
REMARK  5 active torsions:
REMARK  status: ('A' for Active; 'I' for Inactive)
REMARK    1  A    between atoms: C_4  and  O_10 
REMARK    2  A    between atoms: C_5  and  O_7 
REMARK    3  A    between atoms: O_7  and  C_8 
REMARK    4  A    between atoms: C_8  and  C_9 
REMARK    5  A    between atoms: O_10  and  C_11 
ROOT
HETATM    1  C   UNK N   1      34.436  10.397  11.746  0.00  0.00     0.003 A 
HETATM    2  C   UNK N   1      33.925  10.059  12.994  0.00  0.00     0.003 A 
HETATM    3  C   UNK N   1      34.008  10.967  14.049  0.00  0.00     0.039 A 
HETATM    4  C   UNK N   1      34.606  12.220  13.885  0.00  0.00     0.102 A 
HETATM    5  C   UNK N   1      35.171  12.560  12.606  0.00  0.00     0.102 A 
HETATM    6  C   UNK N   1      35.052  11.631  11.557  0.00  0.00     0.039 A 
ENDROOT
BRANCH   5   7
HETATM    7  O   UNK N   1      35.848  13.698  12.324  0.00  0.00    -0.346 OA
BRANCH   7   8
HETATM    8  C   UNK N   1      36.675  13.863  11.238  0.00  0.00     0.209 C 
BRANCH   8   9
HETATM    9  C   UNK N   1      36.183  14.999  10.364  0.00  0.00     0.163 C 
HETATM   10  O   UNK N   1      35.264  14.479   9.435  0.00  0.00    -0.381 OA
HETATM   11  C   UNK N   1      34.935  15.526   8.558  0.00  0.00     0.187 C 
HETATM   12  C   UNK N   1      34.133  16.576   9.326  0.00  0.00     0.140 C 
HETATM   13  N   UNK N   1      34.966  17.135  10.391  0.00  0.00    -0.417 N 
HETATM   14  C   UNK N   1      35.487  16.054  11.233  0.00  0.00     0.147 C 
HETATM   15  H   UNK N   1      35.156  18.128  10.528  0.00  0.00     0.153 HD
ENDBRANCH   8   9
ENDBRANCH   7   8
ENDBRANCH   5   7
BRANCH   4  16
HETATM   16  O   UNK N   1      34.592  13.035  14.978  0.00  0.00    -0.349 OA
BRANCH  16  17
HETATM   17  C   UNK N   1      35.601  13.186  15.895  0.00  0.00     0.171 C 
HETATM   18  C   UNK N   1      35.157  12.605  17.222  0.00  0.00     0.034 C 
ENDBRANCH  16  17
ENDBRANCH   4  16
TORSDOF 5
ENDMDL
MODEL 4
REMARK VINA RESULT:      -5.1     16.618     18.753
REMARK  5 active torsions:
REMARK  status: ('A' for Active; 'I' for Inactive)
REMARK    1  A    between atoms: C_4  and  O_10 
REMARK    2  A    between atoms: C_5  and  O_7 
REMARK    3  A    between atoms: O_7  and  C_8 
REMARK    4  A    between atoms: C_8  and  C_9 
REMARK    5  A    between atoms: O_10  and  C_11 
ROOT
HETATM    1  C   UNK N   1      25.834  27.636  -3.704  0.00  0.00     0.003 A 
HETATM    2  C   UNK N   1      25.179  27.896  -4.902  0.00  0.00     0.003 A 
HETATM    3  C   UNK N   1      25.018  26.878  -5.841  0.00  0.00     0.039 A 
HETATM    4  C   UNK N   1      25.509  25.590  -5.609  0.00  0.00     0.102 A 
HETATM    5  C   UNK N   1      26.220  25.326  -4.386  0.00  0.00     0.102 A 
HETATM    6  C   UNK N   1      26.348  26.368  -3.452  0.00  0.00     0.039 A 
ENDROOT
BRANCH   5   7
HETATM    7  O   UNK N   1      26.817  24.154  -4.063  0.00  0.00    -0.346 OA
BRANCH   7   8
HETATM    8  C   UNK N   1      27.532  23.938  -2.908  0.00  0.00     0.209 C 
BRANCH   8   9
HETATM    9  C   UNK N   1      28.994  23.700  -3.227  0.00  0.00     0.163 C 
HETATM   10  O   UNK N   1      29.485  22.711  -2.355  0.00  0.00    -0.381 OA
HETATM   11  C   UNK N   1      30.867  22.616  -2.585  0.00  0.00     0.187 C 
HETATM   12  C   UNK N   1      31.095  22.029  -3.978  0.00  0.00     0.140 C 
HETATM   13  N   UNK N   1      30.540  22.939  -4.981  0.00  0.00    -0.417 N 
HETATM   14  C   UNK N   1      29.133  23.217  -4.676  0.00  0.00     0.147 C 
HETATM   15  H   UNK N   1      31.055  23.324  -5.773  0.00  0.00     0.153 HD
ENDBRANCH   8   9
ENDBRANCH   7   8
ENDBRANCH   5   7
BRANCH   4  16
HETATM   16  O   UNK N   1      25.254  24.670  -6.583  0.00  0.00    -0.349 OA
BRANCH  16  17
HETATM   17  C   UNK N   1      26.115  24.277  -7.576  0.00  0.00     0.171 C 
HETATM   18  C   UNK N   1      25.379  24.284  -8.902  0.00  0.00     0.034 C 
ENDBRANCH  16  17
ENDBRANCH   4  16
TORSDOF 5
ENDMDL
MODEL 5
REMARK VINA RESULT:      -5.0     11.842     13.873
REMARK  5 active torsions:
REMARK  status: ('A' for Active; 'I' for Inactive)
REMARK    1  A    between atoms: C_4  and  O_10 
REMARK    2  A    between atoms: C_5  and  O_7 
REMARK    3  A    between atoms: O_7  and  C_8 
REMARK    4  A    between atoms: C_8  and  C_9 
REMARK    5  A    between atoms: O_10  and  C_11 
ROOT
HETATM    1  C   UNK N   1      36.655  14.485  16.630  0.00  0.00     0.003 A 
HETATM    2  C   UNK N   1      35.601  13.768  17.184  0.00  0.00     0.003 A 
HETATM    3  C   UNK N   1      34.770  13.006  16.363  0.00  0.00     0.039 A 
HETATM    4  C   UNK N   1      34.967  12.950  14.980  0.00  0.00     0.102 A 
HETATM    5  C   UNK N   1      36.034  13.721  14.397  0.00  0.00     0.102 A 
HETATM    6  C   UNK N   1      36.865  14.462  15.254  0.00  0.00     0.039 A 
ENDROOT
BRANCH   5   7
HETATM    7  O   UNK N   1      36.293  13.826  13.072  0.00  0.00    -0.346 OA
BRANCH   7   8
HETATM    8  C   UNK N   1      35.874  14.867  12.277  0.00  0.00     0.209 C 
BRANCH   8   9
HETATM    9  C   UNK N   1      34.690  14.443  11.431  0.00  0.00     0.163 C 
HETATM   10  O   UNK N   1      34.529  15.377  10.391  0.00  0.00    -0.381 OA
HETATM   11  C   UNK N   1      33.348  15.032   9.714  0.00  0.00     0.187 C 
HETATM   12  C   UNK N   1      33.567  13.704   8.990  0.00  0.00     0.140 C 
HETATM   13  N   UNK N   1      33.836  12.656   9.975  0.00  0.00    -0.417 N 
HETATM   14  C   UNK N   1      34.955  13.055  10.833  0.00  0.00     0.147 C 
HETATM   15  H   UNK N   1      33.321  11.778  10.054  0.00  0.00     0.153 HD
ENDBRANCH   8   9
ENDBRANCH   7   8
ENDBRANCH   5   7
BRANCH   4  16
HETATM   16  O   UNK N   1      34.117  12.140  14.289  0.00  0.00    -0.349 OA
BRANCH  16  17
HETATM   17  C   UNK N   1      33.751  10.862  14.631  0.00  0.00     0.171 C 
HETATM   18  C   UNK N   1      34.922   9.930  14.393  0.00  0.00     0.034 C 
ENDBRANCH  16  17
ENDBRANCH   4  16
TORSDOF 5
ENDMDL
MODEL 6
REMARK VINA RESULT:      -5.0     12.448     13.837
REMARK  5 active torsions:
REMARK  status: ('A' for Active; 'I' for Inactive)
REMARK    1  A    between atoms: C_4  and  O_10 
REMARK    2  A    between atoms: C_5  and  O_7 
REMARK    3  A    between atoms: O_7  and  C_8 
REMARK    4  A    between atoms: C_8  and  C_9 
REMARK    5  A    between atoms: O_10  and  C_11 
ROOT
HETATM    1  C   UNK N   1      35.036   9.634  13.838  0.00  0.00     0.003 A 
HETATM    2  C   UNK N   1      35.079   9.545  15.225  0.00  0.00     0.003 A 
HETATM    3  C   UNK N   1      34.894  10.689  16.001  0.00  0.00     0.039 A 
HETATM    4  C   UNK N   1      34.671  11.938  15.414  0.00  0.00     0.102 A 
HETATM    5  C   UNK N   1      34.663  12.041  13.978  0.00  0.00     0.102 A 
HETATM    6  C   UNK N   1      34.832  10.867  13.225  0.00  0.00     0.039 A 
ENDROOT
BRANCH   5   7
HETATM    7  O   UNK N   1      34.539  13.192  13.275  0.00  0.00    -0.346 OA
BRANCH   7   8
HETATM    8  C   UNK N   1      35.562  13.794  12.581  0.00  0.00     0.209 C 
BRANCH   8   9
HETATM    9  C   UNK N   1      35.046  14.995  11.813  0.00  0.00     0.163 C 
HETATM   10  O   UNK N   1      36.138  15.634  11.200  0.00  0.00    -0.381 OA
HETATM   11  C   UNK N   1      35.644  16.813  10.616  0.00  0.00     0.187 C 
HETATM   12  C   UNK N   1      34.731  16.437   9.450  0.00  0.00     0.140 C 
HETATM   13  N   UNK N   1      33.586  15.680   9.958  0.00  0.00    -0.417 N 
HETATM   14  C   UNK N   1      34.056  14.531  10.737  0.00  0.00     0.147 C 
HETATM   15  H   UNK N   1      32.607  15.917   9.795  0.00  0.00     0.153 HD
ENDBRANCH   8   9
ENDBRANCH   7   8
ENDBRANCH   5   7
BRANCH   4  16
HETATM   16  O   UNK N   1      34.464  12.973  16.276  0.00  0.00    -0.349 OA
BRANCH  16  17
HETATM   17  C   UNK N   1      35.428  13.658  16.973  0.00  0.00     0.171 C 
HETATM   18  C   UNK N   1      35.163  13.514  18.458  0.00  0.00     0.034 C 
ENDBRANCH  16  17
ENDBRANCH   4  16
TORSDOF 5
ENDMDL
MODEL 7
REMARK VINA RESULT:      -4.9      2.059      2.793
REMARK  5 active torsions:
REMARK  status: ('A' for Active; 'I' for Inactive)
REMARK    1  A    between atoms: C_4  and  O_10 
REMARK    2  A    between atoms: C_5  and  O_7 
REMARK    3  A    between atoms: O_7  and  C_8 
REMARK    4  A    between atoms: C_8  and  C_9 
REMARK    5  A    between atoms: O_10  and  C_11 
ROOT
HETATM    1  C   UNK N   1      21.348  12.415  10.990  0.00  0.00     0.003 A 
HETATM    2  C   UNK N   1      22.465  11.794  10.443  0.00  0.00     0.003 A 
HETATM    3  C   UNK N   1      22.811  12.031   9.113  0.00  0.00     0.039 A 
HETATM    4  C   UNK N   1      22.052  12.881   8.304  0.00  0.00     0.102 A 
HETATM    5  C   UNK N   1      20.873  13.497   8.855  0.00  0.00     0.102 A 
HETATM    6  C   UNK N   1      20.563  13.254  10.204  0.00  0.00     0.039 A 
ENDROOT
BRANCH   5   7
HETATM    7  O   UNK N   1      20.002  14.276   8.171  0.00  0.00    -0.346 OA
BRANCH   7   8
HETATM    8  C   UNK N   1      20.311  15.502   7.633  0.00  0.00     0.209 C 
BRANCH   8   9
HETATM    9  C   UNK N   1      19.295  16.541   8.063  0.00  0.00     0.163 C 
HETATM   10  O   UNK N   1      18.330  15.913   8.870  0.00  0.00    -0.381 OA
HETATM   11  C   UNK N   1      17.335  16.868   9.135  0.00  0.00     0.187 C 
HETATM   12  C   UNK N   1      17.924  17.953  10.036  0.00  0.00     0.140 C 
HETATM   13  N   UNK N   1      19.012  18.629   9.330  0.00  0.00    -0.417 N 
HETATM   14  C   UNK N   1      19.994  17.643   8.869  0.00  0.00     0.147 C 
HETATM   15  H   UNK N   1      19.078  19.636   9.179  0.00  0.00     0.153 HD
ENDBRANCH   8   9
ENDBRANCH   7   8
ENDBRANCH   5   7
BRANCH   4  16
HETATM   16  O   UNK N   1      22.513  13.065   7.035  0.00  0.00    -0.349 OA
BRANCH  16  17
HETATM   17  C   UNK N   1      22.027  12.471   5.897  0.00  0.00     0.171 C 
HETATM   18  C   UNK N   1      23.034  11.453   5.401  0.00  0.00     0.034 C 
ENDBRANCH  16  17
ENDBRANCH   4  16
TORSDOF 5
ENDMDL
MODEL 8
REMARK VINA RESULT:      -4.8      8.712     11.456
REMARK  5 active torsions:
REMARK  status: ('A' for Active; 'I' for Inactive)
REMARK    1  A    between atoms: C_4  and  O_10 
REMARK    2  A    between atoms: C_5  and  O_7 
REMARK    3  A    between atoms: O_7  and  C_8 
REMARK    4  A    between atoms: C_8  and  C_9 
REMARK    5  A    between atoms: O_10  and  C_11 
ROOT
HETATM    1  C   UNK N   1      29.601  18.594   9.487  0.00  0.00     0.003 A 
HETATM    2  C   UNK N   1      28.466  18.387   8.712  0.00  0.00     0.003 A 
HETATM    3  C   UNK N   1      28.575  17.750   7.476  0.00  0.00     0.039 A 
HETATM    4  C   UNK N   1      29.811  17.317   6.988  0.00  0.00     0.102 A 
HETATM    5  C   UNK N   1      30.994  17.563   7.770  0.00  0.00     0.102 A 
HETATM    6  C   UNK N   1      30.848  18.188   9.020  0.00  0.00     0.039 A 
ENDROOT
BRANCH   5   7
HETATM    7  O   UNK N   1      32.261  17.272   7.390  0.00  0.00    -0.346 OA
BRANCH   7   8
HETATM    8  C   UNK N   1      33.354  18.062   7.657  0.00  0.00     0.209 C 
BRANCH   8   9
HETATM    9  C   UNK N   1      34.449  17.247   8.316  0.00  0.00     0.163 C 
HETATM   10  O   UNK N   1      34.265  17.298   9.709  0.00  0.00    -0.381 OA
HETATM   11  C   UNK N   1      35.368  16.652  10.290  0.00  0.00     0.187 C 
HETATM   12  C   UNK N   1      35.293  15.161   9.960  0.00  0.00     0.140 C 
HETATM   13  N   UNK N   1      35.387  14.983   8.511  0.00  0.00    -0.417 N 
HETATM   14  C   UNK N   1      34.361  15.790   7.844  0.00  0.00     0.147 C 
HETATM   15  H   UNK N   1      36.065  14.386   8.036  0.00  0.00     0.153 HD
ENDBRANCH   8   9
ENDBRANCH   7   8
ENDBRANCH   5   7
BRANCH   4  16
HETATM   16  O   UNK N   1      29.785  16.671   5.787  0.00  0.00    -0.349 OA
BRANCH  16  17
HETATM   17  C   UNK N   1      29.927  17.247   4.550  0.00  0.00     0.171 C 
HETATM   18  C   UNK N   1      28.651  17.042   3.758  0.00  0.00     0.034 C 
ENDBRANCH  16  17
ENDBRANCH   4  16
TORSDOF 5
ENDMDL
MODEL 9
REMARK VINA RESULT:      -4.8      9.585     12.717
REMARK  5 active torsions:
REMARK  status: ('A' for Active; 'I' for Inactive)
REMARK    1  A    between atoms: C_4  and  O_10 
REMARK    2  A    between atoms: C_5  and  O_7 
REMARK    3  A    between atoms: O_7  and  C_8 
REMARK    4  A    between atoms: C_8  and  C_9 
REMARK    5  A    between atoms: O_10  and  C_11 
ROOT
HETATM    1  C   UNK N   1      33.191  17.235   5.218  0.00  0.00     0.003 A 
HETATM    2  C   UNK N   1      31.812  17.329   5.070  0.00  0.00     0.003 A 
HETATM    3  C   UNK N   1      30.986  17.261   6.190  0.00  0.00     0.039 A 
HETATM    4  C   UNK N   1      31.514  17.090   7.474  0.00  0.00     0.102 A 
HETATM    5  C   UNK N   1      32.938  16.954   7.628  0.00  0.00     0.102 A 
HETATM    6  C   UNK N   1      33.745  17.048   6.481  0.00  0.00     0.039 A 
ENDROOT
BRANCH   5   7
HETATM    7  O   UNK N   1      33.582  16.705   8.794  0.00  0.00    -0.346 OA
BRANCH   7   8
HETATM    8  C   UNK N   1      33.482  15.531   9.503  0.00  0.00     0.209 C 
BRANCH   8   9
HETATM    9  C   UNK N   1      34.619  15.416  10.499  0.00  0.00     0.163 C 
HETATM   10  O   UNK N   1      34.307  14.396  11.415  0.00  0.00    -0.381 OA
HETATM   11  C   UNK N   1      35.310  14.410  12.398  0.00  0.00     0.187 C 
HETATM   12  C   UNK N   1      36.624  13.952  11.765  0.00  0.00     0.140 C 
HETATM   13  N   UNK N   1      37.012  14.900  10.720  0.00  0.00    -0.417 N 
HETATM   14  C   UNK N   1      35.915  15.060   9.761  0.00  0.00     0.147 C 
HETATM   15  H   UNK N   1      37.912  15.379  10.667  0.00  0.00     0.153 HD
ENDBRANCH   8   9
ENDBRANCH   7   8
ENDBRANCH   5   7
BRANCH   4  16
HETATM   16  O   UNK N   1      30.610  17.079   8.494  0.00  0.00    -0.349 OA
BRANCH  16  17
HETATM   17  C   UNK N   1      30.153  18.170   9.189  0.00  0.00     0.171 C 
HETATM   18  C   UNK N   1      28.642  18.226   9.088  0.00  0.00     0.034 C 
ENDBRANCH  16  17
ENDBRANCH   4  16
TORSDOF 5
ENDMDL
