MODEL 1
REMARK VINA RESULT:      -6.6      0.000      0.000
REMARK  2 active torsions:
REMARK  status: ('A' for Active; 'I' for Inactive)
REMARK    1  A    between atoms: O_1  and  C_11 
REMARK    2  A    between atoms: N_5  and  N_7 
REMARK       I    between atoms: N_7  and  C_18 
REMARK       I    between atoms: N_8  and  C_18 
ROOT
HETATM    1  O   UNK N   1      34.498  13.527  11.863  0.00  0.00    -0.286 OA
HETATM    2  N   UNK N   1      32.994  16.270   8.248  0.00  0.00    -0.382 N 
HETATM    3  N   UNK N   1      36.480  15.497  12.456  0.00  0.00    -0.293 N 
ATOM      4  HN  UNK N   1      37.157  16.246  12.603  1.00  0.00     0.187 HD
HETATM    5  C   UNK N   1      34.768  16.892   9.631  0.00  0.00     0.001 A 
HETATM    6  C   UNK N   1      33.780  15.887   9.353  0.00  0.00     0.042 A 
HETATM    7  C   UNK N   1      34.569  17.956   8.629  0.00  0.00     0.171 A 
HETATM    8  C   UNK N   1      35.628  15.601  11.491  0.00  0.00     0.099 A 
HETATM    9  C   UNK N   1      35.660  16.806  10.625  0.00  0.00     0.047 A 
HETATM   10  C   UNK N   1      34.589  14.547  11.196  0.00  0.00     0.202 A 
HETATM   11  C   UNK N   1      33.657  14.760  10.066  0.00  0.00     0.087 A 
HETATM   12  C   UNK N   1      33.396  17.559   7.704  0.00  0.00     0.159 A 
HETATM   13  C   UNK N   1      31.914  15.485   7.709  0.00  0.00     0.150 C 
ENDROOT
BRANCH   3  14
HETATM   14  N   UNK N   1      36.497  14.405  13.289  0.00  0.00    -0.251 N 
HETATM   15  C   UNK N   1      36.824  14.516  14.593  0.00  0.00     0.332 C 
HETATM   16  O   UNK N   1      37.117  15.600  15.071  0.00  0.00    -0.246 OA
HETATM   17  N   UNK N   1      36.827  13.417  15.372  0.00  0.00    -0.351 N 
HETATM   18  H   UNK N   1      36.592  12.541  14.989  0.00  0.00     0.160 HD
HETATM   19  H   UNK N   1      37.066  13.491  16.324  0.00  0.00     0.160 HD
HETATM   20  H   UNK N   1      36.264  13.520  12.926  0.00  0.00     0.191 HD
ENDBRANCH   3  14
BRANCH   7  21
HETATM   21  O   UNK N   1      35.320  19.126   8.538  0.00  0.00    -0.389 OA
HETATM   22  H   UNK N   1      35.753  19.362   7.702  0.00  0.00     0.210 HD
ENDBRANCH   7  21
TORSDOF 2
ENDMDL
MODEL 2
REMARK VINA RESULT:      -6.3      1.867      5.920
REMARK  2 active torsions:
REMARK  status: ('A' for Active; 'I' for Inactive)
REMARK    1  A    between atoms: O_1  and  C_11 
REMARK    2  A    between atoms: N_5  and  N_7 
REMARK       I    between atoms: N_7  and  C_18 
REMARK       I    between atoms: N_8  and  C_18 
ROOT
HETATM    1  O   UNK N   1      33.815  14.502   9.299  0.00  0.00    -0.286 OA
HETATM    2  N   UNK N   1      35.661  12.323  13.132  0.00  0.00    -0.382 N 
HETATM    3  N   UNK N   1      34.871  16.972  10.268  0.00  0.00    -0.293 N 
ATOM      4  HN  UNK N   1      35.279  17.812  10.679  1.00  0.00     0.187 HD
HETATM    5  C   UNK N   1      35.893  14.616  12.769  0.00  0.00     0.001 A 
HETATM    6  C   UNK N   1      35.352  13.386  12.261  0.00  0.00     0.042 A 
HETATM    7  C   UNK N   1      36.576  14.277  14.033  0.00  0.00     0.171 A 
HETATM    8  C   UNK N   1      35.011  15.843  10.876  0.00  0.00     0.099 A 
HETATM    9  C   UNK N   1      35.761  15.798  12.156  0.00  0.00     0.047 A 
HETATM   10  C   UNK N   1      34.444  14.548  10.345  0.00  0.00     0.202 A 
HETATM   11  C   UNK N   1      34.660  13.304  11.119  0.00  0.00     0.087 A 
HETATM   12  C   UNK N   1      36.431  12.761  14.288  0.00  0.00     0.159 A 
HETATM   13  C   UNK N   1      35.266  10.955  12.916  0.00  0.00     0.150 C 
ENDROOT
BRANCH   3  14
HETATM   14  N   UNK N   1      34.187  17.073   9.080  0.00  0.00    -0.251 N 
HETATM   15  C   UNK N   1      34.395  18.099   8.229  0.00  0.00     0.332 C 
HETATM   16  O   UNK N   1      35.205  18.973   8.495  0.00  0.00    -0.246 OA
HETATM   17  N   UNK N   1      33.702  18.156   7.077  0.00  0.00    -0.351 N 
HETATM   18  H   UNK N   1      33.048  17.452   6.860  0.00  0.00     0.160 HD
HETATM   19  H   UNK N   1      33.848  18.901   6.451  0.00  0.00     0.160 HD
HETATM   20  H   UNK N   1      33.530  16.380   8.845  0.00  0.00     0.191 HD
ENDBRANCH   3  14
BRANCH   7  21
HETATM   21  O   UNK N   1      37.240  15.184  14.856  0.00  0.00    -0.389 OA
HETATM   22  H   UNK N   1      37.020  15.235  15.800  0.00  0.00     0.210 HD
ENDBRANCH   7  21
TORSDOF 2
ENDMDL
MODEL 3
REMARK VINA RESULT:      -6.0      3.152      5.119
REMARK  2 active torsions:
REMARK  status: ('A' for Active; 'I' for Inactive)
REMARK    1  A    between atoms: O_1  and  C_11 
REMARK    2  A    between atoms: N_5  and  N_7 
REMARK       I    between atoms: N_7  and  C_18 
REMARK       I    between atoms: N_8  and  C_18 
ROOT
HETATM    1  O   UNK N   1      35.053  16.999   7.250  0.00  0.00    -0.286 OA
HETATM    2  N   UNK N   1      31.378  17.063   4.194  0.00  0.00    -0.382 N 
HETATM    3  N   UNK N   1      33.183  17.051   9.408  0.00  0.00    -0.293 N 
ATOM      4  HN  UNK N   1      32.454  17.070  10.122  1.00  0.00     0.187 HD
HETATM    5  C   UNK N   1      31.076  17.081   6.508  0.00  0.00     0.001 A 
HETATM    6  C   UNK N   1      32.036  17.055   5.440  0.00  0.00     0.042 A 
HETATM    7  C   UNK N   1      29.747  17.107   5.869  0.00  0.00     0.171 A 
HETATM    8  C   UNK N   1      32.844  17.052   8.163  0.00  0.00     0.099 A 
HETATM    9  C   UNK N   1      31.404  17.081   7.805  0.00  0.00     0.047 A 
HETATM   10  C   UNK N   1      33.850  17.024   7.038  0.00  0.00     0.202 A 
HETATM   11  C   UNK N   1      33.359  17.028   5.641  0.00  0.00     0.087 A 
HETATM   12  C   UNK N   1      29.929  17.095   4.335  0.00  0.00     0.159 A 
HETATM   13  C   UNK N   1      32.050  17.042   2.921  0.00  0.00     0.150 C 
ENDROOT
BRANCH   3  14
HETATM   14  N   UNK N   1      34.500  17.024   9.798  0.00  0.00    -0.251 N 
HETATM   15  C   UNK N   1      34.975  16.069  10.625  0.00  0.00     0.332 C 
HETATM   16  O   UNK N   1      34.237  15.195  11.052  0.00  0.00    -0.246 OA
HETATM   17  N   UNK N   1      36.273  16.084  10.979  0.00  0.00    -0.351 N 
HETATM   18  H   UNK N   1      36.870  16.788  10.636  0.00  0.00     0.160 HD
HETATM   19  H   UNK N   1      36.626  15.390  11.582  0.00  0.00     0.160 HD
HETATM   20  H   UNK N   1      35.113  17.719   9.466  0.00  0.00     0.191 HD
ENDBRANCH   3  14
BRANCH   7  21
HETATM   21  O   UNK N   1      28.529  17.137   6.546  0.00  0.00    -0.389 OA
HETATM   22  H   UNK N   1      28.283  16.406   7.135  0.00  0.00     0.210 HD
ENDBRANCH   7  21
TORSDOF 2
ENDMDL
MODEL 4
REMARK VINA RESULT:      -5.9     10.934     14.972
REMARK  2 active torsions:
REMARK  status: ('A' for Active; 'I' for Inactive)
REMARK    1  A    between atoms: O_1  and  C_11 
REMARK    2  A    between atoms: N_5  and  N_7 
REMARK       I    between atoms: N_7  and  C_18 
REMARK       I    between atoms: N_8  and  C_18 
ROOT
HETATM    1  O   UNK N   1      23.822  21.242   2.480  0.00  0.00    -0.286 OA
HETATM    2  N   UNK N   1      27.002  18.585   4.862  0.00  0.00    -0.382 N 
HETATM    3  N   UNK N   1      21.782  19.409   3.277  0.00  0.00    -0.293 N 
ATOM      4  HN  UNK N   1      21.112  18.711   3.602  1.00  0.00     0.187 HD
HETATM    5  C   UNK N   1      24.737  18.035   4.772  0.00  0.00     0.001 A 
HETATM    6  C   UNK N   1      25.744  18.971   4.358  0.00  0.00     0.042 A 
HETATM    7  C   UNK N   1      25.428  17.013   5.581  0.00  0.00     0.171 A 
HETATM    8  C   UNK N   1      23.024  19.289   3.605  0.00  0.00     0.099 A 
HETATM    9  C   UNK N   1      23.443  18.139   4.444  0.00  0.00     0.047 A 
HETATM   10  C   UNK N   1      24.086  20.271   3.172  0.00  0.00     0.202 A 
HETATM   11  C   UNK N   1      25.485  20.044   3.600  0.00  0.00     0.087 A 
HETATM   12  C   UNK N   1      26.931  17.364   5.651  0.00  0.00     0.159 A 
HETATM   13  C   UNK N   1      28.226  19.308   4.632  0.00  0.00     0.150 C 
ENDROOT
BRANCH   3  14
HETATM   14  N   UNK N   1      21.337  20.453   2.502  0.00  0.00    -0.251 N 
HETATM   15  C   UNK N   1      20.827  20.251   1.270  0.00  0.00     0.332 C 
HETATM   16  O   UNK N   1      20.746  19.124   0.807  0.00  0.00    -0.246 OA
HETATM   17  N   UNK N   1      20.403  21.305   0.546  0.00  0.00    -0.351 N 
HETATM   18  H   UNK N   1      20.467  22.215   0.917  0.00  0.00     0.160 HD
HETATM   19  H   UNK N   1      20.030  21.165  -0.353  0.00  0.00     0.160 HD
HETATM   20  H   UNK N   1      21.392  21.370   2.855  0.00  0.00     0.191 HD
ENDBRANCH   3  14
BRANCH   7  21
HETATM   21  O   UNK N   1      24.817  15.914   6.182  0.00  0.00    -0.389 OA
HETATM   22  H   UNK N   1      24.804  15.057   5.727  0.00  0.00     0.210 HD
ENDBRANCH   7  21
TORSDOF 2
ENDMDL
MODEL 5
REMARK VINA RESULT:      -5.8      3.771      5.689
REMARK  2 active torsions:
REMARK  status: ('A' for Active; 'I' for Inactive)
REMARK    1  A    between atoms: O_1  and  C_11 
REMARK    2  A    between atoms: N_5  and  N_7 
REMARK       I    between atoms: N_7  and  C_18 
REMARK       I    between atoms: N_8  and  C_18 
ROOT
HETATM    1  O   UNK N   1      32.816  15.487   6.737  0.00  0.00    -0.286 OA
HETATM    2  N   UNK N   1      28.725  17.649   5.536  0.00  0.00    -0.382 N 
HETATM    3  N   UNK N   1      32.380  16.295   9.441  0.00  0.00    -0.293 N 
ATOM      4  HN  UNK N   1      32.154  16.620  10.381  1.00  0.00     0.187 HD
HETATM    5  C   UNK N   1      29.526  17.625   7.727  0.00  0.00     0.001 A 
HETATM    6  C   UNK N   1      29.767  17.207   6.375  0.00  0.00     0.042 A 
HETATM    7  C   UNK N   1      28.253  18.370   7.709  0.00  0.00     0.171 A 
HETATM    8  C   UNK N   1      31.576  16.570   8.470  0.00  0.00     0.099 A 
HETATM    9  C   UNK N   1      30.345  17.351   8.750  0.00  0.00     0.047 A 
HETATM   10  C   UNK N   1      31.826  16.132   7.047  0.00  0.00     0.202 A 
HETATM   11  C   UNK N   1      30.842  16.499   6.004  0.00  0.00     0.087 A 
HETATM   12  C   UNK N   1      27.709  18.395   6.264  0.00  0.00     0.159 A 
HETATM   13  C   UNK N   1      28.661  17.398   4.120  0.00  0.00     0.150 C 
ENDROOT
BRANCH   3  14
HETATM   14  N   UNK N   1      33.534  15.576   9.241  0.00  0.00    -0.251 N 
HETATM   15  C   UNK N   1      34.737  16.045   9.633  0.00  0.00     0.332 C 
HETATM   16  O   UNK N   1      34.832  17.132  10.181  0.00  0.00    -0.246 OA
HETATM   17  N   UNK N   1      35.840  15.304   9.416  0.00  0.00    -0.351 N 
HETATM   18  H   UNK N   1      35.766  14.427   8.975  0.00  0.00     0.160 HD
HETATM   19  H   UNK N   1      36.721  15.640   9.700  0.00  0.00     0.160 HD
HETATM   20  H   UNK N   1      33.481  14.697   8.802  0.00  0.00     0.191 HD
ENDBRANCH   3  14
BRANCH   7  21
HETATM   21  O   UNK N   1      27.646  18.953   8.820  0.00  0.00    -0.389 OA
HETATM   22  H   UNK N   1      26.684  18.901   8.931  0.00  0.00     0.210 HD
ENDBRANCH   7  21
TORSDOF 2
ENDMDL
MODEL 6
REMARK VINA RESULT:      -5.8     11.097     14.173
REMARK  2 active torsions:
REMARK  status: ('A' for Active; 'I' for Inactive)
REMARK    1  A    between atoms: O_1  and  C_11 
REMARK    2  A    between atoms: N_5  and  N_7 
REMARK       I    between atoms: N_7  and  C_18 
REMARK       I    between atoms: N_8  and  C_18 
ROOT
HETATM    1  O   UNK N   1      24.848  17.750   4.985  0.00  0.00    -0.286 OA
HETATM    2  N   UNK N   1      20.454  18.454   3.240  0.00  0.00    -0.382 N 
HETATM    3  N   UNK N   1      25.635  20.251   3.852  0.00  0.00    -0.293 N 
ATOM      4  HN  UNK N   1      25.837  21.152   3.419  1.00  0.00     0.187 HD
HETATM    5  C   UNK N   1      22.180  19.992   2.928  0.00  0.00     0.001 A 
HETATM    6  C   UNK N   1      21.809  18.731   3.507  0.00  0.00     0.042 A 
HETATM    7  C   UNK N   1      20.970  20.515   2.266  0.00  0.00     0.171 A 
HETATM    8  C   UNK N   1      24.445  19.760   3.755  0.00  0.00     0.099 A 
HETATM    9  C   UNK N   1      23.407  20.520   3.016  0.00  0.00     0.047 A 
HETATM   10  C   UNK N   1      24.052  18.435   4.362  0.00  0.00     0.202 A 
HETATM   11  C   UNK N   1      22.660  17.959   4.194  0.00  0.00     0.087 A 
HETATM   12  C   UNK N   1      19.817  19.507   2.464  0.00  0.00     0.159 A 
HETATM   13  C   UNK N   1      19.766  17.268   3.680  0.00  0.00     0.150 C 
ENDROOT
BRANCH   3  14
HETATM   14  N   UNK N   1      26.635  19.592   4.524  0.00  0.00    -0.251 N 
HETATM   15  C   UNK N   1      27.132  20.058   5.689  0.00  0.00     0.332 C 
HETATM   16  O   UNK N   1      26.701  21.090   6.180  0.00  0.00    -0.246 OA
HETATM   17  N   UNK N   1      28.113  19.378   6.312  0.00  0.00    -0.351 N 
HETATM   18  H   UNK N   1      28.463  18.546   5.918  0.00  0.00     0.160 HD
HETATM   19  H   UNK N   1      28.480  19.713   7.161  0.00  0.00     0.160 HD
HETATM   20  H   UNK N   1      26.999  18.758   4.147  0.00  0.00     0.191 HD
ENDBRANCH   3  14
BRANCH   7  21
HETATM   21  O   UNK N   1      20.890  21.723   1.576  0.00  0.00    -0.389 OA
HETATM   22  H   UNK N   1      20.410  21.771   0.734  0.00  0.00     0.210 HD
ENDBRANCH   7  21
TORSDOF 2
ENDMDL
MODEL 7
REMARK VINA RESULT:      -5.7     13.548     15.305
REMARK  2 active torsions:
REMARK  status: ('A' for Active; 'I' for Inactive)
REMARK    1  A    between atoms: O_1  and  C_11 
REMARK    2  A    between atoms: N_5  and  N_7 
REMARK       I    between atoms: N_7  and  C_18 
REMARK       I    between atoms: N_8  and  C_18 
ROOT
HETATM    1  O   UNK N   1      18.661  15.697   9.687  0.00  0.00    -0.286 OA
HETATM    2  N   UNK N   1      22.006  13.713   6.908  0.00  0.00    -0.382 N 
HETATM    3  N   UNK N   1      19.433  18.258   8.687  0.00  0.00    -0.293 N 
ATOM      4  HN  UNK N   1      19.766  19.134   8.283  1.00  0.00     0.187 HD
HETATM    5  C   UNK N   1      21.639  16.017   6.966  0.00  0.00     0.001 A 
HETATM    6  C   UNK N   1      21.232  14.740   7.483  0.00  0.00     0.042 A 
HETATM    7  C   UNK N   1      22.732  15.748   6.012  0.00  0.00     0.171 A 
HETATM    8  C   UNK N   1      19.982  17.149   8.324  0.00  0.00     0.099 A 
HETATM    9  C   UNK N   1      21.083  17.179   7.328  0.00  0.00     0.047 A 
HETATM   10  C   UNK N   1      19.558  15.805   8.865  0.00  0.00     0.202 A 
HETATM   11  C   UNK N   1      20.253  14.590   8.384  0.00  0.00     0.087 A 
HETATM   12  C   UNK N   1      22.988  14.225   5.963  0.00  0.00     0.159 A 
HETATM   13  C   UNK N   1      21.854  12.314   7.211  0.00  0.00     0.150 C 
ENDROOT
BRANCH   3  14
HETATM   14  N   UNK N   1      18.411  18.290   9.604  0.00  0.00    -0.251 N 
HETATM   15  C   UNK N   1      18.469  19.073  10.702  0.00  0.00     0.332 C 
HETATM   16  O   UNK N   1      19.442  19.780  10.910  0.00  0.00    -0.246 OA
HETATM   17  N   UNK N   1      17.443  19.072  11.574  0.00  0.00    -0.351 N 
HETATM   18  H   UNK N   1      16.657  18.502  11.408  0.00  0.00     0.160 HD
HETATM   19  H   UNK N   1      17.479  19.640  12.376  0.00  0.00     0.160 HD
HETATM   20  H   UNK N   1      17.616  17.729   9.458  0.00  0.00     0.191 HD
ENDBRANCH   3  14
BRANCH   7  21
HETATM   21  O   UNK N   1      23.417  16.715   5.281  0.00  0.00    -0.389 OA
HETATM   22  H   UNK N   1      24.380  16.655   5.177  0.00  0.00     0.210 HD
ENDBRANCH   7  21
TORSDOF 2
ENDMDL
MODEL 8
REMARK VINA RESULT:      -5.7     10.250     14.156
REMARK  2 active torsions:
REMARK  status: ('A' for Active; 'I' for Inactive)
REMARK    1  A    between atoms: O_1  and  C_11 
REMARK    2  A    between atoms: N_5  and  N_7 
REMARK       I    between atoms: N_7  and  C_18 
REMARK       I    between atoms: N_8  and  C_18 
ROOT
HETATM    1  O   UNK N   1      22.323  17.894   4.145  0.00  0.00    -0.286 OA
HETATM    2  N   UNK N   1      26.824  16.958   5.454  0.00  0.00    -0.382 N 
HETATM    3  N   UNK N   1      23.227  20.354   3.011  0.00  0.00    -0.293 N 
ATOM      4  HN  UNK N   1      23.627  21.213   2.631  1.00  0.00     0.187 HD
HETATM    5  C   UNK N   1      26.236  18.909   4.318  0.00  0.00     0.001 A 
HETATM    6  C   UNK N   1      25.757  17.678   4.881  0.00  0.00     0.042 A 
HETATM    7  C   UNK N   1      27.690  18.939   4.566  0.00  0.00     0.171 A 
HETATM    8  C   UNK N   1      24.001  19.506   3.599  0.00  0.00     0.099 A 
HETATM    9  C   UNK N   1      25.452  19.803   3.705  0.00  0.00     0.047 A 
HETATM   10  C   UNK N   1      23.501  18.211   4.191  0.00  0.00     0.202 A 
HETATM   11  C   UNK N   1      24.472  17.304   4.845  0.00  0.00     0.087 A 
HETATM   12  C   UNK N   1      28.096  17.652   5.318  0.00  0.00     0.159 A 
HETATM   13  C   UNK N   1      26.685  15.680   6.103  0.00  0.00     0.150 C 
ENDROOT
BRANCH   3  14
HETATM   14  N   UNK N   1      21.877  20.132   2.884  0.00  0.00    -0.251 N 
HETATM   15  C   UNK N   1      21.239  20.302   1.707  0.00  0.00     0.332 C 
HETATM   16  O   UNK N   1      21.852  20.663   0.715  0.00  0.00    -0.246 OA
HETATM   17  N   UNK N   1      19.915  20.072   1.630  0.00  0.00    -0.351 N 
HETATM   18  H   UNK N   1      19.418  19.781   2.429  0.00  0.00     0.160 HD
HETATM   19  H   UNK N   1      19.444  20.195   0.775  0.00  0.00     0.160 HD
HETATM   20  H   UNK N   1      21.362  19.841   3.671  0.00  0.00     0.191 HD
ENDBRANCH   3  14
BRANCH   7  21
HETATM   21  O   UNK N   1      28.551  19.965   4.180  0.00  0.00    -0.389 OA
HETATM   22  H   UNK N   1      28.406  20.868   4.506  0.00  0.00     0.210 HD
ENDBRANCH   7  21
TORSDOF 2
ENDMDL
MODEL 9
REMARK VINA RESULT:      -5.7      3.551      7.484
REMARK  2 active torsions:
REMARK  status: ('A' for Active; 'I' for Inactive)
REMARK    1  A    between atoms: O_1  and  C_11 
REMARK    2  A    between atoms: N_5  and  N_7 
REMARK       I    between atoms: N_7  and  C_18 
REMARK       I    between atoms: N_8  and  C_18 
ROOT
HETATM    1  O   UNK N   1      36.622  11.470  13.073  0.00  0.00    -0.286 OA
HETATM    2  N   UNK N   1      35.311  11.369  17.668  0.00  0.00    -0.382 N 
HETATM    3  N   UNK N   1      36.806  14.315  13.248  0.00  0.00    -0.293 N 
ATOM      4  HN  UNK N   1      36.848  15.324  13.391  1.00  0.00     0.187 HD
HETATM    5  C   UNK N   1      35.791  13.361  16.552  0.00  0.00     0.001 A 
HETATM    6  C   UNK N   1      35.706  11.932  16.438  0.00  0.00     0.042 A 
HETATM    7  C   UNK N   1      35.423  13.688  17.943  0.00  0.00     0.171 A 
HETATM    8  C   UNK N   1      36.464  13.554  14.233  0.00  0.00     0.099 A 
HETATM    9  C   UNK N   1      36.143  14.170  15.545  0.00  0.00     0.047 A 
HETATM   10  C   UNK N   1      36.374  12.052  14.117  0.00  0.00     0.202 A 
HETATM   11  C   UNK N   1      35.972  11.267  15.307  0.00  0.00     0.087 A 
HETATM   12  C   UNK N   1      35.103  12.378  18.696  0.00  0.00     0.159 A 
HETATM   13  C   UNK N   1      35.131   9.959  17.895  0.00  0.00     0.150 C 
ENDROOT
BRANCH   3  14
HETATM   14  N   UNK N   1      37.114  13.801  12.012  0.00  0.00    -0.251 N 
HETATM   15  C   UNK N   1      36.787  14.449  10.875  0.00  0.00     0.332 C 
HETATM   16  O   UNK N   1      36.203  15.520  10.915  0.00  0.00    -0.246 OA
HETATM   17  N   UNK N   1      37.110  13.906   9.686  0.00  0.00    -0.351 N 
HETATM   18  H   UNK N   1      37.581  13.042   9.650  0.00  0.00     0.160 HD
HETATM   19  H   UNK N   1      36.875  14.374   8.852  0.00  0.00     0.160 HD
HETATM   20  H   UNK N   1      37.584  12.938  11.955  0.00  0.00     0.191 HD
ENDBRANCH   3  14
BRANCH   7  21
HETATM   21  O   UNK N   1      35.376  14.973  18.481  0.00  0.00    -0.389 OA
HETATM   22  H   UNK N   1      35.168  15.731  17.912  0.00  0.00     0.210 HD
ENDBRANCH   7  21
TORSDOF 2
ENDMDL
