REMARK  4 active torsions:
REMARK  status: ('A' for Active; 'I' for Inactive)
REMARK    1  A    between atoms: N_2  and  N_3 
REMARK       I    between atoms: N_2  and  C_5 
REMARK    2  A    between atoms: N_3  and  C_7 
REMARK    3  A    between atoms: C_4  and  C_5 
REMARK    4  A    between atoms: C_6  and  C_7 
ROOT
HETATM    1  O   UNK N   1       1.654   2.268   0.000  0.00  0.00    -0.266 OA
HETATM    2  N   UNK N   1       0.165   0.616   0.000  0.00  0.00    -0.270 N 
HETATM    3  C   UNK N   1       1.453   1.064   0.000  0.00  0.00     0.269 C 
HETATM    4  H   UNK N   1      -0.569   1.272   0.000  0.00  0.00     0.190 HD
ENDROOT
BRANCH   2   5
HETATM    5  N   UNK N   1      -0.139  -0.737  -0.000  0.00  0.00    -0.325 N 
HETATM    6  H   UNK N   1       0.573  -1.467  -0.000  0.00  0.00     0.181 HD
BRANCH   5   7
HETATM    7  C   UNK N   1      -1.577  -1.025   0.000  0.00  0.00     0.128 C 
HETATM    8  C   UNK N   1      -1.909  -2.508  -0.000  0.00  0.00     0.039 C 
BRANCH   7   9
HETATM    9  C   UNK N   1      -2.693   0.002   0.000  0.00  0.00    -0.035 A 
HETATM   10  C   UNK N   1      -4.023  -0.448   0.000  0.00  0.00     0.009 A 
HETATM   11  C   UNK N   1      -5.083   0.460  -0.000  0.00  0.00     0.001 A 
HETATM   12  C   UNK N   1      -4.825   1.832  -0.000  0.00  0.00     0.000 A 
HETATM   13  C   UNK N   1      -3.507   2.293  -0.000  0.00  0.00     0.001 A 
HETATM   14  C   UNK N   1      -2.447   1.383  -0.000  0.00  0.00     0.009 A 
ENDBRANCH   7   9
ENDBRANCH   5   7
ENDBRANCH   2   5
BRANCH   3  15
HETATM   15  C   UNK N   1       2.629   0.132  -0.000  0.00  0.00     0.033 A 
HETATM   16  C   UNK N   1       3.934   0.654  -0.000  0.00  0.00     0.017 A 
HETATM   17  C   UNK N   1       5.041  -0.203  -0.000  0.00  0.00     0.001 A 
HETATM   18  C   UNK N   1       4.857  -1.588  -0.000  0.00  0.00     0.000 A 
HETATM   19  C   UNK N   1       3.568  -2.118   0.000  0.00  0.00     0.001 A 
HETATM   20  C   UNK N   1       2.467  -1.263  -0.000  0.00  0.00     0.017 A 
ENDBRANCH   3  15
TORSDOF 4
