REMARK  5 active torsions:
REMARK  status: ('A' for Active; 'I' for Inactive)
REMARK    1  A    between atoms: N_1  and  N_2 
REMARK    2  A    between atoms: N_2  and  C_3 
REMARK    3  A    between atoms: C_3  and  C_4 
REMARK    4  A    between atoms: C_4  and  C_5 
REMARK    5  A    between atoms: C_5  and  C_6 
ROOT
HETATM    1  C   UNK N   1       0.140  -0.173   0.097  0.00  0.00    -0.055 A 
HETATM    2  C   UNK N   1       0.186  -1.592   0.053  0.00  0.00     0.010 A 
HETATM    3  C   UNK N   1       1.419  -2.263   0.001  0.00  0.00     0.040 A 
HETATM    4  C   UNK N   1       2.569  -1.484  -0.009  0.00  0.00     0.105 A 
HETATM    5  C   UNK N   1       2.533  -0.146   0.031  0.00  0.00     0.105 A 
HETATM    6  C   UNK N   1       1.338   0.564   0.089  0.00  0.00     0.047 A 
HETATM    7  O   UNK N   1       3.774   0.329   0.007  0.00  0.00    -0.323 OA
HETATM    8  C   UNK N   1       4.659  -0.754  -0.051  0.00  0.00     0.352 A 
HETATM    9  O   UNK N   1       3.837  -1.885  -0.058  0.00  0.00    -0.323 OA
ENDROOT
BRANCH   1  10
HETATM   10  C   UNK N   1      -1.159   0.567   0.154  0.00  0.00     0.041 C 
BRANCH  10  11
HETATM   11  C   UNK N   1      -2.353  -0.334  -0.123  0.00  0.00     0.031 C 
BRANCH  11  12
HETATM   12  C   UNK N   1      -3.651   0.363   0.220  0.00  0.00     0.095 C 
HETATM   13  C   UNK N   1      -4.793  -0.584  -0.082  0.00  0.00     0.033 C 
BRANCH  12  14
HETATM   14  N   UNK N   1      -3.796   1.571  -0.575  0.00  0.00    -0.339 N 
HETATM   15  H   UNK N   1      -3.505   1.701  -1.543  0.00  0.00     0.180 HD
BRANCH  14  16
HETATM   16  N   UNK N   1      -4.415   2.523   0.246  0.00  0.00    -0.349 N 
HETATM   17  H   UNK N   1      -4.040   3.259   0.844  0.00  0.00     0.176 HD
HETATM   18  H   UNK N   1      -5.433   2.469   0.246  0.00  0.00     0.176 HD
ENDBRANCH  14  16
ENDBRANCH  12  14
ENDBRANCH  11  12
ENDBRANCH  10  11
ENDBRANCH   1  10
TORSDOF 5
