MODEL 1
REMARK VINA RESULT:      -5.5      0.000      0.000
REMARK  6 active torsions:
REMARK  status: ('A' for Active; 'I' for Inactive)
REMARK    1  A    between atoms: C_4  and  C_7 
REMARK    2  A    between atoms: C_7  and  O_8 
REMARK    3  A    between atoms: O_8  and  C_9 
REMARK    4  A    between atoms: C_9  and  C_10 
REMARK    5  A    between atoms: C_9  and  C_14 
REMARK    6  A    between atoms: C_10  and  N_11 
ROOT
HETATM    1  O   UNK N   1      34.855  12.982  14.580  0.00  0.00    -0.305 OA
ENDROOT
BRANCH   1   2
HETATM    2  C   UNK N   1      35.716  13.367  15.560  0.00  0.00     0.294 C 
HETATM    3  O   UNK N   1      36.576  14.200  15.323  0.00  0.00    -0.259 OA
BRANCH   2   4
HETATM    4  C   UNK N   1      35.609  12.768  16.901  0.00  0.00     0.039 A 
HETATM    5  C   UNK N   1      35.229  13.549  18.002  0.00  0.00     0.017 A 
HETATM    6  C   UNK N   1      35.109  12.968  19.268  0.00  0.00     0.001 A 
HETATM    7  C   UNK N   1      35.358  11.603  19.436  0.00  0.00     0.000 A 
HETATM    8  C   UNK N   1      35.733  10.819  18.341  0.00  0.00     0.001 A 
HETATM    9  C   UNK N   1      35.859  11.401  17.078  0.00  0.00     0.017 A 
ENDBRANCH   2   4
ENDBRANCH   1   2
BRANCH   1  10
HETATM   10  C   UNK N   1      35.220  12.214  13.486  0.00  0.00     0.093 C 
HETATM   11  C   UNK N   1      36.705  11.884  13.578  0.00  0.00     0.048 C 
BRANCH  10  12
HETATM   12  C   UNK N   1      34.985  13.055  12.225  0.00  0.00     0.309 C 
BRANCH  12  13
HETATM   13  N   UNK N   1      36.168  13.817  11.845  0.00  0.00     0.082 N 
HETATM   14  C   UNK N   1      35.853  15.220  12.042  0.00  0.00     0.309 C 
HETATM   15  C   UNK N   1      36.365  13.631  10.418  0.00  0.00     0.309 C 
ENDBRANCH  12  13
ENDBRANCH  10  12
BRANCH  10  16
HETATM   16  C   UNK N   1      34.433  10.895  13.430  0.00  0.00     0.035 C 
HETATM   17  C   UNK N   1      33.427  10.767  14.563  0.00  0.00     0.008 C 
ENDBRANCH  10  16
ENDBRANCH   1  10
TORSDOF 6
ENDMDL
MODEL 2
REMARK VINA RESULT:      -5.4      5.127      9.119
REMARK  6 active torsions:
REMARK  status: ('A' for Active; 'I' for Inactive)
REMARK    1  A    between atoms: C_4  and  C_7 
REMARK    2  A    between atoms: C_7  and  O_8 
REMARK    3  A    between atoms: O_8  and  C_9 
REMARK    4  A    between atoms: C_9  and  C_10 
REMARK    5  A    between atoms: C_9  and  C_14 
REMARK    6  A    between atoms: C_10  and  N_11 
ROOT
HETATM    1  O   UNK N   1      34.546  17.275   9.707  0.00  0.00    -0.305 OA
ENDROOT
BRANCH   1   2
HETATM    2  C   UNK N   1      34.438  18.024   8.577  0.00  0.00     0.294 C 
HETATM    3  O   UNK N   1      35.225  18.935   8.373  0.00  0.00    -0.259 OA
BRANCH   2   4
HETATM    4  C   UNK N   1      33.367  17.735   7.610  0.00  0.00     0.039 A 
HETATM    5  C   UNK N   1      33.658  17.595   6.245  0.00  0.00     0.017 A 
HETATM    6  C   UNK N   1      32.638  17.299   5.336  0.00  0.00     0.001 A 
HETATM    7  C   UNK N   1      31.326  17.132   5.788  0.00  0.00     0.000 A 
HETATM    8  C   UNK N   1      31.031  17.267   7.148  0.00  0.00     0.001 A 
HETATM    9  C   UNK N   1      32.049  17.569   8.055  0.00  0.00     0.017 A 
ENDBRANCH   2   4
ENDBRANCH   1   2
BRANCH   1  10
HETATM   10  C   UNK N   1      34.912  15.938   9.719  0.00  0.00     0.093 C 
HETATM   11  C   UNK N   1      33.714  15.095  10.141  0.00  0.00     0.048 C 
BRANCH  10  12
HETATM   12  C   UNK N   1      36.021  15.767  10.765  0.00  0.00     0.309 C 
BRANCH  12  13
HETATM   13  N   UNK N   1      35.923  14.492  11.466  0.00  0.00     0.082 N 
HETATM   14  C   UNK N   1      36.103  14.768  12.880  0.00  0.00     0.309 C 
HETATM   15  C   UNK N   1      37.054  13.681  11.053  0.00  0.00     0.309 C 
ENDBRANCH  12  13
ENDBRANCH  10  12
BRANCH  10  16
HETATM   16  C   UNK N   1      35.375  15.464   8.333  0.00  0.00     0.035 C 
HETATM   17  C   UNK N   1      34.619  14.234   7.854  0.00  0.00     0.008 C 
ENDBRANCH  10  16
ENDBRANCH   1  10
TORSDOF 6
ENDMDL
MODEL 3
REMARK VINA RESULT:      -5.3     21.527     24.436
REMARK  6 active torsions:
REMARK  status: ('A' for Active; 'I' for Inactive)
REMARK    1  A    between atoms: C_4  and  C_7 
REMARK    2  A    between atoms: C_7  and  O_8 
REMARK    3  A    between atoms: O_8  and  C_9 
REMARK    4  A    between atoms: C_9  and  C_10 
REMARK    5  A    between atoms: C_9  and  C_14 
REMARK    6  A    between atoms: C_10  and  N_11 
ROOT
HETATM    1  O   UNK N   1      27.777  23.663  -4.628  0.00  0.00    -0.305 OA
ENDROOT
BRANCH   1   2
HETATM    2  C   UNK N   1      26.991  24.307  -3.725  0.00  0.00     0.294 C 
HETATM    3  O   UNK N   1      26.840  23.840  -2.607  0.00  0.00    -0.259 OA
BRANCH   2   4
HETATM    4  C   UNK N   1      26.321  25.561  -4.104  0.00  0.00     0.039 A 
HETATM    5  C   UNK N   1      26.395  26.689  -3.272  0.00  0.00     0.017 A 
HETATM    6  C   UNK N   1      25.773  27.882  -3.651  0.00  0.00     0.001 A 
HETATM    7  C   UNK N   1      25.084  27.957  -4.864  0.00  0.00     0.000 A 
HETATM    8  C   UNK N   1      25.010  26.838  -5.698  0.00  0.00     0.001 A 
HETATM    9  C   UNK N   1      25.626  25.643  -5.317  0.00  0.00     0.017 A 
ENDBRANCH   2   4
ENDBRANCH   1   2
BRANCH   1  10
HETATM   10  C   UNK N   1      29.141  23.875  -4.759  0.00  0.00     0.093 C 
HETATM   11  C   UNK N   1      29.389  24.856  -5.899  0.00  0.00     0.048 C 
BRANCH  10  12
HETATM   12  C   UNK N   1      29.790  22.533  -5.121  0.00  0.00     0.309 C 
BRANCH  12  13
HETATM   13  N   UNK N   1      30.964  22.252  -4.304  0.00  0.00     0.082 N 
HETATM   14  C   UNK N   1      32.105  22.203  -5.200  0.00  0.00     0.309 C 
HETATM   15  C   UNK N   1      30.805  20.915  -3.761  0.00  0.00     0.309 C 
ENDBRANCH  12  13
ENDBRANCH  10  12
BRANCH  10  16
HETATM   16  C   UNK N   1      29.750  24.460  -3.475  0.00  0.00     0.035 C 
HETATM   17  C   UNK N   1      30.426  25.802  -3.708  0.00  0.00     0.008 C 
ENDBRANCH  10  16
ENDBRANCH   1  10
TORSDOF 6
ENDMDL
MODEL 4
REMARK VINA RESULT:      -5.3     21.301     24.298
REMARK  6 active torsions:
REMARK  status: ('A' for Active; 'I' for Inactive)
REMARK    1  A    between atoms: C_4  and  C_7 
REMARK    2  A    between atoms: C_7  and  O_8 
REMARK    3  A    between atoms: O_8  and  C_9 
REMARK    4  A    between atoms: C_9  and  C_10 
REMARK    5  A    between atoms: C_9  and  C_14 
REMARK    6  A    between atoms: C_10  and  N_11 
ROOT
HETATM    1  O   UNK N   1      28.191  23.622  -4.105  0.00  0.00    -0.305 OA
ENDROOT
BRANCH   1   2
HETATM    2  C   UNK N   1      27.244  24.268  -3.373  0.00  0.00     0.294 C 
HETATM    3  O   UNK N   1      27.026  23.925  -2.221  0.00  0.00    -0.259 OA
BRANCH   2   4
HETATM    4  C   UNK N   1      26.483  25.373  -3.977  0.00  0.00     0.039 A 
HETATM    5  C   UNK N   1      26.413  26.622  -3.341  0.00  0.00     0.017 A 
HETATM    6  C   UNK N   1      25.705  27.672  -3.933  0.00  0.00     0.001 A 
HETATM    7  C   UNK N   1      25.073  27.482  -5.165  0.00  0.00     0.000 A 
HETATM    8  C   UNK N   1      25.143  26.241  -5.805  0.00  0.00     0.001 A 
HETATM    9  C   UNK N   1      25.845  25.190  -5.210  0.00  0.00     0.017 A 
ENDBRANCH   2   4
ENDBRANCH   1   2
BRANCH   1  10
HETATM   10  C   UNK N   1      29.555  23.749  -3.892  0.00  0.00     0.093 C 
HETATM   11  C   UNK N   1      29.905  25.225  -3.749  0.00  0.00     0.048 C 
BRANCH  10  12
HETATM   12  C   UNK N   1      30.274  23.196  -5.129  0.00  0.00     0.309 C 
BRANCH  12  13
HETATM   13  N   UNK N   1      29.362  22.506  -6.033  0.00  0.00     0.082 N 
HETATM   14  C   UNK N   1      29.873  21.159  -6.209  0.00  0.00     0.309 C 
HETATM   15  C   UNK N   1      29.456  23.158  -7.327  0.00  0.00     0.309 C 
ENDBRANCH  12  13
ENDBRANCH  10  12
BRANCH  10  16
HETATM   16  C   UNK N   1      30.000  23.019  -2.616  0.00  0.00     0.035 C 
HETATM   17  C   UNK N   1      31.263  22.197  -2.823  0.00  0.00     0.008 C 
ENDBRANCH  10  16
ENDBRANCH   1  10
TORSDOF 6
ENDMDL
MODEL 5
REMARK VINA RESULT:      -5.2     24.048     25.625
REMARK  6 active torsions:
REMARK  status: ('A' for Active; 'I' for Inactive)
REMARK    1  A    between atoms: C_4  and  C_7 
REMARK    2  A    between atoms: C_7  and  O_8 
REMARK    3  A    between atoms: O_8  and  C_9 
REMARK    4  A    between atoms: C_9  and  C_10 
REMARK    5  A    between atoms: C_9  and  C_14 
REMARK    6  A    between atoms: C_10  and  N_11 
ROOT
HETATM    1  O   UNK N   1      26.093  25.762  -3.662  0.00  0.00    -0.305 OA
ENDROOT
BRANCH   1   2
HETATM    2  C   UNK N   1      26.661  24.526  -3.670  0.00  0.00     0.294 C 
HETATM    3  O   UNK N   1      26.992  24.002  -2.618  0.00  0.00    -0.259 OA
BRANCH   2   4
HETATM    4  C   UNK N   1      26.879  23.832  -4.949  0.00  0.00     0.039 A 
HETATM    5  C   UNK N   1      25.802  23.563  -5.807  0.00  0.00     0.017 A 
HETATM    6  C   UNK N   1      26.022  22.922  -7.030  0.00  0.00     0.001 A 
HETATM    7  C   UNK N   1      27.317  22.558  -7.405  0.00  0.00     0.000 A 
HETATM    8  C   UNK N   1      28.395  22.827  -6.556  0.00  0.00     0.001 A 
HETATM    9  C   UNK N   1      28.175  23.461  -5.331  0.00  0.00     0.017 A 
ENDBRANCH   2   4
ENDBRANCH   1   2
BRANCH   1  10
HETATM   10  C   UNK N   1      26.729  26.910  -4.109  0.00  0.00     0.093 C 
HETATM   11  C   UNK N   1      28.234  26.671  -4.134  0.00  0.00     0.048 C 
BRANCH  10  12
HETATM   12  C   UNK N   1      26.431  28.030  -3.104  0.00  0.00     0.309 C 
BRANCH  12  13
HETATM   13  N   UNK N   1      27.289  29.191  -3.305  0.00  0.00     0.082 N 
HETATM   14  C   UNK N   1      27.872  29.519  -2.017  0.00  0.00     0.309 C 
HETATM   15  C   UNK N   1      26.434  30.306  -3.670  0.00  0.00     0.309 C 
ENDBRANCH  12  13
ENDBRANCH  10  12
BRANCH  10  16
HETATM   16  C   UNK N   1      26.276  27.296  -5.525  0.00  0.00     0.035 C 
HETATM   17  C   UNK N   1      24.778  27.125  -5.727  0.00  0.00     0.008 C 
ENDBRANCH  10  16
ENDBRANCH   1  10
TORSDOF 6
ENDMDL
MODEL 6
REMARK VINA RESULT:      -4.8      6.782      9.840
REMARK  6 active torsions:
REMARK  status: ('A' for Active; 'I' for Inactive)
REMARK    1  A    between atoms: C_4  and  C_7 
REMARK    2  A    between atoms: C_7  and  O_8 
REMARK    3  A    between atoms: O_8  and  C_9 
REMARK    4  A    between atoms: C_9  and  C_10 
REMARK    5  A    between atoms: C_9  and  C_14 
REMARK    6  A    between atoms: C_10  and  N_11 
ROOT
HETATM    1  O   UNK N   1      33.651  17.146   8.938  0.00  0.00    -0.305 OA
ENDROOT
BRANCH   1   2
HETATM    2  C   UNK N   1      33.881  17.790   7.763  0.00  0.00     0.294 C 
HETATM    3  O   UNK N   1      34.800  18.591   7.677  0.00  0.00    -0.259 OA
BRANCH   2   4
HETATM    4  C   UNK N   1      33.016  17.523   6.603  0.00  0.00     0.039 A 
HETATM    5  C   UNK N   1      31.648  17.267   6.778  0.00  0.00     0.017 A 
HETATM    6  C   UNK N   1      30.829  17.035   5.669  0.00  0.00     0.001 A 
HETATM    7  C   UNK N   1      31.371  17.067   4.381  0.00  0.00     0.000 A 
HETATM    8  C   UNK N   1      32.733  17.325   4.201  0.00  0.00     0.001 A 
HETATM    9  C   UNK N   1      33.553  17.550   5.309  0.00  0.00     0.017 A 
ENDBRANCH   2   4
ENDBRANCH   1   2
BRANCH   1  10
HETATM   10  C   UNK N   1      34.403  16.076   9.396  0.00  0.00     0.093 C 
HETATM   11  C   UNK N   1      35.344  16.558  10.494  0.00  0.00     0.048 C 
BRANCH  10  12
HETATM   12  C   UNK N   1      35.246  15.561   8.223  0.00  0.00     0.309 C 
BRANCH  12  13
HETATM   13  N   UNK N   1      35.000  14.151   7.946  0.00  0.00     0.082 N 
HETATM   14  C   UNK N   1      36.287  13.480   7.975  0.00  0.00     0.309 C 
HETATM   15  C   UNK N   1      34.512  14.055   6.582  0.00  0.00     0.309 C 
ENDBRANCH  12  13
ENDBRANCH  10  12
BRANCH  10  16
HETATM   16  C   UNK N   1      33.514  14.963   9.974  0.00  0.00     0.035 C 
HETATM   17  C   UNK N   1      32.057  15.107   9.563  0.00  0.00     0.008 C 
ENDBRANCH  10  16
ENDBRANCH   1  10
TORSDOF 6
ENDMDL
MODEL 7
REMARK VINA RESULT:      -4.8      9.683     12.967
REMARK  6 active torsions:
REMARK  status: ('A' for Active; 'I' for Inactive)
REMARK    1  A    between atoms: C_4  and  C_7 
REMARK    2  A    between atoms: C_7  and  O_8 
REMARK    3  A    between atoms: O_8  and  C_9 
REMARK    4  A    between atoms: C_9  and  C_10 
REMARK    5  A    between atoms: C_9  and  C_14 
REMARK    6  A    between atoms: C_10  and  N_11 
ROOT
HETATM    1  O   UNK N   1      29.875  16.597   5.777  0.00  0.00    -0.305 OA
ENDROOT
BRANCH   1   2
HETATM    2  C   UNK N   1      28.883  17.049   4.964  0.00  0.00     0.294 C 
HETATM    3  O   UNK N   1      28.528  16.380   4.006  0.00  0.00    -0.259 OA
BRANCH   2   4
HETATM    4  C   UNK N   1      28.247  18.347   5.242  0.00  0.00     0.039 A 
HETATM    5  C   UNK N   1      28.173  18.838   6.554  0.00  0.00     0.017 A 
HETATM    6  C   UNK N   1      27.587  20.082   6.806  0.00  0.00     0.001 A 
HETATM    7  C   UNK N   1      27.081  20.843   5.749  0.00  0.00     0.000 A 
HETATM    8  C   UNK N   1      27.155  20.360   4.440  0.00  0.00     0.001 A 
HETATM    9  C   UNK N   1      27.735  19.114   4.188  0.00  0.00     0.017 A 
ENDBRANCH   2   4
ENDBRANCH   1   2
BRANCH   1  10
HETATM   10  C   UNK N   1      31.224  16.661   5.462  0.00  0.00     0.093 C 
HETATM   11  C   UNK N   1      31.695  15.287   4.999  0.00  0.00     0.048 C 
BRANCH  10  12
HETATM   12  C   UNK N   1      31.986  17.031   6.741  0.00  0.00     0.309 C 
BRANCH  12  13
HETATM   13  N   UNK N   1      31.196  16.786   7.941  0.00  0.00     0.082 N 
HETATM   14  C   UNK N   1      31.149  18.034   8.682  0.00  0.00     0.309 C 
HETATM   15  C   UNK N   1      31.935  15.843   8.762  0.00  0.00     0.309 C 
ENDBRANCH  12  13
ENDBRANCH  10  12
BRANCH  10  16
HETATM   16  C   UNK N   1      31.497  17.671   4.338  0.00  0.00     0.035 C 
HETATM   17  C   UNK N   1      32.365  17.093   3.230  0.00  0.00     0.008 C 
ENDBRANCH  10  16
ENDBRANCH   1  10
TORSDOF 6
ENDMDL
MODEL 8
REMARK VINA RESULT:      -4.8      8.102     10.714
REMARK  6 active torsions:
REMARK  status: ('A' for Active; 'I' for Inactive)
REMARK    1  A    between atoms: C_4  and  C_7 
REMARK    2  A    between atoms: C_7  and  O_8 
REMARK    3  A    between atoms: O_8  and  C_9 
REMARK    4  A    between atoms: C_9  and  C_10 
REMARK    5  A    between atoms: C_9  and  C_14 
REMARK    6  A    between atoms: C_10  and  N_11 
ROOT
HETATM    1  O   UNK N   1      32.172  15.692   6.635  0.00  0.00    -0.305 OA
ENDROOT
BRANCH   1   2
HETATM    2  C   UNK N   1      30.834  15.843   6.444  0.00  0.00     0.294 C 
HETATM    3  O   UNK N   1      30.253  15.146   5.628  0.00  0.00    -0.259 OA
BRANCH   2   4
HETATM    4  C   UNK N   1      30.097  16.853   7.220  0.00  0.00     0.039 A 
HETATM    5  C   UNK N   1      28.936  17.444   6.699  0.00  0.00     0.017 A 
HETATM    6  C   UNK N   1      28.230  18.387   7.452  0.00  0.00     0.001 A 
HETATM    7  C   UNK N   1      28.674  18.736   8.730  0.00  0.00     0.000 A 
HETATM    8  C   UNK N   1      29.828  18.147   9.255  0.00  0.00     0.001 A 
HETATM    9  C   UNK N   1      30.538  17.210   8.501  0.00  0.00     0.017 A 
ENDBRANCH   2   4
ENDBRANCH   1   2
BRANCH   1  10
HETATM   10  C   UNK N   1      33.139  16.196   5.779  0.00  0.00     0.093 C 
HETATM   11  C   UNK N   1      33.536  15.115   4.779  0.00  0.00     0.048 C 
BRANCH  10  12
HETATM   12  C   UNK N   1      34.369  16.556   6.622  0.00  0.00     0.309 C 
BRANCH  12  13
HETATM   13  N   UNK N   1      34.010  16.930   7.984  0.00  0.00     0.082 N 
HETATM   14  C   UNK N   1      34.444  18.302   8.178  0.00  0.00     0.309 C 
HETATM   15  C   UNK N   1      34.805  16.112   8.883  0.00  0.00     0.309 C 
ENDBRANCH  12  13
ENDBRANCH  10  12
BRANCH  10  16
HETATM   16  C   UNK N   1      32.624  17.414   4.996  0.00  0.00     0.035 C 
HETATM   17  C   UNK N   1      32.622  17.184   3.493  0.00  0.00     0.008 C 
ENDBRANCH  10  16
ENDBRANCH   1  10
TORSDOF 6
ENDMDL
MODEL 9
REMARK VINA RESULT:      -4.6     22.451     25.483
REMARK  6 active torsions:
REMARK  status: ('A' for Active; 'I' for Inactive)
REMARK    1  A    between atoms: C_4  and  C_7 
REMARK    2  A    between atoms: C_7  and  O_8 
REMARK    3  A    between atoms: O_8  and  C_9 
REMARK    4  A    between atoms: C_9  and  C_10 
REMARK    5  A    between atoms: C_9  and  C_14 
REMARK    6  A    between atoms: C_10  and  N_11 
ROOT
HETATM    1  O   UNK N   1      27.248  23.183  -5.822  0.00  0.00    -0.305 OA
ENDROOT
BRANCH   1   2
HETATM    2  C   UNK N   1      26.090  23.885  -5.950  0.00  0.00     0.294 C 
HETATM    3  O   UNK N   1      25.180  23.440  -6.631  0.00  0.00    -0.259 OA
BRANCH   2   4
HETATM    4  C   UNK N   1      25.946  25.182  -5.270  0.00  0.00     0.039 A 
HETATM    5  C   UNK N   1      25.252  26.235  -5.886  0.00  0.00     0.017 A 
HETATM    6  C   UNK N   1      25.101  27.457  -5.224  0.00  0.00     0.001 A 
HETATM    7  C   UNK N   1      25.633  27.630  -3.944  0.00  0.00     0.000 A 
HETATM    8  C   UNK N   1      26.323  26.583  -3.325  0.00  0.00     0.001 A 
HETATM    9  C   UNK N   1      26.480  25.363  -3.988  0.00  0.00     0.017 A 
ENDBRANCH   2   4
ENDBRANCH   1   2
BRANCH   1  10
HETATM   10  C   UNK N   1      28.306  23.264  -6.714  0.00  0.00     0.093 C 
HETATM   11  C   UNK N   1      28.199  22.128  -7.725  0.00  0.00     0.048 C 
BRANCH  10  12
HETATM   12  C   UNK N   1      29.605  23.086  -5.917  0.00  0.00     0.309 C 
BRANCH  12  13
HETATM   13  N   UNK N   1      29.374  23.112  -4.478  0.00  0.00     0.082 N 
HETATM   14  C   UNK N   1      29.938  24.353  -3.978  0.00  0.00     0.309 C 
HETATM   15  C   UNK N   1      30.153  22.036  -3.893  0.00  0.00     0.309 C 
ENDBRANCH  12  13
ENDBRANCH  10  12
BRANCH  10  16
HETATM   16  C   UNK N   1      28.302  24.596  -7.480  0.00  0.00     0.035 C 
HETATM   17  C   UNK N   1      28.171  24.405  -8.983  0.00  0.00     0.008 C 
ENDBRANCH  10  16
ENDBRANCH   1  10
TORSDOF 6
ENDMDL
