MODEL 1
REMARK VINA RESULT:      -5.1      0.000      0.000
REMARK  4 active torsions:
REMARK  status: ('A' for Active; 'I' for Inactive)
REMARK    1  A    between atoms: N_2  and  N_1 
REMARK    2  A    between atoms: C_5  and  N_1 
REMARK    3  A    between atoms: C_3  and  C_5 
REMARK    4  A    between atoms: C_4  and  C_3 
ROOT
HETATM    1  C   UNK N   1      35.454  13.379  15.803  0.00  0.00     0.064 C 
ENDROOT
BRANCH   1   2
HETATM    2  C   UNK N   1      36.840  13.698  15.239  0.00  0.00     0.099 C 
HETATM    3  C   UNK N   1      37.228  15.084  15.723  0.00  0.00     0.034 C 
BRANCH   2   4
HETATM    4  N   UNK N   1      36.833  13.678  13.784  0.00  0.00    -0.338 N 
HETATM    5  H   UNK N   1      37.073  12.886  13.187  0.00  0.00     0.180 HD
BRANCH   4   6
HETATM    6  N   UNK N   1      36.438  14.957  13.356  0.00  0.00    -0.349 N 
HETATM    7  H   UNK N   1      36.560  15.846  13.842  0.00  0.00     0.176 HD
HETATM    8  H   UNK N   1      35.974  15.003  12.449  0.00  0.00     0.176 HD
ENDBRANCH   4   6
ENDBRANCH   2   4
ENDBRANCH   1   2
BRANCH   1   9
HETATM    9  C   UNK N   1      35.403  12.718  17.154  0.00  0.00    -0.056 A 
HETATM   10  C   UNK N   1      35.172  13.439  18.337  0.00  0.00     0.007 A 
HETATM   11  C   UNK N   1      35.163  12.785  19.572  0.00  0.00     0.001 A 
HETATM   12  C   UNK N   1      35.379  11.405  19.634  0.00  0.00     0.000 A 
HETATM   13  C   UNK N   1      35.606  10.681  18.460  0.00  0.00     0.001 A 
HETATM   14  C   UNK N   1      35.622  11.338  17.226  0.00  0.00     0.007 A 
ENDBRANCH   1   9
TORSDOF 4
ENDMDL
MODEL 2
REMARK VINA RESULT:      -4.9      1.147      1.968
REMARK  4 active torsions:
REMARK  status: ('A' for Active; 'I' for Inactive)
REMARK    1  A    between atoms: N_2  and  N_1 
REMARK    2  A    between atoms: C_5  and  N_1 
REMARK    3  A    between atoms: C_3  and  C_5 
REMARK    4  A    between atoms: C_4  and  C_3 
ROOT
HETATM    1  C   UNK N   1      35.184  13.037  15.311  0.00  0.00     0.064 C 
ENDROOT
BRANCH   1   2
HETATM    2  C   UNK N   1      36.380  13.800  14.736  0.00  0.00     0.099 C 
HETATM    3  C   UNK N   1      35.996  14.284  13.348  0.00  0.00     0.034 C 
BRANCH   2   4
HETATM    4  N   UNK N   1      37.554  12.945  14.642  0.00  0.00    -0.338 N 
HETATM    5  H   UNK N   1      38.248  12.785  15.373  0.00  0.00     0.180 HD
BRANCH   4   6
HETATM    6  N   UNK N   1      37.553  12.384  13.353  0.00  0.00    -0.349 N 
HETATM    7  H   UNK N   1      38.243  12.512  12.613  0.00  0.00     0.176 HD
HETATM    8  H   UNK N   1      36.766  11.774  13.131  0.00  0.00     0.176 HD
ENDBRANCH   4   6
ENDBRANCH   2   4
ENDBRANCH   1   2
BRANCH   1   9
HETATM    9  C   UNK N   1      35.269  12.625  16.755  0.00  0.00    -0.056 A 
HETATM   10  C   UNK N   1      35.462  11.291  17.147  0.00  0.00     0.007 A 
HETATM   11  C   UNK N   1      35.505  10.953  18.503  0.00  0.00     0.001 A 
HETATM   12  C   UNK N   1      35.362  11.946  19.476  0.00  0.00     0.000 A 
HETATM   13  C   UNK N   1      35.174  13.276  19.092  0.00  0.00     0.001 A 
HETATM   14  C   UNK N   1      35.123  13.612  17.737  0.00  0.00     0.007 A 
ENDBRANCH   1   9
TORSDOF 4
ENDMDL
MODEL 3
REMARK VINA RESULT:      -4.8      1.243      1.685
REMARK  4 active torsions:
REMARK  status: ('A' for Active; 'I' for Inactive)
REMARK    1  A    between atoms: N_2  and  N_1 
REMARK    2  A    between atoms: C_5  and  N_1 
REMARK    3  A    between atoms: C_3  and  C_5 
REMARK    4  A    between atoms: C_4  and  C_3 
ROOT
HETATM    1  C   UNK N   1      35.636  11.819  15.282  0.00  0.00     0.064 C 
ENDROOT
BRANCH   1   2
HETATM    2  C   UNK N   1      35.591  13.016  14.330  0.00  0.00     0.099 C 
HETATM    3  C   UNK N   1      34.947  12.552  13.034  0.00  0.00     0.034 C 
BRANCH   2   4
HETATM    4  N   UNK N   1      36.928  13.519  14.052  0.00  0.00    -0.338 N 
HETATM    5  H   UNK N   1      37.738  12.966  13.774  0.00  0.00     0.180 HD
BRANCH   4   6
HETATM    6  N   UNK N   1      36.891  14.912  14.241  0.00  0.00    -0.349 N 
HETATM    7  H   UNK N   1      36.365  15.603  13.706  0.00  0.00     0.176 HD
HETATM    8  H   UNK N   1      37.459  15.274  15.007  0.00  0.00     0.176 HD
ENDBRANCH   4   6
ENDBRANCH   2   4
ENDBRANCH   1   2
BRANCH   1   9
HETATM    9  C   UNK N   1      35.483  12.109  16.750  0.00  0.00    -0.056 A 
HETATM   10  C   UNK N   1      35.232  13.402  17.239  0.00  0.00     0.007 A 
HETATM   11  C   UNK N   1      35.126  13.627  18.615  0.00  0.00     0.001 A 
HETATM   12  C   UNK N   1      35.264  12.563  19.511  0.00  0.00     0.000 A 
HETATM   13  C   UNK N   1      35.509  11.274  19.029  0.00  0.00     0.001 A 
HETATM   14  C   UNK N   1      35.623  11.051  17.655  0.00  0.00     0.007 A 
ENDBRANCH   1   9
TORSDOF 4
ENDMDL
MODEL 4
REMARK VINA RESULT:      -4.7      9.805     11.030
REMARK  4 active torsions:
REMARK  status: ('A' for Active; 'I' for Inactive)
REMARK    1  A    between atoms: N_2  and  N_1 
REMARK    2  A    between atoms: C_5  and  N_1 
REMARK    3  A    between atoms: C_3  and  C_5 
REMARK    4  A    between atoms: C_4  and  C_3 
ROOT
HETATM    1  C   UNK N   1      32.232  17.299   7.663  0.00  0.00     0.064 C 
ENDROOT
BRANCH   1   2
HETATM    2  C   UNK N   1      33.272  17.727   8.700  0.00  0.00     0.099 C 
HETATM    3  C   UNK N   1      34.465  18.296   7.951  0.00  0.00     0.034 C 
BRANCH   2   4
HETATM    4  N   UNK N   1      33.704  16.597   9.509  0.00  0.00    -0.338 N 
HETATM    5  H   UNK N   1      33.312  15.655   9.494  0.00  0.00     0.180 HD
BRANCH   4   6
HETATM    6  N   UNK N   1      34.761  17.050  10.318  0.00  0.00    -0.349 N 
HETATM    7  H   UNK N   1      35.621  16.557  10.559  0.00  0.00     0.176 HD
HETATM    8  H   UNK N   1      34.655  17.985  10.711  0.00  0.00     0.176 HD
ENDBRANCH   4   6
ENDBRANCH   2   4
ENDBRANCH   1   2
BRANCH   1   9
HETATM    9  C   UNK N   1      30.786  17.526   8.013  0.00  0.00    -0.056 A 
HETATM   10  C   UNK N   1      29.734  17.006   7.243  0.00  0.00     0.007 A 
HETATM   11  C   UNK N   1      28.406  17.268   7.593  0.00  0.00     0.001 A 
HETATM   12  C   UNK N   1      28.121  18.048   8.718  0.00  0.00     0.000 A 
HETATM   13  C   UNK N   1      29.164  18.565   9.491  0.00  0.00     0.001 A 
HETATM   14  C   UNK N   1      30.491  18.309   9.135  0.00  0.00     0.007 A 
ENDBRANCH   1   9
TORSDOF 4
ENDMDL
MODEL 5
REMARK VINA RESULT:      -4.7      1.854      2.500
REMARK  4 active torsions:
REMARK  status: ('A' for Active; 'I' for Inactive)
REMARK    1  A    between atoms: N_2  and  N_1 
REMARK    2  A    between atoms: C_5  and  N_1 
REMARK    3  A    between atoms: C_3  and  C_5 
REMARK    4  A    between atoms: C_4  and  C_3 
ROOT
HETATM    1  C   UNK N   1      35.796  11.793  15.167  0.00  0.00     0.064 C 
ENDROOT
BRANCH   1   2
HETATM    2  C   UNK N   1      34.572  11.889  14.254  0.00  0.00     0.099 C 
HETATM    3  C   UNK N   1      33.614  10.777  14.646  0.00  0.00     0.034 C 
BRANCH   2   4
HETATM    4  N   UNK N   1      34.944  11.735  12.856  0.00  0.00    -0.338 N 
HETATM    5  H   UNK N   1      35.384  10.917  12.431  0.00  0.00     0.180 HD
BRANCH   4   6
HETATM    6  N   UNK N   1      34.588  12.926  12.201  0.00  0.00    -0.349 N 
HETATM    7  H   UNK N   1      33.744  13.485  12.332  0.00  0.00     0.176 HD
HETATM    8  H   UNK N   1      35.253  13.274  11.510  0.00  0.00     0.176 HD
ENDBRANCH   4   6
ENDBRANCH   2   4
ENDBRANCH   1   2
BRANCH   1   9
HETATM    9  C   UNK N   1      35.584  12.098  16.625  0.00  0.00    -0.056 A 
HETATM   10  C   UNK N   1      35.304  13.393  17.090  0.00  0.00     0.007 A 
HETATM   11  C   UNK N   1      35.144  13.632  18.458  0.00  0.00     0.001 A 
HETATM   12  C   UNK N   1      35.257  12.578  19.370  0.00  0.00     0.000 A 
HETATM   13  C   UNK N   1      35.531  11.287  18.913  0.00  0.00     0.001 A 
HETATM   14  C   UNK N   1      35.699  11.050  17.546  0.00  0.00     0.007 A 
ENDBRANCH   1   9
TORSDOF 4
ENDMDL
MODEL 6
REMARK VINA RESULT:      -4.7     14.975     16.098
REMARK  4 active torsions:
REMARK  status: ('A' for Active; 'I' for Inactive)
REMARK    1  A    between atoms: N_2  and  N_1 
REMARK    2  A    between atoms: C_5  and  N_1 
REMARK    3  A    between atoms: C_3  and  C_5 
REMARK    4  A    between atoms: C_4  and  C_3 
ROOT
HETATM    1  C   UNK N   1      21.560  12.350  10.870  0.00  0.00     0.064 C 
ENDROOT
BRANCH   1   2
HETATM    2  C   UNK N   1      23.024  11.976  11.113  0.00  0.00     0.099 C 
HETATM    3  C   UNK N   1      23.231  11.868  12.614  0.00  0.00     0.034 C 
BRANCH   2   4
HETATM    4  N   UNK N   1      23.922  12.985  10.573  0.00  0.00    -0.338 N 
HETATM    5  H   UNK N   1      23.664  13.769   9.974  0.00  0.00     0.180 HD
BRANCH   4   6
HETATM    6  N   UNK N   1      25.215  12.673  11.031  0.00  0.00    -0.349 N 
HETATM    7  H   UNK N   1      25.819  13.235  11.631  0.00  0.00     0.176 HD
HETATM    8  H   UNK N   1      25.594  11.776  10.726  0.00  0.00     0.176 HD
ENDBRANCH   4   6
ENDBRANCH   2   4
ENDBRANCH   1   2
BRANCH   1   9
HETATM    9  C   UNK N   1      21.251  13.105   9.606  0.00  0.00    -0.056 A 
HETATM   10  C   UNK N   1      20.717  14.404   9.617  0.00  0.00     0.007 A 
HETATM   11  C   UNK N   1      20.419  15.055   8.416  0.00  0.00     0.001 A 
HETATM   12  C   UNK N   1      20.657  14.415   7.196  0.00  0.00     0.000 A 
HETATM   13  C   UNK N   1      21.192  13.124   7.179  0.00  0.00     0.001 A 
HETATM   14  C   UNK N   1      21.483  12.471   8.380  0.00  0.00     0.007 A 
ENDBRANCH   1   9
TORSDOF 4
ENDMDL
MODEL 7
REMARK VINA RESULT:      -4.7      1.939      3.285
REMARK  4 active torsions:
REMARK  status: ('A' for Active; 'I' for Inactive)
REMARK    1  A    between atoms: N_2  and  N_1 
REMARK    2  A    between atoms: C_5  and  N_1 
REMARK    3  A    between atoms: C_3  and  C_5 
REMARK    4  A    between atoms: C_4  and  C_3 
ROOT
HETATM    1  C   UNK N   1      36.551  13.015  14.369  0.00  0.00     0.064 C 
ENDROOT
BRANCH   1   2
HETATM    2  C   UNK N   1      35.951  13.628  13.102  0.00  0.00     0.099 C 
HETATM    3  C   UNK N   1      35.053  12.583  12.463  0.00  0.00     0.034 C 
BRANCH   2   4
HETATM    4  N   UNK N   1      36.991  14.012  12.159  0.00  0.00    -0.338 N 
HETATM    5  H   UNK N   1      37.806  13.457  11.895  0.00  0.00     0.180 HD
BRANCH   4   6
HETATM    6  N   UNK N   1      36.664  15.294  11.683  0.00  0.00    -0.349 N 
HETATM    7  H   UNK N   1      35.967  15.542  10.980  0.00  0.00     0.176 HD
HETATM    8  H   UNK N   1      37.186  16.069  12.091  0.00  0.00     0.176 HD
ENDBRANCH   4   6
ENDBRANCH   2   4
ENDBRANCH   1   2
BRANCH   1   9
HETATM    9  C   UNK N   1      36.460  13.832  15.629  0.00  0.00    -0.056 A 
HETATM   10  C   UNK N   1      35.615  13.481  16.695  0.00  0.00     0.007 A 
HETATM   11  C   UNK N   1      35.544  14.287  17.834  0.00  0.00     0.001 A 
HETATM   12  C   UNK N   1      36.321  15.447  17.920  0.00  0.00     0.000 A 
HETATM   13  C   UNK N   1      37.167  15.799  16.865  0.00  0.00     0.001 A 
HETATM   14  C   UNK N   1      37.231  14.996  15.723  0.00  0.00     0.007 A 
ENDBRANCH   1   9
TORSDOF 4
ENDMDL
MODEL 8
REMARK VINA RESULT:      -4.5     26.455     28.181
REMARK  4 active torsions:
REMARK  status: ('A' for Active; 'I' for Inactive)
REMARK    1  A    between atoms: N_2  and  N_1 
REMARK    2  A    between atoms: C_5  and  N_1 
REMARK    3  A    between atoms: C_3  and  C_5 
REMARK    4  A    between atoms: C_4  and  C_3 
ROOT
HETATM    1  C   UNK N   1      25.706  25.883  -6.374  0.00  0.00     0.064 C 
ENDROOT
BRANCH   1   2
HETATM    2  C   UNK N   1      25.756  24.633  -5.494  0.00  0.00     0.099 C 
HETATM    3  C   UNK N   1      27.189  24.455  -5.023  0.00  0.00     0.034 C 
BRANCH   2   4
HETATM    4  N   UNK N   1      25.340  23.451  -6.234  0.00  0.00    -0.338 N 
HETATM    5  H   UNK N   1      25.117  22.536  -5.840  0.00  0.00     0.180 HD
BRANCH   4   6
HETATM    6  N   UNK N   1      25.307  23.806  -7.593  0.00  0.00    -0.349 N 
HETATM    7  H   UNK N   1      24.859  24.619  -8.018  0.00  0.00     0.176 HD
HETATM    8  H   UNK N   1      25.789  23.175  -8.233  0.00  0.00     0.176 HD
ENDBRANCH   4   6
ENDBRANCH   2   4
ENDBRANCH   1   2
BRANCH   1   9
HETATM    9  C   UNK N   1      26.156  27.176  -5.749  0.00  0.00    -0.056 A 
HETATM   10  C   UNK N   1      25.591  27.676  -4.565  0.00  0.00     0.007 A 
HETATM   11  C   UNK N   1      26.023  28.897  -4.037  0.00  0.00     0.001 A 
HETATM   12  C   UNK N   1      27.027  29.622  -4.686  0.00  0.00     0.000 A 
HETATM   13  C   UNK N   1      27.596  29.127  -5.862  0.00  0.00     0.001 A 
HETATM   14  C   UNK N   1      27.158  27.911  -6.393  0.00  0.00     0.007 A 
ENDBRANCH   1   9
TORSDOF 4
ENDMDL
MODEL 9
REMARK VINA RESULT:      -4.5     24.095     25.891
REMARK  4 active torsions:
REMARK  status: ('A' for Active; 'I' for Inactive)
REMARK    1  A    between atoms: N_2  and  N_1 
REMARK    2  A    between atoms: C_5  and  N_1 
REMARK    3  A    between atoms: C_3  and  C_5 
REMARK    4  A    between atoms: C_4  and  C_3 
ROOT
HETATM    1  C   UNK N   1      26.936  24.074  -3.410  0.00  0.00     0.064 C 
ENDROOT
BRANCH   1   2
HETATM    2  C   UNK N   1      28.462  24.006  -3.327  0.00  0.00     0.099 C 
HETATM    3  C   UNK N   1      28.975  23.485  -4.659  0.00  0.00     0.034 C 
BRANCH   2   4
HETATM    4  N   UNK N   1      28.892  23.113  -2.261  0.00  0.00    -0.338 N 
HETATM    5  H   UNK N   1      28.290  22.622  -1.601  0.00  0.00     0.180 HD
BRANCH   4   6
HETATM    6  N   UNK N   1      30.296  23.058  -2.312  0.00  0.00    -0.349 N 
HETATM    7  H   UNK N   1      30.939  22.763  -1.577  0.00  0.00     0.176 HD
HETATM    8  H   UNK N   1      30.724  23.347  -3.192  0.00  0.00     0.176 HD
ENDBRANCH   4   6
ENDBRANCH   2   4
ENDBRANCH   1   2
BRANCH   1   9
HETATM    9  C   UNK N   1      26.340  25.333  -3.978  0.00  0.00    -0.056 A 
HETATM   10  C   UNK N   1      26.385  26.561  -3.298  0.00  0.00     0.007 A 
HETATM   11  C   UNK N   1      25.792  27.699  -3.854  0.00  0.00     0.001 A 
HETATM   12  C   UNK N   1      25.154  27.618  -5.096  0.00  0.00     0.000 A 
HETATM   13  C   UNK N   1      25.109  26.400  -5.779  0.00  0.00     0.001 A 
HETATM   14  C   UNK N   1      25.696  25.262  -5.218  0.00  0.00     0.007 A 
ENDBRANCH   1   9
TORSDOF 4
ENDMDL
