MODEL 1
REMARK VINA RESULT:      -9.3      0.000      0.000
REMARK  9 active torsions:
REMARK  status: ('A' for Active; 'I' for Inactive)
REMARK    1  A    between atoms: C_17  and  N_2 
REMARK    2  A    between atoms: C_5  and  N_14 
REMARK    3  A    between atoms: C_20  and  C_7 
REMARK    4  A    between atoms: N_10  and  C_13 
REMARK       I    between atoms: C_19  and  N_14 
REMARK    5  A    between atoms: C_25  and  C_19 
REMARK    6  A    between atoms: O_36  and  C_20 
REMARK       I    between atoms: C_22  and  N_23 
REMARK    7  A    between atoms: C_32  and  C_22 
REMARK    8  A    between atoms: N_23  and  C_25 
REMARK    9  A    between atoms: N_38  and  C_32 
ROOT
HETATM    1  C   UNK N   1      24.729  18.373   4.693  0.00  0.00     0.128 A 
HETATM    2  N   UNK N   1      23.432  17.914   4.692  0.00  0.00    -0.303 N 
HETATM    3  C   UNK N   1      25.114  19.488   3.927  0.00  0.00     0.063 A 
HETATM    4  C   UNK N   1      22.815  19.722   3.205  0.00  0.00     0.104 A 
HETATM    5  N   UNK N   1      25.651  17.764   5.459  0.00  0.00    -0.325 N 
ATOM      6  HN  UNK N   1      25.349  16.976   6.032  1.00  0.00     0.169 HD
HETATM    7  C   UNK N   1      24.156  20.162   3.169  0.00  0.00     0.204 A 
HETATM    8  C   UNK N   1      22.488  18.593   3.975  0.00  0.00     0.121 A 
HETATM    9  C   UNK N   1      26.946  18.128   5.521  0.00  0.00     0.144 A 
HETATM   10  C   UNK N   1      26.459  19.899   3.954  0.00  0.00     0.065 A 
HETATM   11  C   UNK N   1      27.388  19.213   4.744  0.00  0.00     0.161 A 
HETATM   12  O   UNK N   1      24.479  21.131   2.499  0.00  0.00    -0.286 OA
HETATM   13  F   UNK N   1      28.686  19.605   4.750  0.00  0.00    -0.202 F 
ENDROOT
BRANCH   9  14
HETATM   14  N   UNK N   1      27.815  17.325   6.299  0.00  0.00    -0.364 N 
HETATM   15  C   UNK N   1      27.880  17.533   7.704  0.00  0.00     0.131 C 
HETATM   16  C   UNK N   1      29.256  18.153   7.881  0.00  0.00     0.034 A 
HETATM   17  C   UNK N   1      30.356  17.128   7.877  0.00  0.00     0.096 A 
HETATM   18  C   UNK N   1      30.029  17.822   6.585  0.00  0.00     0.034 A 
HETATM   19  C   UNK N   1      29.093  16.988   5.746  0.00  0.00     0.131 C 
BRANCH  17  20
HETATM   20  N   UNK N   1      31.426  17.736   8.622  0.00  0.00    -0.354 N 
HETATM   21  C   UNK N   1      32.694  17.327   8.402  0.00  0.00     0.240 C 
HETATM   22  O   UNK N   1      33.605  17.807   9.057  0.00  0.00    -0.271 OA
HETATM   23  H   UNK N   1      31.236  18.441   9.282  0.00  0.00     0.162 HD
BRANCH  21  24
HETATM   24  C   UNK N   1      32.967  16.307   7.325  0.00  0.00     0.172 C 
HETATM   25  C   UNK N   1      33.756  16.886   6.165  0.00  0.00     0.042 C 
BRANCH  24  26
HETATM   26  N   UNK N   1      33.530  15.065   7.811  0.00  0.00    -0.346 N 
HETATM   27  C   UNK N   1      32.941  13.851   7.646  0.00  0.00     0.240 C 
HETATM   28  O   UNK N   1      31.890  13.751   7.030  0.00  0.00    -0.271 OA
HETATM   29  H   UNK N   1      34.390  15.101   8.288  0.00  0.00     0.163 HD
BRANCH  27  30
HETATM   30  C   UNK N   1      33.546  12.618   8.260  0.00  0.00     0.163 C 
HETATM   31  C   UNK N   1      34.839  12.900   9.007  0.00  0.00     0.041 C 
BRANCH  30  32
HETATM   32  N   UNK N   1      32.590  12.022   9.179  0.00  0.00    -0.419 N 
HETATM   33  H   UNK N   1      32.452  11.044   9.430  0.00  0.00     0.150 HD
HETATM   34  H   UNK N   1      31.964  12.682   9.641  0.00  0.00     0.150 HD
ENDBRANCH  30  32
ENDBRANCH  27  30
ENDBRANCH  24  26
ENDBRANCH  21  24
ENDBRANCH  17  20
ENDBRANCH   9  14
BRANCH   2  35
HETATM   35  C   UNK N   1      23.063  16.705   5.436  0.00  0.00     0.079 A 
HETATM   36  C   UNK N   1      22.113  16.726   6.483  0.00  0.00     0.146 A 
HETATM   37  C   UNK N   1      21.815  15.549   7.188  0.00  0.00     0.086 A 
HETATM   38  F   UNK N   1      21.516  17.880   6.864  0.00  0.00    -0.204 F 
HETATM   39  C   UNK N   1      22.434  14.341   6.854  0.00  0.00     0.119 A 
HETATM   40  C   UNK N   1      23.350  14.299   5.810  0.00  0.00     0.045 A 
HETATM   41  F   UNK N   1      22.152  13.212   7.547  0.00  0.00    -0.206 F 
HETATM   42  C   UNK N   1      23.657  15.464   5.115  0.00  0.00     0.036 A 
ENDBRANCH   2  35
BRANCH   4  43
HETATM   43  C   UNK N   1      21.733  20.415   2.460  0.00  0.00     0.181 C 
HETATM   44  O   UNK N   1      21.059  19.820   1.635  0.00  0.00    -0.646 OA
BRANCH  43  45
HETATM   45  O   UNK N   1      21.499  21.724   2.679  0.00  0.00    -0.772 OA
HETATM   46  H   UNK N   1      21.933  22.379   2.168  0.00  0.00     0.167 HD
ENDBRANCH  43  45
ENDBRANCH   4  43
TORSDOF 9
ENDMDL
MODEL 2
REMARK VINA RESULT:      -8.9      3.967      6.298
REMARK  9 active torsions:
REMARK  status: ('A' for Active; 'I' for Inactive)
REMARK    1  A    between atoms: C_17  and  N_2 
REMARK    2  A    between atoms: C_5  and  N_14 
REMARK    3  A    between atoms: C_20  and  C_7 
REMARK    4  A    between atoms: N_10  and  C_13 
REMARK       I    between atoms: C_19  and  N_14 
REMARK    5  A    between atoms: C_25  and  C_19 
REMARK    6  A    between atoms: O_36  and  C_20 
REMARK       I    between atoms: C_22  and  N_23 
REMARK    7  A    between atoms: C_32  and  C_22 
REMARK    8  A    between atoms: N_23  and  C_25 
REMARK    9  A    between atoms: N_38  and  C_32 
ROOT
HETATM    1  C   UNK N   1      29.424  17.695   6.048  0.00  0.00     0.128 A 
HETATM    2  N   UNK N   1      29.357  17.284   4.736  0.00  0.00    -0.303 N 
HETATM    3  C   UNK N   1      28.463  18.566   6.594  0.00  0.00     0.063 A 
HETATM    4  C   UNK N   1      27.308  18.544   4.467  0.00  0.00     0.104 A 
HETATM    5  N   UNK N   1      30.410  17.240   6.840  0.00  0.00    -0.325 N 
ATOM      6  HN  UNK N   1      31.081  16.587   6.437  1.00  0.00     0.169 HD
HETATM    7  C   UNK N   1      27.404  19.003   5.798  0.00  0.00     0.204 A 
HETATM    8  C   UNK N   1      28.303  17.687   3.967  0.00  0.00     0.121 A 
HETATM    9  C   UNK N   1      30.570  17.591   8.130  0.00  0.00     0.144 A 
HETATM   10  C   UNK N   1      28.595  18.966   7.937  0.00  0.00     0.065 A 
HETATM   11  C   UNK N   1      29.658  18.489   8.711  0.00  0.00     0.161 A 
HETATM   12  O   UNK N   1      26.565  19.760   6.261  0.00  0.00    -0.286 OA
HETATM   13  F   UNK N   1      29.786  18.894   9.999  0.00  0.00    -0.202 F 
ENDROOT
BRANCH   9  14
HETATM   14  N   UNK N   1      31.716  17.104   8.804  0.00  0.00    -0.364 N 
HETATM   15  C   UNK N   1      32.992  17.642   8.482  0.00  0.00     0.131 C 
HETATM   16  C   UNK N   1      33.661  16.490   7.752  0.00  0.00     0.034 A 
HETATM   17  C   UNK N   1      34.219  15.457   8.691  0.00  0.00     0.096 A 
HETATM   18  C   UNK N   1      32.844  15.233   8.127  0.00  0.00     0.034 A 
HETATM   19  C   UNK N   1      31.782  15.701   9.090  0.00  0.00     0.131 C 
BRANCH  17  20
HETATM   20  N   UNK N   1      35.275  14.820   7.951  0.00  0.00    -0.354 N 
HETATM   21  C   UNK N   1      35.752  13.631   8.379  0.00  0.00     0.240 C 
HETATM   22  O   UNK N   1      36.675  13.102   7.782  0.00  0.00    -0.271 OA
HETATM   23  H   UNK N   1      35.644  15.245   7.144  0.00  0.00     0.162 HD
BRANCH  21  24
HETATM   24  C   UNK N   1      35.112  12.962   9.569  0.00  0.00     0.172 C 
HETATM   25  C   UNK N   1      34.602  11.569   9.246  0.00  0.00     0.042 C 
BRANCH  24  26
HETATM   26  N   UNK N   1      35.917  12.990  10.772  0.00  0.00    -0.346 N 
HETATM   27  C   UNK N   1      35.556  13.642  11.910  0.00  0.00     0.240 C 
HETATM   28  O   UNK N   1      34.483  14.225  11.976  0.00  0.00    -0.271 OA
HETATM   29  H   UNK N   1      36.775  12.508  10.767  0.00  0.00     0.163 HD
BRANCH  27  30
HETATM   30  C   UNK N   1      36.490  13.699  13.087  0.00  0.00     0.163 C 
HETATM   31  C   UNK N   1      35.779  13.522  14.419  0.00  0.00     0.041 C 
BRANCH  30  32
HETATM   32  N   UNK N   1      37.498  12.661  12.949  0.00  0.00    -0.419 N 
HETATM   33  H   UNK N   1      38.504  12.746  12.812  0.00  0.00     0.150 HD
HETATM   34  H   UNK N   1      37.145  11.704  12.997  0.00  0.00     0.150 HD
ENDBRANCH  30  32
ENDBRANCH  27  30
ENDBRANCH  24  26
ENDBRANCH  21  24
ENDBRANCH  17  20
ENDBRANCH   9  14
BRANCH   2  35
HETATM   35  C   UNK N   1      30.408  16.438   4.161  0.00  0.00     0.079 A 
HETATM   36  C   UNK N   1      31.675  16.951   3.801  0.00  0.00     0.146 A 
HETATM   37  C   UNK N   1      32.639  16.109   3.223  0.00  0.00     0.086 A 
HETATM   38  F   UNK N   1      31.966  18.265   3.951  0.00  0.00    -0.204 F 
HETATM   39  C   UNK N   1      32.370  14.754   3.017  0.00  0.00     0.119 A 
HETATM   40  C   UNK N   1      31.139  14.228   3.389  0.00  0.00     0.045 A 
HETATM   41  F   UNK N   1      33.299  13.949   2.447  0.00  0.00    -0.206 F 
HETATM   42  C   UNK N   1      30.176  15.059   3.951  0.00  0.00     0.036 A 
ENDBRANCH   2  35
BRANCH   4  43
HETATM   43  C   UNK N   1      26.185  18.930   3.575  0.00  0.00     0.181 C 
HETATM   44  O   UNK N   1      25.426  18.088   3.122  0.00  0.00    -0.646 OA
BRANCH  43  45
HETATM   45  O   UNK N   1      26.008  20.223   3.240  0.00  0.00    -0.772 OA
HETATM   46  H   UNK N   1      25.516  20.456   2.477  0.00  0.00     0.167 HD
ENDBRANCH  43  45
ENDBRANCH   4  43
TORSDOF 9
ENDMDL
MODEL 3
REMARK VINA RESULT:      -8.8      3.269      4.307
REMARK  9 active torsions:
REMARK  status: ('A' for Active; 'I' for Inactive)
REMARK    1  A    between atoms: C_17  and  N_2 
REMARK    2  A    between atoms: C_5  and  N_14 
REMARK    3  A    between atoms: C_20  and  C_7 
REMARK    4  A    between atoms: N_10  and  C_13 
REMARK       I    between atoms: C_19  and  N_14 
REMARK    5  A    between atoms: C_25  and  C_19 
REMARK    6  A    between atoms: O_36  and  C_20 
REMARK       I    between atoms: C_22  and  N_23 
REMARK    7  A    between atoms: C_32  and  C_22 
REMARK    8  A    between atoms: N_23  and  C_25 
REMARK    9  A    between atoms: N_38  and  C_32 
ROOT
HETATM    1  C   UNK N   1      27.427  17.992   5.182  0.00  0.00     0.128 A 
HETATM    2  N   UNK N   1      26.839  17.449   4.063  0.00  0.00    -0.303 N 
HETATM    3  C   UNK N   1      27.043  19.253   5.674  0.00  0.00     0.063 A 
HETATM    4  C   UNK N   1      25.390  19.382   3.910  0.00  0.00     0.104 A 
HETATM    5  N   UNK N   1      28.370  17.298   5.843  0.00  0.00    -0.325 N 
ATOM      6  HN  UNK N   1      28.616  16.373   5.491  1.00  0.00     0.169 HD
HETATM    7  C   UNK N   1      26.027  19.959   5.030  0.00  0.00     0.204 A 
HETATM    8  C   UNK N   1      25.823  18.126   3.451  0.00  0.00     0.121 A 
HETATM    9  C   UNK N   1      29.013  17.745   6.938  0.00  0.00     0.144 A 
HETATM   10  C   UNK N   1      27.693  19.763   6.813  0.00  0.00     0.065 A 
HETATM   11  C   UNK N   1      28.692  19.017   7.446  0.00  0.00     0.161 A 
HETATM   12  O   UNK N   1      25.687  21.055   5.448  0.00  0.00    -0.286 OA
HETATM   13  F   UNK N   1      29.325  19.525   8.533  0.00  0.00    -0.202 F 
ENDROOT
BRANCH   9  14
HETATM   14  N   UNK N   1      30.053  16.940   7.462  0.00  0.00    -0.364 N 
HETATM   15  C   UNK N   1      30.300  16.948   8.861  0.00  0.00     0.131 C 
HETATM   16  C   UNK N   1      31.626  17.684   8.958  0.00  0.00     0.034 A 
HETATM   17  C   UNK N   1      32.802  16.799   8.650  0.00  0.00     0.096 A 
HETATM   18  C   UNK N   1      32.231  17.632   7.537  0.00  0.00     0.034 A 
HETATM   19  C   UNK N   1      31.264  16.830   6.703  0.00  0.00     0.131 C 
BRANCH  17  20
HETATM   20  N   UNK N   1      33.908  17.407   9.339  0.00  0.00    -0.354 N 
HETATM   21  C   UNK N   1      34.946  16.634   9.725  0.00  0.00     0.240 C 
HETATM   22  O   UNK N   1      35.871  17.132  10.346  0.00  0.00    -0.271 OA
HETATM   23  H   UNK N   1      33.909  18.373   9.527  0.00  0.00     0.162 HD
BRANCH  21  24
HETATM   24  C   UNK N   1      34.959  15.173   9.352  0.00  0.00     0.172 C 
HETATM   25  C   UNK N   1      35.253  14.954   7.879  0.00  0.00     0.042 C 
BRANCH  24  26
HETATM   26  N   UNK N   1      35.785  14.347  10.208  0.00  0.00    -0.346 N 
HETATM   27  C   UNK N   1      35.425  13.958  11.461  0.00  0.00     0.240 C 
HETATM   28  O   UNK N   1      34.336  14.273  11.918  0.00  0.00    -0.271 OA
HETATM   29  H   UNK N   1      36.658  14.050   9.864  0.00  0.00     0.163 HD
BRANCH  27  30
HETATM   30  C   UNK N   1      36.379  13.175  12.321  0.00  0.00     0.163 C 
HETATM   31  C   UNK N   1      37.591  12.670  11.556  0.00  0.00     0.041 C 
BRANCH  30  32
HETATM   32  N   UNK N   1      36.830  14.013  13.420  0.00  0.00    -0.419 N 
HETATM   33  H   UNK N   1      36.907  13.797  14.413  0.00  0.00     0.150 HD
HETATM   34  H   UNK N   1      37.111  14.958  13.157  0.00  0.00     0.150 HD
ENDBRANCH  30  32
ENDBRANCH  27  30
ENDBRANCH  24  26
ENDBRANCH  21  24
ENDBRANCH  17  20
ENDBRANCH   9  14
BRANCH   2  35
HETATM   35  C   UNK N   1      27.303  16.168   3.518  0.00  0.00     0.079 A 
HETATM   36  C   UNK N   1      28.555  16.032   2.877  0.00  0.00     0.146 A 
HETATM   37  C   UNK N   1      28.943  14.793   2.343  0.00  0.00     0.086 A 
HETATM   38  F   UNK N   1      29.378  17.095   2.716  0.00  0.00    -0.204 F 
HETATM   39  C   UNK N   1      28.110  13.676   2.455  0.00  0.00     0.119 A 
HETATM   40  C   UNK N   1      26.887  13.787   3.105  0.00  0.00     0.045 A 
HETATM   41  F   UNK N   1      28.484  12.486   1.926  0.00  0.00    -0.206 F 
HETATM   42  C   UNK N   1      26.493  15.014   3.626  0.00  0.00     0.036 A 
ENDBRANCH   2  35
BRANCH   4  43
HETATM   43  C   UNK N   1      24.272  20.054   3.201  0.00  0.00     0.181 C 
HETATM   44  O   UNK N   1      23.117  19.904   3.568  0.00  0.00    -0.646 OA
BRANCH  43  45
HETATM   45  O   UNK N   1      24.526  20.825   2.126  0.00  0.00    -0.772 OA
HETATM   46  H   UNK N   1      24.691  20.438   1.289  0.00  0.00     0.167 HD
ENDBRANCH  43  45
ENDBRANCH   4  43
TORSDOF 9
ENDMDL
MODEL 4
REMARK VINA RESULT:      -8.7      1.819      2.289
REMARK  9 active torsions:
REMARK  status: ('A' for Active; 'I' for Inactive)
REMARK    1  A    between atoms: C_17  and  N_2 
REMARK    2  A    between atoms: C_5  and  N_14 
REMARK    3  A    between atoms: C_20  and  C_7 
REMARK    4  A    between atoms: N_10  and  C_13 
REMARK       I    between atoms: C_19  and  N_14 
REMARK    5  A    between atoms: C_25  and  C_19 
REMARK    6  A    between atoms: O_36  and  C_20 
REMARK       I    between atoms: C_22  and  N_23 
REMARK    7  A    between atoms: C_32  and  C_22 
REMARK    8  A    between atoms: N_23  and  C_25 
REMARK    9  A    between atoms: N_38  and  C_32 
ROOT
HETATM    1  C   UNK N   1      24.299  18.137   4.290  0.00  0.00     0.128 A 
HETATM    2  N   UNK N   1      23.081  17.506   4.400  0.00  0.00    -0.303 N 
HETATM    3  C   UNK N   1      24.414  19.416   3.713  0.00  0.00     0.063 A 
HETATM    4  C   UNK N   1      22.011  19.446   3.422  0.00  0.00     0.104 A 
HETATM    5  N   UNK N   1      25.406  17.539   4.764  0.00  0.00    -0.325 N 
ATOM      6  HN  UNK N   1      25.301  16.626   5.205  1.00  0.00     0.169 HD
HETATM    7  C   UNK N   1      23.267  20.071   3.267  0.00  0.00     0.204 A 
HETATM    8  C   UNK N   1      21.955  18.162   3.991  0.00  0.00     0.121 A 
HETATM    9  C   UNK N   1      26.643  18.066   4.694  0.00  0.00     0.144 A 
HETATM   10  C   UNK N   1      25.689  20.002   3.612  0.00  0.00     0.065 A 
HETATM   11  C   UNK N   1      26.815  19.325   4.092  0.00  0.00     0.161 A 
HETATM   12  O   UNK N   1      23.355  21.180   2.763  0.00  0.00    -0.286 OA
HETATM   13  F   UNK N   1      28.042  19.891   3.974  0.00  0.00    -0.202 F 
ENDROOT
BRANCH   9  14
HETATM   14  N   UNK N   1      27.721  17.269   5.148  0.00  0.00    -0.364 N 
HETATM   15  C   UNK N   1      28.593  17.784   6.146  0.00  0.00     0.131 C 
HETATM   16  C   UNK N   1      29.875  18.026   5.368  0.00  0.00     0.034 A 
HETATM   17  C   UNK N   1      30.677  16.770   5.169  0.00  0.00     0.096 A 
HETATM   18  C   UNK N   1      29.739  17.193   4.074  0.00  0.00     0.034 A 
HETATM   19  C   UNK N   1      28.419  16.470   4.185  0.00  0.00     0.131 C 
BRANCH  17  20
HETATM   20  N   UNK N   1      32.032  17.222   4.997  0.00  0.00    -0.354 N 
HETATM   21  C   UNK N   1      33.038  16.501   5.536  0.00  0.00     0.240 C 
HETATM   22  O   UNK N   1      34.187  16.896   5.431  0.00  0.00    -0.271 OA
HETATM   23  H   UNK N   1      32.222  18.046   4.493  0.00  0.00     0.162 HD
BRANCH  21  24
HETATM   24  C   UNK N   1      32.726  15.198   6.230  0.00  0.00     0.172 C 
HETATM   25  C   UNK N   1      32.758  14.014   5.281  0.00  0.00     0.042 C 
BRANCH  24  26
HETATM   26  N   UNK N   1      33.498  14.964   7.432  0.00  0.00    -0.346 N 
HETATM   27  C   UNK N   1      33.287  15.616   8.607  0.00  0.00     0.240 C 
HETATM   28  O   UNK N   1      32.383  16.431   8.709  0.00  0.00    -0.271 OA
HETATM   29  H   UNK N   1      34.218  14.294   7.397  0.00  0.00     0.163 HD
BRANCH  27  30
HETATM   30  C   UNK N   1      34.193  15.380   9.785  0.00  0.00     0.163 C 
HETATM   31  C   UNK N   1      35.006  16.608  10.163  0.00  0.00     0.041 C 
BRANCH  30  32
HETATM   32  N   UNK N   1      33.394  14.972  10.928  0.00  0.00    -0.419 N 
HETATM   33  H   UNK N   1      33.467  15.253  11.905  0.00  0.00     0.150 HD
HETATM   34  H   UNK N   1      32.649  14.306  10.721  0.00  0.00     0.150 HD
ENDBRANCH  30  32
ENDBRANCH  27  30
ENDBRANCH  24  26
ENDBRANCH  21  24
ENDBRANCH  17  20
ENDBRANCH   9  14
BRANCH   2  35
HETATM   35  C   UNK N   1      22.988  16.143   4.933  0.00  0.00     0.079 A 
HETATM   36  C   UNK N   1      23.125  15.002   4.110  0.00  0.00     0.146 A 
HETATM   37  C   UNK N   1      22.995  13.717   4.660  0.00  0.00     0.086 A 
HETATM   38  F   UNK N   1      23.324  15.121   2.776  0.00  0.00    -0.204 F 
HETATM   39  C   UNK N   1      22.753  13.546   6.025  0.00  0.00     0.119 A 
HETATM   40  C   UNK N   1      22.643  14.656   6.853  0.00  0.00     0.045 A 
HETATM   41  F   UNK N   1      22.617  12.303   6.548  0.00  0.00    -0.206 F 
HETATM   42  C   UNK N   1      22.758  15.933   6.312  0.00  0.00     0.036 A 
ENDBRANCH   2  35
BRANCH   4  43
HETATM   43  C   UNK N   1      20.743  20.100   3.012  0.00  0.00     0.181 C 
HETATM   44  O   UNK N   1      20.145  20.842   3.775  0.00  0.00    -0.646 OA
BRANCH  43  45
HETATM   45  O   UNK N   1      20.229  19.860   1.790  0.00  0.00    -0.772 OA
HETATM   46  H   UNK N   1      19.413  20.243   1.531  0.00  0.00     0.167 HD
ENDBRANCH  43  45
ENDBRANCH   4  43
TORSDOF 9
ENDMDL
MODEL 5
REMARK VINA RESULT:      -8.6      3.779      9.859
REMARK  9 active torsions:
REMARK  status: ('A' for Active; 'I' for Inactive)
REMARK    1  A    between atoms: C_17  and  N_2 
REMARK    2  A    between atoms: C_5  and  N_14 
REMARK    3  A    between atoms: C_20  and  C_7 
REMARK    4  A    between atoms: N_10  and  C_13 
REMARK       I    between atoms: C_19  and  N_14 
REMARK    5  A    between atoms: C_25  and  C_19 
REMARK    6  A    between atoms: O_36  and  C_20 
REMARK       I    between atoms: C_22  and  N_23 
REMARK    7  A    between atoms: C_32  and  C_22 
REMARK    8  A    between atoms: N_23  and  C_25 
REMARK    9  A    between atoms: N_38  and  C_32 
ROOT
HETATM    1  C   UNK N   1      28.911  15.722   4.018  0.00  0.00     0.128 A 
HETATM    2  N   UNK N   1      29.625  16.788   4.514  0.00  0.00    -0.303 N 
HETATM    3  C   UNK N   1      29.543  14.677   3.318  0.00  0.00     0.063 A 
HETATM    4  C   UNK N   1      31.666  15.777   3.694  0.00  0.00     0.104 A 
HETATM    5  N   UNK N   1      27.584  15.654   4.224  0.00  0.00    -0.325 N 
ATOM      6  HN  UNK N   1      27.147  16.404   4.758  1.00  0.00     0.169 HD
HETATM    7  C   UNK N   1      30.927  14.708   3.145  0.00  0.00     0.204 A 
HETATM    8  C   UNK N   1      30.983  16.802   4.371  0.00  0.00     0.121 A 
HETATM    9  C   UNK N   1      26.796  14.661   3.770  0.00  0.00     0.144 A 
HETATM   10  C   UNK N   1      28.757  13.622   2.819  0.00  0.00     0.065 A 
HETATM   11  C   UNK N   1      27.374  13.613   3.032  0.00  0.00     0.161 A 
HETATM   12  O   UNK N   1      31.485  13.807   2.538  0.00  0.00    -0.286 OA
HETATM   13  F   UNK N   1      26.623  12.601   2.533  0.00  0.00    -0.202 F 
ENDROOT
BRANCH   9  14
HETATM   14  N   UNK N   1      25.402  14.783   3.984  0.00  0.00    -0.364 N 
HETATM   15  C   UNK N   1      24.747  15.992   3.624  0.00  0.00     0.131 C 
HETATM   16  C   UNK N   1      24.407  16.597   4.976  0.00  0.00     0.034 A 
HETATM   17  C   UNK N   1      23.175  15.990   5.587  0.00  0.00     0.096 A 
HETATM   18  C   UNK N   1      24.512  15.434   5.988  0.00  0.00     0.034 A 
HETATM   19  C   UNK N   1      24.852  14.208   5.176  0.00  0.00     0.131 C 
BRANCH  17  20
HETATM   20  N   UNK N   1      22.665  17.005   6.471  0.00  0.00    -0.354 N 
HETATM   21  C   UNK N   1      21.359  17.337   6.405  0.00  0.00     0.240 C 
HETATM   22  O   UNK N   1      20.925  18.224   7.121  0.00  0.00    -0.271 OA
HETATM   23  H   UNK N   1      23.262  17.450   7.115  0.00  0.00     0.162 HD
BRANCH  21  24
HETATM   24  C   UNK N   1      20.449  16.581   5.469  0.00  0.00     0.172 C 
HETATM   25  C   UNK N   1      19.245  15.993   6.180  0.00  0.00     0.042 C 
BRANCH  24  26
HETATM   26  N   UNK N   1      20.081  17.314   4.275  0.00  0.00    -0.346 N 
HETATM   27  C   UNK N   1      20.433  16.937   3.017  0.00  0.00     0.240 C 
HETATM   28  O   UNK N   1      21.068  15.909   2.833  0.00  0.00    -0.271 OA
HETATM   29  H   UNK N   1      19.545  18.132   4.380  0.00  0.00     0.163 HD
BRANCH  27  30
HETATM   30  C   UNK N   1      20.088  17.802   1.835  0.00  0.00     0.163 C 
HETATM   31  C   UNK N   1      20.021  17.025   0.530  0.00  0.00     0.041 C 
BRANCH  30  32
HETATM   32  N   UNK N   1      18.805  18.443   2.070  0.00  0.00    -0.419 N 
HETATM   33  H   UNK N   1      18.508  19.396   1.866  0.00  0.00     0.150 HD
HETATM   34  H   UNK N   1      18.097  17.850   2.503  0.00  0.00     0.150 HD
ENDBRANCH  30  32
ENDBRANCH  27  30
ENDBRANCH  24  26
ENDBRANCH  21  24
ENDBRANCH  17  20
ENDBRANCH   9  14
BRANCH   2  35
HETATM   35  C   UNK N   1      28.943  17.906   5.174  0.00  0.00     0.079 A 
HETATM   36  C   UNK N   1      28.800  17.977   6.579  0.00  0.00     0.146 A 
HETATM   37  C   UNK N   1      28.110  19.051   7.164  0.00  0.00     0.086 A 
HETATM   38  F   UNK N   1      29.270  16.992   7.381  0.00  0.00    -0.204 F 
HETATM   39  C   UNK N   1      27.576  20.072   6.373  0.00  0.00     0.119 A 
HETATM   40  C   UNK N   1      27.731  20.031   4.993  0.00  0.00     0.045 A 
HETATM   41  F   UNK N   1      26.901  21.099   6.943  0.00  0.00    -0.206 F 
HETATM   42  C   UNK N   1      28.403  18.964   4.406  0.00  0.00     0.036 A 
ENDBRANCH   2  35
BRANCH   4  43
HETATM   43  C   UNK N   1      33.145  15.854   3.588  0.00  0.00     0.181 C 
HETATM   44  O   UNK N   1      33.842  15.943   4.588  0.00  0.00    -0.646 OA
BRANCH  43  45
HETATM   45  O   UNK N   1      33.733  15.848   2.376  0.00  0.00    -0.772 OA
HETATM   46  H   UNK N   1      33.658  16.587   1.805  0.00  0.00     0.167 HD
ENDBRANCH  43  45
ENDBRANCH   4  43
TORSDOF 9
ENDMDL
MODEL 6
REMARK VINA RESULT:      -8.4      2.053      2.637
REMARK  9 active torsions:
REMARK  status: ('A' for Active; 'I' for Inactive)
REMARK    1  A    between atoms: C_17  and  N_2 
REMARK    2  A    between atoms: C_5  and  N_14 
REMARK    3  A    between atoms: C_20  and  C_7 
REMARK    4  A    between atoms: N_10  and  C_13 
REMARK       I    between atoms: C_19  and  N_14 
REMARK    5  A    between atoms: C_25  and  C_19 
REMARK    6  A    between atoms: O_36  and  C_20 
REMARK       I    between atoms: C_22  and  N_23 
REMARK    7  A    between atoms: C_32  and  C_22 
REMARK    8  A    between atoms: N_23  and  C_25 
REMARK    9  A    between atoms: N_38  and  C_32 
ROOT
HETATM    1  C   UNK N   1      24.258  18.187   3.840  0.00  0.00     0.128 A 
HETATM    2  N   UNK N   1      23.089  17.465   3.913  0.00  0.00    -0.303 N 
HETATM    3  C   UNK N   1      24.260  19.547   3.479  0.00  0.00     0.063 A 
HETATM    4  C   UNK N   1      21.845  19.459   3.333  0.00  0.00     0.104 A 
HETATM    5  N   UNK N   1      25.427  17.596   4.145  0.00  0.00    -0.325 N 
ATOM      6  HN  UNK N   1      25.405  16.619   4.434  1.00  0.00     0.169 HD
HETATM    7  C   UNK N   1      23.049  20.185   3.213  0.00  0.00     0.204 A 
HETATM    8  C   UNK N   1      21.902  18.099   3.683  0.00  0.00     0.121 A 
HETATM    9  C   UNK N   1      26.624  18.211   4.093  0.00  0.00     0.144 A 
HETATM   10  C   UNK N   1      25.489  20.228   3.405  0.00  0.00     0.065 A 
HETATM   11  C   UNK N   1      26.682  19.560   3.700  0.00  0.00     0.161 A 
HETATM   12  O   UNK N   1      23.038  21.365   2.896  0.00  0.00    -0.286 OA
HETATM   13  F   UNK N   1      27.863  20.220   3.609  0.00  0.00    -0.202 F 
ENDROOT
BRANCH   9  14
HETATM   14  N   UNK N   1      27.774  17.426   4.348  0.00  0.00    -0.364 N 
HETATM   15  C   UNK N   1      27.664  16.282   5.184  0.00  0.00     0.131 C 
HETATM   16  C   UNK N   1      28.409  16.715   6.435  0.00  0.00     0.034 A 
HETATM   17  C   UNK N   1      29.901  16.594   6.290  0.00  0.00     0.096 A 
HETATM   18  C   UNK N   1      29.267  17.926   6.007  0.00  0.00     0.034 A 
HETATM   19  C   UNK N   1      29.024  18.105   4.529  0.00  0.00     0.131 C 
BRANCH  17  20
HETATM   20  N   UNK N   1      30.389  16.443   7.635  0.00  0.00    -0.354 N 
HETATM   21  C   UNK N   1      31.700  16.644   7.884  0.00  0.00     0.240 C 
HETATM   22  O   UNK N   1      32.132  16.480   9.013  0.00  0.00    -0.271 OA
HETATM   23  H   UNK N   1      29.774  16.197   8.364  0.00  0.00     0.162 HD
BRANCH  21  24
HETATM   24  C   UNK N   1      32.604  17.103   6.767  0.00  0.00     0.172 C 
HETATM   25  C   UNK N   1      33.771  17.932   7.269  0.00  0.00     0.042 C 
BRANCH  24  26
HETATM   26  N   UNK N   1      33.022  16.047   5.868  0.00  0.00    -0.346 N 
HETATM   27  C   UNK N   1      33.079  16.182   4.516  0.00  0.00     0.240 C 
HETATM   28  O   UNK N   1      32.801  17.248   3.988  0.00  0.00    -0.271 OA
HETATM   29  H   UNK N   1      33.281  15.182   6.259  0.00  0.00     0.163 HD
BRANCH  27  30
HETATM   30  C   UNK N   1      33.438  15.009   3.646  0.00  0.00     0.163 C 
HETATM   31  C   UNK N   1      32.304  14.005   3.506  0.00  0.00     0.041 C 
BRANCH  30  32
HETATM   32  N   UNK N   1      33.809  15.488   2.325  0.00  0.00    -0.419 N 
HETATM   33  H   UNK N   1      33.347  16.173   1.729  0.00  0.00     0.150 HD
HETATM   34  H   UNK N   1      34.659  15.078   1.938  0.00  0.00     0.150 HD
ENDBRANCH  30  32
ENDBRANCH  27  30
ENDBRANCH  24  26
ENDBRANCH  21  24
ENDBRANCH  17  20
ENDBRANCH   9  14
BRANCH   2  35
HETATM   35  C   UNK N   1      23.111  16.030   4.216  0.00  0.00     0.079 A 
HETATM   36  C   UNK N   1      22.946  15.536   5.531  0.00  0.00     0.146 A 
HETATM   37  C   UNK N   1      23.007  14.155   5.778  0.00  0.00     0.086 A 
HETATM   38  F   UNK N   1      22.784  16.377   6.579  0.00  0.00    -0.204 F 
HETATM   39  C   UNK N   1      23.208  13.251   4.731  0.00  0.00     0.119 A 
HETATM   40  C   UNK N   1      23.346  13.719   3.430  0.00  0.00     0.045 A 
HETATM   41  F   UNK N   1      23.279  11.921   4.978  0.00  0.00    -0.206 F 
HETATM   42  C   UNK N   1      23.298  15.086   3.181  0.00  0.00     0.036 A 
ENDBRANCH   2  35
BRANCH   4  43
HETATM   43  C   UNK N   1      20.516  20.083   3.109  0.00  0.00     0.181 C 
HETATM   44  O   UNK N   1      20.057  20.882   3.910  0.00  0.00    -0.646 OA
BRANCH  43  45
HETATM   45  O   UNK N   1      19.794  19.753   2.022  0.00  0.00    -0.772 OA
HETATM   46  H   UNK N   1      18.869  19.615   2.086  0.00  0.00     0.167 HD
ENDBRANCH  43  45
ENDBRANCH   4  43
TORSDOF 9
ENDMDL
MODEL 7
REMARK VINA RESULT:      -8.2      6.405     12.836
REMARK  9 active torsions:
REMARK  status: ('A' for Active; 'I' for Inactive)
REMARK    1  A    between atoms: C_17  and  N_2 
REMARK    2  A    between atoms: C_5  and  N_14 
REMARK    3  A    between atoms: C_20  and  C_7 
REMARK    4  A    between atoms: N_10  and  C_13 
REMARK       I    between atoms: C_19  and  N_14 
REMARK    5  A    between atoms: C_25  and  C_19 
REMARK    6  A    between atoms: O_36  and  C_20 
REMARK       I    between atoms: C_22  and  N_23 
REMARK    7  A    between atoms: C_32  and  C_22 
REMARK    8  A    between atoms: N_23  and  C_25 
REMARK    9  A    between atoms: N_38  and  C_32 
ROOT
HETATM    1  C   UNK N   1      35.521  12.457  12.215  0.00  0.00     0.128 A 
HETATM    2  N   UNK N   1      35.400  11.092  12.334  0.00  0.00    -0.303 N 
HETATM    3  C   UNK N   1      36.000  13.247  13.277  0.00  0.00     0.063 A 
HETATM    4  C   UNK N   1      36.307  11.227  14.574  0.00  0.00     0.104 A 
HETATM    5  N   UNK N   1      35.202  13.057  11.055  0.00  0.00    -0.325 N 
ATOM      6  HN  UNK N   1      34.886  12.467  10.286  1.00  0.00     0.169 HD
HETATM    7  C   UNK N   1      36.385  12.632  14.468  0.00  0.00     0.204 A 
HETATM    8  C   UNK N   1      35.807  10.487  13.489  0.00  0.00     0.121 A 
HETATM    9  C   UNK N   1      35.274  14.384  10.842  0.00  0.00     0.144 A 
HETATM   10  C   UNK N   1      36.085  14.641  13.101  0.00  0.00     0.065 A 
HETATM   11  C   UNK N   1      35.710  15.220  11.884  0.00  0.00     0.161 A 
HETATM   12  O   UNK N   1      36.801  13.308  15.396  0.00  0.00    -0.286 OA
HETATM   13  F   UNK N   1      35.779  16.566  11.731  0.00  0.00    -0.202 F 
ENDROOT
BRANCH   9  14
HETATM   14  N   UNK N   1      34.809  14.874   9.597  0.00  0.00    -0.364 N 
HETATM   15  C   UNK N   1      33.495  15.408   9.509  0.00  0.00     0.131 C 
HETATM   16  C   UNK N   1      32.764  14.353   8.695  0.00  0.00     0.034 A 
HETATM   17  C   UNK N   1      33.026  14.478   7.220  0.00  0.00     0.096 A 
HETATM   18  C   UNK N   1      33.870  13.519   8.011  0.00  0.00     0.034 A 
HETATM   19  C   UNK N   1      35.177  14.156   8.412  0.00  0.00     0.131 C 
BRANCH  17  20
HETATM   20  N   UNK N   1      31.879  13.879   6.591  0.00  0.00    -0.354 N 
HETATM   21  C   UNK N   1      30.910  14.677   6.096  0.00  0.00     0.240 C 
HETATM   22  O   UNK N   1      29.914  14.179   5.597  0.00  0.00    -0.271 OA
HETATM   23  H   UNK N   1      31.802  12.899   6.524  0.00  0.00     0.162 HD
BRANCH  21  24
HETATM   24  C   UNK N   1      31.092  16.174   6.136  0.00  0.00     0.172 C 
HETATM   25  C   UNK N   1      31.262  16.775   4.754  0.00  0.00     0.042 C 
BRANCH  24  26
HETATM   26  N   UNK N   1      30.097  16.874   6.923  0.00  0.00    -0.346 N 
HETATM   27  C   UNK N   1      30.396  17.682   7.975  0.00  0.00     0.240 C 
HETATM   28  O   UNK N   1      31.560  17.885   8.290  0.00  0.00    -0.271 OA
HETATM   29  H   UNK N   1      29.150  16.757   6.683  0.00  0.00     0.163 HD
BRANCH  27  30
HETATM   30  C   UNK N   1      29.300  18.301   8.798  0.00  0.00     0.163 C 
HETATM   31  C   UNK N   1      28.109  17.376   8.992  0.00  0.00     0.041 C 
BRANCH  30  32
HETATM   32  N   UNK N   1      29.829  18.669  10.101  0.00  0.00    -0.419 N 
HETATM   33  H   UNK N   1      30.163  18.074  10.858  0.00  0.00     0.150 HD
HETATM   34  H   UNK N   1      29.873  19.672  10.284  0.00  0.00     0.150 HD
ENDBRANCH  30  32
ENDBRANCH  27  30
ENDBRANCH  24  26
ENDBRANCH  21  24
ENDBRANCH  17  20
ENDBRANCH   9  14
BRANCH   2  35
HETATM   35  C   UNK N   1      34.828  10.292  11.246  0.00  0.00     0.079 A 
HETATM   36  C   UNK N   1      35.607   9.831  10.160  0.00  0.00     0.146 A 
HETATM   37  C   UNK N   1      35.009   9.095   9.125  0.00  0.00     0.086 A 
HETATM   38  F   UNK N   1      36.924  10.133  10.066  0.00  0.00    -0.204 F 
HETATM   39  C   UNK N   1      33.646   8.790   9.162  0.00  0.00     0.119 A 
HETATM   40  C   UNK N   1      32.871   9.213  10.235  0.00  0.00     0.045 A 
HETATM   41  F   UNK N   1      33.072   8.091   8.154  0.00  0.00    -0.206 F 
HETATM   42  C   UNK N   1      33.456   9.952  11.258  0.00  0.00     0.036 A 
ENDBRANCH   2  35
BRANCH   4  43
HETATM   43  C   UNK N   1      36.741  10.499  15.794  0.00  0.00     0.181 C 
HETATM   44  O   UNK N   1      37.502   9.547  15.718  0.00  0.00    -0.646 OA
BRANCH  43  45
HETATM   45  O   UNK N   1      36.278  10.876  17.001  0.00  0.00    -0.772 OA
HETATM   46  H   UNK N   1      35.541  10.443  17.387  0.00  0.00     0.167 HD
ENDBRANCH  43  45
ENDBRANCH   4  43
TORSDOF 9
ENDMDL
MODEL 8
REMARK VINA RESULT:      -8.1      3.216      4.646
REMARK  9 active torsions:
REMARK  status: ('A' for Active; 'I' for Inactive)
REMARK    1  A    between atoms: C_17  and  N_2 
REMARK    2  A    between atoms: C_5  and  N_14 
REMARK    3  A    between atoms: C_20  and  C_7 
REMARK    4  A    between atoms: N_10  and  C_13 
REMARK       I    between atoms: C_19  and  N_14 
REMARK    5  A    between atoms: C_25  and  C_19 
REMARK    6  A    between atoms: O_36  and  C_20 
REMARK       I    between atoms: C_22  and  N_23 
REMARK    7  A    between atoms: C_32  and  C_22 
REMARK    8  A    between atoms: N_23  and  C_25 
REMARK    9  A    between atoms: N_38  and  C_32 
ROOT
HETATM    1  C   UNK N   1      22.891  15.760   6.464  0.00  0.00     0.128 A 
HETATM    2  N   UNK N   1      22.116  14.897   7.203  0.00  0.00    -0.303 N 
HETATM    3  C   UNK N   1      22.472  17.076   6.195  0.00  0.00     0.063 A 
HETATM    4  C   UNK N   1      20.482  16.657   7.507  0.00  0.00     0.104 A 
HETATM    5  N   UNK N   1      24.089  15.355   6.007  0.00  0.00    -0.325 N 
ATOM      6  HN  UNK N   1      24.391  14.409   6.236  1.00  0.00     0.169 HD
HETATM    7  C   UNK N   1      21.256  17.526   6.709  0.00  0.00     0.204 A 
HETATM    8  C   UNK N   1      20.940  15.348   7.732  0.00  0.00     0.121 A 
HETATM    9  C   UNK N   1      24.916  16.118   5.266  0.00  0.00     0.144 A 
HETATM   10  C   UNK N   1      23.301  17.907   5.418  0.00  0.00     0.065 A 
HETATM   11  C   UNK N   1      24.525  17.428   4.938  0.00  0.00     0.161 A 
HETATM   12  O   UNK N   1      20.882  18.666   6.480  0.00  0.00    -0.286 OA
HETATM   13  F   UNK N   1      25.309  18.230   4.175  0.00  0.00    -0.202 F 
ENDROOT
BRANCH   9  14
HETATM   14  N   UNK N   1      26.099  15.515   4.776  0.00  0.00    -0.364 N 
HETATM   15  C   UNK N   1      27.339  15.805   5.407  0.00  0.00     0.131 C 
HETATM   16  C   UNK N   1      28.047  16.656   4.366  0.00  0.00     0.034 A 
HETATM   17  C   UNK N   1      28.676  15.832   3.277  0.00  0.00     0.096 A 
HETATM   18  C   UNK N   1      27.302  16.391   3.039  0.00  0.00     0.034 A 
HETATM   19  C   UNK N   1      26.240  15.368   3.357  0.00  0.00     0.131 C 
BRANCH  17  20
HETATM   20  N   UNK N   1      29.746  16.649   2.769  0.00  0.00    -0.354 N 
HETATM   21  C   UNK N   1      30.992  16.477   3.258  0.00  0.00     0.240 C 
HETATM   22  O   UNK N   1      31.899  17.192   2.864  0.00  0.00    -0.271 OA
HETATM   23  H   UNK N   1      29.570  17.325   2.075  0.00  0.00     0.162 HD
BRANCH  21  24
HETATM   24  C   UNK N   1      31.249  15.379   4.259  0.00  0.00     0.172 C 
HETATM   25  C   UNK N   1      31.656  14.075   3.597  0.00  0.00     0.042 C 
BRANCH  24  26
HETATM   26  N   UNK N   1      32.142  15.752   5.337  0.00  0.00    -0.346 N 
HETATM   27  C   UNK N   1      31.719  16.169   6.560  0.00  0.00     0.240 C 
HETATM   28  O   UNK N   1      30.525  16.215   6.820  0.00  0.00    -0.271 OA
HETATM   29  H   UNK N   1      33.111  15.702   5.175  0.00  0.00     0.163 HD
BRANCH  27  30
HETATM   30  C   UNK N   1      32.709  16.626   7.596  0.00  0.00     0.163 C 
HETATM   31  C   UNK N   1      33.697  17.649   7.062  0.00  0.00     0.041 C 
BRANCH  30  32
HETATM   32  N   UNK N   1      31.992  17.204   8.720  0.00  0.00    -0.419 N 
HETATM   33  H   UNK N   1      31.399  18.032   8.757  0.00  0.00     0.150 HD
HETATM   34  H   UNK N   1      32.098  16.707   9.605  0.00  0.00     0.150 HD
ENDBRANCH  30  32
ENDBRANCH  27  30
ENDBRANCH  24  26
ENDBRANCH  21  24
ENDBRANCH  17  20
ENDBRANCH   9  14
BRANCH   2  35
HETATM   35  C   UNK N   1      22.531  13.505   7.410  0.00  0.00     0.079 A 
HETATM   36  C   UNK N   1      23.053  13.051   8.643  0.00  0.00     0.146 A 
HETATM   37  C   UNK N   1      23.468  11.718   8.785  0.00  0.00     0.086 A 
HETATM   38  F   UNK N   1      23.216  13.897   9.688  0.00  0.00    -0.204 F 
HETATM   39  C   UNK N   1      23.351  10.817   7.722  0.00  0.00     0.119 A 
HETATM   40  C   UNK N   1      22.816  11.241   6.512  0.00  0.00     0.045 A 
HETATM   41  F   UNK N   1      23.765   9.535   7.861  0.00  0.00    -0.206 F 
HETATM   42  C   UNK N   1      22.414  12.564   6.362  0.00  0.00     0.036 A 
ENDBRANCH   2  35
BRANCH   4  43
HETATM   43  C   UNK N   1      19.200  17.080   8.125  0.00  0.00     0.181 C 
HETATM   44  O   UNK N   1      18.173  16.447   7.933  0.00  0.00    -0.646 OA
BRANCH  43  45
HETATM   45  O   UNK N   1      19.156  18.185   8.893  0.00  0.00    -0.772 OA
HETATM   46  H   UNK N   1      18.674  18.191   9.696  0.00  0.00     0.167 HD
ENDBRANCH  43  45
ENDBRANCH   4  43
TORSDOF 9
ENDMDL
MODEL 9
REMARK VINA RESULT:      -8.0      3.776      5.341
REMARK  9 active torsions:
REMARK  status: ('A' for Active; 'I' for Inactive)
REMARK    1  A    between atoms: C_17  and  N_2 
REMARK    2  A    between atoms: C_5  and  N_14 
REMARK    3  A    between atoms: C_20  and  C_7 
REMARK    4  A    between atoms: N_10  and  C_13 
REMARK       I    between atoms: C_19  and  N_14 
REMARK    5  A    between atoms: C_25  and  C_19 
REMARK    6  A    between atoms: O_36  and  C_20 
REMARK       I    between atoms: C_22  and  N_23 
REMARK    7  A    between atoms: C_32  and  C_22 
REMARK    8  A    between atoms: N_23  and  C_25 
REMARK    9  A    between atoms: N_38  and  C_32 
ROOT
HETATM    1  C   UNK N   1      22.243  14.080   3.570  0.00  0.00     0.128 A 
HETATM    2  N   UNK N   1      21.162  13.860   4.392  0.00  0.00    -0.303 N 
HETATM    3  C   UNK N   1      22.139  13.958   2.172  0.00  0.00     0.063 A 
HETATM    4  C   UNK N   1      19.788  13.453   2.441  0.00  0.00     0.104 A 
HETATM    5  N   UNK N   1      23.422  14.446   4.102  0.00  0.00    -0.325 N 
ATOM      6  HN  UNK N   1      23.473  14.560   5.114  1.00  0.00     0.169 HD
HETATM    7  C   UNK N   1      20.909  13.632   1.603  0.00  0.00     0.204 A 
HETATM    8  C   UNK N   1      19.950  13.572   3.832  0.00  0.00     0.121 A 
HETATM    9  C   UNK N   1      24.540  14.673   3.387  0.00  0.00     0.144 A 
HETATM   10  C   UNK N   1      23.285  14.179   1.385  0.00  0.00     0.065 A 
HETATM   11  C   UNK N   1      24.497  14.526   1.989  0.00  0.00     0.161 A 
HETATM   12  O   UNK N   1      20.807  13.522   0.391  0.00  0.00    -0.286 OA
HETATM   13  F   UNK N   1      25.600  14.720   1.223  0.00  0.00    -0.202 F 
ENDROOT
BRANCH   9  14
HETATM   14  N   UNK N   1      25.729  14.954   4.102  0.00  0.00    -0.364 N 
HETATM   15  C   UNK N   1      26.095  14.124   5.196  0.00  0.00     0.131 C 
HETATM   16  C   UNK N   1      25.865  15.033   6.391  0.00  0.00     0.034 A 
HETATM   17  C   UNK N   1      26.997  15.998   6.611  0.00  0.00     0.096 A 
HETATM   18  C   UNK N   1      25.810  16.466   5.816  0.00  0.00     0.034 A 
HETATM   19  C   UNK N   1      26.063  16.329   4.336  0.00  0.00     0.131 C 
BRANCH  17  20
HETATM   20  N   UNK N   1      26.938  16.320   8.011  0.00  0.00    -0.354 N 
HETATM   21  C   UNK N   1      27.802  17.228   8.513  0.00  0.00     0.240 C 
HETATM   22  O   UNK N   1      27.788  17.479   9.707  0.00  0.00    -0.271 OA
HETATM   23  H   UNK N   1      26.275  15.885   8.596  0.00  0.00     0.162 HD
BRANCH  21  24
HETATM   24  C   UNK N   1      28.749  17.942   7.582  0.00  0.00     0.172 C 
HETATM   25  C   UNK N   1      28.327  19.374   7.312  0.00  0.00     0.042 C 
BRANCH  24  26
HETATM   26  N   UNK N   1      30.144  17.838   7.956  0.00  0.00    -0.346 N 
HETATM   27  C   UNK N   1      30.981  16.868   7.501  0.00  0.00     0.240 C 
HETATM   28  O   UNK N   1      30.583  16.032   6.703  0.00  0.00    -0.271 OA
HETATM   29  H   UNK N   1      30.508  18.510   8.577  0.00  0.00     0.163 HD
BRANCH  27  30
HETATM   30  C   UNK N   1      32.393  16.777   8.010  0.00  0.00     0.163 C 
HETATM   31  C   UNK N   1      33.102  18.121   8.037  0.00  0.00     0.041 C 
BRANCH  30  32
HETATM   32  N   UNK N   1      32.384  16.220   9.352  0.00  0.00    -0.419 N 
HETATM   33  H   UNK N   1      32.717  16.625  10.226  0.00  0.00     0.150 HD
HETATM   34  H   UNK N   1      31.983  15.285   9.431  0.00  0.00     0.150 HD
ENDBRANCH  30  32
ENDBRANCH  27  30
ENDBRANCH  24  26
ENDBRANCH  21  24
ENDBRANCH  17  20
ENDBRANCH   9  14
BRANCH   2  35
HETATM   35  C   UNK N   1      21.305  13.916   5.851  0.00  0.00     0.079 A 
HETATM   36  C   UNK N   1      21.499  12.755   6.634  0.00  0.00     0.146 A 
HETATM   37  C   UNK N   1      21.598  12.856   8.030  0.00  0.00     0.086 A 
HETATM   38  F   UNK N   1      21.536  11.526   6.066  0.00  0.00    -0.204 F 
HETATM   39  C   UNK N   1      21.529  14.100   8.663  0.00  0.00     0.119 A 
HETATM   40  C   UNK N   1      21.365  15.253   7.906  0.00  0.00     0.045 A 
HETATM   41  F   UNK N   1      21.612  14.188  10.013  0.00  0.00    -0.206 F 
HETATM   42  C   UNK N   1      21.255  15.159   6.523  0.00  0.00     0.036 A 
ENDBRANCH   2  35
BRANCH   4  43
HETATM   43  C   UNK N   1      18.437  13.148   1.905  0.00  0.00     0.181 C 
HETATM   44  O   UNK N   1      17.771  12.234   2.365  0.00  0.00    -0.646 OA
BRANCH  43  45
HETATM   45  O   UNK N   1      17.941  13.873   0.883  0.00  0.00    -0.772 OA
HETATM   46  H   UNK N   1      17.132  13.633   0.476  0.00  0.00     0.167 HD
ENDBRANCH  43  45
ENDBRANCH   4  43
TORSDOF 9
ENDMDL
