MODEL 1
REMARK VINA RESULT:      -5.9      0.000      0.000
REMARK  8 active torsions:
REMARK  status: ('A' for Active; 'I' for Inactive)
REMARK    1  A    between atoms: C_3  and  C_2 
REMARK    2  A    between atoms: C_4  and  C_3 
REMARK    3  A    between atoms: C_5  and  C_4 
REMARK    4  A    between atoms: C_6  and  C_5 
REMARK    5  A    between atoms: N_13  and  C_6 
REMARK    6  A    between atoms: O_18  and  C_9 
REMARK    7  A    between atoms: N_17  and  C_10 
REMARK    8  A    between atoms: O_19  and  C_10 
ROOT
HETATM    1  C   UNK N   1      21.436  17.842   3.996  0.00  0.00     0.152 A 
HETATM    2  C   UNK N   1      20.115  17.827   3.555  0.00  0.00     0.183 A 
HETATM    3  C   UNK N   1      19.631  18.916   2.838  0.00  0.00     0.185 A 
HETATM    4  C   UNK N   1      21.738  19.991   3.031  0.00  0.00     0.335 A 
HETATM    5  F   UNK N   1      19.323  16.757   3.812  0.00  0.00    -0.200 F 
HETATM    6  N   UNK N   1      20.439  19.975   2.596  0.00  0.00    -0.286 N 
ATOM      7  HN  UNK N   1      20.075  20.776   2.078  1.00  0.00     0.172 HD
HETATM    8  N   UNK N   1      22.248  18.905   3.734  0.00  0.00    -0.237 N 
HETATM    9  O   UNK N   1      22.429  20.965   2.789  0.00  0.00    -0.246 OA
ENDROOT
BRANCH   8  10
HETATM   10  C   UNK N   1      23.625  18.835   4.178  0.00  0.00     0.227 C 
HETATM   11  N   UNK N   1      24.588  19.111   3.366  0.00  0.00    -0.356 N 
ATOM     12  HN  UNK N   1      24.361  19.406   2.417  1.00  0.00     0.163 HD
BRANCH  11  13
HETATM   13  C   UNK N   1      25.968  19.016   3.752  0.00  0.00     0.123 C 
BRANCH  13  14
HETATM   14  C   UNK N   1      26.475  20.387   4.139  0.00  0.00     0.020 C 
BRANCH  14  15
HETATM   15  C   UNK N   1      27.806  20.236   4.838  0.00  0.00     0.002 C 
BRANCH  15  16
HETATM   16  C   UNK N   1      27.727  20.854   6.217  0.00  0.00    -0.000 C 
BRANCH  16  17
HETATM   17  C   UNK N   1      26.440  21.642   6.334  0.00  0.00    -0.005 C 
HETATM   18  C   UNK N   1      25.943  21.585   7.762  0.00  0.00     0.005 C 
ENDBRANCH  16  17
ENDBRANCH  15  16
ENDBRANCH  14  15
ENDBRANCH  13  14
ENDBRANCH  11  13
BRANCH  10  19
HETATM   19  O   UNK N   1      23.903  18.442   5.443  0.00  0.00    -0.332 OA
HETATM   20  H   UNK N   1      24.791  18.313   5.710  0.00  0.00     0.221 HD
ENDBRANCH  10  19
ENDBRANCH   8  10
BRANCH   3  21
HETATM   21  O   UNK N   1      18.368  18.921   2.382  0.00  0.00    -0.344 OA
HETATM   22  H   UNK N   1      18.154  19.389   1.599  0.00  0.00     0.219 HD
ENDBRANCH   3  21
TORSDOF 8
ENDMDL
MODEL 2
REMARK VINA RESULT:      -5.7      4.727      6.080
REMARK  8 active torsions:
REMARK  status: ('A' for Active; 'I' for Inactive)
REMARK    1  A    between atoms: C_3  and  C_2 
REMARK    2  A    between atoms: C_4  and  C_3 
REMARK    3  A    between atoms: C_5  and  C_4 
REMARK    4  A    between atoms: C_6  and  C_5 
REMARK    5  A    between atoms: N_13  and  C_6 
REMARK    6  A    between atoms: O_18  and  C_9 
REMARK    7  A    between atoms: N_17  and  C_10 
REMARK    8  A    between atoms: O_19  and  C_10 
ROOT
HETATM    1  C   UNK N   1      20.629  19.305   3.382  0.00  0.00     0.152 A 
HETATM    2  C   UNK N   1      20.852  20.235   2.370  0.00  0.00     0.183 A 
HETATM    3  C   UNK N   1      20.662  19.850   1.047  0.00  0.00     0.185 A 
HETATM    4  C   UNK N   1      20.068  17.665   1.758  0.00  0.00     0.335 A 
HETATM    5  F   UNK N   1      21.232  21.499   2.678  0.00  0.00    -0.200 F 
HETATM    6  N   UNK N   1      20.284  18.581   0.762  0.00  0.00    -0.286 N 
ATOM      7  HN  UNK N   1      20.157  18.302  -0.211  1.00  0.00     0.172 HD
HETATM    8  N   UNK N   1      20.233  18.034   3.088  0.00  0.00    -0.237 N 
HETATM    9  O   UNK N   1      19.727  16.535   1.455  0.00  0.00    -0.246 OA
ENDROOT
BRANCH   8  10
HETATM   10  C   UNK N   1      19.971  17.130   4.190  0.00  0.00     0.227 C 
HETATM   11  N   UNK N   1      20.847  16.963   5.120  0.00  0.00    -0.356 N 
ATOM     12  HN  UNK N   1      21.715  17.499   5.081  1.00  0.00     0.163 HD
BRANCH  11  13
HETATM   13  C   UNK N   1      20.646  16.048   6.209  0.00  0.00     0.123 C 
BRANCH  13  14
HETATM   14  C   UNK N   1      20.065  16.794   7.388  0.00  0.00     0.020 C 
BRANCH  14  15
HETATM   15  C   UNK N   1      20.685  16.259   8.658  0.00  0.00     0.002 C 
BRANCH  15  16
HETATM   16  C   UNK N   1      20.213  14.841   8.894  0.00  0.00    -0.000 C 
BRANCH  16  17
HETATM   17  C   UNK N   1      21.370  14.013   9.412  0.00  0.00    -0.005 C 
HETATM   18  C   UNK N   1      20.855  12.996  10.407  0.00  0.00     0.005 C 
ENDBRANCH  16  17
ENDBRANCH  15  16
ENDBRANCH  14  15
ENDBRANCH  13  14
ENDBRANCH  11  13
BRANCH  10  19
HETATM   19  O   UNK N   1      18.813  16.431   4.222  0.00  0.00    -0.332 OA
HETATM   20  H   UNK N   1      18.103  16.671   3.660  0.00  0.00     0.221 HD
ENDBRANCH  10  19
ENDBRANCH   8  10
BRANCH   3  21
HETATM   21  O   UNK N   1      20.849  20.732   0.050  0.00  0.00    -0.344 OA
HETATM   22  H   UNK N   1      21.709  20.879  -0.289  0.00  0.00     0.219 HD
ENDBRANCH   3  21
TORSDOF 8
ENDMDL
MODEL 3
REMARK VINA RESULT:      -5.5     12.416     14.820
REMARK  8 active torsions:
REMARK  status: ('A' for Active; 'I' for Inactive)
REMARK    1  A    between atoms: C_3  and  C_2 
REMARK    2  A    between atoms: C_4  and  C_3 
REMARK    3  A    between atoms: C_5  and  C_4 
REMARK    4  A    between atoms: C_6  and  C_5 
REMARK    5  A    between atoms: N_13  and  C_6 
REMARK    6  A    between atoms: O_18  and  C_9 
REMARK    7  A    between atoms: N_17  and  C_10 
REMARK    8  A    between atoms: O_19  and  C_10 
ROOT
HETATM    1  C   UNK N   1      33.860  14.941   9.592  0.00  0.00     0.152 A 
HETATM    2  C   UNK N   1      32.869  15.469   8.769  0.00  0.00     0.183 A 
HETATM    3  C   UNK N   1      32.900  16.825   8.461  0.00  0.00     0.185 A 
HETATM    4  C   UNK N   1      34.851  17.091   9.787  0.00  0.00     0.335 A 
HETATM    5  F   UNK N   1      31.899  14.666   8.268  0.00  0.00    -0.200 F 
HETATM    6  N   UNK N   1      33.876  17.610   8.976  0.00  0.00    -0.286 N 
ATOM      7  HN  UNK N   1      33.888  18.606   8.754  1.00  0.00     0.172 HD
HETATM    8  N   UNK N   1      34.849  15.735  10.093  0.00  0.00    -0.237 N 
HETATM    9  O   UNK N   1      35.710  17.834  10.226  0.00  0.00    -0.246 OA
ENDROOT
BRANCH   8  10
HETATM   10  C   UNK N   1      35.877  15.112  10.901  0.00  0.00     0.227 C 
HETATM   11  N   UNK N   1      35.561  14.285  11.838  0.00  0.00    -0.356 N 
ATOM     12  HN  UNK N   1      34.577  14.055  11.979  1.00  0.00     0.163 HD
BRANCH  11  13
HETATM   13  C   UNK N   1      36.545  13.676  12.689  0.00  0.00     0.123 C 
BRANCH  13  14
HETATM   14  C   UNK N   1      36.289  14.086  14.121  0.00  0.00     0.020 C 
BRANCH  14  15
HETATM   15  C   UNK N   1      36.927  13.070  15.041  0.00  0.00     0.002 C 
BRANCH  15  16
HETATM   16  C   UNK N   1      35.860  12.166  15.616  0.00  0.00    -0.000 C 
BRANCH  16  17
HETATM   17  C   UNK N   1      34.753  13.016  16.202  0.00  0.00    -0.005 C 
HETATM   18  C   UNK N   1      35.137  13.448  17.601  0.00  0.00     0.005 C 
ENDBRANCH  16  17
ENDBRANCH  15  16
ENDBRANCH  14  15
ENDBRANCH  13  14
ENDBRANCH  11  13
BRANCH  10  19
HETATM   19  O   UNK N   1      37.177  15.431  10.695  0.00  0.00    -0.332 OA
HETATM   20  H   UNK N   1      37.407  16.282  10.380  0.00  0.00     0.221 HD
ENDBRANCH  10  19
ENDBRANCH   8  10
BRANCH   3  21
HETATM   21  O   UNK N   1      31.969  17.359   7.653  0.00  0.00    -0.344 OA
HETATM   22  H   UNK N   1      31.364  16.802   7.204  0.00  0.00     0.219 HD
ENDBRANCH   3  21
TORSDOF 8
ENDMDL
MODEL 4
REMARK VINA RESULT:      -5.5     11.063     14.041
REMARK  8 active torsions:
REMARK  status: ('A' for Active; 'I' for Inactive)
REMARK    1  A    between atoms: C_3  and  C_2 
REMARK    2  A    between atoms: C_4  and  C_3 
REMARK    3  A    between atoms: C_5  and  C_4 
REMARK    4  A    between atoms: C_6  and  C_5 
REMARK    5  A    between atoms: N_13  and  C_6 
REMARK    6  A    between atoms: O_18  and  C_9 
REMARK    7  A    between atoms: N_17  and  C_10 
REMARK    8  A    between atoms: O_19  and  C_10 
ROOT
HETATM    1  C   UNK N   1      34.632  13.783  10.201  0.00  0.00     0.152 A 
HETATM    2  C   UNK N   1      35.778  13.153  10.678  0.00  0.00     0.183 A 
HETATM    3  C   UNK N   1      36.847  13.933  11.108  0.00  0.00     0.185 A 
HETATM    4  C   UNK N   1      35.638  15.903  10.570  0.00  0.00     0.335 A 
HETATM    5  F   UNK N   1      35.840  11.801  10.733  0.00  0.00    -0.200 F 
HETATM    6  N   UNK N   1      36.765  15.283  11.041  0.00  0.00    -0.286 N 
ATOM      7  HN  UNK N   1      37.557  15.850  11.348  1.00  0.00     0.172 HD
HETATM    8  N   UNK N   1      34.551  15.143  10.152  0.00  0.00    -0.237 N 
HETATM    9  O   UNK N   1      35.608  17.120  10.529  0.00  0.00    -0.246 OA
ENDROOT
BRANCH   8  10
HETATM   10  C   UNK N   1      33.311  15.736   9.693  0.00  0.00     0.227 C 
HETATM   11  N   UNK N   1      33.326  16.781   8.939  0.00  0.00    -0.356 N 
ATOM     12  HN  UNK N   1      34.226  17.166   8.650  1.00  0.00     0.163 HD
BRANCH  11  13
HETATM   13  C   UNK N   1      32.122  17.424   8.494  0.00  0.00     0.123 C 
BRANCH  13  14
HETATM   14  C   UNK N   1      31.986  17.249   6.998  0.00  0.00     0.020 C 
BRANCH  14  15
HETATM   15  C   UNK N   1      33.311  17.571   6.347  0.00  0.00     0.002 C 
BRANCH  15  16
HETATM   16  C   UNK N   1      33.403  16.866   5.011  0.00  0.00    -0.000 C 
BRANCH  16  17
HETATM   17  C   UNK N   1      32.645  17.667   3.974  0.00  0.00    -0.005 C 
HETATM   18  C   UNK N   1      31.767  16.738   3.163  0.00  0.00     0.005 C 
ENDBRANCH  16  17
ENDBRANCH  15  16
ENDBRANCH  14  15
ENDBRANCH  13  14
ENDBRANCH  11  13
BRANCH  10  19
HETATM   19  O   UNK N   1      32.129  15.207  10.088  0.00  0.00    -0.332 OA
HETATM   20  H   UNK N   1      31.429  15.113   9.474  0.00  0.00     0.221 HD
ENDBRANCH  10  19
ENDBRANCH   8  10
BRANCH   3  21
HETATM   21  O   UNK N   1      37.958  13.354  11.592  0.00  0.00    -0.344 OA
HETATM   22  H   UNK N   1      38.715  13.874  11.778  0.00  0.00     0.219 HD
ENDBRANCH   3  21
TORSDOF 8
ENDMDL
MODEL 5
REMARK VINA RESULT:      -5.5     10.463     13.499
REMARK  8 active torsions:
REMARK  status: ('A' for Active; 'I' for Inactive)
REMARK    1  A    between atoms: C_3  and  C_2 
REMARK    2  A    between atoms: C_4  and  C_3 
REMARK    3  A    between atoms: C_5  and  C_4 
REMARK    4  A    between atoms: C_6  and  C_5 
REMARK    5  A    between atoms: N_13  and  C_6 
REMARK    6  A    between atoms: O_18  and  C_9 
REMARK    7  A    between atoms: N_17  and  C_10 
REMARK    8  A    between atoms: O_19  and  C_10 
ROOT
HETATM    1  C   UNK N   1      34.697  14.234   9.785  0.00  0.00     0.152 A 
HETATM    2  C   UNK N   1      35.527  13.579  10.690  0.00  0.00     0.183 A 
HETATM    3  C   UNK N   1      36.377  14.333  11.494  0.00  0.00     0.185 A 
HETATM    4  C   UNK N   1      35.582  16.326  10.478  0.00  0.00     0.335 A 
HETATM    5  F   UNK N   1      35.493  12.228  10.794  0.00  0.00    -0.200 F 
HETATM    6  N   UNK N   1      36.397  15.681  11.371  0.00  0.00    -0.286 N 
ATOM      7  HN  UNK N   1      37.031  16.229  11.956  1.00  0.00     0.172 HD
HETATM    8  N   UNK N   1      34.712  15.593   9.679  0.00  0.00    -0.237 N 
HETATM    9  O   UNK N   1      35.633  17.541  10.404  0.00  0.00    -0.246 OA
ENDROOT
BRANCH   8  10
HETATM   10  C   UNK N   1      33.787  16.214   8.753  0.00  0.00     0.227 C 
HETATM   11  N   UNK N   1      32.815  16.939   9.188  0.00  0.00    -0.356 N 
ATOM     12  HN  UNK N   1      32.725  17.090  10.193  1.00  0.00     0.163 HD
BRANCH  11  13
HETATM   13  C   UNK N   1      31.852  17.540   8.307  0.00  0.00     0.123 C 
BRANCH  13  14
HETATM   14  C   UNK N   1      30.465  17.345   8.875  0.00  0.00     0.020 C 
BRANCH  14  15
HETATM   15  C   UNK N   1      29.833  18.700   9.097  0.00  0.00     0.002 C 
BRANCH  15  16
HETATM   16  C   UNK N   1      28.382  18.658   8.670  0.00  0.00    -0.000 C 
BRANCH  16  17
HETATM   17  C   UNK N   1      28.304  18.787   7.164  0.00  0.00    -0.005 C 
HETATM   18  C   UNK N   1      27.508  20.023   6.805  0.00  0.00     0.005 C 
ENDBRANCH  16  17
ENDBRANCH  15  16
ENDBRANCH  14  15
ENDBRANCH  13  14
ENDBRANCH  11  13
BRANCH  10  19
HETATM   19  O   UNK N   1      33.926  16.000   7.423  0.00  0.00    -0.332 OA
HETATM   20  H   UNK N   1      34.392  15.249   7.115  0.00  0.00     0.221 HD
ENDBRANCH  10  19
ENDBRANCH   8  10
BRANCH   3  21
HETATM   21  O   UNK N   1      37.174  13.731  12.391  0.00  0.00    -0.344 OA
HETATM   22  H   UNK N   1      37.749  13.042  12.120  0.00  0.00     0.219 HD
ENDBRANCH   3  21
TORSDOF 8
ENDMDL
MODEL 6
REMARK VINA RESULT:      -5.3     14.322     16.732
REMARK  8 active torsions:
REMARK  status: ('A' for Active; 'I' for Inactive)
REMARK    1  A    between atoms: C_3  and  C_2 
REMARK    2  A    between atoms: C_4  and  C_3 
REMARK    3  A    between atoms: C_5  and  C_4 
REMARK    4  A    between atoms: C_6  and  C_5 
REMARK    5  A    between atoms: N_13  and  C_6 
REMARK    6  A    between atoms: O_18  and  C_9 
REMARK    7  A    between atoms: N_17  and  C_10 
REMARK    8  A    between atoms: O_19  and  C_10 
ROOT
HETATM    1  C   UNK N   1      34.593  14.154  10.575  0.00  0.00     0.152 A 
HETATM    2  C   UNK N   1      34.745  15.423  10.023  0.00  0.00     0.183 A 
HETATM    3  C   UNK N   1      35.505  16.368  10.705  0.00  0.00     0.185 A 
HETATM    4  C   UNK N   1      35.913  14.801  12.440  0.00  0.00     0.335 A 
HETATM    5  F   UNK N   1      34.173  15.721   8.832  0.00  0.00    -0.200 F 
HETATM    6  N   UNK N   1      36.066  16.049  11.896  0.00  0.00    -0.286 N 
ATOM      7  HN  UNK N   1      36.613  16.750  12.397  1.00  0.00     0.172 HD
HETATM    8  N   UNK N   1      35.174  13.835  11.767  0.00  0.00    -0.237 N 
HETATM    9  O   UNK N   1      36.437  14.557  13.513  0.00  0.00    -0.246 OA
ENDROOT
BRANCH   8  10
HETATM   10  C   UNK N   1      35.017  12.482  12.260  0.00  0.00     0.227 C 
HETATM   11  N   UNK N   1      34.437  12.262  13.390  0.00  0.00    -0.356 N 
ATOM     12  HN  UNK N   1      34.065  13.054  13.914  1.00  0.00     0.163 HD
BRANCH  11  13
HETATM   13  C   UNK N   1      34.295  10.941  13.936  0.00  0.00     0.123 C 
BRANCH  13  14
HETATM   14  C   UNK N   1      34.351  11.015  15.445  0.00  0.00     0.020 C 
BRANCH  14  15
HETATM   15  C   UNK N   1      34.563  12.454  15.856  0.00  0.00     0.002 C 
BRANCH  15  16
HETATM   16  C   UNK N   1      35.248  12.501  17.204  0.00  0.00    -0.000 C 
BRANCH  16  17
HETATM   17  C   UNK N   1      35.524  11.086  17.669  0.00  0.00    -0.005 C 
HETATM   18  C   UNK N   1      35.442  11.028  19.179  0.00  0.00     0.005 C 
ENDBRANCH  16  17
ENDBRANCH  15  16
ENDBRANCH  14  15
ENDBRANCH  13  14
ENDBRANCH  11  13
BRANCH  10  19
HETATM   19  O   UNK N   1      35.517  11.446  11.547  0.00  0.00    -0.332 OA
HETATM   20  H   UNK N   1      35.036  10.644  11.484  0.00  0.00     0.221 HD
ENDBRANCH  10  19
ENDBRANCH   8  10
BRANCH   3  21
HETATM   21  O   UNK N   1      35.687  17.594  10.187  0.00  0.00    -0.344 OA
HETATM   22  H   UNK N   1      35.924  17.691   9.286  0.00  0.00     0.219 HD
ENDBRANCH   3  21
TORSDOF 8
ENDMDL
MODEL 7
REMARK VINA RESULT:      -5.3     10.880     12.924
REMARK  8 active torsions:
REMARK  status: ('A' for Active; 'I' for Inactive)
REMARK    1  A    between atoms: C_3  and  C_2 
REMARK    2  A    between atoms: C_4  and  C_3 
REMARK    3  A    between atoms: C_5  and  C_4 
REMARK    4  A    between atoms: C_6  and  C_5 
REMARK    5  A    between atoms: N_13  and  C_6 
REMARK    6  A    between atoms: O_18  and  C_9 
REMARK    7  A    between atoms: N_17  and  C_10 
REMARK    8  A    between atoms: O_19  and  C_10 
ROOT
HETATM    1  C   UNK N   1      33.639  15.144   8.463  0.00  0.00     0.152 A 
HETATM    2  C   UNK N   1      33.636  14.288   9.560  0.00  0.00     0.183 A 
HETATM    3  C   UNK N   1      34.221  14.714  10.749  0.00  0.00     0.185 A 
HETATM    4  C   UNK N   1      34.800  16.779   9.734  0.00  0.00     0.335 A 
HETATM    5  F   UNK N   1      33.058  13.066   9.471  0.00  0.00    -0.200 F 
HETATM    6  N   UNK N   1      34.796  15.938  10.815  0.00  0.00    -0.286 N 
ATOM      7  HN  UNK N   1      35.233  16.240  11.686  1.00  0.00     0.172 HD
HETATM    8  N   UNK N   1      34.205  16.381   8.542  0.00  0.00    -0.237 N 
HETATM    9  O   UNK N   1      35.328  17.873   9.840  0.00  0.00    -0.246 OA
ENDROOT
BRANCH   8  10
HETATM   10  C   UNK N   1      34.129  17.241   7.378  0.00  0.00     0.227 C 
HETATM   11  N   UNK N   1      33.491  16.860   6.325  0.00  0.00    -0.356 N 
ATOM     12  HN  UNK N   1      33.017  15.957   6.337  1.00  0.00     0.163 HD
BRANCH  11  13
HETATM   13  C   UNK N   1      33.424  17.663   5.136  0.00  0.00     0.123 C 
BRANCH  13  14
HETATM   14  C   UNK N   1      32.125  17.383   4.416  0.00  0.00     0.020 C 
BRANCH  14  15
HETATM   15  C   UNK N   1      32.436  16.850   3.037  0.00  0.00     0.002 C 
BRANCH  15  16
HETATM   16  C   UNK N   1      32.440  15.338   3.066  0.00  0.00    -0.000 C 
BRANCH  16  17
HETATM   17  C   UNK N   1      33.828  14.839   2.726  0.00  0.00    -0.005 C 
HETATM   18  C   UNK N   1      34.446  14.198   3.951  0.00  0.00     0.005 C 
ENDBRANCH  16  17
ENDBRANCH  15  16
ENDBRANCH  14  15
ENDBRANCH  13  14
ENDBRANCH  11  13
BRANCH  10  19
HETATM   19  O   UNK N   1      34.764  18.436   7.386  0.00  0.00    -0.332 OA
HETATM   20  H   UNK N   1      35.467  18.591   7.986  0.00  0.00     0.221 HD
ENDBRANCH  10  19
ENDBRANCH   8  10
BRANCH   3  21
HETATM   21  O   UNK N   1      34.215  13.918  11.831  0.00  0.00    -0.344 OA
HETATM   22  H   UNK N   1      33.702  13.134  11.833  0.00  0.00     0.219 HD
ENDBRANCH   3  21
TORSDOF 8
ENDMDL
MODEL 8
REMARK VINA RESULT:      -5.3      8.078     11.195
REMARK  8 active torsions:
REMARK  status: ('A' for Active; 'I' for Inactive)
REMARK    1  A    between atoms: C_3  and  C_2 
REMARK    2  A    between atoms: C_4  and  C_3 
REMARK    3  A    between atoms: C_5  and  C_4 
REMARK    4  A    between atoms: C_6  and  C_5 
REMARK    5  A    between atoms: N_13  and  C_6 
REMARK    6  A    between atoms: O_18  and  C_9 
REMARK    7  A    between atoms: N_17  and  C_10 
REMARK    8  A    between atoms: O_19  and  C_10 
ROOT
HETATM    1  C   UNK N   1      33.076  17.499   7.721  0.00  0.00     0.152 A 
HETATM    2  C   UNK N   1      34.180  17.869   8.484  0.00  0.00     0.183 A 
HETATM    3  C   UNK N   1      34.574  17.053   9.539  0.00  0.00     0.185 A 
HETATM    4  C   UNK N   1      32.785  15.566   9.069  0.00  0.00     0.335 A 
HETATM    5  F   UNK N   1      34.865  19.001   8.188  0.00  0.00    -0.200 F 
HETATM    6  N   UNK N   1      33.873  15.929   9.819  0.00  0.00    -0.286 N 
ATOM      7  HN  UNK N   1      34.161  15.340  10.601  1.00  0.00     0.172 HD
HETATM    8  N   UNK N   1      32.386  16.357   7.998  0.00  0.00    -0.237 N 
HETATM    9  O   UNK N   1      32.186  14.545   9.356  0.00  0.00    -0.246 OA
ENDROOT
BRANCH   8  10
HETATM   10  C   UNK N   1      31.277  16.004   7.134  0.00  0.00     0.227 C 
HETATM   11  N   UNK N   1      30.380  16.879   6.832  0.00  0.00    -0.356 N 
ATOM     12  HN  UNK N   1      30.481  17.830   7.189  1.00  0.00     0.163 HD
BRANCH  11  13
HETATM   13  C   UNK N   1      29.244  16.562   6.012  0.00  0.00     0.123 C 
BRANCH  13  14
HETATM   14  C   UNK N   1      28.060  17.390   6.457  0.00  0.00     0.020 C 
BRANCH  14  15
HETATM   15  C   UNK N   1      28.153  18.757   5.820  0.00  0.00     0.002 C 
BRANCH  15  16
HETATM   16  C   UNK N   1      27.736  19.812   6.821  0.00  0.00    -0.000 C 
BRANCH  16  17
HETATM   17  C   UNK N   1      26.711  20.724   6.181  0.00  0.00    -0.005 C 
HETATM   18  C   UNK N   1      26.807  20.611   4.674  0.00  0.00     0.005 C 
ENDBRANCH  16  17
ENDBRANCH  15  16
ENDBRANCH  14  15
ENDBRANCH  13  14
ENDBRANCH  11  13
BRANCH  10  19
HETATM   19  O   UNK N   1      31.165  14.737   6.671  0.00  0.00    -0.332 OA
HETATM   20  H   UNK N   1      31.318  14.553   5.766  0.00  0.00     0.221 HD
ENDBRANCH  10  19
ENDBRANCH   8  10
BRANCH   3  21
HETATM   21  O   UNK N   1      35.648  17.373  10.280  0.00  0.00    -0.344 OA
HETATM   22  H   UNK N   1      35.552  17.931  11.027  0.00  0.00     0.219 HD
ENDBRANCH   3  21
TORSDOF 8
ENDMDL
MODEL 9
REMARK VINA RESULT:      -5.2     10.778     12.421
REMARK  8 active torsions:
REMARK  status: ('A' for Active; 'I' for Inactive)
REMARK    1  A    between atoms: C_3  and  C_2 
REMARK    2  A    between atoms: C_4  and  C_3 
REMARK    3  A    between atoms: C_5  and  C_4 
REMARK    4  A    between atoms: C_6  and  C_5 
REMARK    5  A    between atoms: N_13  and  C_6 
REMARK    6  A    between atoms: O_18  and  C_9 
REMARK    7  A    between atoms: N_17  and  C_10 
REMARK    8  A    between atoms: O_19  and  C_10 
ROOT
HETATM    1  C   UNK N   1      29.687  22.195  -5.018  0.00  0.00     0.152 A 
HETATM    2  C   UNK N   1      30.444  21.036  -5.158  0.00  0.00     0.183 A 
HETATM    3  C   UNK N   1      31.217  20.601  -4.087  0.00  0.00     0.185 A 
HETATM    4  C   UNK N   1      30.494  22.459  -2.799  0.00  0.00     0.335 A 
HETATM    5  F   UNK N   1      30.411  20.337  -6.319  0.00  0.00    -0.200 F 
HETATM    6  N   UNK N   1      31.237  21.317  -2.937  0.00  0.00    -0.286 N 
ATOM      7  HN  UNK N   1      31.815  20.999  -2.158  1.00  0.00     0.172 HD
HETATM    8  N   UNK N   1      29.699  22.901  -3.851  0.00  0.00    -0.237 N 
HETATM    9  O   UNK N   1      30.541  23.070  -1.746  0.00  0.00    -0.246 OA
ENDROOT
BRANCH   8  10
HETATM   10  C   UNK N   1      28.850  24.071  -3.754  0.00  0.00     0.227 C 
HETATM   11  N   UNK N   1      27.567  23.949  -3.752  0.00  0.00    -0.356 N 
ATOM     12  HN  UNK N   1      27.162  23.013  -3.790  1.00  0.00     0.163 HD
BRANCH  11  13
HETATM   13  C   UNK N   1      26.688  25.083  -3.697  0.00  0.00     0.123 C 
BRANCH  13  14
HETATM   14  C   UNK N   1      25.765  25.058  -4.894  0.00  0.00     0.020 C 
BRANCH  14  15
HETATM   15  C   UNK N   1      25.464  26.480  -5.308  0.00  0.00     0.002 C 
BRANCH  15  16
HETATM   16  C   UNK N   1      26.347  27.432  -4.531  0.00  0.00    -0.000 C 
BRANCH  16  17
HETATM   17  C   UNK N   1      26.963  28.430  -5.489  0.00  0.00    -0.005 C 
HETATM   18  C   UNK N   1      27.062  29.781  -4.813  0.00  0.00     0.005 C 
ENDBRANCH  16  17
ENDBRANCH  15  16
ENDBRANCH  14  15
ENDBRANCH  13  14
ENDBRANCH  11  13
BRANCH  10  19
HETATM   19  O   UNK N   1      29.409  25.303  -3.703  0.00  0.00    -0.332 OA
HETATM   20  H   UNK N   1      29.050  26.003  -4.211  0.00  0.00     0.221 HD
ENDBRANCH  10  19
ENDBRANCH   8  10
BRANCH   3  21
HETATM   21  O   UNK N   1      31.942  19.474  -4.186  0.00  0.00    -0.344 OA
HETATM   22  H   UNK N   1      31.718  18.828  -4.827  0.00  0.00     0.219 HD
ENDBRANCH   3  21
TORSDOF 8
ENDMDL
