REMARK  4 active torsions:
REMARK  status: ('A' for Active; 'I' for Inactive)
REMARK    1  A    between atoms: N_2  and  N_3 
REMARK       I    between atoms: N_2  and  C_8 
REMARK    2  A    between atoms: N_3  and  C_9 
REMARK    3  A    between atoms: C_4  and  C_8 
REMARK    4  A    between atoms: C_9  and  C_10 
ROOT
HETATM    1  N   UNK N   1      -0.398   0.045   0.491  0.00  0.00    -0.234 NA
HETATM    2  H   UNK N   1       0.502  -0.442   0.704  0.00  0.00     0.146 HD
ENDROOT
BRANCH   1   3
HETATM    3  N   UNK N   1      -0.181   1.392   0.183  0.00  0.00    -0.291 N 
HETATM    4  C   UNK N   1       1.061   1.963   0.254  0.00  0.00     0.239 C 
HETATM    5  O   UNK N   1       2.036   1.281   0.541  0.00  0.00    -0.271 OA
HETATM    6  H   UNK N   1      -0.994   1.987  -0.048  0.00  0.00     0.183 HD
BRANCH   4   7
HETATM    7  C   UNK N   1       1.235   3.450   0.009  0.00  0.00     0.031 C 
HETATM    8  C   UNK N   1       0.382   4.232   0.992  0.00  0.00     0.025 C 
HETATM    9  C   UNK N   1       2.681   3.887   0.196  0.00  0.00     0.025 C 
HETATM   10  C   UNK N   1       0.813   3.803  -1.404  0.00  0.00     0.025 C 
ENDBRANCH   4   7
ENDBRANCH   1   3
BRANCH   1  11
HETATM   11  C   UNK N   1      -1.059  -0.608  -0.637  0.00  0.00     0.149 C 
BRANCH  11  12
HETATM   12  C   UNK N   1      -1.063  -2.091  -0.433  0.00  0.00    -0.044 A 
HETATM   13  C   UNK N   1       0.131  -2.813  -0.556  0.00  0.00     0.008 A 
HETATM   14  C   UNK N   1       0.145  -4.191  -0.330  0.00  0.00     0.001 A 
HETATM   15  C   UNK N   1      -1.034  -4.852   0.026  0.00  0.00     0.000 A 
HETATM   16  C   UNK N   1      -2.228  -4.135   0.147  0.00  0.00     0.001 A 
HETATM   17  C   UNK N   1      -2.244  -2.754  -0.083  0.00  0.00     0.008 A 
ENDBRANCH  11  12
ENDBRANCH   1  11
TORSDOF 4
