MODEL 1
REMARK VINA RESULT:      -5.6      0.000      0.000
REMARK  4 active torsions:
REMARK  status: ('A' for Active; 'I' for Inactive)
REMARK    1  A    between atoms: N_2  and  N_3 
REMARK       I    between atoms: N_2  and  C_8 
REMARK    2  A    between atoms: N_3  and  C_9 
REMARK    3  A    between atoms: C_4  and  C_8 
REMARK    4  A    between atoms: C_9  and  C_10 
ROOT
HETATM    1  N   UNK N   1      25.484  24.716  -5.302  0.00  0.00    -0.234 NA
HETATM    2  H   UNK N   1      24.903  23.899  -5.594  0.00  0.00     0.146 HD
ENDROOT
BRANCH   1   3
HETATM    3  N   UNK N   1      26.819  24.343  -5.113  0.00  0.00    -0.291 N 
HETATM    4  C   UNK N   1      27.356  24.169  -3.866  0.00  0.00     0.239 C 
HETATM    5  O   UNK N   1      26.651  24.285  -2.871  0.00  0.00    -0.271 OA
HETATM    6  H   UNK N   1      27.433  24.254  -5.940  0.00  0.00     0.183 HD
BRANCH   4   7
HETATM    7  C   UNK N   1      28.832  23.862  -3.704  0.00  0.00     0.031 C 
HETATM    8  C   UNK N   1      29.297  22.976  -4.845  0.00  0.00     0.025 C 
HETATM    9  C   UNK N   1      29.677  25.128  -3.723  0.00  0.00     0.025 C 
HETATM   10  C   UNK N   1      29.080  23.148  -2.389  0.00  0.00     0.025 C 
ENDBRANCH   4   7
ENDBRANCH   1   3
BRANCH   1  11
HETATM   11  C   UNK N   1      25.415  25.762  -6.320  0.00  0.00     0.149 C 
BRANCH  11  12
HETATM   12  C   UNK N   1      25.949  27.046  -5.766  0.00  0.00    -0.044 A 
HETATM   13  C   UNK N   1      25.429  27.556  -4.570  0.00  0.00     0.008 A 
HETATM   14  C   UNK N   1      25.946  28.733  -4.024  0.00  0.00     0.001 A 
HETATM   15  C   UNK N   1      26.990  29.402  -4.670  0.00  0.00     0.000 A 
HETATM   16  C   UNK N   1      27.510  28.897  -5.865  0.00  0.00     0.001 A 
HETATM   17  C   UNK N   1      26.989  27.719  -6.415  0.00  0.00     0.008 A 
ENDBRANCH  11  12
ENDBRANCH   1  11
TORSDOF 4
ENDMDL
MODEL 2
REMARK VINA RESULT:      -5.5     17.707     21.306
REMARK  4 active torsions:
REMARK  status: ('A' for Active; 'I' for Inactive)
REMARK    1  A    between atoms: N_2  and  N_3 
REMARK       I    between atoms: N_2  and  C_8 
REMARK    2  A    between atoms: N_3  and  C_9 
REMARK    3  A    between atoms: C_4  and  C_8 
REMARK    4  A    between atoms: C_9  and  C_10 
ROOT
HETATM    1  N   UNK N   1      33.810  14.959  11.345  0.00  0.00    -0.234 NA
HETATM    2  H   UNK N   1      34.091  15.682  12.046  0.00  0.00     0.146 HD
ENDROOT
BRANCH   1   3
HETATM    3  N   UNK N   1      33.643  15.525  10.077  0.00  0.00    -0.291 N 
HETATM    4  C   UNK N   1      34.284  16.676   9.705  0.00  0.00     0.239 C 
HETATM    5  O   UNK N   1      35.073  17.215  10.470  0.00  0.00    -0.271 OA
HETATM    6  H   UNK N   1      32.971  15.092   9.423  0.00  0.00     0.183 HD
BRANCH   4   7
HETATM    7  C   UNK N   1      33.998  17.310   8.357  0.00  0.00     0.031 C 
HETATM    8  C   UNK N   1      34.748  18.625   8.242  0.00  0.00     0.025 C 
HETATM    9  C   UNK N   1      34.443  16.417   7.208  0.00  0.00     0.025 C 
HETATM   10  C   UNK N   1      32.512  17.572   8.204  0.00  0.00     0.025 C 
ENDBRANCH   4   7
ENDBRANCH   1   3
BRANCH   1  11
HETATM   11  C   UNK N   1      34.828  13.913  11.278  0.00  0.00     0.149 C 
BRANCH  11  12
HETATM   12  C   UNK N   1      35.331  13.605  12.654  0.00  0.00    -0.044 A 
HETATM   13  C   UNK N   1      36.184  14.509  13.300  0.00  0.00     0.008 A 
HETATM   14  C   UNK N   1      36.628  14.249  14.599  0.00  0.00     0.001 A 
HETATM   15  C   UNK N   1      36.216  13.088  15.258  0.00  0.00     0.000 A 
HETATM   16  C   UNK N   1      35.367  12.182  14.615  0.00  0.00     0.001 A 
HETATM   17  C   UNK N   1      34.924  12.440  13.312  0.00  0.00     0.008 A 
ENDBRANCH  11  12
ENDBRANCH   1  11
TORSDOF 4
ENDMDL
MODEL 3
REMARK VINA RESULT:      -5.4      2.225      3.074
REMARK  4 active torsions:
REMARK  status: ('A' for Active; 'I' for Inactive)
REMARK    1  A    between atoms: N_2  and  N_3 
REMARK       I    between atoms: N_2  and  C_8 
REMARK    2  A    between atoms: N_3  and  C_9 
REMARK    3  A    between atoms: C_4  and  C_8 
REMARK    4  A    between atoms: C_9  and  C_10 
ROOT
HETATM    1  N   UNK N   1      28.025  24.077  -2.867  0.00  0.00    -0.234 NA
HETATM    2  H   UNK N   1      27.913  23.716  -1.892  0.00  0.00     0.146 HD
ENDROOT
BRANCH   1   3
HETATM    3  N   UNK N   1      29.047  23.401  -3.540  0.00  0.00    -0.291 N 
HETATM    4  C   UNK N   1      30.176  22.967  -2.900  0.00  0.00     0.239 C 
HETATM    5  O   UNK N   1      30.294  23.116  -1.691  0.00  0.00    -0.271 OA
HETATM    6  H   UNK N   1      28.972  23.277  -4.564  0.00  0.00     0.183 HD
BRANCH   4   7
HETATM    7  C   UNK N   1      31.304  22.326  -3.687  0.00  0.00     0.031 C 
HETATM    8  C   UNK N   1      30.729  21.372  -4.718  0.00  0.00     0.025 C 
HETATM    9  C   UNK N   1      32.137  23.365  -4.425  0.00  0.00     0.025 C 
HETATM   10  C   UNK N   1      32.223  21.557  -2.758  0.00  0.00     0.025 C 
ENDBRANCH   4   7
ENDBRANCH   1   3
BRANCH   1  11
HETATM   11  C   UNK N   1      26.772  23.915  -3.601  0.00  0.00     0.149 C 
BRANCH  11  12
HETATM   12  C   UNK N   1      26.276  25.251  -4.058  0.00  0.00    -0.044 A 
HETATM   13  C   UNK N   1      25.584  25.358  -5.272  0.00  0.00     0.008 A 
HETATM   14  C   UNK N   1      25.083  26.593  -5.688  0.00  0.00     0.001 A 
HETATM   15  C   UNK N   1      25.267  27.726  -4.890  0.00  0.00     0.000 A 
HETATM   16  C   UNK N   1      25.959  27.623  -3.680  0.00  0.00     0.001 A 
HETATM   17  C   UNK N   1      26.465  26.386  -3.263  0.00  0.00     0.008 A 
ENDBRANCH  11  12
ENDBRANCH   1  11
TORSDOF 4
ENDMDL
MODEL 4
REMARK VINA RESULT:      -5.3     14.487     17.465
REMARK  4 active torsions:
REMARK  status: ('A' for Active; 'I' for Inactive)
REMARK    1  A    between atoms: N_2  and  N_3 
REMARK       I    between atoms: N_2  and  C_8 
REMARK    2  A    between atoms: N_3  and  C_9 
REMARK    3  A    between atoms: C_4  and  C_8 
REMARK    4  A    between atoms: C_9  and  C_10 
ROOT
HETATM    1  N   UNK N   1      33.270  17.434   8.975  0.00  0.00    -0.234 NA
HETATM    2  H   UNK N   1      33.159  18.230   9.642  0.00  0.00     0.146 HD
ENDROOT
BRANCH   1   3
HETATM    3  N   UNK N   1      33.811  16.313   9.613  0.00  0.00    -0.291 N 
HETATM    4  C   UNK N   1      35.015  16.358  10.264  0.00  0.00     0.239 C 
HETATM    5  O   UNK N   1      35.629  17.413  10.350  0.00  0.00    -0.271 OA
HETATM    6  H   UNK N   1      33.314  15.410   9.540  0.00  0.00     0.183 HD
BRANCH   4   7
HETATM    7  C   UNK N   1      35.612  15.096  10.856  0.00  0.00     0.031 C 
HETATM    8  C   UNK N   1      36.914  14.766  10.147  0.00  0.00     0.025 C 
HETATM    9  C   UNK N   1      35.917  15.257  12.339  0.00  0.00     0.025 C 
HETATM   10  C   UNK N   1      34.652  13.933  10.695  0.00  0.00     0.025 C 
ENDBRANCH   4   7
ENDBRANCH   1   3
BRANCH   1  11
HETATM   11  C   UNK N   1      31.972  17.083   8.402  0.00  0.00     0.149 C 
BRANCH  11  12
HETATM   12  C   UNK N   1      32.022  17.218   6.912  0.00  0.00    -0.044 A 
HETATM   13  C   UNK N   1      30.838  17.143   6.167  0.00  0.00     0.008 A 
HETATM   14  C   UNK N   1      30.869  17.307   4.780  0.00  0.00     0.001 A 
HETATM   15  C   UNK N   1      32.084  17.552   4.134  0.00  0.00     0.000 A 
HETATM   16  C   UNK N   1      33.268  17.625   4.874  0.00  0.00     0.001 A 
HETATM   17  C   UNK N   1      33.238  17.457   6.263  0.00  0.00     0.008 A 
ENDBRANCH  11  12
ENDBRANCH   1  11
TORSDOF 4
ENDMDL
MODEL 5
REMARK VINA RESULT:      -5.2     21.562     24.973
REMARK  4 active torsions:
REMARK  status: ('A' for Active; 'I' for Inactive)
REMARK    1  A    between atoms: N_2  and  N_3 
REMARK       I    between atoms: N_2  and  C_8 
REMARK    2  A    between atoms: N_3  and  C_9 
REMARK    3  A    between atoms: C_4  and  C_8 
REMARK    4  A    between atoms: C_9  and  C_10 
ROOT
HETATM    1  N   UNK N   1      34.811  13.119  14.371  0.00  0.00    -0.234 NA
HETATM    2  H   UNK N   1      35.002  13.924  15.010  0.00  0.00     0.146 HD
ENDROOT
BRANCH   1   3
HETATM    3  N   UNK N   1      35.689  13.120  13.283  0.00  0.00    -0.291 N 
HETATM    4  C   UNK N   1      35.380  13.734  12.099  0.00  0.00     0.239 C 
HETATM    5  O   UNK N   1      34.331  14.354  11.984  0.00  0.00    -0.271 OA
HETATM    6  H   UNK N   1      36.574  12.590  13.357  0.00  0.00     0.183 HD
BRANCH   4   7
HETATM    7  C   UNK N   1      36.319  13.625  10.912  0.00  0.00     0.031 C 
HETATM    8  C   UNK N   1      36.653  15.014  10.397  0.00  0.00     0.025 C 
HETATM    9  C   UNK N   1      37.625  12.940  11.287  0.00  0.00     0.025 C 
HETATM   10  C   UNK N   1      35.668  12.827   9.799  0.00  0.00     0.025 C 
ENDBRANCH   4   7
ENDBRANCH   1   3
BRANCH   1  11
HETATM   11  C   UNK N   1      34.950  11.862  15.103  0.00  0.00     0.149 C 
BRANCH  11  12
HETATM   12  C   UNK N   1      35.104  12.142  16.566  0.00  0.00    -0.044 A 
HETATM   13  C   UNK N   1      35.044  13.461  17.032  0.00  0.00     0.008 A 
HETATM   14  C   UNK N   1      35.148  13.729  18.398  0.00  0.00     0.001 A 
HETATM   15  C   UNK N   1      35.306  12.678  19.306  0.00  0.00     0.000 A 
HETATM   16  C   UNK N   1      35.368  11.360  18.844  0.00  0.00     0.001 A 
HETATM   17  C   UNK N   1      35.268  11.090  17.474  0.00  0.00     0.008 A 
ENDBRANCH  11  12
ENDBRANCH   1  11
TORSDOF 4
ENDMDL
MODEL 6
REMARK VINA RESULT:      -5.2      1.421      5.603
REMARK  4 active torsions:
REMARK  status: ('A' for Active; 'I' for Inactive)
REMARK    1  A    between atoms: N_2  and  N_3 
REMARK       I    between atoms: N_2  and  C_8 
REMARK    2  A    between atoms: N_3  and  C_9 
REMARK    3  A    between atoms: C_4  and  C_8 
REMARK    4  A    between atoms: C_9  and  C_10 
ROOT
HETATM    1  N   UNK N   1      27.248  23.668  -5.292  0.00  0.00    -0.234 NA
HETATM    2  H   UNK N   1      27.284  23.481  -4.265  0.00  0.00     0.146 HD
ENDROOT
BRANCH   1   3
HETATM    3  N   UNK N   1      26.871  24.990  -5.550  0.00  0.00    -0.291 N 
HETATM    4  C   UNK N   1      26.404  25.818  -4.565  0.00  0.00     0.239 C 
HETATM    5  O   UNK N   1      26.356  25.429  -3.406  0.00  0.00    -0.271 OA
HETATM    6  H   UNK N   1      26.892  25.333  -6.525  0.00  0.00     0.183 HD
BRANCH   4   7
HETATM    7  C   UNK N   1      25.912  27.212  -4.907  0.00  0.00     0.031 C 
HETATM    8  C   UNK N   1      26.940  27.917  -5.774  0.00  0.00     0.025 C 
HETATM    9  C   UNK N   1      24.600  27.175  -5.677  0.00  0.00     0.025 C 
HETATM   10  C   UNK N   1      25.695  28.018  -3.641  0.00  0.00     0.025 C 
ENDBRANCH   4   7
ENDBRANCH   1   3
BRANCH   1  11
HETATM   11  C   UNK N   1      28.558  23.414  -5.888  0.00  0.00     0.149 C 
BRANCH  11  12
HETATM   12  C   UNK N   1      29.493  22.883  -4.847  0.00  0.00    -0.044 A 
HETATM   13  C   UNK N   1      29.759  23.640  -3.699  0.00  0.00     0.008 A 
HETATM   14  C   UNK N   1      30.600  23.137  -2.705  0.00  0.00     0.001 A 
HETATM   15  C   UNK N   1      31.174  21.871  -2.851  0.00  0.00     0.000 A 
HETATM   16  C   UNK N   1      30.913  21.113  -3.996  0.00  0.00     0.001 A 
HETATM   17  C   UNK N   1      30.073  21.618  -4.996  0.00  0.00     0.008 A 
ENDBRANCH  11  12
ENDBRANCH   1  11
TORSDOF 4
ENDMDL
MODEL 7
REMARK VINA RESULT:      -5.1     11.891     14.031
REMARK  4 active torsions:
REMARK  status: ('A' for Active; 'I' for Inactive)
REMARK    1  A    between atoms: N_2  and  N_3 
REMARK       I    between atoms: N_2  and  C_8 
REMARK    2  A    between atoms: N_3  and  C_9 
REMARK    3  A    between atoms: C_4  and  C_8 
REMARK    4  A    between atoms: C_9  and  C_10 
ROOT
HETATM    1  N   UNK N   1      29.649  17.224   7.085  0.00  0.00    -0.234 NA
HETATM    2  H   UNK N   1      29.227  16.488   7.696  0.00  0.00     0.146 HD
ENDROOT
BRANCH   1   3
HETATM    3  N   UNK N   1      31.009  16.979   6.867  0.00  0.00    -0.291 N 
HETATM    4  C   UNK N   1      31.979  17.490   7.687  0.00  0.00     0.239 C 
HETATM    5  O   UNK N   1      31.669  18.138   8.677  0.00  0.00    -0.271 OA
HETATM    6  H   UNK N   1      31.291  16.446   6.028  0.00  0.00     0.183 HD
BRANCH   4   7
HETATM    7  C   UNK N   1      33.446  17.284   7.357  0.00  0.00     0.031 C 
HETATM    8  C   UNK N   1      33.875  15.893   7.789  0.00  0.00     0.025 C 
HETATM    9  C   UNK N   1      33.711  17.410   5.864  0.00  0.00     0.025 C 
HETATM   10  C   UNK N   1      34.296  18.311   8.078  0.00  0.00     0.025 C 
ENDBRANCH   4   7
ENDBRANCH   1   3
BRANCH   1  11
HETATM   11  C   UNK N   1      28.953  17.259   5.800  0.00  0.00     0.149 C 
BRANCH  11  12
HETATM   12  C   UNK N   1      28.209  18.551   5.661  0.00  0.00    -0.044 A 
HETATM   13  C   UNK N   1      27.927  19.316   6.800  0.00  0.00     0.008 A 
HETATM   14  C   UNK N   1      27.267  20.541   6.677  0.00  0.00     0.001 A 
HETATM   15  C   UNK N   1      26.893  21.008   5.414  0.00  0.00     0.000 A 
HETATM   16  C   UNK N   1      27.171  20.246   4.276  0.00  0.00     0.001 A 
HETATM   17  C   UNK N   1      27.829  19.016   4.398  0.00  0.00     0.008 A 
ENDBRANCH  11  12
ENDBRANCH   1  11
TORSDOF 4
ENDMDL
MODEL 8
REMARK VINA RESULT:      -5.1     22.005     25.389
REMARK  4 active torsions:
REMARK  status: ('A' for Active; 'I' for Inactive)
REMARK    1  A    between atoms: N_2  and  N_3 
REMARK       I    between atoms: N_2  and  C_8 
REMARK    2  A    between atoms: N_3  and  C_9 
REMARK    3  A    between atoms: C_4  and  C_8 
REMARK    4  A    between atoms: C_9  and  C_10 
ROOT
HETATM    1  N   UNK N   1      37.022  13.417  14.628  0.00  0.00    -0.234 NA
HETATM    2  H   UNK N   1      37.362  12.447  14.818  0.00  0.00     0.146 HD
ENDROOT
BRANCH   1   3
HETATM    3  N   UNK N   1      37.012  13.687  13.256  0.00  0.00    -0.291 N 
HETATM    4  C   UNK N   1      37.134  12.697  12.319  0.00  0.00     0.239 C 
HETATM    5  O   UNK N   1      37.201  11.525  12.667  0.00  0.00    -0.271 OA
HETATM    6  H   UNK N   1      36.970  14.671  12.943  0.00  0.00     0.183 HD
BRANCH   4   7
HETATM    7  C   UNK N   1      37.219  13.044  10.845  0.00  0.00     0.031 C 
HETATM    8  C   UNK N   1      38.672  13.046  10.405  0.00  0.00     0.025 C 
HETATM    9  C   UNK N   1      36.472  12.036   9.984  0.00  0.00     0.025 C 
HETATM   10  C   UNK N   1      36.623  14.416  10.593  0.00  0.00     0.025 C 
ENDBRANCH   4   7
ENDBRANCH   1   3
BRANCH   1  11
HETATM   11  C   UNK N   1      35.672  13.581  15.163  0.00  0.00     0.149 C 
BRANCH  11  12
HETATM   12  C   UNK N   1      35.556  12.870  16.475  0.00  0.00    -0.044 A 
HETATM   13  C   UNK N   1      35.849  11.502  16.553  0.00  0.00     0.008 A 
HETATM   14  C   UNK N   1      35.781  10.838  17.780  0.00  0.00     0.001 A 
HETATM   15  C   UNK N   1      35.426  11.540  18.935  0.00  0.00     0.000 A 
HETATM   16  C   UNK N   1      35.131  12.904  18.861  0.00  0.00     0.001 A 
HETATM   17  C   UNK N   1      35.195  13.571  17.631  0.00  0.00     0.008 A 
ENDBRANCH  11  12
ENDBRANCH   1  11
TORSDOF 4
ENDMDL
MODEL 9
REMARK VINA RESULT:      -5.1      2.584      3.546
REMARK  4 active torsions:
REMARK  status: ('A' for Active; 'I' for Inactive)
REMARK    1  A    between atoms: N_2  and  N_3 
REMARK       I    between atoms: N_2  and  C_8 
REMARK    2  A    between atoms: N_3  and  C_9 
REMARK    3  A    between atoms: C_4  and  C_8 
REMARK    4  A    between atoms: C_9  and  C_10 
ROOT
HETATM    1  N   UNK N   1      25.561  25.275  -5.197  0.00  0.00    -0.234 NA
HETATM    2  H   UNK N   1      25.184  24.966  -4.272  0.00  0.00     0.146 HD
ENDROOT
BRANCH   1   3
HETATM    3  N   UNK N   1      25.320  24.315  -6.185  0.00  0.00    -0.291 N 
HETATM    4  C   UNK N   1      26.242  23.356  -6.506  0.00  0.00     0.239 C 
HETATM    5  O   UNK N   1      27.295  23.283  -5.887  0.00  0.00    -0.271 OA
HETATM    6  H   UNK N   1      24.443  24.370  -6.728  0.00  0.00     0.183 HD
BRANCH   4   7
HETATM    7  C   UNK N   1      25.981  22.397  -7.653  0.00  0.00     0.031 C 
HETATM    8  C   UNK N   1      24.822  21.483  -7.299  0.00  0.00     0.025 C 
HETATM    9  C   UNK N   1      25.619  23.135  -8.934  0.00  0.00     0.025 C 
HETATM   10  C   UNK N   1      27.212  21.555  -7.924  0.00  0.00     0.025 C 
ENDBRANCH   4   7
ENDBRANCH   1   3
BRANCH   1  11
HETATM   11  C   UNK N   1      24.937  26.538  -5.588  0.00  0.00     0.149 C 
BRANCH  11  12
HETATM   12  C   UNK N   1      25.867  27.674  -5.296  0.00  0.00    -0.044 A 
HETATM   13  C   UNK N   1      26.877  27.999  -6.210  0.00  0.00     0.008 A 
HETATM   14  C   UNK N   1      27.725  29.081  -5.966  0.00  0.00     0.001 A 
HETATM   15  C   UNK N   1      27.563  29.847  -4.808  0.00  0.00     0.000 A 
HETATM   16  C   UNK N   1      26.557  29.525  -3.892  0.00  0.00     0.001 A 
HETATM   17  C   UNK N   1      25.709  28.438  -4.134  0.00  0.00     0.008 A 
ENDBRANCH  11  12
ENDBRANCH   1  11
TORSDOF 4
ENDMDL
