MODEL 1
REMARK VINA RESULT:      -5.9      0.000      0.000
REMARK  4 active torsions:
REMARK  status: ('A' for Active; 'I' for Inactive)
REMARK    1  A    between atoms: N_2  and  N_3 
REMARK       I    between atoms: N_2  and  C_5 
REMARK    2  A    between atoms: N_3  and  C_7 
REMARK    3  A    between atoms: C_4  and  C_5 
REMARK    4  A    between atoms: C_6  and  C_7 
ROOT
HETATM    1  O   UNK N   1      26.913  23.815  -2.481  0.00  0.00    -0.266 OA
HETATM    2  N   UNK N   1      28.606  24.158  -3.881  0.00  0.00    -0.270 N 
HETATM    3  C   UNK N   1      27.358  24.454  -3.421  0.00  0.00     0.269 C 
HETATM    4  H   UNK N   1      29.117  23.437  -3.446  0.00  0.00     0.190 HD
ENDROOT
BRANCH   2   5
HETATM    5  N   UNK N   1      29.176  24.842  -4.944  0.00  0.00    -0.325 N 
HETATM    6  H   UNK N   1      29.197  24.475  -5.895  0.00  0.00     0.181 HD
BRANCH   5   7
HETATM    7  C   UNK N   1      29.747  26.143  -4.579  0.00  0.00     0.128 C 
HETATM    8  C   UNK N   1      30.944  26.051  -3.648  0.00  0.00     0.039 C 
BRANCH   7   9
HETATM    9  C   UNK N   1      29.249  27.498  -5.043  0.00  0.00    -0.035 A 
HETATM   10  C   UNK N   1      28.633  27.595  -6.301  0.00  0.00     0.009 A 
HETATM   11  C   UNK N   1      28.159  28.821  -6.771  0.00  0.00     0.001 A 
HETATM   12  C   UNK N   1      28.296  29.968  -5.986  0.00  0.00     0.000 A 
HETATM   13  C   UNK N   1      28.907  29.885  -4.733  0.00  0.00     0.001 A 
HETATM   14  C   UNK N   1      29.381  28.657  -4.264  0.00  0.00     0.009 A 
ENDBRANCH   7   9
ENDBRANCH   5   7
ENDBRANCH   2   5
BRANCH   3  15
HETATM   15  C   UNK N   1      26.513  25.536  -4.027  0.00  0.00     0.033 A 
HETATM   16  C   UNK N   1      26.351  26.758  -3.350  0.00  0.00     0.017 A 
HETATM   17  C   UNK N   1      25.566  27.776  -3.903  0.00  0.00     0.001 A 
HETATM   18  C   UNK N   1      24.935  27.587  -5.135  0.00  0.00     0.000 A 
HETATM   19  C   UNK N   1      25.087  26.380  -5.816  0.00  0.00     0.001 A 
HETATM   20  C   UNK N   1      25.870  25.367  -5.264  0.00  0.00     0.017 A 
ENDBRANCH   3  15
TORSDOF 4
ENDMDL
MODEL 2
REMARK VINA RESULT:      -5.9     15.505     17.816
REMARK  4 active torsions:
REMARK  status: ('A' for Active; 'I' for Inactive)
REMARK    1  A    between atoms: N_2  and  N_3 
REMARK       I    between atoms: N_2  and  C_5 
REMARK    2  A    between atoms: N_3  and  C_7 
REMARK    3  A    between atoms: C_4  and  C_5 
REMARK    4  A    between atoms: C_6  and  C_7 
ROOT
HETATM    1  O   UNK N   1      35.258  19.213   8.403  0.00  0.00    -0.266 OA
HETATM    2  N   UNK N   1      34.967  17.440   9.712  0.00  0.00    -0.270 N 
HETATM    3  C   UNK N   1      34.628  18.192   8.626  0.00  0.00     0.269 C 
HETATM    4  H   UNK N   1      35.708  17.737  10.287  0.00  0.00     0.190 HD
ENDROOT
BRANCH   2   5
HETATM    5  N   UNK N   1      34.296  16.268  10.028  0.00  0.00    -0.325 N 
HETATM    6  H   UNK N   1      33.490  16.240  10.653  0.00  0.00     0.181 HD
BRANCH   5   7
HETATM    7  C   UNK N   1      34.848  15.072   9.383  0.00  0.00     0.128 C 
HETATM    8  C   UNK N   1      35.928  14.377  10.195  0.00  0.00     0.039 C 
BRANCH   7   9
HETATM    9  C   UNK N   1      34.435  14.515   8.035  0.00  0.00    -0.035 A 
HETATM   10  C   UNK N   1      35.393  14.449   7.011  0.00  0.00     0.009 A 
HETATM   11  C   UNK N   1      35.060  13.943   5.753  0.00  0.00     0.001 A 
HETATM   12  C   UNK N   1      33.761  13.497   5.504  0.00  0.00     0.000 A 
HETATM   13  C   UNK N   1      32.798  13.556   6.514  0.00  0.00     0.001 A 
HETATM   14  C   UNK N   1      33.133  14.063   7.772  0.00  0.00     0.009 A 
ENDBRANCH   7   9
ENDBRANCH   5   7
ENDBRANCH   2   5
BRANCH   3  15
HETATM   15  C   UNK N   1      33.512  17.810   7.699  0.00  0.00     0.033 A 
HETATM   16  C   UNK N   1      33.779  17.593   6.337  0.00  0.00     0.017 A 
HETATM   17  C   UNK N   1      32.747  17.237   5.460  0.00  0.00     0.001 A 
HETATM   18  C   UNK N   1      31.441  17.093   5.933  0.00  0.00     0.000 A 
HETATM   19  C   UNK N   1      31.163  17.305   7.282  0.00  0.00     0.001 A 
HETATM   20  C   UNK N   1      32.191  17.660   8.154  0.00  0.00     0.017 A 
ENDBRANCH   3  15
TORSDOF 4
ENDMDL
MODEL 3
REMARK VINA RESULT:      -5.7     13.837     15.328
REMARK  4 active torsions:
REMARK  status: ('A' for Active; 'I' for Inactive)
REMARK    1  A    between atoms: N_2  and  N_3 
REMARK       I    between atoms: N_2  and  C_5 
REMARK    2  A    between atoms: N_3  and  C_7 
REMARK    3  A    between atoms: C_4  and  C_5 
REMARK    4  A    between atoms: C_6  and  C_7 
ROOT
HETATM    1  O   UNK N   1      27.842  16.797  10.166  0.00  0.00    -0.266 OA
HETATM    2  N   UNK N   1      29.950  17.409   9.807  0.00  0.00    -0.270 N 
HETATM    3  C   UNK N   1      28.652  17.301   9.404  0.00  0.00     0.269 C 
HETATM    4  H   UNK N   1      30.202  17.079  10.699  0.00  0.00     0.190 HD
ENDROOT
BRANCH   2   5
HETATM    5  N   UNK N   1      30.924  17.970   8.995  0.00  0.00    -0.325 N 
HETATM    6  H   UNK N   1      31.136  18.967   8.989  0.00  0.00     0.181 HD
BRANCH   5   7
HETATM    7  C   UNK N   1      31.622  17.000   8.144  0.00  0.00     0.128 C 
HETATM    8  C   UNK N   1      32.023  15.724   8.865  0.00  0.00     0.039 C 
BRANCH   7   9
HETATM    9  C   UNK N   1      31.952  17.177   6.675  0.00  0.00    -0.035 A 
HETATM   10  C   UNK N   1      30.910  17.106   5.737  0.00  0.00     0.009 A 
HETATM   11  C   UNK N   1      31.166  17.263   4.373  0.00  0.00     0.001 A 
HETATM   12  C   UNK N   1      32.470  17.493   3.931  0.00  0.00     0.000 A 
HETATM   13  C   UNK N   1      33.516  17.565   4.854  0.00  0.00     0.001 A 
HETATM   14  C   UNK N   1      33.258  17.409   6.218  0.00  0.00     0.009 A 
ENDBRANCH   7   9
ENDBRANCH   5   7
ENDBRANCH   2   5
BRANCH   3  15
HETATM   15  C   UNK N   1      28.184  17.779   8.061  0.00  0.00     0.033 A 
HETATM   16  C   UNK N   1      27.694  16.855   7.122  0.00  0.00     0.017 A 
HETATM   17  C   UNK N   1      27.255  17.285   5.865  0.00  0.00     0.001 A 
HETATM   18  C   UNK N   1      27.299  18.642   5.532  0.00  0.00     0.000 A 
HETATM   19  C   UNK N   1      27.782  19.568   6.454  0.00  0.00     0.001 A 
HETATM   20  C   UNK N   1      28.219  19.137   7.706  0.00  0.00     0.017 A 
ENDBRANCH   3  15
TORSDOF 4
ENDMDL
MODEL 4
REMARK VINA RESULT:      -5.6     13.681     15.457
REMARK  4 active torsions:
REMARK  status: ('A' for Active; 'I' for Inactive)
REMARK    1  A    between atoms: N_2  and  N_3 
REMARK       I    between atoms: N_2  and  C_5 
REMARK    2  A    between atoms: N_3  and  C_7 
REMARK    3  A    between atoms: C_4  and  C_5 
REMARK    4  A    between atoms: C_6  and  C_7 
ROOT
HETATM    1  O   UNK N   1      34.628  18.347   7.156  0.00  0.00    -0.266 OA
HETATM    2  N   UNK N   1      32.903  17.250   8.030  0.00  0.00    -0.270 N 
HETATM    3  C   UNK N   1      33.711  17.561   6.977  0.00  0.00     0.269 C 
HETATM    4  H   UNK N   1      33.078  17.664   8.906  0.00  0.00     0.190 HD
ENDROOT
BRANCH   2   5
HETATM    5  N   UNK N   1      31.842  16.366   7.902  0.00  0.00    -0.325 N 
HETATM    6  H   UNK N   1      31.917  15.372   8.116  0.00  0.00     0.181 HD
BRANCH   5   7
HETATM    7  C   UNK N   1      30.601  16.988   7.430  0.00  0.00     0.128 C 
HETATM    8  C   UNK N   1      29.970  17.942   8.431  0.00  0.00     0.039 C 
BRANCH   7   9
HETATM    9  C   UNK N   1      29.942  16.756   6.084  0.00  0.00    -0.035 A 
HETATM   10  C   UNK N   1      30.046  15.487   5.492  0.00  0.00     0.009 A 
HETATM   11  C   UNK N   1      29.455  15.226   4.255  0.00  0.00     0.001 A 
HETATM   12  C   UNK N   1      28.753  16.235   3.592  0.00  0.00     0.000 A 
HETATM   13  C   UNK N   1      28.642  17.501   4.169  0.00  0.00     0.001 A 
HETATM   14  C   UNK N   1      29.233  17.761   5.408  0.00  0.00     0.009 A 
ENDBRANCH   7   9
ENDBRANCH   5   7
ENDBRANCH   2   5
BRANCH   3  15
HETATM   15  C   UNK N   1      33.514  16.975   5.610  0.00  0.00     0.033 A 
HETATM   16  C   UNK N   1      33.960  15.670   5.339  0.00  0.00     0.017 A 
HETATM   17  C   UNK N   1      33.783  15.109   4.069  0.00  0.00     0.001 A 
HETATM   18  C   UNK N   1      33.160  15.844   3.057  0.00  0.00     0.000 A 
HETATM   19  C   UNK N   1      32.713  17.139   3.313  0.00  0.00     0.001 A 
HETATM   20  C   UNK N   1      32.891  17.696   4.579  0.00  0.00     0.017 A 
ENDBRANCH   3  15
TORSDOF 4
ENDMDL
MODEL 5
REMARK VINA RESULT:      -5.6     17.153     19.554
REMARK  4 active torsions:
REMARK  status: ('A' for Active; 'I' for Inactive)
REMARK    1  A    between atoms: N_2  and  N_3 
REMARK       I    between atoms: N_2  and  C_5 
REMARK    2  A    between atoms: N_3  and  C_7 
REMARK    3  A    between atoms: C_4  and  C_5 
REMARK    4  A    between atoms: C_6  and  C_7 
ROOT
HETATM    1  O   UNK N   1      35.050  19.170   8.368  0.00  0.00    -0.266 OA
HETATM    2  N   UNK N   1      34.658  17.415   9.677  0.00  0.00    -0.270 N 
HETATM    3  C   UNK N   1      34.423  18.137   8.544  0.00  0.00     0.269 C 
HETATM    4  H   UNK N   1      35.325  17.742  10.322  0.00  0.00     0.190 HD
ENDROOT
BRANCH   2   5
HETATM    5  N   UNK N   1      33.983  16.233   9.943  0.00  0.00    -0.325 N 
HETATM    6  H   UNK N   1      32.968  16.177  10.022  0.00  0.00     0.181 HD
BRANCH   5   7
HETATM    7  C   UNK N   1      34.861  15.068  10.101  0.00  0.00     0.128 C 
HETATM    8  C   UNK N   1      35.414  14.531   8.792  0.00  0.00     0.039 C 
BRANCH   7   9
HETATM    9  C   UNK N   1      35.232  14.402  11.412  0.00  0.00    -0.035 A 
HETATM   10  C   UNK N   1      35.975  15.133  12.353  0.00  0.00     0.009 A 
HETATM   11  C   UNK N   1      36.340  14.562  13.573  0.00  0.00     0.001 A 
HETATM   12  C   UNK N   1      35.965  13.250  13.868  0.00  0.00     0.000 A 
HETATM   13  C   UNK N   1      35.225  12.512  12.942  0.00  0.00     0.001 A 
HETATM   14  C   UNK N   1      34.861  13.085  11.721  0.00  0.00     0.009 A 
ENDBRANCH   7   9
ENDBRANCH   5   7
ENDBRANCH   2   5
BRANCH   3  15
HETATM   15  C   UNK N   1      33.424  17.710   7.509  0.00  0.00     0.033 A 
HETATM   16  C   UNK N   1      33.856  17.399   6.208  0.00  0.00     0.017 A 
HETATM   17  C   UNK N   1      32.936  16.999   5.232  0.00  0.00     0.001 A 
HETATM   18  C   UNK N   1      31.577  16.904   5.544  0.00  0.00     0.000 A 
HETATM   19  C   UNK N   1      31.137  17.209   6.831  0.00  0.00     0.001 A 
HETATM   20  C   UNK N   1      32.054  17.608   7.801  0.00  0.00     0.017 A 
ENDBRANCH   3  15
TORSDOF 4
ENDMDL
MODEL 6
REMARK VINA RESULT:      -5.4      2.833      4.212
REMARK  4 active torsions:
REMARK  status: ('A' for Active; 'I' for Inactive)
REMARK    1  A    between atoms: N_2  and  N_3 
REMARK       I    between atoms: N_2  and  C_5 
REMARK    2  A    between atoms: N_3  and  C_7 
REMARK    3  A    between atoms: C_4  and  C_5 
REMARK    4  A    between atoms: C_6  and  C_7 
ROOT
HETATM    1  O   UNK N   1      27.512  21.908  -7.649  0.00  0.00    -0.266 OA
HETATM    2  N   UNK N   1      25.954  23.362  -8.285  0.00  0.00    -0.270 N 
HETATM    3  C   UNK N   1      26.869  22.911  -7.381  0.00  0.00     0.269 C 
HETATM    4  H   UNK N   1      25.833  22.870  -9.129  0.00  0.00     0.190 HD
ENDROOT
BRANCH   2   5
HETATM    5  N   UNK N   1      25.188  24.494  -8.049  0.00  0.00    -0.325 N 
HETATM    6  H   UNK N   1      24.198  24.456  -7.806  0.00  0.00     0.181 HD
BRANCH   5   7
HETATM    7  C   UNK N   1      25.929  25.753  -8.178  0.00  0.00     0.128 C 
HETATM    8  C   UNK N   1      26.490  25.998  -9.570  0.00  0.00     0.039 C 
BRANCH   7   9
HETATM    9  C   UNK N   1      26.161  26.770  -7.078  0.00  0.00    -0.035 A 
HETATM   10  C   UNK N   1      27.322  27.558  -7.121  0.00  0.00     0.009 A 
HETATM   11  C   UNK N   1      27.577  28.507  -6.130  0.00  0.00     0.001 A 
HETATM   12  C   UNK N   1      26.673  28.680  -5.081  0.00  0.00     0.000 A 
HETATM   13  C   UNK N   1      25.514  27.903  -5.026  0.00  0.00     0.001 A 
HETATM   14  C   UNK N   1      25.260  26.953  -6.018  0.00  0.00     0.009 A 
ENDBRANCH   7   9
ENDBRANCH   5   7
ENDBRANCH   2   5
BRANCH   3  15
HETATM   15  C   UNK N   1      27.115  23.602  -6.072  0.00  0.00     0.033 A 
HETATM   16  C   UNK N   1      26.109  23.617  -5.090  0.00  0.00     0.017 A 
HETATM   17  C   UNK N   1      26.324  24.257  -3.864  0.00  0.00     0.001 A 
HETATM   18  C   UNK N   1      27.543  24.889  -3.605  0.00  0.00     0.000 A 
HETATM   19  C   UNK N   1      28.549  24.881  -4.570  0.00  0.00     0.001 A 
HETATM   20  C   UNK N   1      28.333  24.243  -5.791  0.00  0.00     0.017 A 
ENDBRANCH   3  15
TORSDOF 4
ENDMDL
MODEL 7
REMARK VINA RESULT:      -5.4      3.012      4.922
REMARK  4 active torsions:
REMARK  status: ('A' for Active; 'I' for Inactive)
REMARK    1  A    between atoms: N_2  and  N_3 
REMARK       I    between atoms: N_2  and  C_5 
REMARK    2  A    between atoms: N_3  and  C_7 
REMARK    3  A    between atoms: C_4  and  C_5 
REMARK    4  A    between atoms: C_6  and  C_7 
ROOT
HETATM    1  O   UNK N   1      27.014  26.812  -9.162  0.00  0.00    -0.266 OA
HETATM    2  N   UNK N   1      25.908  24.968  -8.594  0.00  0.00    -0.270 N 
HETATM    3  C   UNK N   1      26.445  26.183  -8.284  0.00  0.00     0.269 C 
HETATM    4  H   UNK N   1      25.991  24.630  -9.514  0.00  0.00     0.190 HD
ENDROOT
BRANCH   2   5
HETATM    5  N   UNK N   1      25.248  24.198  -7.648  0.00  0.00    -0.325 N 
HETATM    6  H   UNK N   1      24.249  24.281  -7.461  0.00  0.00     0.181 HD
BRANCH   5   7
HETATM    7  C   UNK N   1      26.116  23.251  -6.940  0.00  0.00     0.128 C 
HETATM    8  C   UNK N   1      26.128  21.856  -7.542  0.00  0.00     0.039 C 
BRANCH   7   9
HETATM    9  C   UNK N   1      26.956  23.555  -5.714  0.00  0.00    -0.035 A 
HETATM   10  C   UNK N   1      26.309  23.976  -4.542  0.00  0.00     0.009 A 
HETATM   11  C   UNK N   1      27.040  24.267  -3.389  0.00  0.00     0.001 A 
HETATM   12  C   UNK N   1      28.431  24.140  -3.395  0.00  0.00     0.000 A 
HETATM   13  C   UNK N   1      29.087  23.722  -4.555  0.00  0.00     0.001 A 
HETATM   14  C   UNK N   1      28.353  23.431  -5.708  0.00  0.00     0.009 A 
ENDBRANCH   7   9
ENDBRANCH   5   7
ENDBRANCH   2   5
BRANCH   3  15
HETATM   15  C   UNK N   1      26.363  26.771  -6.906  0.00  0.00     0.033 A 
HETATM   16  C   UNK N   1      27.542  27.116  -6.222  0.00  0.00     0.017 A 
HETATM   17  C   UNK N   1      27.481  27.666  -4.936  0.00  0.00     0.001 A 
HETATM   18  C   UNK N   1      26.244  27.877  -4.321  0.00  0.00     0.000 A 
HETATM   19  C   UNK N   1      25.068  27.540  -4.988  0.00  0.00     0.001 A 
HETATM   20  C   UNK N   1      25.131  26.992  -6.269  0.00  0.00     0.017 A 
ENDBRANCH   3  15
TORSDOF 4
ENDMDL
MODEL 8
REMARK VINA RESULT:      -5.4     28.615     31.042
REMARK  4 active torsions:
REMARK  status: ('A' for Active; 'I' for Inactive)
REMARK    1  A    between atoms: N_2  and  N_3 
REMARK       I    between atoms: N_2  and  C_5 
REMARK    2  A    between atoms: N_3  and  C_7 
REMARK    3  A    between atoms: C_4  and  C_5 
REMARK    4  A    between atoms: C_6  and  C_7 
ROOT
HETATM    1  O   UNK N   1      37.215  10.424  20.705  0.00  0.00    -0.266 OA
HETATM    2  N   UNK N   1      35.156  10.510  21.541  0.00  0.00    -0.270 N 
HETATM    3  C   UNK N   1      36.059  10.786  20.557  0.00  0.00     0.269 C 
HETATM    4  H   UNK N   1      35.457  10.028  22.345  0.00  0.00     0.190 HD
ENDROOT
BRANCH   2   5
HETATM    5  N   UNK N   1      33.826  10.891  21.442  0.00  0.00    -0.325 N 
HETATM    6  H   UNK N   1      33.517  11.695  20.896  0.00  0.00     0.181 HD
BRANCH   5   7
HETATM    7  C   UNK N   1      32.903  10.034  22.193  0.00  0.00     0.128 C 
HETATM    8  C   UNK N   1      32.726  10.442  23.646  0.00  0.00     0.039 C 
BRANCH   7   9
HETATM    9  C   UNK N   1      32.154   8.833  21.645  0.00  0.00    -0.035 A 
HETATM   10  C   UNK N   1      32.157   7.642  22.388  0.00  0.00     0.009 A 
HETATM   11  C   UNK N   1      31.482   6.511  21.924  0.00  0.00     0.001 A 
HETATM   12  C   UNK N   1      30.795   6.559  20.710  0.00  0.00     0.000 A 
HETATM   13  C   UNK N   1      30.784   7.738  19.962  0.00  0.00     0.001 A 
HETATM   14  C   UNK N   1      31.460   8.869  20.427  0.00  0.00     0.009 A 
ENDBRANCH   7   9
ENDBRANCH   5   7
ENDBRANCH   2   5
BRANCH   3  15
HETATM   15  C   UNK N   1      35.682  11.517  19.302  0.00  0.00     0.033 A 
HETATM   16  C   UNK N   1      35.625  10.823  18.080  0.00  0.00     0.017 A 
HETATM   17  C   UNK N   1      35.275  11.491  16.901  0.00  0.00     0.001 A 
HETATM   18  C   UNK N   1      34.980  12.857  16.928  0.00  0.00     0.000 A 
HETATM   19  C   UNK N   1      35.033  13.556  18.133  0.00  0.00     0.001 A 
HETATM   20  C   UNK N   1      35.381  12.888  19.306  0.00  0.00     0.017 A 
ENDBRANCH   3  15
TORSDOF 4
ENDMDL
MODEL 9
REMARK VINA RESULT:      -5.3     11.778     14.058
REMARK  4 active torsions:
REMARK  status: ('A' for Active; 'I' for Inactive)
REMARK    1  A    between atoms: N_2  and  N_3 
REMARK       I    between atoms: N_2  and  C_5 
REMARK    2  A    between atoms: N_3  and  C_7 
REMARK    3  A    between atoms: C_4  and  C_5 
REMARK    4  A    between atoms: C_6  and  C_7 
ROOT
HETATM    1  O   UNK N   1      27.491  16.005   5.100  0.00  0.00    -0.266 OA
HETATM    2  N   UNK N   1      29.473  16.575   4.266  0.00  0.00    -0.270 N 
HETATM    3  C   UNK N   1      28.275  16.901   4.831  0.00  0.00     0.269 C 
HETATM    4  H   UNK N   1      29.676  15.629   4.090  0.00  0.00     0.190 HD
ENDROOT
BRANCH   2   5
HETATM    5  N   UNK N   1      30.411  17.540   3.933  0.00  0.00    -0.325 N 
HETATM    6  H   UNK N   1      30.175  18.398   3.435  0.00  0.00     0.181 HD
BRANCH   5   7
HETATM    7  C   UNK N   1      31.776  17.217   4.362  0.00  0.00     0.128 C 
HETATM    8  C   UNK N   1      32.667  16.699   3.245  0.00  0.00     0.039 C 
BRANCH   7   9
HETATM    9  C   UNK N   1      32.327  17.358   5.768  0.00  0.00    -0.035 A 
HETATM   10  C   UNK N   1      31.435  17.299   6.850  0.00  0.00     0.009 A 
HETATM   11  C   UNK N   1      31.896  17.424   8.162  0.00  0.00     0.001 A 
HETATM   12  C   UNK N   1      33.258  17.609   8.407  0.00  0.00     0.000 A 
HETATM   13  C   UNK N   1      34.156  17.670   7.340  0.00  0.00     0.001 A 
HETATM   14  C   UNK N   1      33.693  17.545   6.027  0.00  0.00     0.009 A 
ENDBRANCH   7   9
ENDBRANCH   5   7
ENDBRANCH   2   5
BRANCH   3  15
HETATM   15  C   UNK N   1      27.887  18.319   5.132  0.00  0.00     0.033 A 
HETATM   16  C   UNK N   1      28.026  18.819   6.438  0.00  0.00     0.017 A 
HETATM   17  C   UNK N   1      27.668  20.139   6.735  0.00  0.00     0.001 A 
HETATM   18  C   UNK N   1      27.168  20.974   5.732  0.00  0.00     0.000 A 
HETATM   19  C   UNK N   1      27.025  20.490   4.433  0.00  0.00     0.001 A 
HETATM   20  C   UNK N   1      27.382  19.175   4.139  0.00  0.00     0.017 A 
ENDBRANCH   3  15
TORSDOF 4
ENDMDL
