MODEL 1
REMARK VINA RESULT:      -6.2      0.000      0.000
REMARK  9 active torsions:
REMARK  status: ('A' for Active; 'I' for Inactive)
REMARK    1  A    between atoms: N_21  and  C_3 
REMARK    2  A    between atoms: N_21  and  C_4 
REMARK    3  A    between atoms: C_16  and  C_15 
REMARK    4  A    between atoms: N_21  and  C_15 
REMARK    5  A    between atoms: O_24  and  C_16 
REMARK    6  A    between atoms: C_20  and  C_17 
REMARK    7  A    between atoms: C_20  and  C_18 
REMARK    8  A    between atoms: C_20  and  C_19 
REMARK    9  A    between atoms: O_24  and  C_19 
ROOT
HETATM    1  C   UNK N   1      33.807  17.262   7.419  0.00  0.00     0.201 C 
HETATM    2  O   UNK N   1      34.296  17.892   6.268  0.00  0.00    -0.371 OA
HETATM    3  H   UNK N   1      34.718  18.185   5.445  0.00  0.00     0.212 HD
ENDROOT
BRANCH   1   4
HETATM    4  C   UNK N   1      32.279  17.426   7.398  0.00  0.00    -0.009 A 
HETATM    5  C   UNK N   1      31.586  17.107   6.213  0.00  0.00     0.011 A 
HETATM    6  C   UNK N   1      30.196  17.220   6.140  0.00  0.00     0.001 A 
HETATM    7  C   UNK N   1      29.474  17.657   7.250  0.00  0.00     0.000 A 
HETATM    8  C   UNK N   1      30.143  17.985   8.431  0.00  0.00     0.001 A 
HETATM    9  C   UNK N   1      31.536  17.872   8.503  0.00  0.00     0.011 A 
ENDBRANCH   1   4
BRANCH   1  10
HETATM   10  C   UNK N   1      34.192  15.777   7.358  0.00  0.00    -0.009 A 
HETATM   11  C   UNK N   1      35.249  15.362   6.525  0.00  0.00     0.011 A 
HETATM   12  C   UNK N   1      35.629  14.019   6.466  0.00  0.00     0.001 A 
HETATM   13  C   UNK N   1      34.954  13.068   7.233  0.00  0.00     0.000 A 
HETATM   14  C   UNK N   1      33.900  13.459   8.060  0.00  0.00     0.001 A 
HETATM   15  C   UNK N   1      33.523  14.803   8.124  0.00  0.00     0.011 A 
ENDBRANCH   1  10
BRANCH   1  16
HETATM   16  C   UNK N   1      34.546  17.881   8.612  0.00  0.00     0.303 C 
HETATM   17  O   UNK N   1      35.178  18.910   8.430  0.00  0.00    -0.261 OA
BRANCH  16  18
HETATM   18  O   UNK N   1      34.517  17.327   9.853  0.00  0.00    -0.317 OA
BRANCH  18  19
HETATM   19  C   UNK N   1      35.643  16.842  10.496  0.00  0.00     0.209 C 
BRANCH  19  20
HETATM   20  C   UNK N   1      35.326  15.686  11.450  0.00  0.00     0.299 C 
BRANCH  20  21
HETATM   21  N   UNK N   1      35.923  14.429  10.997  0.00  0.00     0.089 N 
BRANCH  21  22
HETATM   22  C   UNK N   1      36.941  14.694   9.974  0.00  0.00     0.268 C 
HETATM   23  C   UNK N   1      37.798  13.473   9.643  0.00  0.00     0.037 C 
ENDBRANCH  21  22
BRANCH  21  24
HETATM   24  C   UNK N   1      36.506  13.705  12.125  0.00  0.00     0.268 C 
HETATM   25  C   UNK N   1      36.225  14.447  13.419  0.00  0.00     0.037 C 
ENDBRANCH  21  24
ENDBRANCH  20  21
ENDBRANCH  19  20
ENDBRANCH  18  19
ENDBRANCH  16  18
ENDBRANCH   1  16
TORSDOF 9
ENDMDL
MODEL 2
REMARK VINA RESULT:      -5.8     14.719     17.405
REMARK  9 active torsions:
REMARK  status: ('A' for Active; 'I' for Inactive)
REMARK    1  A    between atoms: N_21  and  C_3 
REMARK    2  A    between atoms: N_21  and  C_4 
REMARK    3  A    between atoms: C_16  and  C_15 
REMARK    4  A    between atoms: N_21  and  C_15 
REMARK    5  A    between atoms: O_24  and  C_16 
REMARK    6  A    between atoms: C_20  and  C_17 
REMARK    7  A    between atoms: C_20  and  C_18 
REMARK    8  A    between atoms: C_20  and  C_19 
REMARK    9  A    between atoms: O_24  and  C_19 
ROOT
HETATM    1  C   UNK N   1      26.915  24.728  -4.348  0.00  0.00     0.201 C 
HETATM    2  O   UNK N   1      25.965  24.299  -3.413  0.00  0.00    -0.371 OA
HETATM    3  H   UNK N   1      25.436  23.924  -2.693  0.00  0.00     0.212 HD
ENDROOT
BRANCH   1   4
HETATM    4  C   UNK N   1      26.757  26.251  -4.473  0.00  0.00    -0.009 A 
HETATM    5  C   UNK N   1      26.394  26.984  -3.325  0.00  0.00     0.011 A 
HETATM    6  C   UNK N   1      26.253  28.373  -3.374  0.00  0.00     0.001 A 
HETATM    7  C   UNK N   1      26.469  29.053  -4.572  0.00  0.00     0.000 A 
HETATM    8  C   UNK N   1      26.823  28.344  -5.721  0.00  0.00     0.001 A 
HETATM    9  C   UNK N   1      26.964  26.953  -5.673  0.00  0.00     0.011 A 
ENDBRANCH   1   4
BRANCH   1  10
HETATM   10  C   UNK N   1      28.311  24.370  -3.818  0.00  0.00    -0.009 A 
HETATM   11  C   UNK N   1      28.460  23.321  -2.891  0.00  0.00     0.011 A 
HETATM   12  C   UNK N   1      29.722  22.967  -2.407  0.00  0.00     0.001 A 
HETATM   13  C   UNK N   1      30.854  23.659  -2.837  0.00  0.00     0.000 A 
HETATM   14  C   UNK N   1      30.726  24.706  -3.751  0.00  0.00     0.001 A 
HETATM   15  C   UNK N   1      29.466  25.058  -4.240  0.00  0.00     0.011 A 
ENDBRANCH   1  10
BRANCH   1  16
HETATM   16  C   UNK N   1      26.684  23.908  -5.624  0.00  0.00     0.303 C 
HETATM   17  O   UNK N   1      25.557  23.492  -5.848  0.00  0.00    -0.261 OA
BRANCH  16  18
HETATM   18  O   UNK N   1      27.683  23.636  -6.505  0.00  0.00    -0.317 OA
BRANCH  18  19
HETATM   19  C   UNK N   1      28.075  22.350  -6.835  0.00  0.00     0.209 C 
BRANCH  19  20
HETATM   20  C   UNK N   1      29.515  22.045  -6.407  0.00  0.00     0.299 C 
BRANCH  20  21
HETATM   21  N   UNK N   1      30.109  20.982  -7.217  0.00  0.00     0.089 N 
BRANCH  21  22
HETATM   22  C   UNK N   1      30.850  20.048  -6.361  0.00  0.00     0.268 C 
HETATM   23  C   UNK N   1      31.128  20.600  -4.963  0.00  0.00     0.037 C 
ENDBRANCH  21  22
BRANCH  21  24
HETATM   24  C   UNK N   1      29.075  20.276  -7.971  0.00  0.00     0.268 C 
HETATM   25  C   UNK N   1      29.209  18.779  -7.758  0.00  0.00     0.037 C 
ENDBRANCH  21  24
ENDBRANCH  20  21
ENDBRANCH  19  20
ENDBRANCH  18  19
ENDBRANCH  16  18
ENDBRANCH   1  16
TORSDOF 9
ENDMDL
MODEL 3
REMARK VINA RESULT:      -5.7      1.844      6.095
REMARK  9 active torsions:
REMARK  status: ('A' for Active; 'I' for Inactive)
REMARK    1  A    between atoms: N_21  and  C_3 
REMARK    2  A    between atoms: N_21  and  C_4 
REMARK    3  A    between atoms: C_16  and  C_15 
REMARK    4  A    between atoms: N_21  and  C_15 
REMARK    5  A    between atoms: O_24  and  C_16 
REMARK    6  A    between atoms: C_20  and  C_17 
REMARK    7  A    between atoms: C_20  and  C_18 
REMARK    8  A    between atoms: C_20  and  C_19 
REMARK    9  A    between atoms: O_24  and  C_19 
ROOT
HETATM    1  C   UNK N   1      34.799  14.899  10.559  0.00  0.00     0.201 C 
HETATM    2  O   UNK N   1      33.547  15.002  11.175  0.00  0.00    -0.371 OA
HETATM    3  H   UNK N   1      32.618  15.039  11.450  0.00  0.00     0.212 HD
ENDROOT
BRANCH   1   4
HETATM    4  C   UNK N   1      35.639  13.943  11.421  0.00  0.00    -0.009 A 
HETATM    5  C   UNK N   1      35.436  13.943  12.815  0.00  0.00     0.011 A 
HETATM    6  C   UNK N   1      36.157  13.084  13.647  0.00  0.00     0.001 A 
HETATM    7  C   UNK N   1      37.097  12.211  13.100  0.00  0.00     0.000 A 
HETATM    8  C   UNK N   1      37.317  12.201  11.720  0.00  0.00     0.001 A 
HETATM    9  C   UNK N   1      36.595  13.062  10.888  0.00  0.00     0.011 A 
ENDBRANCH   1   4
BRANCH   1  10
HETATM   10  C   UNK N   1      34.598  14.321   9.150  0.00  0.00    -0.009 A 
HETATM   11  C   UNK N   1      33.471  13.525   8.875  0.00  0.00     0.011 A 
HETATM   12  C   UNK N   1      33.257  13.003   7.596  0.00  0.00     0.001 A 
HETATM   13  C   UNK N   1      34.171  13.263   6.575  0.00  0.00     0.000 A 
HETATM   14  C   UNK N   1      35.299  14.045   6.830  0.00  0.00     0.001 A 
HETATM   15  C   UNK N   1      35.510  14.573   8.106  0.00  0.00     0.011 A 
ENDBRANCH   1  10
BRANCH   1  16
HETATM   16  C   UNK N   1      35.335  16.327  10.398  0.00  0.00     0.303 C 
HETATM   17  O   UNK N   1      36.503  16.542  10.686  0.00  0.00    -0.261 OA
BRANCH  16  18
HETATM   18  O   UNK N   1      34.560  17.348   9.947  0.00  0.00    -0.317 OA
BRANCH  18  19
HETATM   19  C   UNK N   1      34.716  17.926   8.699  0.00  0.00     0.209 C 
BRANCH  19  20
HETATM   20  C   UNK N   1      33.383  18.121   7.969  0.00  0.00     0.299 C 
BRANCH  20  21
HETATM   21  N   UNK N   1      32.694  16.850   7.746  0.00  0.00     0.089 N 
BRANCH  21  22
HETATM   22  C   UNK N   1      31.469  16.791   8.553  0.00  0.00     0.268 C 
HETATM   23  C   UNK N   1      30.826  18.158   8.777  0.00  0.00     0.037 C 
ENDBRANCH  21  22
BRANCH  21  24
HETATM   24  C   UNK N   1      32.383  16.678   6.329  0.00  0.00     0.268 C 
HETATM   25  C   UNK N   1      33.473  17.304   5.479  0.00  0.00     0.037 C 
ENDBRANCH  21  24
ENDBRANCH  20  21
ENDBRANCH  19  20
ENDBRANCH  18  19
ENDBRANCH  16  18
ENDBRANCH   1  16
TORSDOF 9
ENDMDL
MODEL 4
REMARK VINA RESULT:      -5.7      5.370      8.935
REMARK  9 active torsions:
REMARK  status: ('A' for Active; 'I' for Inactive)
REMARK    1  A    between atoms: N_21  and  C_3 
REMARK    2  A    between atoms: N_21  and  C_4 
REMARK    3  A    between atoms: C_16  and  C_15 
REMARK    4  A    between atoms: N_21  and  C_15 
REMARK    5  A    between atoms: O_24  and  C_16 
REMARK    6  A    between atoms: C_20  and  C_17 
REMARK    7  A    between atoms: C_20  and  C_18 
REMARK    8  A    between atoms: C_20  and  C_19 
REMARK    9  A    between atoms: O_24  and  C_19 
ROOT
HETATM    1  C   UNK N   1      35.224  12.243  15.352  0.00  0.00     0.201 C 
HETATM    2  O   UNK N   1      33.878  12.151  14.977  0.00  0.00    -0.371 OA
HETATM    3  H   UNK N   1      32.997  11.959  14.621  0.00  0.00     0.212 HD
ENDROOT
BRANCH   1   4
HETATM    4  C   UNK N   1      35.253  12.275  16.888  0.00  0.00    -0.009 A 
HETATM    5  C   UNK N   1      35.502  11.072  17.580  0.00  0.00     0.011 A 
HETATM    6  C   UNK N   1      35.558  11.044  18.975  0.00  0.00     0.001 A 
HETATM    7  C   UNK N   1      35.364  12.216  19.704  0.00  0.00     0.000 A 
HETATM    8  C   UNK N   1      35.110  13.417  19.037  0.00  0.00     0.001 A 
HETATM    9  C   UNK N   1      35.053  13.446  17.640  0.00  0.00     0.011 A 
ENDBRANCH   1   4
BRANCH   1  10
HETATM   10  C   UNK N   1      35.959  11.003  14.823  0.00  0.00    -0.009 A 
HETATM   11  C   UNK N   1      35.223   9.926  14.295  0.00  0.00     0.011 A 
HETATM   12  C   UNK N   1      35.870   8.794  13.792  0.00  0.00     0.001 A 
HETATM   13  C   UNK N   1      37.263   8.720  13.814  0.00  0.00     0.000 A 
HETATM   14  C   UNK N   1      38.010   9.776  14.338  0.00  0.00     0.001 A 
HETATM   15  C   UNK N   1      37.364  10.910  14.836  0.00  0.00     0.011 A 
ENDBRANCH   1  10
BRANCH   1  16
HETATM   16  C   UNK N   1      35.804  13.465  14.630  0.00  0.00     0.303 C 
HETATM   17  O   UNK N   1      36.789  14.007  15.109  0.00  0.00    -0.261 OA
BRANCH  16  18
HETATM   18  O   UNK N   1      35.264  13.957  13.483  0.00  0.00    -0.317 OA
BRANCH  18  19
HETATM   19  C   UNK N   1      35.998  14.645  12.532  0.00  0.00     0.209 C 
BRANCH  19  20
HETATM   20  C   UNK N   1      36.240  13.818  11.264  0.00  0.00     0.299 C 
BRANCH  20  21
HETATM   21  N   UNK N   1      37.236  12.769  11.482  0.00  0.00     0.089 N 
BRANCH  21  22
HETATM   22  C   UNK N   1      36.661  11.454  11.172  0.00  0.00     0.268 C 
HETATM   23  C   UNK N   1      35.146  11.489  10.974  0.00  0.00     0.037 C 
ENDBRANCH  21  22
BRANCH  21  24
HETATM   24  C   UNK N   1      38.424  13.014  10.666  0.00  0.00     0.268 C 
HETATM   25  C   UNK N   1      38.131  14.087   9.633  0.00  0.00     0.037 C 
ENDBRANCH  21  24
ENDBRANCH  20  21
ENDBRANCH  19  20
ENDBRANCH  18  19
ENDBRANCH  16  18
ENDBRANCH   1  16
TORSDOF 9
ENDMDL
MODEL 5
REMARK VINA RESULT:      -5.7     14.087     17.142
REMARK  9 active torsions:
REMARK  status: ('A' for Active; 'I' for Inactive)
REMARK    1  A    between atoms: N_21  and  C_3 
REMARK    2  A    between atoms: N_21  and  C_4 
REMARK    3  A    between atoms: C_16  and  C_15 
REMARK    4  A    between atoms: N_21  and  C_15 
REMARK    5  A    between atoms: O_24  and  C_16 
REMARK    6  A    between atoms: C_20  and  C_17 
REMARK    7  A    between atoms: C_20  and  C_18 
REMARK    8  A    between atoms: C_20  and  C_19 
REMARK    9  A    between atoms: O_24  and  C_19 
ROOT
HETATM    1  C   UNK N   1      27.304  24.455  -4.060  0.00  0.00     0.201 C 
HETATM    2  O   UNK N   1      26.401  23.926  -3.130  0.00  0.00    -0.371 OA
HETATM    3  H   UNK N   1      25.728  23.718  -2.464  0.00  0.00     0.212 HD
ENDROOT
BRANCH   1   4
HETATM    4  C   UNK N   1      27.133  23.643  -5.354  0.00  0.00    -0.009 A 
HETATM    5  C   UNK N   1      25.828  23.404  -5.829  0.00  0.00     0.011 A 
HETATM    6  C   UNK N   1      25.612  22.688  -7.008  0.00  0.00     0.001 A 
HETATM    7  C   UNK N   1      26.697  22.195  -7.732  0.00  0.00     0.000 A 
HETATM    8  C   UNK N   1      27.998  22.417  -7.275  0.00  0.00     0.001 A 
HETATM    9  C   UNK N   1      28.214  23.133  -6.093  0.00  0.00     0.011 A 
ENDBRANCH   1   4
BRANCH   1  10
HETATM   10  C   UNK N   1      26.946  25.930  -4.296  0.00  0.00    -0.009 A 
HETATM   11  C   UNK N   1      27.211  26.523  -5.545  0.00  0.00     0.011 A 
HETATM   12  C   UNK N   1      26.878  27.858  -5.789  0.00  0.00     0.001 A 
HETATM   13  C   UNK N   1      26.281  28.623  -4.786  0.00  0.00     0.000 A 
HETATM   14  C   UNK N   1      26.015  28.054  -3.539  0.00  0.00     0.001 A 
HETATM   15  C   UNK N   1      26.342  26.718  -3.296  0.00  0.00     0.011 A 
ENDBRANCH   1  10
BRANCH   1  16
HETATM   16  C   UNK N   1      28.690  24.418  -3.406  0.00  0.00     0.303 C 
HETATM   17  O   UNK N   1      29.517  25.247  -3.754  0.00  0.00    -0.261 OA
BRANCH  16  18
HETATM   18  O   UNK N   1      29.022  23.503  -2.457  0.00  0.00    -0.317 OA
BRANCH  18  19
HETATM   19  C   UNK N   1      30.252  22.868  -2.412  0.00  0.00     0.209 C 
BRANCH  19  20
HETATM   20  C   UNK N   1      30.307  21.626  -3.308  0.00  0.00     0.299 C 
BRANCH  20  21
HETATM   21  N   UNK N   1      31.110  21.859  -4.509  0.00  0.00     0.089 N 
BRANCH  21  22
HETATM   22  C   UNK N   1      32.211  22.781  -4.209  0.00  0.00     0.268 C 
HETATM   23  C   UNK N   1      32.433  23.831  -5.297  0.00  0.00     0.037 C 
ENDBRANCH  21  22
BRANCH  21  24
HETATM   24  C   UNK N   1      31.626  20.595  -5.032  0.00  0.00     0.268 C 
HETATM   25  C   UNK N   1      30.853  20.192  -6.274  0.00  0.00     0.037 C 
ENDBRANCH  21  24
ENDBRANCH  20  21
ENDBRANCH  19  20
ENDBRANCH  18  19
ENDBRANCH  16  18
ENDBRANCH   1  16
TORSDOF 9
ENDMDL
MODEL 6
REMARK VINA RESULT:      -5.7     14.093     17.102
REMARK  9 active torsions:
REMARK  status: ('A' for Active; 'I' for Inactive)
REMARK    1  A    between atoms: N_21  and  C_3 
REMARK    2  A    between atoms: N_21  and  C_4 
REMARK    3  A    between atoms: C_16  and  C_15 
REMARK    4  A    between atoms: N_21  and  C_15 
REMARK    5  A    between atoms: O_24  and  C_16 
REMARK    6  A    between atoms: C_20  and  C_17 
REMARK    7  A    between atoms: C_20  and  C_18 
REMARK    8  A    between atoms: C_20  and  C_19 
REMARK    9  A    between atoms: O_24  and  C_19 
ROOT
HETATM    1  C   UNK N   1      27.243  24.490  -4.073  0.00  0.00     0.201 C 
HETATM    2  O   UNK N   1      26.340  23.997  -3.124  0.00  0.00    -0.371 OA
HETATM    3  H   UNK N   1      25.671  23.816  -2.446  0.00  0.00     0.212 HD
ENDROOT
BRANCH   1   4
HETATM    4  C   UNK N   1      27.034  23.665  -5.353  0.00  0.00    -0.009 A 
HETATM    5  C   UNK N   1      28.167  23.128  -5.997  0.00  0.00     0.011 A 
HETATM    6  C   UNK N   1      28.037  22.355  -7.153  0.00  0.00     0.001 A 
HETATM    7  C   UNK N   1      26.774  22.108  -7.687  0.00  0.00     0.000 A 
HETATM    8  C   UNK N   1      25.640  22.637  -7.067  0.00  0.00     0.001 A 
HETATM    9  C   UNK N   1      25.769  23.411  -5.909  0.00  0.00     0.011 A 
ENDBRANCH   1   4
BRANCH   1  10
HETATM   10  C   UNK N   1      26.919  25.970  -4.325  0.00  0.00    -0.009 A 
HETATM   11  C   UNK N   1      26.330  26.741  -3.305  0.00  0.00     0.011 A 
HETATM   12  C   UNK N   1      26.042  28.093  -3.505  0.00  0.00     0.001 A 
HETATM   13  C   UNK N   1      26.332  28.695  -4.731  0.00  0.00     0.000 A 
HETATM   14  C   UNK N   1      26.910  27.945  -5.756  0.00  0.00     0.001 A 
HETATM   15  C   UNK N   1      27.204  26.594  -5.555  0.00  0.00     0.011 A 
ENDBRANCH   1  10
BRANCH   1  16
HETATM   16  C   UNK N   1      28.636  24.427  -3.436  0.00  0.00     0.303 C 
HETATM   17  O   UNK N   1      29.462  25.265  -3.765  0.00  0.00    -0.261 OA
BRANCH  16  18
HETATM   18  O   UNK N   1      28.977  23.479  -2.523  0.00  0.00    -0.317 OA
BRANCH  18  19
HETATM   19  C   UNK N   1      30.239  22.916  -2.447  0.00  0.00     0.209 C 
BRANCH  19  20
HETATM   20  C   UNK N   1      30.387  21.678  -3.339  0.00  0.00     0.299 C 
BRANCH  20  21
HETATM   21  N   UNK N   1      31.702  21.623  -3.979  0.00  0.00     0.089 N 
BRANCH  21  22
HETATM   22  C   UNK N   1      31.835  20.383  -4.753  0.00  0.00     0.268 C 
HETATM   23  C   UNK N   1      30.878  20.306  -5.941  0.00  0.00     0.037 C 
ENDBRANCH  21  22
BRANCH  21  24
HETATM   24  C   UNK N   1      31.901  22.788  -4.838  0.00  0.00     0.268 C 
HETATM   25  C   UNK N   1      33.385  23.024  -5.056  0.00  0.00     0.037 C 
ENDBRANCH  21  24
ENDBRANCH  20  21
ENDBRANCH  19  20
ENDBRANCH  18  19
ENDBRANCH  16  18
ENDBRANCH   1  16
TORSDOF 9
ENDMDL
MODEL 7
REMARK VINA RESULT:      -5.5     14.252     17.099
REMARK  9 active torsions:
REMARK  status: ('A' for Active; 'I' for Inactive)
REMARK    1  A    between atoms: N_21  and  C_3 
REMARK    2  A    between atoms: N_21  and  C_4 
REMARK    3  A    between atoms: C_16  and  C_15 
REMARK    4  A    between atoms: N_21  and  C_15 
REMARK    5  A    between atoms: O_24  and  C_16 
REMARK    6  A    between atoms: C_20  and  C_17 
REMARK    7  A    between atoms: C_20  and  C_18 
REMARK    8  A    between atoms: C_20  and  C_19 
REMARK    9  A    between atoms: O_24  and  C_19 
ROOT
HETATM    1  C   UNK N   1      30.170  23.372  -3.102  0.00  0.00     0.201 C 
HETATM    2  O   UNK N   1      30.758  23.071  -1.867  0.00  0.00    -0.371 OA
HETATM    3  H   UNK N   1      31.186  22.708  -1.076  0.00  0.00     0.212 HD
ENDROOT
BRANCH   1   4
HETATM    4  C   UNK N   1      30.851  24.652  -3.615  0.00  0.00    -0.009 A 
HETATM    5  C   UNK N   1      32.014  24.524  -4.400  0.00  0.00     0.011 A 
HETATM    6  C   UNK N   1      32.665  25.650  -4.908  0.00  0.00     0.001 A 
HETATM    7  C   UNK N   1      32.166  26.924  -4.638  0.00  0.00     0.000 A 
HETATM    8  C   UNK N   1      31.019  27.071  -3.856  0.00  0.00     0.001 A 
HETATM    9  C   UNK N   1      30.367  25.943  -3.346  0.00  0.00     0.011 A 
ENDBRANCH   1   4
BRANCH   1  10
HETATM   10  C   UNK N   1      30.430  22.201  -4.060  0.00  0.00    -0.009 A 
HETATM   11  C   UNK N   1      31.305  21.166  -3.678  0.00  0.00     0.011 A 
HETATM   12  C   UNK N   1      31.543  20.081  -4.526  0.00  0.00     0.001 A 
HETATM   13  C   UNK N   1      30.916  20.016  -5.770  0.00  0.00     0.000 A 
HETATM   14  C   UNK N   1      30.050  21.035  -6.169  0.00  0.00     0.001 A 
HETATM   15  C   UNK N   1      29.806  22.118  -5.320  0.00  0.00     0.011 A 
ENDBRANCH   1  10
BRANCH   1  16
HETATM   16  C   UNK N   1      28.657  23.448  -2.867  0.00  0.00     0.303 C 
HETATM   17  O   UNK N   1      28.225  23.127  -1.770  0.00  0.00    -0.261 OA
BRANCH  16  18
HETATM   18  O   UNK N   1      27.791  23.861  -3.830  0.00  0.00    -0.317 OA
BRANCH  18  19
HETATM   19  C   UNK N   1      26.875  24.882  -3.641  0.00  0.00     0.209 C 
BRANCH  19  20
HETATM   20  C   UNK N   1      26.643  25.707  -4.911  0.00  0.00     0.299 C 
BRANCH  20  21
HETATM   21  N   UNK N   1      26.877  27.134  -4.682  0.00  0.00     0.089 N 
BRANCH  21  22
HETATM   22  C   UNK N   1      27.783  27.667  -5.706  0.00  0.00     0.268 C 
HETATM   23  C   UNK N   1      27.753  29.191  -5.807  0.00  0.00     0.037 C 
ENDBRANCH  21  22
BRANCH  21  24
HETATM   24  C   UNK N   1      25.612  27.866  -4.685  0.00  0.00     0.268 C 
HETATM   25  C   UNK N   1      24.621  27.186  -5.611  0.00  0.00     0.037 C 
ENDBRANCH  21  24
ENDBRANCH  20  21
ENDBRANCH  19  20
ENDBRANCH  18  19
ENDBRANCH  16  18
ENDBRANCH   1  16
TORSDOF 9
ENDMDL
MODEL 8
REMARK VINA RESULT:      -5.5      1.707      4.015
REMARK  9 active torsions:
REMARK  status: ('A' for Active; 'I' for Inactive)
REMARK    1  A    between atoms: N_21  and  C_3 
REMARK    2  A    between atoms: N_21  and  C_4 
REMARK    3  A    between atoms: C_16  and  C_15 
REMARK    4  A    between atoms: N_21  and  C_15 
REMARK    5  A    between atoms: O_24  and  C_16 
REMARK    6  A    between atoms: C_20  and  C_17 
REMARK    7  A    between atoms: C_20  and  C_18 
REMARK    8  A    between atoms: C_20  and  C_19 
REMARK    9  A    between atoms: O_24  and  C_19 
ROOT
HETATM    1  C   UNK N   1      32.856  16.651   7.298  0.00  0.00     0.201 C 
HETATM    2  O   UNK N   1      32.982  15.345   7.787  0.00  0.00    -0.371 OA
HETATM    3  H   UNK N   1      32.930  14.476   8.213  0.00  0.00     0.212 HD
ENDROOT
BRANCH   1   4
HETATM    4  C   UNK N   1      32.957  16.561   5.766  0.00  0.00    -0.009 A 
HETATM    5  C   UNK N   1      33.563  15.421   5.200  0.00  0.00     0.011 A 
HETATM    6  C   UNK N   1      33.668  15.277   3.815  0.00  0.00     0.001 A 
HETATM    7  C   UNK N   1      33.170  16.270   2.971  0.00  0.00     0.000 A 
HETATM    8  C   UNK N   1      32.573  17.409   3.514  0.00  0.00     0.001 A 
HETATM    9  C   UNK N   1      32.469  17.554   4.901  0.00  0.00     0.011 A 
ENDBRANCH   1   4
BRANCH   1  10
HETATM   10  C   UNK N   1      31.483  17.194   7.718  0.00  0.00    -0.009 A 
HETATM   11  C   UNK N   1      31.400  18.210   8.688  0.00  0.00     0.011 A 
HETATM   12  C   UNK N   1      30.162  18.733   9.074  0.00  0.00     0.001 A 
HETATM   13  C   UNK N   1      28.989  18.243   8.501  0.00  0.00     0.000 A 
HETATM   14  C   UNK N   1      29.050  17.231   7.541  0.00  0.00     0.001 A 
HETATM   15  C   UNK N   1      30.287  16.713   7.150  0.00  0.00     0.011 A 
ENDBRANCH   1  10
BRANCH   1  16
HETATM   16  C   UNK N   1      33.922  17.496   8.006  0.00  0.00     0.303 C 
HETATM   17  O   UNK N   1      34.557  18.301   7.342  0.00  0.00    -0.261 OA
BRANCH  16  18
HETATM   18  O   UNK N   1      34.175  17.381   9.337  0.00  0.00    -0.317 OA
BRANCH  18  19
HETATM   19  C   UNK N   1      35.375  16.911   9.844  0.00  0.00     0.209 C 
BRANCH  19  20
HETATM   20  C   UNK N   1      35.222  16.289  11.236  0.00  0.00     0.299 C 
BRANCH  20  21
HETATM   21  N   UNK N   1      35.928  15.012  11.340  0.00  0.00     0.089 N 
BRANCH  21  22
HETATM   22  C   UNK N   1      35.316  14.180  12.383  0.00  0.00     0.268 C 
HETATM   23  C   UNK N   1      36.243  13.917  13.569  0.00  0.00     0.037 C 
ENDBRANCH  21  22
BRANCH  21  24
HETATM   24  C   UNK N   1      35.917  14.315  10.056  0.00  0.00     0.268 C 
HETATM   25  C   UNK N   1      34.863  13.223  10.068  0.00  0.00     0.037 C 
ENDBRANCH  21  24
ENDBRANCH  20  21
ENDBRANCH  19  20
ENDBRANCH  18  19
ENDBRANCH  16  18
ENDBRANCH   1  16
TORSDOF 9
ENDMDL
MODEL 9
REMARK VINA RESULT:      -5.5      5.034      9.429
REMARK  9 active torsions:
REMARK  status: ('A' for Active; 'I' for Inactive)
REMARK    1  A    between atoms: N_21  and  C_3 
REMARK    2  A    between atoms: N_21  and  C_4 
REMARK    3  A    between atoms: C_16  and  C_15 
REMARK    4  A    between atoms: N_21  and  C_15 
REMARK    5  A    between atoms: O_24  and  C_16 
REMARK    6  A    between atoms: C_20  and  C_17 
REMARK    7  A    between atoms: C_20  and  C_18 
REMARK    8  A    between atoms: C_20  and  C_19 
REMARK    9  A    between atoms: O_24  and  C_19 
ROOT
HETATM    1  C   UNK N   1      36.249  12.164  15.024  0.00  0.00     0.201 C 
HETATM    2  O   UNK N   1      37.266  13.095  14.780  0.00  0.00    -0.371 OA
HETATM    3  H   UNK N   1      37.938  13.793  14.765  0.00  0.00     0.212 HD
ENDROOT
BRANCH   1   4
HETATM    4  C   UNK N   1      36.816  10.783  14.660  0.00  0.00    -0.009 A 
HETATM    5  C   UNK N   1      38.213  10.600  14.700  0.00  0.00     0.011 A 
HETATM    6  C   UNK N   1      38.784   9.362  14.397  0.00  0.00     0.001 A 
HETATM    7  C   UNK N   1      37.970   8.286  14.046  0.00  0.00     0.000 A 
HETATM    8  C   UNK N   1      36.584   8.449  13.995  0.00  0.00     0.001 A 
HETATM    9  C   UNK N   1      36.012   9.689  14.298  0.00  0.00     0.011 A 
ENDBRANCH   1   4
BRANCH   1  10
HETATM   10  C   UNK N   1      35.886  12.225  16.515  0.00  0.00    -0.009 A 
HETATM   11  C   UNK N   1      35.527  13.455  17.098  0.00  0.00     0.011 A 
HETATM   12  C   UNK N   1      35.177  13.532  18.448  0.00  0.00     0.001 A 
HETATM   13  C   UNK N   1      35.186  12.382  19.238  0.00  0.00     0.000 A 
HETATM   14  C   UNK N   1      35.545  11.154  18.680  0.00  0.00     0.001 A 
HETATM   15  C   UNK N   1      35.890  11.075  17.328  0.00  0.00     0.011 A 
ENDBRANCH   1  10
BRANCH   1  16
HETATM   16  C   UNK N   1      35.020  12.630  14.232  0.00  0.00     0.303 C 
HETATM   17  O   UNK N   1      33.982  11.998  14.351  0.00  0.00    -0.261 OA
BRANCH  16  18
HETATM   18  O   UNK N   1      35.050  13.716  13.415  0.00  0.00    -0.317 OA
BRANCH  18  19
HETATM   19  C   UNK N   1      35.059  13.626  12.033  0.00  0.00     0.209 C 
BRANCH  19  20
HETATM   20  C   UNK N   1      35.995  12.526  11.520  0.00  0.00     0.299 C 
BRANCH  20  21
HETATM   21  N   UNK N   1      37.293  13.065  11.112  0.00  0.00     0.089 N 
BRANCH  21  22
HETATM   22  C   UNK N   1      38.066  12.037  10.404  0.00  0.00     0.268 C 
HETATM   23  C   UNK N   1      37.824  10.625  10.935  0.00  0.00     0.037 C 
ENDBRANCH  21  22
BRANCH  21  24
HETATM   24  C   UNK N   1      37.115  14.245  10.269  0.00  0.00     0.268 C 
HETATM   25  C   UNK N   1      37.131  13.843   8.805  0.00  0.00     0.037 C 
ENDBRANCH  21  24
ENDBRANCH  20  21
ENDBRANCH  19  20
ENDBRANCH  18  19
ENDBRANCH  16  18
ENDBRANCH   1  16
TORSDOF 9
ENDMDL
