MODEL 1
REMARK VINA RESULT:      -7.5      0.000      0.000
REMARK  1 active torsions:
REMARK  status: ('A' for Active; 'I' for Inactive)
REMARK    1  A    between atoms: C_14  and  C_9 
ROOT
HETATM    1  C   UNK N   1      27.870  19.363   4.879  0.00  0.00     0.091 C 
HETATM    2  C   UNK N   1      31.473  15.764   6.066  0.00  0.00     0.043 A 
HETATM    3  C   UNK N   1      28.896  17.346   9.281  0.00  0.00     0.198 C 
HETATM    4  C   UNK N   1      27.957  19.095   6.343  0.00  0.00     0.100 A 
HETATM    5  C   UNK N   1      30.713  16.541   7.001  0.00  0.00     0.027 A 
HETATM    6  C   UNK N   1      31.015  15.842   4.752  0.00  0.00     0.054 A 
HETATM    7  C   UNK N   1      28.454  18.293   8.236  0.00  0.00     0.122 A 
HETATM    8  C   UNK N   1      31.126  16.668   8.466  0.00  0.00     0.053 C 
HETATM    9  C   UNK N   1      29.652  17.228   6.355  0.00  0.00     0.097 A 
HETATM   10 Br   UNK N   1      31.780  14.984   3.233  0.00  0.00    -0.043 Br
HETATM   11  N   UNK N   1      30.314  17.105   9.377  0.00  0.00    -0.381 N 
ATOM     12  HN  UNK N   1      30.735  17.304  10.284  1.00  0.00     0.160 HD
HETATM   13  N   UNK N   1      27.237  19.771   7.258  0.00  0.00    -0.287 N 
ATOM     14  HN  UNK N   1      26.582  20.531   7.074  1.00  0.00     0.188 HD
HETATM   15  N   UNK N   1      27.541  19.262   8.443  0.00  0.00    -0.286 N 
ATOM     16  HN  UNK N   1      27.157  19.549   9.343  1.00  0.00     0.188 HD
HETATM   17  N   UNK N   1      28.740  18.166   6.938  0.00  0.00    -0.280 N 
HETATM   18  S   UNK N   1      29.724  16.860   4.739  0.00  0.00    -0.063 SA
ENDROOT
BRANCH   8  19
HETATM   19  C   UNK N   1      32.509  16.223   8.936  0.00  0.00     0.013 A 
HETATM   20  C   UNK N   1      32.664  14.969   9.557  0.00  0.00     0.015 A 
HETATM   21  C   UNK N   1      33.893  14.530  10.045  0.00  0.00     0.001 A 
HETATM   22  C   UNK N   1      35.016  15.337   9.923  0.00  0.00     0.002 A 
HETATM   23  C   UNK N   1      34.910  16.578   9.304  0.00  0.00     0.025 A 
HETATM   24  C   UNK N   1      33.682  17.037   8.809  0.00  0.00     0.046 A 
HETATM   25 Cl   UNK N   1      33.713  18.630   8.059  0.00  0.00    -0.083 Cl
ENDBRANCH   8  19
TORSDOF 1
ENDMDL
MODEL 2
REMARK VINA RESULT:      -7.1      4.108      7.419
REMARK  1 active torsions:
REMARK  status: ('A' for Active; 'I' for Inactive)
REMARK    1  A    between atoms: C_14  and  C_9 
ROOT
HETATM    1  C   UNK N   1      33.750  17.101   5.963  0.00  0.00     0.091 C 
HETATM    2  C   UNK N   1      28.617  17.794   6.684  0.00  0.00     0.043 A 
HETATM    3  C   UNK N   1      30.021  16.019   2.894  0.00  0.00     0.198 C 
HETATM    4  C   UNK N   1      32.947  16.761   4.754  0.00  0.00     0.100 A 
HETATM    5  C   UNK N   1      29.259  17.447   5.450  0.00  0.00     0.027 A 
HETATM    6  C   UNK N   1      29.442  17.702   7.803  0.00  0.00     0.054 A 
HETATM    7  C   UNK N   1      31.358  16.378   3.413  0.00  0.00     0.122 A 
HETATM    8  C   UNK N   1      28.550  17.590   4.105  0.00  0.00     0.053 C 
HETATM    9  C   UNK N   1      30.616  17.087   5.661  0.00  0.00     0.097 A 
HETATM   10 Br   UNK N   1      28.963  18.112   9.600  0.00  0.00    -0.043 Br
HETATM   11  N   UNK N   1      28.987  17.015   3.029  0.00  0.00    -0.381 N 
ATOM     12  HN  UNK N   1      28.539  17.306   2.160  1.00  0.00     0.160 HD
HETATM   13  N   UNK N   1      33.500  16.393   3.584  0.00  0.00    -0.287 N 
ATOM     14  HN  UNK N   1      34.497  16.321   3.380  1.00  0.00     0.188 HD
HETATM   15  N   UNK N   1      32.504  16.143   2.746  0.00  0.00    -0.286 N 
ATOM     16  HN  UNK N   1      32.590  15.832   1.778  1.00  0.00     0.188 HD
HETATM   17  N   UNK N   1      31.597  16.769   4.666  0.00  0.00    -0.280 N 
HETATM   18  S   UNK N   1      30.928  17.228   7.284  0.00  0.00    -0.063 SA
ENDROOT
BRANCH   8  19
HETATM   19  C   UNK N   1      27.247  18.377   3.981  0.00  0.00     0.013 A 
HETATM   20  C   UNK N   1      27.290  19.776   3.831  0.00  0.00     0.015 A 
HETATM   21  C   UNK N   1      26.133  20.550   3.757  0.00  0.00     0.001 A 
HETATM   22  C   UNK N   1      24.887  19.942   3.830  0.00  0.00     0.002 A 
HETATM   23  C   UNK N   1      24.799  18.561   3.966  0.00  0.00     0.025 A 
HETATM   24  C   UNK N   1      25.951  17.767   4.042  0.00  0.00     0.046 A 
HETATM   25 Cl   UNK N   1      25.671  16.037   4.219  0.00  0.00    -0.083 Cl
ENDBRANCH   8  19
TORSDOF 1
ENDMDL
MODEL 3
REMARK VINA RESULT:      -6.9      6.946      9.156
REMARK  1 active torsions:
REMARK  status: ('A' for Active; 'I' for Inactive)
REMARK    1  A    between atoms: C_14  and  C_9 
ROOT
HETATM    1  C   UNK N   1      19.761  15.305   2.516  0.00  0.00     0.091 C 
HETATM    2  C   UNK N   1      23.774  16.735   5.549  0.00  0.00     0.043 A 
HETATM    3  C   UNK N   1      21.682  19.818   3.181  0.00  0.00     0.198 C 
HETATM    4  C   UNK N   1      20.121  16.744   2.357  0.00  0.00     0.100 A 
HETATM    5  C   UNK N   1      23.132  17.547   4.556  0.00  0.00     0.027 A 
HETATM    6  C   UNK N   1      23.091  15.561   5.856  0.00  0.00     0.054 A 
HETATM    7  C   UNK N   1      20.997  18.655   2.579  0.00  0.00     0.122 A 
HETATM    8  C   UNK N   1      23.782  18.817   4.011  0.00  0.00     0.053 C 
HETATM    9  C   UNK N   1      21.927  16.948   4.105  0.00  0.00     0.097 A 
HETATM   10 Br   UNK N   1      23.642  14.219   7.091  0.00  0.00    -0.043 Br
HETATM   11  N   UNK N   1      23.110  19.708   3.353  0.00  0.00    -0.381 N 
ATOM     12  HN  UNK N   1      23.666  20.431   2.895  1.00  0.00     0.160 HD
HETATM   13  N   UNK N   1      19.522  17.556   1.466  0.00  0.00    -0.287 N 
ATOM     14  HN  UNK N   1      18.790  17.298   0.805  1.00  0.00     0.188 HD
HETATM   15  N   UNK N   1      20.065  18.756   1.612  0.00  0.00    -0.286 N 
ATOM     16  HN  UNK N   1      19.822  19.599   1.091  1.00  0.00     0.188 HD
HETATM   17  N   UNK N   1      21.062  17.412   3.061  0.00  0.00    -0.280 N 
HETATM   18  S   UNK N   1      21.745  15.511   4.913  0.00  0.00    -0.063 SA
ENDROOT
BRANCH   8  19
HETATM   19  C   UNK N   1      25.255  19.123   4.273  0.00  0.00     0.013 A 
HETATM   20  C   UNK N   1      25.608  20.275   4.999  0.00  0.00     0.015 A 
HETATM   21  C   UNK N   1      26.937  20.629   5.231  0.00  0.00     0.001 A 
HETATM   22  C   UNK N   1      27.961  19.829   4.741  0.00  0.00     0.002 A 
HETATM   23  C   UNK N   1      27.656  18.674   4.029  0.00  0.00     0.025 A 
HETATM   24  C   UNK N   1      26.327  18.305   3.786  0.00  0.00     0.046 A 
HETATM   25 Cl   UNK N   1      26.107  16.819   2.865  0.00  0.00    -0.083 Cl
ENDBRANCH   8  19
TORSDOF 1
ENDMDL
MODEL 4
REMARK VINA RESULT:      -6.8      3.058      6.167
REMARK  1 active torsions:
REMARK  status: ('A' for Active; 'I' for Inactive)
REMARK    1  A    between atoms: C_14  and  C_9 
ROOT
HETATM    1  C   UNK N   1      35.342  13.719  10.599  0.00  0.00     0.091 C 
HETATM    2  C   UNK N   1      32.437  14.399   6.304  0.00  0.00     0.043 A 
HETATM    3  C   UNK N   1      34.116  17.943   8.330  0.00  0.00     0.198 C 
HETATM    4  C   UNK N   1      35.096  15.157  10.291  0.00  0.00     0.100 A 
HETATM    5  C   UNK N   1      32.869  15.427   7.205  0.00  0.00     0.027 A 
HETATM    6  C   UNK N   1      33.059  13.168   6.501  0.00  0.00     0.054 A 
HETATM    7  C   UNK N   1      34.501  16.964   9.367  0.00  0.00     0.122 A 
HETATM    8  C   UNK N   1      32.225  16.813   7.216  0.00  0.00     0.053 C 
HETATM    9  C   UNK N   1      33.847  14.939   8.111  0.00  0.00     0.097 A 
HETATM   10 Br   UNK N   1      32.726  11.563   5.531  0.00  0.00    -0.043 Br
HETATM   11  N   UNK N   1      32.782  17.828   7.796  0.00  0.00    -0.381 N 
ATOM     12  HN  UNK N   1      32.198  18.660   7.886  1.00  0.00     0.160 HD
HETATM   13  N   UNK N   1      35.513  16.160  11.085  0.00  0.00    -0.287 N 
ATOM     14  HN  UNK N   1      36.015  16.067  11.968  1.00  0.00     0.188 HD
HETATM   15  N   UNK N   1      35.149  17.293  10.501  0.00  0.00    -0.286 N 
ATOM     16  HN  UNK N   1      35.326  18.236  10.846  1.00  0.00     0.188 HD
HETATM   17  N   UNK N   1      34.445  15.640   9.208  0.00  0.00    -0.280 N 
HETATM   18  S   UNK N   1      34.096  13.335   7.766  0.00  0.00    -0.063 SA
ENDROOT
BRANCH   8  19
HETATM   19  C   UNK N   1      30.911  17.076   6.483  0.00  0.00     0.013 A 
HETATM   20  C   UNK N   1      29.691  16.936   7.169  0.00  0.00     0.015 A 
HETATM   21  C   UNK N   1      28.460  17.120   6.540  0.00  0.00     0.001 A 
HETATM   22  C   UNK N   1      28.414  17.456   5.194  0.00  0.00     0.002 A 
HETATM   23  C   UNK N   1      29.598  17.617   4.481  0.00  0.00     0.025 A 
HETATM   24  C   UNK N   1      30.843  17.435   5.097  0.00  0.00     0.046 A 
HETATM   25 Cl   UNK N   1      32.246  17.670   4.057  0.00  0.00    -0.083 Cl
ENDBRANCH   8  19
TORSDOF 1
ENDMDL
MODEL 5
REMARK VINA RESULT:      -6.8      8.460     10.249
REMARK  1 active torsions:
REMARK  status: ('A' for Active; 'I' for Inactive)
REMARK    1  A    between atoms: C_14  and  C_9 
ROOT
HETATM    1  C   UNK N   1      21.821  20.434   2.563  0.00  0.00     0.091 C 
HETATM    2  C   UNK N   1      23.589  16.490   5.508  0.00  0.00     0.043 A 
HETATM    3  C   UNK N   1      19.628  16.119   3.596  0.00  0.00     0.198 C 
HETATM    4  C   UNK N   1      20.815  19.346   2.735  0.00  0.00     0.100 A 
HETATM    5  C   UNK N   1      22.255  16.637   5.003  0.00  0.00     0.027 A 
HETATM    6  C   UNK N   1      24.511  17.373   4.952  0.00  0.00     0.054 A 
HETATM    7  C   UNK N   1      19.846  17.538   3.247  0.00  0.00     0.122 A 
HETATM    8  C   UNK N   1      21.086  15.833   5.568  0.00  0.00     0.053 C 
HETATM    9  C   UNK N   1      22.184  17.675   4.036  0.00  0.00     0.097 A 
HETATM   10 Br   UNK N   1      26.360  17.506   5.391  0.00  0.00    -0.043 Br
HETATM   11  N   UNK N   1      19.955  15.728   4.945  0.00  0.00    -0.381 N 
ATOM     12  HN  UNK N   1      19.194  15.310   5.480  1.00  0.00     0.160 HD
HETATM   13  N   UNK N   1      19.563  19.420   2.248  0.00  0.00    -0.287 N 
ATOM     14  HN  UNK N   1      19.156  20.203   1.736  1.00  0.00     0.188 HD
HETATM   15  N   UNK N   1      18.959  18.283   2.560  0.00  0.00    -0.286 N 
ATOM     16  HN  UNK N   1      18.001  18.021   2.324  1.00  0.00     0.188 HD
HETATM   17  N   UNK N   1      21.012  18.174   3.379  0.00  0.00    -0.280 N 
HETATM   18  S   UNK N   1      23.702  18.326   3.883  0.00  0.00    -0.063 SA
ENDROOT
BRANCH   8  19
HETATM   19  C   UNK N   1      21.222  15.062   6.879  0.00  0.00     0.013 A 
HETATM   20  C   UNK N   1      21.771  13.766   6.871  0.00  0.00     0.015 A 
HETATM   21  C   UNK N   1      21.879  12.998   8.029  0.00  0.00     0.001 A 
HETATM   22  C   UNK N   1      21.439  13.510   9.243  0.00  0.00     0.002 A 
HETATM   23  C   UNK N   1      20.902  14.792   9.298  0.00  0.00     0.025 A 
HETATM   24  C   UNK N   1      20.785  15.577   8.144  0.00  0.00     0.046 A 
HETATM   25 Cl   UNK N   1      20.078  17.174   8.379  0.00  0.00    -0.083 Cl
ENDBRANCH   8  19
TORSDOF 1
ENDMDL
MODEL 6
REMARK VINA RESULT:      -6.7      4.414      7.660
REMARK  1 active torsions:
REMARK  status: ('A' for Active; 'I' for Inactive)
REMARK    1  A    between atoms: C_14  and  C_9 
ROOT
HETATM    1  C   UNK N   1      37.943  11.398  10.799  0.00  0.00     0.091 C 
HETATM    2  C   UNK N   1      35.610  14.711   7.493  0.00  0.00     0.043 A 
HETATM    3  C   UNK N   1      35.930  15.817  11.754  0.00  0.00     0.198 C 
HETATM    4  C   UNK N   1      37.354  12.581  11.488  0.00  0.00     0.100 A 
HETATM    5  C   UNK N   1      35.605  14.800   8.924  0.00  0.00     0.027 A 
HETATM    6  C   UNK N   1      36.515  13.783   6.981  0.00  0.00     0.054 A 
HETATM    7  C   UNK N   1      36.418  14.431  11.907  0.00  0.00     0.122 A 
HETATM    8  C   UNK N   1      34.607  15.681   9.673  0.00  0.00     0.053 C 
HETATM    9  C   UNK N   1      36.540  13.898   9.497  0.00  0.00     0.097 A 
HETATM   10 Br   UNK N   1      36.784  13.359   5.143  0.00  0.00    -0.043 Br
HETATM   11  N   UNK N   1      34.771  16.005  10.917  0.00  0.00    -0.381 N 
ATOM     12  HN  UNK N   1      33.972  16.455  11.364  1.00  0.00     0.160 HD
HETATM   13  N   UNK N   1      37.357  12.729  12.826  0.00  0.00    -0.287 N 
ATOM     14  HN  UNK N   1      37.733  12.071  13.508  1.00  0.00     0.188 HD
HETATM   15  N   UNK N   1      36.780  13.893  13.088  0.00  0.00    -0.286 N 
ATOM     16  HN  UNK N   1      36.637  14.305  14.010  1.00  0.00     0.188 HD
HETATM   17  N   UNK N   1      36.757  13.637  10.889  0.00  0.00    -0.280 N 
HETATM   18  S   UNK N   1      37.272  13.075   8.256  0.00  0.00    -0.063 SA
ENDROOT
BRANCH   8  19
HETATM   19  C   UNK N   1      33.391  16.272   8.964  0.00  0.00     0.013 A 
HETATM   20  C   UNK N   1      32.200  15.527   8.884  0.00  0.00     0.015 A 
HETATM   21  C   UNK N   1      31.074  15.998   8.211  0.00  0.00     0.001 A 
HETATM   22  C   UNK N   1      31.105  17.242   7.595  0.00  0.00     0.002 A 
HETATM   23  C   UNK N   1      32.258  18.016   7.660  0.00  0.00     0.025 A 
HETATM   24  C   UNK N   1      33.400  17.559   8.331  0.00  0.00     0.046 A 
HETATM   25 Cl   UNK N   1      34.779  18.655   8.318  0.00  0.00    -0.083 Cl
ENDBRANCH   8  19
TORSDOF 1
ENDMDL
MODEL 7
REMARK VINA RESULT:      -6.6     13.123     15.259
REMARK  1 active torsions:
REMARK  status: ('A' for Active; 'I' for Inactive)
REMARK    1  A    between atoms: C_14  and  C_9 
ROOT
HETATM    1  C   UNK N   1      27.784  30.153  -4.609  0.00  0.00     0.091 C 
HETATM    2  C   UNK N   1      30.164  25.729  -6.064  0.00  0.00     0.043 A 
HETATM    3  C   UNK N   1      26.292  25.479  -3.958  0.00  0.00     0.198 C 
HETATM    4  C   UNK N   1      27.077  28.932  -4.126  0.00  0.00     0.100 A 
HETATM    5  C   UNK N   1      29.033  25.834  -5.188  0.00  0.00     0.027 A 
HETATM    6  C   UNK N   1      30.474  26.908  -6.740  0.00  0.00     0.054 A 
HETATM    7  C   UNK N   1      26.485  26.933  -3.776  0.00  0.00     0.122 A 
HETATM    8  C   UNK N   1      28.606  24.680  -4.282  0.00  0.00     0.053 C 
HETATM    9  C   UNK N   1      28.485  27.143  -5.211  0.00  0.00     0.097 A 
HETATM   10 Br   UNK N   1      31.918  27.170  -7.954  0.00  0.00    -0.043 Br
HETATM   11  N   UNK N   1      27.441  24.640  -3.718  0.00  0.00    -0.381 N 
ATOM     12  HN  UNK N   1      27.319  23.917  -3.010  1.00  0.00     0.160 HD
HETATM   13  N   UNK N   1      25.991  28.978  -3.334  0.00  0.00    -0.287 N 
ATOM     14  HN  UNK N   1      25.542  29.817  -2.966  1.00  0.00     0.188 HD
HETATM   15  N   UNK N   1      25.613  27.725  -3.122  0.00  0.00    -0.286 N 
ATOM     16  HN  UNK N   1      24.813  27.418  -2.569  1.00  0.00     0.188 HD
HETATM   17  N   UNK N   1      27.414  27.653  -4.408  0.00  0.00    -0.280 N 
HETATM   18  S   UNK N   1      29.399  28.054  -6.255  0.00  0.00    -0.063 SA
ENDROOT
BRANCH   8  19
HETATM   19  C   UNK N   1      29.524  23.482  -4.049  0.00  0.00     0.013 A 
HETATM   20  C   UNK N   1      30.355  23.452  -2.914  0.00  0.00     0.015 A 
HETATM   21  C   UNK N   1      31.244  22.406  -2.672  0.00  0.00     0.001 A 
HETATM   22  C   UNK N   1      31.326  21.346  -3.566  0.00  0.00     0.002 A 
HETATM   23  C   UNK N   1      30.512  21.330  -4.694  0.00  0.00     0.025 A 
HETATM   24  C   UNK N   1      29.614  22.373  -4.953  0.00  0.00     0.046 A 
HETATM   25 Cl   UNK N   1      28.660  22.206  -6.424  0.00  0.00    -0.083 Cl
ENDBRANCH   8  19
TORSDOF 1
ENDMDL
MODEL 8
REMARK VINA RESULT:      -6.6     12.930     14.953
REMARK  1 active torsions:
REMARK  status: ('A' for Active; 'I' for Inactive)
REMARK    1  A    between atoms: C_14  and  C_9 
ROOT
HETATM    1  C   UNK N   1      25.575  28.139  -4.064  0.00  0.00     0.091 C 
HETATM    2  C   UNK N   1      30.506  26.422  -3.778  0.00  0.00     0.043 A 
HETATM    3  C   UNK N   1      27.734  24.493  -6.621  0.00  0.00     0.198 C 
HETATM    4  C   UNK N   1      25.817  26.937  -4.912  0.00  0.00     0.100 A 
HETATM    5  C   UNK N   1      29.425  25.780  -4.468  0.00  0.00     0.027 A 
HETATM    6  C   UNK N   1      30.226  27.721  -3.360  0.00  0.00     0.054 A 
HETATM    7  C   UNK N   1      26.720  25.325  -5.942  0.00  0.00     0.122 A 
HETATM    8  C   UNK N   1      29.503  24.319  -4.907  0.00  0.00     0.053 C 
HETATM    9  C   UNK N   1      28.296  26.636  -4.562  0.00  0.00     0.097 A 
HETATM   10 Br   UNK N   1      31.391  28.874  -2.389  0.00  0.00    -0.043 Br
HETATM   11  N   UNK N   1      28.685  23.814  -5.775  0.00  0.00    -0.381 N 
ATOM     12  HN  UNK N   1      28.718  22.800  -5.873  1.00  0.00     0.160 HD
HETATM   13  N   UNK N   1      24.844  26.321  -5.609  0.00  0.00    -0.287 N 
ATOM     14  HN  UNK N   1      23.857  26.578  -5.630  1.00  0.00     0.188 HD
HETATM   15  N   UNK N   1      25.411  25.317  -6.262  0.00  0.00    -0.286 N 
ATOM     16  HN  UNK N   1      24.946  24.661  -6.889  1.00  0.00     0.188 HD
HETATM   17  N   UNK N   1      27.006  26.319  -5.098  0.00  0.00    -0.280 N 
HETATM   18  S   UNK N   1      28.682  28.063  -3.808  0.00  0.00    -0.063 SA
ENDROOT
BRANCH   8  19
HETATM   19  C   UNK N   1      30.600  23.397  -4.379  0.00  0.00     0.013 A 
HETATM   20  C   UNK N   1      31.728  23.129  -5.177  0.00  0.00     0.015 A 
HETATM   21  C   UNK N   1      32.739  22.261  -4.766  0.00  0.00     0.001 A 
HETATM   22  C   UNK N   1      32.651  21.631  -3.532  0.00  0.00     0.002 A 
HETATM   23  C   UNK N   1      31.559  21.877  -2.707  0.00  0.00     0.025 A 
HETATM   24  C   UNK N   1      30.534  22.746  -3.104  0.00  0.00     0.046 A 
HETATM   25 Cl   UNK N   1      29.219  22.947  -1.949  0.00  0.00    -0.083 Cl
ENDBRANCH   8  19
TORSDOF 1
ENDMDL
MODEL 9
REMARK VINA RESULT:      -6.6     12.928     15.914
REMARK  1 active torsions:
REMARK  status: ('A' for Active; 'I' for Inactive)
REMARK    1  A    between atoms: C_14  and  C_9 
ROOT
HETATM    1  C   UNK N   1      34.303   9.321  24.562  0.00  0.00     0.091 C 
HETATM    2  C   UNK N   1      33.234   8.915  19.459  0.00  0.00     0.043 A 
HETATM    3  C   UNK N   1      37.401   9.646  20.717  0.00  0.00     0.198 C 
HETATM    4  C   UNK N   1      35.488   9.598  23.701  0.00  0.00     0.100 A 
HETATM    5  C   UNK N   1      34.468   9.367  20.032  0.00  0.00     0.027 A 
HETATM    6  C   UNK N   1      32.361   8.328  20.373  0.00  0.00     0.054 A 
HETATM    7  C   UNK N   1      36.794   9.820  22.053  0.00  0.00     0.122 A 
HETATM    8  C   UNK N   1      35.505  10.131  19.211  0.00  0.00     0.053 C 
HETATM    9  C   UNK N   1      34.511   9.110  21.428  0.00  0.00     0.097 A 
HETATM   10 Br   UNK N   1      30.623   7.643  20.000  0.00  0.00    -0.043 Br
HETATM   11  N   UNK N   1      36.727  10.284  19.613  0.00  0.00    -0.381 N 
ATOM     12  HN  UNK N   1      37.289  10.944  19.075  1.00  0.00     0.160 HD
HETATM   13  N   UNK N   1      36.679   9.988  24.192  0.00  0.00    -0.287 N 
ATOM     14  HN  UNK N   1      36.906  10.153  25.173  1.00  0.00     0.188 HD
HETATM   15  N   UNK N   1      37.500  10.117  23.161  0.00  0.00    -0.286 N 
ATOM     16  HN  UNK N   1      38.482  10.391  23.198  1.00  0.00     0.188 HD
HETATM   17  N   UNK N   1      35.534   9.496  22.353  0.00  0.00    -0.280 N 
HETATM   18  S   UNK N   1      33.079   8.386  21.851  0.00  0.00    -0.063 SA
ENDROOT
BRANCH   8  19
HETATM   19  C   UNK N   1      35.157  10.703  17.839  0.00  0.00     0.013 A 
HETATM   20  C   UNK N   1      34.978   9.834  16.747  0.00  0.00     0.015 A 
HETATM   21  C   UNK N   1      34.703  10.301  15.463  0.00  0.00     0.001 A 
HETATM   22  C   UNK N   1      34.594  11.666  15.232  0.00  0.00     0.002 A 
HETATM   23  C   UNK N   1      34.750  12.560  16.286  0.00  0.00     0.025 A 
HETATM   24  C   UNK N   1      35.028  12.108  17.582  0.00  0.00     0.046 A 
HETATM   25 Cl   UNK N   1      35.203  13.365  18.804  0.00  0.00    -0.083 Cl
ENDBRANCH   8  19
TORSDOF 1
ENDMDL
