MODEL 1
REMARK VINA RESULT:      -6.1      0.000      0.000
REMARK  2 active torsions:
REMARK  status: ('A' for Active; 'I' for Inactive)
REMARK    1  A    between atoms: N_4  and  C_10 
REMARK       I    between atoms: N_5  and  C_13 
REMARK    2  A    between atoms: C_10  and  C_13 
ROOT
HETATM    1  O   UNK N   1      20.131  13.646  10.190  0.00  0.00    -0.261 OA
HETATM    2  O   UNK N   1      18.549  15.093   9.675  0.00  0.00    -0.238 OA
HETATM    3  N   UNK N   1      20.522  15.371   8.589  0.00  0.00    -0.315 N 
HETATM    4  C   UNK N   1      22.283  13.724   9.190  0.00  0.00    -0.006 A 
HETATM    5  C   UNK N   1      21.374  13.139  10.070  0.00  0.00     0.088 A 
HETATM    6  C   UNK N   1      19.690  14.724   9.486  0.00  0.00     0.368 A 
HETATM    7  C   UNK N   1      21.883  14.906   8.382  0.00  0.00     0.170 A 
HETATM    8  C   UNK N   1      23.573  13.205   9.060  0.00  0.00     0.011 A 
HETATM    9  C   UNK N   1      21.757  12.027  10.827  0.00  0.00     0.038 A 
HETATM   10  C   UNK N   1      23.957  12.094   9.814  0.00  0.00     0.001 A 
HETATM   11  C   UNK N   1      23.049  11.504  10.698  0.00  0.00     0.003 A 
ENDROOT
BRANCH   3  12
HETATM   12  C   UNK N   1      20.197  16.536   7.761  0.00  0.00     0.231 C 
BRANCH  12  13
HETATM   13  C   UNK N   1      19.978  17.962   8.218  0.00  0.00     0.233 C 
HETATM   14  O   UNK N   1      20.617  18.906   7.798  0.00  0.00    -0.272 OA
HETATM   15  N   UNK N   1      19.020  18.183   9.138  0.00  0.00    -0.369 N 
HETATM   16  H   UNK N   1      18.491  17.431   9.488  0.00  0.00     0.159 HD
HETATM   17  H   UNK N   1      18.849  19.098   9.460  0.00  0.00     0.159 HD
ENDBRANCH  12  13
ENDBRANCH   3  12
TORSDOF 2
ENDMDL
MODEL 2
REMARK VINA RESULT:      -6.0      7.278      8.458
REMARK  2 active torsions:
REMARK  status: ('A' for Active; 'I' for Inactive)
REMARK    1  A    between atoms: N_4  and  C_10 
REMARK       I    between atoms: N_5  and  C_13 
REMARK    2  A    between atoms: C_10  and  C_13 
ROOT
HETATM    1  O   UNK N   1      23.767  18.214   4.438  0.00  0.00    -0.261 OA
HETATM    2  O   UNK N   1      21.606  18.219   4.002  0.00  0.00    -0.238 OA
HETATM    3  N   UNK N   1      22.787  19.941   3.116  0.00  0.00    -0.315 N 
HETATM    4  C   UNK N   1      25.219  19.907   3.624  0.00  0.00    -0.006 A 
HETATM    5  C   UNK N   1      25.007  18.734   4.346  0.00  0.00     0.088 A 
HETATM    6  C   UNK N   1      22.675  18.775   3.853  0.00  0.00     0.368 A 
HETATM    7  C   UNK N   1      24.079  20.586   2.954  0.00  0.00     0.170 A 
HETATM    8  C   UNK N   1      26.500  20.452   3.524  0.00  0.00     0.011 A 
HETATM    9  C   UNK N   1      26.085  18.100   4.974  0.00  0.00     0.038 A 
HETATM   10  C   UNK N   1      27.578  19.821   4.149  0.00  0.00     0.001 A 
HETATM   11  C   UNK N   1      27.371  18.645   4.875  0.00  0.00     0.003 A 
ENDROOT
BRANCH   3  12
HETATM   12  C   UNK N   1      21.711  20.664   2.429  0.00  0.00     0.231 C 
BRANCH  12  13
HETATM   13  C   UNK N   1      20.959  20.238   1.188  0.00  0.00     0.233 C 
HETATM   14  O   UNK N   1      21.065  20.798   0.115  0.00  0.00    -0.272 OA
HETATM   15  N   UNK N   1      20.134  19.178   1.289  0.00  0.00    -0.369 N 
HETATM   16  H   UNK N   1      20.038  18.711   2.149  0.00  0.00     0.159 HD
HETATM   17  H   UNK N   1      19.628  18.873   0.502  0.00  0.00     0.159 HD
ENDBRANCH  12  13
ENDBRANCH   3  12
TORSDOF 2
ENDMDL
MODEL 3
REMARK VINA RESULT:      -6.0     12.923     14.352
REMARK  2 active torsions:
REMARK  status: ('A' for Active; 'I' for Inactive)
REMARK    1  A    between atoms: N_4  and  C_10 
REMARK       I    between atoms: N_5  and  C_13 
REMARK    2  A    between atoms: C_10  and  C_13 
ROOT
HETATM    1  O   UNK N   1      34.324  18.297   6.983  0.00  0.00    -0.261 OA
HETATM    2  O   UNK N   1      35.378  19.216   8.688  0.00  0.00    -0.238 OA
HETATM    3  N   UNK N   1      34.681  17.081   9.004  0.00  0.00    -0.315 N 
HETATM    4  C   UNK N   1      33.498  16.073   7.064  0.00  0.00    -0.006 A 
HETATM    5  C   UNK N   1      33.685  17.275   6.383  0.00  0.00     0.088 A 
HETATM    6  C   UNK N   1      34.818  18.232   8.249  0.00  0.00     0.368 A 
HETATM    7  C   UNK N   1      34.006  15.917   8.453  0.00  0.00     0.170 A 
HETATM    8  C   UNK N   1      32.836  15.008   6.450  0.00  0.00     0.011 A 
HETATM    9  C   UNK N   1      33.204  17.413   5.077  0.00  0.00     0.038 A 
HETATM   10  C   UNK N   1      32.357  15.144   5.145  0.00  0.00     0.001 A 
HETATM   11  C   UNK N   1      32.540  16.348   4.458  0.00  0.00     0.003 A 
ENDROOT
BRANCH   3  12
HETATM   12  C   UNK N   1      35.155  16.855  10.373  0.00  0.00     0.231 C 
BRANCH  12  13
HETATM   13  C   UNK N   1      36.169  15.835  10.843  0.00  0.00     0.233 C 
HETATM   14  O   UNK N   1      37.030  15.368  10.126  0.00  0.00    -0.272 OA
HETATM   15  N   UNK N   1      36.104  15.435  12.127  0.00  0.00    -0.369 N 
HETATM   16  H   UNK N   1      35.414  15.805  12.724  0.00  0.00     0.159 HD
HETATM   17  H   UNK N   1      36.747  14.772  12.469  0.00  0.00     0.159 HD
ENDBRANCH  12  13
ENDBRANCH   3  12
TORSDOF 2
ENDMDL
MODEL 4
REMARK VINA RESULT:      -6.0      7.437      8.684
REMARK  2 active torsions:
REMARK  status: ('A' for Active; 'I' for Inactive)
REMARK    1  A    between atoms: N_4  and  C_10 
REMARK       I    between atoms: N_5  and  C_13 
REMARK    2  A    between atoms: C_10  and  C_13 
ROOT
HETATM    1  O   UNK N   1      23.767  20.907   2.576  0.00  0.00    -0.261 OA
HETATM    2  O   UNK N   1      21.644  21.226   2.073  0.00  0.00    -0.238 OA
HETATM    3  N   UNK N   1      22.078  19.432   3.391  0.00  0.00    -0.315 N 
HETATM    4  C   UNK N   1      24.479  19.100   3.942  0.00  0.00    -0.006 A 
HETATM    5  C   UNK N   1      24.764  20.234   3.183  0.00  0.00     0.088 A 
HETATM    6  C   UNK N   1      22.459  20.544   2.660  0.00  0.00     0.368 A 
HETATM    7  C   UNK N   1      23.075  18.633   4.085  0.00  0.00     0.170 A 
HETATM    8  C   UNK N   1      25.506  18.396   4.573  0.00  0.00     0.011 A 
HETATM    9  C   UNK N   1      26.088  20.667   3.053  0.00  0.00     0.038 A 
HETATM   10  C   UNK N   1      26.828  18.828   4.446  0.00  0.00     0.001 A 
HETATM   11  C   UNK N   1      27.120  19.964   3.685  0.00  0.00     0.003 A 
ENDROOT
BRANCH   3  12
HETATM   12  C   UNK N   1      20.719  18.914   3.577  0.00  0.00     0.231 C 
BRANCH  12  13
HETATM   13  C   UNK N   1      19.857  18.199   2.560  0.00  0.00     0.233 C 
HETATM   14  O   UNK N   1      20.210  17.201   1.966  0.00  0.00    -0.272 OA
HETATM   15  N   UNK N   1      18.633  18.704   2.312  0.00  0.00    -0.369 N 
HETATM   16  H   UNK N   1      18.329  19.511   2.786  0.00  0.00     0.159 HD
HETATM   17  H   UNK N   1      18.044  18.266   1.656  0.00  0.00     0.159 HD
ENDBRANCH  12  13
ENDBRANCH   3  12
TORSDOF 2
ENDMDL
MODEL 5
REMARK VINA RESULT:      -5.8      1.638      2.218
REMARK  2 active torsions:
REMARK  status: ('A' for Active; 'I' for Inactive)
REMARK    1  A    between atoms: N_4  and  C_10 
REMARK       I    between atoms: N_5  and  C_13 
REMARK    2  A    between atoms: C_10  and  C_13 
ROOT
HETATM    1  O   UNK N   1      22.638  14.555   7.659  0.00  0.00    -0.261 OA
HETATM    2  O   UNK N   1      21.904  16.320   6.559  0.00  0.00    -0.238 OA
HETATM    3  N   UNK N   1      20.637  15.671   8.326  0.00  0.00    -0.315 N 
HETATM    4  C   UNK N   1      21.490  13.681   9.545  0.00  0.00    -0.006 A 
HETATM    5  C   UNK N   1      22.553  13.640   8.644  0.00  0.00     0.088 A 
HETATM    6  C   UNK N   1      21.726  15.550   7.481  0.00  0.00     0.368 A 
HETATM    7  C   UNK N   1      20.449  14.735   9.422  0.00  0.00     0.170 A 
HETATM    8  C   UNK N   1      21.396  12.736  10.569  0.00  0.00     0.011 A 
HETATM    9  C   UNK N   1      23.529  12.645   8.767  0.00  0.00     0.038 A 
HETATM   10  C   UNK N   1      22.369  11.743  10.693  0.00  0.00     0.001 A 
HETATM   11  C   UNK N   1      23.437  11.696   9.792  0.00  0.00     0.003 A 
ENDROOT
BRANCH   3  12
HETATM   12  C   UNK N   1      19.576  16.681   8.266  0.00  0.00     0.231 C 
BRANCH  12  13
HETATM   13  C   UNK N   1      19.648  18.124   8.717  0.00  0.00     0.233 C 
HETATM   14  O   UNK N   1      20.392  18.945   8.220  0.00  0.00    -0.272 OA
HETATM   15  N   UNK N   1      18.836  18.506   9.721  0.00  0.00    -0.369 N 
HETATM   16  H   UNK N   1      18.225  17.855  10.134  0.00  0.00     0.159 HD
HETATM   17  H   UNK N   1      18.855  19.436  10.042  0.00  0.00     0.159 HD
ENDBRANCH  12  13
ENDBRANCH   3  12
TORSDOF 2
ENDMDL
MODEL 6
REMARK VINA RESULT:      -5.6      2.190      2.872
REMARK  2 active torsions:
REMARK  status: ('A' for Active; 'I' for Inactive)
REMARK    1  A    between atoms: N_4  and  C_10 
REMARK       I    between atoms: N_5  and  C_13 
REMARK    2  A    between atoms: C_10  and  C_13 
ROOT
HETATM    1  O   UNK N   1      23.355  13.951   7.909  0.00  0.00    -0.261 OA
HETATM    2  O   UNK N   1      23.455  15.407   6.254  0.00  0.00    -0.238 OA
HETATM    3  N   UNK N   1      21.539  15.434   7.468  0.00  0.00    -0.315 N 
HETATM    4  C   UNK N   1      21.457  13.784   9.325  0.00  0.00    -0.006 A 
HETATM    5  C   UNK N   1      22.734  13.368   8.952  0.00  0.00     0.088 A 
HETATM    6  C   UNK N   1      22.802  14.954   7.173  0.00  0.00     0.368 A 
HETATM    7  C   UNK N   1      20.779  14.874   8.574  0.00  0.00     0.170 A 
HETATM    8  C   UNK N   1      20.807  13.185  10.405  0.00  0.00     0.011 A 
HETATM    9  C   UNK N   1      23.365  12.342   9.664  0.00  0.00     0.038 A 
HETATM   10  C   UNK N   1      21.435  12.161  11.118  0.00  0.00     0.001 A 
HETATM   11  C   UNK N   1      22.715  11.739  10.747  0.00  0.00     0.003 A 
ENDROOT
BRANCH   3  12
HETATM   12  C   UNK N   1      20.811  16.502   6.775  0.00  0.00     0.231 C 
BRANCH  12  13
HETATM   13  C   UNK N   1      21.237  17.942   6.592  0.00  0.00     0.233 C 
HETATM   14  O   UNK N   1      20.834  18.853   7.287  0.00  0.00    -0.272 OA
HETATM   15  N   UNK N   1      22.111  18.215   5.605  0.00  0.00    -0.369 N 
HETATM   16  H   UNK N   1      22.450  17.489   5.034  0.00  0.00     0.159 HD
HETATM   17  H   UNK N   1      22.411  19.141   5.456  0.00  0.00     0.159 HD
ENDBRANCH  12  13
ENDBRANCH   3  12
TORSDOF 2
ENDMDL
MODEL 7
REMARK VINA RESULT:      -5.6      2.425      5.258
REMARK  2 active torsions:
REMARK  status: ('A' for Active; 'I' for Inactive)
REMARK    1  A    between atoms: N_4  and  C_10 
REMARK       I    between atoms: N_5  and  C_13 
REMARK    2  A    between atoms: C_10  and  C_13 
ROOT
HETATM    1  O   UNK N   1      19.812  14.077   9.968  0.00  0.00    -0.261 OA
HETATM    2  O   UNK N   1      20.125  12.424  11.394  0.00  0.00    -0.238 OA
HETATM    3  N   UNK N   1      21.859  12.851   9.995  0.00  0.00    -0.315 N 
HETATM    4  C   UNK N   1      21.477  14.719   8.401  0.00  0.00    -0.006 A 
HETATM    5  C   UNK N   1      20.211  14.881   8.963  0.00  0.00     0.088 A 
HETATM    6  C   UNK N   1      20.588  13.087  10.488  0.00  0.00     0.368 A 
HETATM    7  C   UNK N   1      22.388  13.660   8.909  0.00  0.00     0.170 A 
HETATM    8  C   UNK N   1      21.898  15.547   7.359  0.00  0.00     0.011 A 
HETATM    9  C   UNK N   1      19.359  15.879   8.479  0.00  0.00     0.038 A 
HETATM   10  C   UNK N   1      21.049  16.545   6.875  0.00  0.00     0.001 A 
HETATM   11  C   UNK N   1      19.779  16.712   7.435  0.00  0.00     0.003 A 
ENDROOT
BRANCH   3  12
HETATM   12  C   UNK N   1      22.810  11.830  10.446  0.00  0.00     0.231 C 
BRANCH  12  13
HETATM   13  C   UNK N   1      23.555  11.779  11.762  0.00  0.00     0.233 C 
HETATM   14  O   UNK N   1      24.755  11.939  11.859  0.00  0.00    -0.272 OA
HETATM   15  N   UNK N   1      22.838  11.546  12.877  0.00  0.00    -0.369 N 
HETATM   16  H   UNK N   1      21.864  11.416  12.818  0.00  0.00     0.159 HD
HETATM   17  H   UNK N   1      23.288  11.505  13.752  0.00  0.00     0.159 HD
ENDBRANCH  12  13
ENDBRANCH   3  12
TORSDOF 2
ENDMDL
MODEL 8
REMARK VINA RESULT:      -5.4     14.032     14.584
REMARK  2 active torsions:
REMARK  status: ('A' for Active; 'I' for Inactive)
REMARK    1  A    between atoms: N_4  and  C_10 
REMARK       I    between atoms: N_5  and  C_13 
REMARK    2  A    between atoms: C_10  and  C_13 
ROOT
HETATM    1  O   UNK N   1      34.574  11.867  11.984  0.00  0.00    -0.261 OA
HETATM    2  O   UNK N   1      34.859  12.942  10.079  0.00  0.00    -0.238 OA
HETATM    3  N   UNK N   1      35.551  14.044  11.937  0.00  0.00    -0.315 N 
HETATM    4  C   UNK N   1      35.218  12.807  14.067  0.00  0.00    -0.006 A 
HETATM    5  C   UNK N   1      34.670  11.763  13.323  0.00  0.00     0.088 A 
HETATM    6  C   UNK N   1      34.993  12.958  11.285  0.00  0.00     0.368 A 
HETATM    7  C   UNK N   1      35.700  14.036  13.383  0.00  0.00     0.170 A 
HETATM    8  C   UNK N   1      35.321  12.707  15.455  0.00  0.00     0.011 A 
HETATM    9  C   UNK N   1      34.219  10.610  13.974  0.00  0.00     0.038 A 
HETATM   10  C   UNK N   1      34.872  11.556  16.107  0.00  0.00     0.001 A 
HETATM   11  C   UNK N   1      34.320  10.507  15.366  0.00  0.00     0.003 A 
ENDROOT
BRANCH   3  12
HETATM   12  C   UNK N   1      36.047  15.283  11.331  0.00  0.00     0.231 C 
BRANCH  12  13
HETATM   13  C   UNK N   1      35.242  16.351  10.622  0.00  0.00     0.233 C 
HETATM   14  O   UNK N   1      35.654  17.475  10.418  0.00  0.00    -0.272 OA
HETATM   15  N   UNK N   1      34.006  16.024  10.199  0.00  0.00    -0.369 N 
HETATM   16  H   UNK N   1      33.657  15.118  10.354  0.00  0.00     0.159 HD
HETATM   17  H   UNK N   1      33.453  16.694   9.734  0.00  0.00     0.159 HD
ENDBRANCH  12  13
ENDBRANCH   3  12
TORSDOF 2
ENDMDL
MODEL 9
REMARK VINA RESULT:      -5.4     14.929     16.286
REMARK  2 active torsions:
REMARK  status: ('A' for Active; 'I' for Inactive)
REMARK    1  A    between atoms: N_4  and  C_10 
REMARK       I    between atoms: N_5  and  C_13 
REMARK    2  A    between atoms: C_10  and  C_13 
ROOT
HETATM    1  O   UNK N   1      36.032  10.573  15.843  0.00  0.00    -0.261 OA
HETATM    2  O   UNK N   1      36.440  10.113  13.725  0.00  0.00    -0.238 OA
HETATM    3  N   UNK N   1      36.006  12.291  14.187  0.00  0.00    -0.315 N 
HETATM    4  C   UNK N   1      35.551  12.779  16.581  0.00  0.00    -0.006 A 
HETATM    5  C   UNK N   1      35.735  11.422  16.846  0.00  0.00     0.088 A 
HETATM    6  C   UNK N   1      36.170  10.965  14.547  0.00  0.00     0.368 A 
HETATM    7  C   UNK N   1      35.683  13.291  15.191  0.00  0.00     0.170 A 
HETATM    8  C   UNK N   1      35.244  13.665  17.615  0.00  0.00     0.011 A 
HETATM    9  C   UNK N   1      35.609  10.948  18.156  0.00  0.00     0.038 A 
HETATM   10  C   UNK N   1      35.119  13.193  18.924  0.00  0.00     0.001 A 
HETATM   11  C   UNK N   1      35.301  11.834  19.195  0.00  0.00     0.003 A 
ENDROOT
BRANCH   3  12
HETATM   12  C   UNK N   1      36.121  12.866  12.843  0.00  0.00     0.231 C 
BRANCH  12  13
HETATM   13  C   UNK N   1      35.567  14.186  12.353  0.00  0.00     0.233 C 
HETATM   14  O   UNK N   1      34.408  14.348  12.029  0.00  0.00    -0.272 OA
HETATM   15  N   UNK N   1      36.414  15.230  12.279  0.00  0.00    -0.369 N 
HETATM   16  H   UNK N   1      37.357  15.119  12.540  0.00  0.00     0.159 HD
HETATM   17  H   UNK N   1      36.090  16.105  11.965  0.00  0.00     0.159 HD
ENDBRANCH  12  13
ENDBRANCH   3  12
TORSDOF 2
ENDMDL
