MODEL 1
REMARK VINA RESULT:      -7.9      0.000      0.000
REMARK  7 active torsions:
REMARK  status: ('A' for Active; 'I' for Inactive)
REMARK    1  A    between atoms: C_13  and  C_9 
REMARK    2  A    between atoms: C_14  and  C_9 
REMARK    3  A    between atoms: C_12  and  C_10 
REMARK    4  A    between atoms: N_22  and  C_10 
REMARK    5  A    between atoms: C_14  and  O_24 
REMARK    6  A    between atoms: C_15  and  N_20 
REMARK    7  A    between atoms: C_19  and  C_16 
ROOT
HETATM    1  C   UNK N   1      34.953  14.375   7.944  0.00  0.00     0.113 C 
HETATM    2  C   UNK N   1      34.629  15.788   7.564  0.00  0.00    -0.024 C 
HETATM    3  C   UNK N   1      35.247  14.686  11.064  0.00  0.00     0.199 C 
HETATM    4  C   UNK N   1      34.381  16.686   8.562  0.00  0.00     0.101 C 
HETATM    5  C   UNK N   1      35.366  16.124  10.679  0.00  0.00     0.230 C 
HETATM    6  C   UNK N   1      33.869  14.858  10.280  0.00  0.00     0.164 C 
HETATM    7  N   UNK N   1      34.298  16.189   9.907  0.00  0.00    -0.195 NA
HETATM    8  O   UNK N   1      36.369  16.820  10.584  0.00  0.00    -0.277 OA
HETATM    9  S   UNK N   1      33.597  13.684   8.910  0.00  0.00    -0.141 SA
ENDROOT
BRANCH   3  10
HETATM   10  N   UNK N   1      35.114  14.292  12.447  0.00  0.00    -0.359 N 
HETATM   11  C   UNK N   1      36.135  13.816  13.086  0.00  0.00     0.116 C 
ATOM     12  HN  UNK N   1      34.215  14.389  12.921  1.00  0.00     0.162 HD
BRANCH  11  13
HETATM   13  C   UNK N   1      36.103  13.609  14.569  0.00  0.00     0.129 C 
BRANCH  13  14
HETATM   14  C   UNK N   1      35.441  12.375  15.081  0.00  0.00    -0.010 A 
HETATM   15  C   UNK N   1      34.441  11.695  14.396  0.00  0.00     0.015 A 
HETATM   16  C   UNK N   1      34.015  10.516  15.067  0.00  0.00     0.008 A 
HETATM   17  C   UNK N   1      34.686  10.270  16.274  0.00  0.00     0.050 A 
HETATM   18  S   UNK N   1      35.764  11.517  16.458  0.00  0.00    -0.106 SA
ENDBRANCH  13  14
ENDBRANCH  11  13
BRANCH  11  19
HETATM   19  O   UNK N   1      37.304  13.594  12.446  0.00  0.00    -0.349 OA
HETATM   20  H   UNK N   1      38.117  13.736  12.890  0.00  0.00     0.219 HD
ENDBRANCH  11  19
ENDBRANCH   3  10
BRANCH   4  21
HETATM   21  C   UNK N   1      34.193  18.144   8.313  0.00  0.00     0.222 C 
HETATM   22  O   UNK N   1      33.078  18.574   8.067  0.00  0.00    -0.643 OA
HETATM   23  O   UNK N   1      35.226  19.006   8.388  0.00  0.00    -0.643 OA
ENDBRANCH   4  21
BRANCH   2  24
HETATM   24  C   UNK N   1      34.662  16.115   6.089  0.00  0.00     0.164 C 
BRANCH  24  25
HETATM   25  N   UNK N   1      33.323  16.385   5.539  0.00  0.00    -0.362 N 
HETATM   26  C   UNK N   1      33.161  17.453   4.711  0.00  0.00     0.090 A 
HETATM   27  C   UNK N   1      31.910  17.733   4.148  0.00  0.00     0.017 A 
HETATM   28  C   UNK N   1      30.821  16.913   4.447  0.00  0.00     0.003 A 
HETATM   29  C   UNK N   1      30.996  15.820   5.289  0.00  0.00     0.017 A 
HETATM   30  C   UNK N   1      32.260  15.565   5.815  0.00  0.00     0.090 A 
ENDBRANCH  24  25
ENDBRANCH   2  24
TORSDOF 7
ENDMDL
MODEL 2
REMARK VINA RESULT:      -7.4      3.308      4.796
REMARK  7 active torsions:
REMARK  status: ('A' for Active; 'I' for Inactive)
REMARK    1  A    between atoms: C_13  and  C_9 
REMARK    2  A    between atoms: C_14  and  C_9 
REMARK    3  A    between atoms: C_12  and  C_10 
REMARK    4  A    between atoms: N_22  and  C_10 
REMARK    5  A    between atoms: C_14  and  O_24 
REMARK    6  A    between atoms: C_15  and  N_20 
REMARK    7  A    between atoms: C_19  and  C_16 
ROOT
HETATM    1  C   UNK N   1      29.905  16.990   8.324  0.00  0.00     0.113 C 
HETATM    2  C   UNK N   1      29.956  17.034   6.826  0.00  0.00    -0.024 C 
HETATM    3  C   UNK N   1      32.947  16.498   8.973  0.00  0.00     0.199 C 
HETATM    4  C   UNK N   1      31.179  17.048   6.220  0.00  0.00     0.101 C 
HETATM    5  C   UNK N   1      32.955  16.105   7.533  0.00  0.00     0.230 C 
HETATM    6  C   UNK N   1      32.382  17.845   8.335  0.00  0.00     0.164 C 
HETATM    7  N   UNK N   1      32.341  17.170   7.055  0.00  0.00    -0.195 NA
HETATM    8  O   UNK N   1      32.950  14.985   7.035  0.00  0.00    -0.277 OA
HETATM    9  S   UNK N   1      30.780  18.413   8.999  0.00  0.00    -0.141 SA
ENDROOT
BRANCH   3  10
HETATM   10  N   UNK N   1      34.179  16.647   9.713  0.00  0.00    -0.359 N 
HETATM   11  C   UNK N   1      34.429  15.868  10.718  0.00  0.00     0.116 C 
ATOM     12  HN  UNK N   1      34.852  17.365   9.444  1.00  0.00     0.162 HD
BRANCH  11  13
HETATM   13  C   UNK N   1      35.778  15.836  11.366  0.00  0.00     0.129 C 
BRANCH  13  14
HETATM   14  C   UNK N   1      36.181  14.582  12.064  0.00  0.00    -0.010 A 
HETATM   15  C   UNK N   1      36.165  14.429  13.445  0.00  0.00     0.015 A 
HETATM   16  C   UNK N   1      36.537  13.121  13.862  0.00  0.00     0.008 A 
HETATM   17  C   UNK N   1      36.838  12.249  12.806  0.00  0.00     0.050 A 
HETATM   18  S   UNK N   1      36.638  13.130  11.415  0.00  0.00    -0.106 SA
ENDBRANCH  13  14
ENDBRANCH  11  13
BRANCH  11  19
HETATM   19  O   UNK N   1      33.506  14.977  11.143  0.00  0.00    -0.349 OA
HETATM   20  H   UNK N   1      33.043  15.126  11.944  0.00  0.00     0.219 HD
ENDBRANCH  11  19
ENDBRANCH   3  10
BRANCH   4  21
HETATM   21  C   UNK N   1      31.353  16.944   4.742  0.00  0.00     0.222 C 
HETATM   22  O   UNK N   1      31.645  17.940   4.099  0.00  0.00    -0.643 OA
HETATM   23  O   UNK N   1      31.229  15.765   4.104  0.00  0.00    -0.643 OA
ENDBRANCH   4  21
BRANCH   2  24
HETATM   24  C   UNK N   1      28.629  17.001   6.105  0.00  0.00     0.164 C 
BRANCH  24  25
HETATM   25  N   UNK N   1      28.127  18.348   5.782  0.00  0.00    -0.362 N 
HETATM   26  C   UNK N   1      27.952  18.682   4.474  0.00  0.00     0.090 A 
HETATM   27  C   UNK N   1      27.455  19.944   4.123  0.00  0.00     0.017 A 
HETATM   28  C   UNK N   1      27.147  20.865   5.124  0.00  0.00     0.003 A 
HETATM   29  C   UNK N   1      27.322  20.514   6.458  0.00  0.00     0.017 A 
HETATM   30  C   UNK N   1      27.801  19.243   6.767  0.00  0.00     0.090 A 
ENDBRANCH  24  25
ENDBRANCH   2  24
TORSDOF 7
ENDMDL
MODEL 3
REMARK VINA RESULT:      -6.5      1.725      2.613
REMARK  7 active torsions:
REMARK  status: ('A' for Active; 'I' for Inactive)
REMARK    1  A    between atoms: C_13  and  C_9 
REMARK    2  A    between atoms: C_14  and  C_9 
REMARK    3  A    between atoms: C_12  and  C_10 
REMARK    4  A    between atoms: N_22  and  C_10 
REMARK    5  A    between atoms: C_14  and  O_24 
REMARK    6  A    between atoms: C_15  and  N_20 
REMARK    7  A    between atoms: C_19  and  C_16 
ROOT
HETATM    1  C   UNK N   1      34.803  14.220   8.033  0.00  0.00     0.113 C 
HETATM    2  C   UNK N   1      34.522  15.629   7.608  0.00  0.00    -0.024 C 
HETATM    3  C   UNK N   1      35.228  14.643  11.125  0.00  0.00     0.199 C 
HETATM    4  C   UNK N   1      34.348  16.576   8.576  0.00  0.00     0.101 C 
HETATM    5  C   UNK N   1      35.389  16.057  10.677  0.00  0.00     0.230 C 
HETATM    6  C   UNK N   1      33.829  14.840  10.386  0.00  0.00     0.164 C 
HETATM    7  N   UNK N   1      34.297  16.136   9.942  0.00  0.00    -0.195 NA
HETATM    8  O   UNK N   1      36.416  16.707  10.516  0.00  0.00    -0.277 OA
HETATM    9  S   UNK N   1      33.459  13.625   9.076  0.00  0.00    -0.141 SA
ENDROOT
BRANCH   3  10
HETATM   10  N   UNK N   1      35.132  14.309  12.527  0.00  0.00    -0.359 N 
HETATM   11  C   UNK N   1      36.188  13.936  13.179  0.00  0.00     0.116 C 
ATOM     12  HN  UNK N   1      34.232  14.368  13.005  1.00  0.00     0.162 HD
BRANCH  11  13
HETATM   13  C   UNK N   1      36.180  13.802  14.670  0.00  0.00     0.129 C 
BRANCH  13  14
HETATM   14  C   UNK N   1      36.369  12.439  15.242  0.00  0.00    -0.010 A 
HETATM   15  C   UNK N   1      35.764  12.005  16.416  0.00  0.00     0.015 A 
HETATM   16  C   UNK N   1      36.055  10.647  16.720  0.00  0.00     0.008 A 
HETATM   17  C   UNK N   1      36.883  10.015  15.780  0.00  0.00     0.050 A 
HETATM   18  S   UNK N   1      37.220  11.160  14.628  0.00  0.00    -0.106 SA
ENDBRANCH  13  14
ENDBRANCH  11  13
BRANCH  11  19
HETATM   19  O   UNK N   1      37.365  13.763  12.538  0.00  0.00    -0.349 OA
HETATM   20  H   UNK N   1      37.432  13.146  11.837  0.00  0.00     0.219 HD
ENDBRANCH  11  19
ENDBRANCH   3  10
BRANCH   4  21
HETATM   21  C   UNK N   1      34.209  18.029   8.274  0.00  0.00     0.222 C 
HETATM   22  O   UNK N   1      33.097  18.512   8.134  0.00  0.00    -0.643 OA
HETATM   23  O   UNK N   1      35.288  18.832   8.185  0.00  0.00    -0.643 OA
ENDBRANCH   4  21
BRANCH   2  24
HETATM   24  C   UNK N   1      34.512  15.895   6.120  0.00  0.00     0.164 C 
BRANCH  24  25
HETATM   25  N   UNK N   1      35.296  14.904   5.363  0.00  0.00    -0.362 N 
HETATM   26  C   UNK N   1      34.691  14.236   4.343  0.00  0.00     0.090 A 
HETATM   27  C   UNK N   1      35.405  13.302   3.582  0.00  0.00     0.017 A 
HETATM   28  C   UNK N   1      36.745  13.050   3.881  0.00  0.00     0.003 A 
HETATM   29  C   UNK N   1      37.357  13.741   4.920  0.00  0.00     0.017 A 
HETATM   30  C   UNK N   1      36.617  14.676   5.642  0.00  0.00     0.090 A 
ENDBRANCH  24  25
ENDBRANCH   2  24
TORSDOF 7
ENDMDL
MODEL 4
REMARK VINA RESULT:      -6.5      2.675      3.165
REMARK  7 active torsions:
REMARK  status: ('A' for Active; 'I' for Inactive)
REMARK    1  A    between atoms: C_13  and  C_9 
REMARK    2  A    between atoms: C_14  and  C_9 
REMARK    3  A    between atoms: C_12  and  C_10 
REMARK    4  A    between atoms: N_22  and  C_10 
REMARK    5  A    between atoms: C_14  and  O_24 
REMARK    6  A    between atoms: C_15  and  N_20 
REMARK    7  A    between atoms: C_19  and  C_16 
ROOT
HETATM    1  C   UNK N   1      32.201  14.665   8.324  0.00  0.00     0.113 C 
HETATM    2  C   UNK N   1      32.526  15.966   7.653  0.00  0.00    -0.024 C 
HETATM    3  C   UNK N   1      35.059  13.840   9.359  0.00  0.00     0.199 C 
HETATM    4  C   UNK N   1      33.778  16.485   7.818  0.00  0.00     0.101 C 
HETATM    5  C   UNK N   1      35.468  14.864   8.353  0.00  0.00     0.230 C 
HETATM    6  C   UNK N   1      34.240  15.089   9.915  0.00  0.00     0.164 C 
HETATM    7  N   UNK N   1      34.659  15.830   8.744  0.00  0.00    -0.195 NA
HETATM    8  O   UNK N   1      35.907  14.705   7.220  0.00  0.00    -0.277 OA
HETATM    9  S   UNK N   1      32.443  14.826  10.102  0.00  0.00    -0.141 SA
ENDROOT
BRANCH   3  10
HETATM   10  N   UNK N   1      36.015  13.280  10.285  0.00  0.00    -0.359 N 
HETATM   11  C   UNK N   1      35.671  12.295  11.055  0.00  0.00     0.116 C 
ATOM     12  HN  UNK N   1      36.961  13.658  10.333  1.00  0.00     0.162 HD
BRANCH  11  13
HETATM   13  C   UNK N   1      36.684  11.542  11.860  0.00  0.00     0.129 C 
BRANCH  13  14
HETATM   14  C   UNK N   1      36.597  11.637  13.345  0.00  0.00    -0.010 A 
HETATM   15  C   UNK N   1      36.732  12.826  14.051  0.00  0.00     0.015 A 
HETATM   16  C   UNK N   1      36.549  12.663  15.452  0.00  0.00     0.008 A 
HETATM   17  C   UNK N   1      36.267  11.345  15.841  0.00  0.00     0.050 A 
HETATM   18  S   UNK N   1      36.261  10.449  14.446  0.00  0.00    -0.106 SA
ENDBRANCH  13  14
ENDBRANCH  11  13
BRANCH  11  19
HETATM   19  O   UNK N   1      34.397  11.846  11.069  0.00  0.00    -0.349 OA
HETATM   20  H   UNK N   1      33.711  12.369  10.704  0.00  0.00     0.219 HD
ENDBRANCH  11  19
ENDBRANCH   3  10
BRANCH   4  21
HETATM   21  C   UNK N   1      34.260  17.691   7.085  0.00  0.00     0.222 C 
HETATM   22  O   UNK N   1      34.811  18.589   7.700  0.00  0.00    -0.643 OA
HETATM   23  O   UNK N   1      34.130  17.795   5.748  0.00  0.00    -0.643 OA
ENDBRANCH   4  21
BRANCH   2  24
HETATM   24  C   UNK N   1      31.441  16.571   6.793  0.00  0.00     0.164 C 
BRANCH  24  25
HETATM   25  N   UNK N   1      30.387  17.224   7.588  0.00  0.00    -0.362 N 
HETATM   26  C   UNK N   1      29.091  17.077   7.198  0.00  0.00     0.090 A 
HETATM   27  C   UNK N   1      28.055  17.661   7.937  0.00  0.00     0.017 A 
HETATM   28  C   UNK N   1      28.359  18.407   9.077  0.00  0.00     0.003 A 
HETATM   29  C   UNK N   1      29.684  18.547   9.473  0.00  0.00     0.017 A 
HETATM   30  C   UNK N   1      30.685  17.935   8.720  0.00  0.00     0.090 A 
ENDBRANCH  24  25
ENDBRANCH   2  24
TORSDOF 7
ENDMDL
MODEL 5
REMARK VINA RESULT:      -6.4      2.595      8.805
REMARK  7 active torsions:
REMARK  status: ('A' for Active; 'I' for Inactive)
REMARK    1  A    between atoms: C_13  and  C_9 
REMARK    2  A    between atoms: C_14  and  C_9 
REMARK    3  A    between atoms: C_12  and  C_10 
REMARK    4  A    between atoms: N_22  and  C_10 
REMARK    5  A    between atoms: C_14  and  O_24 
REMARK    6  A    between atoms: C_15  and  N_20 
REMARK    7  A    between atoms: C_19  and  C_16 
ROOT
HETATM    1  C   UNK N   1      36.625  13.578  12.404  0.00  0.00     0.113 C 
HETATM    2  C   UNK N   1      36.907  12.186  11.926  0.00  0.00    -0.024 C 
HETATM    3  C   UNK N   1      35.939  14.980   9.668  0.00  0.00     0.199 C 
HETATM    4  C   UNK N   1      36.633  11.880  10.623  0.00  0.00     0.101 C 
HETATM    5  C   UNK N   1      36.623  13.765   9.136  0.00  0.00     0.230 C 
HETATM    6  C   UNK N   1      35.030  13.857  10.343  0.00  0.00     0.164 C 
HETATM    7  N   UNK N   1      35.953  12.866   9.831  0.00  0.00    -0.195 NA
HETATM    8  O   UNK N   1      37.765  13.644   8.709  0.00  0.00    -0.277 OA
HETATM    9  S   UNK N   1      34.880  13.958  12.159  0.00  0.00    -0.141 SA
ENDROOT
BRANCH   3  10
HETATM   10  N   UNK N   1      35.234  15.885   8.791  0.00  0.00    -0.359 N 
HETATM   11  C   UNK N   1      34.817  17.028   9.237  0.00  0.00     0.116 C 
ATOM     12  HN  UNK N   1      35.064  15.625   7.819  1.00  0.00     0.162 HD
BRANCH  11  13
HETATM   13  C   UNK N   1      34.288  18.082   8.315  0.00  0.00     0.129 C 
BRANCH  13  14
HETATM   14  C   UNK N   1      33.263  17.675   7.314  0.00  0.00    -0.010 A 
HETATM   15  C   UNK N   1      33.526  17.522   5.957  0.00  0.00     0.015 A 
HETATM   16  C   UNK N   1      32.397  17.068   5.221  0.00  0.00     0.008 A 
HETATM   17  C   UNK N   1      31.251  16.861   6.003  0.00  0.00     0.050 A 
HETATM   18  S   UNK N   1      31.682  17.250   7.556  0.00  0.00    -0.106 SA
ENDBRANCH  13  14
ENDBRANCH  11  13
BRANCH  11  19
HETATM   19  O   UNK N   1      34.951  17.346  10.543  0.00  0.00    -0.349 OA
HETATM   20  H   UNK N   1      35.682  17.024  11.033  0.00  0.00     0.219 HD
ENDBRANCH  11  19
ENDBRANCH   3  10
BRANCH   4  21
HETATM   21  C   UNK N   1      37.006  10.577  10.001  0.00  0.00     0.222 C 
HETATM   22  O   UNK N   1      38.114  10.440   9.509  0.00  0.00    -0.643 OA
HETATM   23  O   UNK N   1      36.155   9.532  10.000  0.00  0.00    -0.643 OA
ENDBRANCH   4  21
BRANCH   2  24
HETATM   24  C   UNK N   1      37.532  11.243  12.927  0.00  0.00     0.164 C 
BRANCH  24  25
HETATM   25  N   UNK N   1      36.615  10.895  14.026  0.00  0.00    -0.362 N 
HETATM   26  C   UNK N   1      37.012  11.134  15.306  0.00  0.00     0.090 A 
HETATM   27  C   UNK N   1      36.163  10.839  16.380  0.00  0.00     0.017 A 
HETATM   28  C   UNK N   1      34.905  10.289  16.133  0.00  0.00     0.003 A 
HETATM   29  C   UNK N   1      34.504  10.054  14.822  0.00  0.00     0.017 A 
HETATM   30  C   UNK N   1      35.371  10.377  13.780  0.00  0.00     0.090 A 
ENDBRANCH  24  25
ENDBRANCH   2  24
TORSDOF 7
ENDMDL
MODEL 6
REMARK VINA RESULT:      -6.3     16.222     19.036
REMARK  7 active torsions:
REMARK  status: ('A' for Active; 'I' for Inactive)
REMARK    1  A    between atoms: C_13  and  C_9 
REMARK    2  A    between atoms: C_14  and  C_9 
REMARK    3  A    between atoms: C_12  and  C_10 
REMARK    4  A    between atoms: N_22  and  C_10 
REMARK    5  A    between atoms: C_14  and  O_24 
REMARK    6  A    between atoms: C_15  and  N_20 
REMARK    7  A    between atoms: C_19  and  C_16 
ROOT
HETATM    1  C   UNK N   1      29.946  24.082  -5.844  0.00  0.00     0.113 C 
HETATM    2  C   UNK N   1      29.496  24.134  -4.416  0.00  0.00    -0.024 C 
HETATM    3  C   UNK N   1      31.514  21.352  -5.840  0.00  0.00     0.199 C 
HETATM    4  C   UNK N   1      29.688  23.029  -3.636  0.00  0.00     0.101 C 
HETATM    5  C   UNK N   1      31.465  21.588  -4.367  0.00  0.00     0.230 C 
HETATM    6  C   UNK N   1      29.936  21.469  -5.651  0.00  0.00     0.164 C 
HETATM    7  N   UNK N   1      30.173  21.836  -4.271  0.00  0.00    -0.195 NA
HETATM    8  O   UNK N   1      32.339  22.013  -3.621  0.00  0.00    -0.277 OA
HETATM    9  S   UNK N   1      29.115  22.725  -6.690  0.00  0.00    -0.141 SA
ENDROOT
BRANCH   3  10
HETATM   10  N   UNK N   1      31.969  20.091  -6.379  0.00  0.00    -0.359 N 
HETATM   11  C   UNK N   1      32.255  19.990  -7.639  0.00  0.00     0.116 C 
ATOM     12  HN  UNK N   1      32.066  19.280  -5.768  1.00  0.00     0.162 HD
BRANCH  11  13
HETATM   13  C   UNK N   1      32.939  18.779  -8.191  0.00  0.00     0.129 C 
BRANCH  13  14
HETATM   14  C   UNK N   1      32.334  18.127  -9.387  0.00  0.00    -0.010 A 
HETATM   15  C   UNK N   1      30.994  17.770  -9.477  0.00  0.00     0.015 A 
HETATM   16  C   UNK N   1      30.650  17.219 -10.742  0.00  0.00     0.008 A 
HETATM   17  C   UNK N   1      31.721  17.150 -11.645  0.00  0.00     0.050 A 
HETATM   18  S   UNK N   1      33.036  17.764 -10.841  0.00  0.00    -0.106 SA
ENDBRANCH  13  14
ENDBRANCH  11  13
BRANCH  11  19
HETATM   19  O   UNK N   1      32.042  21.028  -8.477  0.00  0.00    -0.349 OA
HETATM   20  H   UNK N   1      32.177  21.907  -8.181  0.00  0.00     0.219 HD
ENDBRANCH  11  19
ENDBRANCH   3  10
BRANCH   4  21
HETATM   21  C   UNK N   1      29.416  23.015  -2.170  0.00  0.00     0.222 C 
HETATM   22  O   UNK N   1      30.349  23.056  -1.384  0.00  0.00    -0.643 OA
HETATM   23  O   UNK N   1      28.157  22.992  -1.691  0.00  0.00    -0.643 OA
ENDBRANCH   4  21
BRANCH   2  24
HETATM   24  C   UNK N   1      28.912  25.443  -3.939  0.00  0.00     0.164 C 
BRANCH  24  25
HETATM   25  N   UNK N   1      27.691  25.819  -4.673  0.00  0.00    -0.362 N 
HETATM   26  C   UNK N   1      26.634  24.961  -4.660  0.00  0.00     0.090 A 
HETATM   27  C   UNK N   1      25.446  25.288  -5.326  0.00  0.00     0.017 A 
HETATM   28  C   UNK N   1      25.352  26.499  -6.013  0.00  0.00     0.003 A 
HETATM   29  C   UNK N   1      26.434  27.372  -6.015  0.00  0.00     0.017 A 
HETATM   30  C   UNK N   1      27.592  27.018  -5.326  0.00  0.00     0.090 A 
ENDBRANCH  24  25
ENDBRANCH   2  24
TORSDOF 7
ENDMDL
MODEL 7
REMARK VINA RESULT:      -6.3      2.411      3.175
REMARK  7 active torsions:
REMARK  status: ('A' for Active; 'I' for Inactive)
REMARK    1  A    between atoms: C_13  and  C_9 
REMARK    2  A    between atoms: C_14  and  C_9 
REMARK    3  A    between atoms: C_12  and  C_10 
REMARK    4  A    between atoms: N_22  and  C_10 
REMARK    5  A    between atoms: C_14  and  O_24 
REMARK    6  A    between atoms: C_15  and  N_20 
REMARK    7  A    between atoms: C_19  and  C_16 
ROOT
HETATM    1  C   UNK N   1      36.825  14.165   8.778  0.00  0.00     0.113 C 
HETATM    2  C   UNK N   1      35.489  13.653   8.332  0.00  0.00    -0.024 C 
HETATM    3  C   UNK N   1      36.401  14.192  11.898  0.00  0.00     0.199 C 
HETATM    4  C   UNK N   1      34.618  13.200   9.282  0.00  0.00     0.101 C 
HETATM    5  C   UNK N   1      34.972  14.112  11.475  0.00  0.00     0.230 C 
HETATM    6  C   UNK N   1      36.466  12.861  11.023  0.00  0.00     0.164 C 
HETATM    7  N   UNK N   1      35.092  13.103  10.634  0.00  0.00    -0.195 NA
HETATM    8  O   UNK N   1      34.129  15.000  11.421  0.00  0.00    -0.277 OA
HETATM    9  S   UNK N   1      37.698  12.869   9.677  0.00  0.00    -0.141 SA
ENDROOT
BRANCH   3  10
HETATM   10  N   UNK N   1      36.780  14.026  13.282  0.00  0.00    -0.359 N 
HETATM   11  C   UNK N   1      35.936  13.530  14.131  0.00  0.00     0.116 C 
ATOM     12  HN  UNK N   1      37.713  14.300  13.592  1.00  0.00     0.162 HD
BRANCH  11  13
HETATM   13  C   UNK N   1      36.357  13.134  15.512  0.00  0.00     0.129 C 
BRANCH  13  14
HETATM   14  C   UNK N   1      36.083  11.734  15.943  0.00  0.00    -0.010 A 
HETATM   15  C   UNK N   1      35.106  11.389  16.870  0.00  0.00     0.015 A 
HETATM   16  C   UNK N   1      35.002   9.984  17.068  0.00  0.00     0.008 A 
HETATM   17  C   UNK N   1      35.893   9.229  16.292  0.00  0.00     0.050 A 
HETATM   18  S   UNK N   1      36.768  10.326  15.407  0.00  0.00    -0.106 SA
ENDBRANCH  13  14
ENDBRANCH  11  13
BRANCH  11  19
HETATM   19  O   UNK N   1      34.668  13.252  13.756  0.00  0.00    -0.349 OA
HETATM   20  H   UNK N   1      34.083  12.831  14.354  0.00  0.00     0.219 HD
ENDBRANCH  11  19
ENDBRANCH   3  10
BRANCH   4  21
HETATM   21  C   UNK N   1      33.214  12.806   8.973  0.00  0.00     0.222 C 
HETATM   22  O   UNK N   1      32.915  11.623   8.933  0.00  0.00    -0.643 OA
HETATM   23  O   UNK N   1      32.256  13.731   8.769  0.00  0.00    -0.643 OA
ENDBRANCH   4  21
BRANCH   2  24
HETATM   24  C   UNK N   1      35.194  13.736   6.852  0.00  0.00     0.164 C 
BRANCH  24  25
HETATM   25  N   UNK N   1      34.620  15.036   6.462  0.00  0.00    -0.362 N 
HETATM   26  C   UNK N   1      34.101  15.170   5.211  0.00  0.00     0.090 A 
HETATM   27  C   UNK N   1      33.525  16.380   4.806  0.00  0.00     0.017 A 
HETATM   28  C   UNK N   1      33.491  17.458   5.693  0.00  0.00     0.003 A 
HETATM   29  C   UNK N   1      34.016  17.310   6.971  0.00  0.00     0.017 A 
HETATM   30  C   UNK N   1      34.565  16.084   7.342  0.00  0.00     0.090 A 
ENDBRANCH  24  25
ENDBRANCH   2  24
TORSDOF 7
ENDMDL
MODEL 8
REMARK VINA RESULT:      -6.2      3.130      8.445
REMARK  7 active torsions:
REMARK  status: ('A' for Active; 'I' for Inactive)
REMARK    1  A    between atoms: C_13  and  C_9 
REMARK    2  A    between atoms: C_14  and  C_9 
REMARK    3  A    between atoms: C_12  and  C_10 
REMARK    4  A    between atoms: N_22  and  C_10 
REMARK    5  A    between atoms: C_14  and  O_24 
REMARK    6  A    between atoms: C_15  and  N_20 
REMARK    7  A    between atoms: C_19  and  C_16 
ROOT
HETATM    1  C   UNK N   1      34.764  12.209  10.663  0.00  0.00     0.113 C 
HETATM    2  C   UNK N   1      36.215  11.909  10.434  0.00  0.00    -0.024 C 
HETATM    3  C   UNK N   1      34.601  15.120   9.473  0.00  0.00     0.199 C 
HETATM    4  C   UNK N   1      36.947  12.784   9.685  0.00  0.00     0.101 C 
HETATM    5  C   UNK N   1      36.082  15.024   9.636  0.00  0.00     0.230 C 
HETATM    6  C   UNK N   1      34.872  13.817   8.596  0.00  0.00     0.164 C 
HETATM    7  N   UNK N   1      36.250  13.860   9.038  0.00  0.00    -0.195 NA
HETATM    8  O   UNK N   1      36.797  15.495  10.512  0.00  0.00    -0.277 OA
HETATM    9  S   UNK N   1      33.917  12.338   9.078  0.00  0.00    -0.141 SA
ENDROOT
BRANCH   3  10
HETATM   10  N   UNK N   1      33.999  16.220   8.755  0.00  0.00    -0.359 N 
HETATM   11  C   UNK N   1      32.734  16.467   8.891  0.00  0.00     0.116 C 
ATOM     12  HN  UNK N   1      34.570  16.802   8.142  1.00  0.00     0.162 HD
BRANCH  11  13
HETATM   13  C   UNK N   1      32.120  17.721   8.351  0.00  0.00     0.129 C 
BRANCH  13  14
HETATM   14  C   UNK N   1      30.633  17.812   8.334  0.00  0.00    -0.010 A 
HETATM   15  C   UNK N   1      29.891  18.497   9.290  0.00  0.00     0.015 A 
HETATM   16  C   UNK N   1      28.495  18.486   9.021  0.00  0.00     0.008 A 
HETATM   17  C   UNK N   1      28.144  17.798   7.850  0.00  0.00     0.050 A 
HETATM   18  S   UNK N   1      29.566  17.232   7.210  0.00  0.00    -0.106 SA
ENDBRANCH  13  14
ENDBRANCH  11  13
BRANCH  11  19
HETATM   19  O   UNK N   1      31.949  15.649   9.625  0.00  0.00    -0.349 OA
HETATM   20  H   UNK N   1      32.221  15.377  10.479  0.00  0.00     0.219 HD
ENDBRANCH  11  19
ENDBRANCH   3  10
BRANCH   4  21
HETATM   21  C   UNK N   1      38.424  12.666   9.513  0.00  0.00     0.222 C 
HETATM   22  O   UNK N   1      39.168  13.168  10.340  0.00  0.00    -0.643 OA
HETATM   23  O   UNK N   1      38.956  11.986   8.479  0.00  0.00    -0.643 OA
ENDBRANCH   4  21
BRANCH   2  24
HETATM   24  C   UNK N   1      36.763  10.674  11.111  0.00  0.00     0.164 C 
BRANCH  24  25
HETATM   25  N   UNK N   1      36.735  10.775  12.580  0.00  0.00    -0.362 N 
HETATM   26  C   UNK N   1      36.054   9.831  13.286  0.00  0.00     0.090 A 
HETATM   27  C   UNK N   1      36.020   9.875  14.685  0.00  0.00     0.017 A 
HETATM   28  C   UNK N   1      36.685  10.901  15.358  0.00  0.00     0.003 A 
HETATM   29  C   UNK N   1      37.385  11.857  14.630  0.00  0.00     0.017 A 
HETATM   30  C   UNK N   1      37.409  11.768  13.240  0.00  0.00     0.090 A 
ENDBRANCH  24  25
ENDBRANCH   2  24
TORSDOF 7
ENDMDL
MODEL 9
REMARK VINA RESULT:      -6.2      2.857      3.880
REMARK  7 active torsions:
REMARK  status: ('A' for Active; 'I' for Inactive)
REMARK    1  A    between atoms: C_13  and  C_9 
REMARK    2  A    between atoms: C_14  and  C_9 
REMARK    3  A    between atoms: C_12  and  C_10 
REMARK    4  A    between atoms: N_22  and  C_10 
REMARK    5  A    between atoms: C_14  and  O_24 
REMARK    6  A    between atoms: C_15  and  N_20 
REMARK    7  A    between atoms: C_19  and  C_16 
ROOT
HETATM    1  C   UNK N   1      32.189  17.196   7.457  0.00  0.00     0.113 C 
HETATM    2  C   UNK N   1      32.136  16.677   6.052  0.00  0.00    -0.024 C 
HETATM    3  C   UNK N   1      33.986  14.989   8.804  0.00  0.00     0.199 C 
HETATM    4  C   UNK N   1      32.943  15.626   5.719  0.00  0.00     0.101 C 
HETATM    5  C   UNK N   1      33.595  14.243   7.571  0.00  0.00     0.230 C 
HETATM    6  C   UNK N   1      34.515  16.014   7.704  0.00  0.00     0.164 C 
HETATM    7  N   UNK N   1      33.899  15.180   6.693  0.00  0.00    -0.195 NA
HETATM    8  O   UNK N   1      32.747  13.370   7.431  0.00  0.00    -0.277 OA
HETATM    9  S   UNK N   1      33.870  17.716   7.846  0.00  0.00    -0.141 SA
ENDROOT
BRANCH   3  10
HETATM   10  N   UNK N   1      35.002  14.478   9.695  0.00  0.00    -0.359 N 
HETATM   11  C   UNK N   1      34.736  14.307  10.951  0.00  0.00     0.116 C 
ATOM     12  HN  UNK N   1      35.929  14.251   9.334  1.00  0.00     0.162 HD
BRANCH  11  13
HETATM   13  C   UNK N   1      35.676  13.575  11.857  0.00  0.00     0.129 C 
BRANCH  13  14
HETATM   14  C   UNK N   1      35.083  12.703  12.911  0.00  0.00    -0.010 A 
HETATM   15  C   UNK N   1      34.513  11.461  12.655  0.00  0.00     0.015 A 
HETATM   16  C   UNK N   1      34.072  10.800  13.834  0.00  0.00     0.008 A 
HETATM   17  C   UNK N   1      34.302  11.523  15.014  0.00  0.00     0.050 A 
HETATM   18  S   UNK N   1      35.029  12.939  14.548  0.00  0.00    -0.106 SA
ENDBRANCH  13  14
ENDBRANCH  11  13
BRANCH  11  19
HETATM   19  O   UNK N   1      33.545  14.692  11.459  0.00  0.00    -0.349 OA
HETATM   20  H   UNK N   1      33.029  14.089  11.957  0.00  0.00     0.219 HD
ENDBRANCH  11  19
ENDBRANCH   3  10
BRANCH   4  21
HETATM   21  C   UNK N   1      32.871  14.935   4.400  0.00  0.00     0.222 C 
HETATM   22  O   UNK N   1      33.587  15.308   3.485  0.00  0.00    -0.643 OA
HETATM   23  O   UNK N   1      32.054  13.881   4.206  0.00  0.00    -0.643 OA
ENDBRANCH   4  21
BRANCH   2  24
HETATM   24  C   UNK N   1      31.139  17.334   5.127  0.00  0.00     0.164 C 
BRANCH  24  25
HETATM   25  N   UNK N   1      29.745  17.021   5.483  0.00  0.00    -0.362 N 
HETATM   26  C   UNK N   1      29.290  15.753   5.285  0.00  0.00     0.090 A 
HETATM   27  C   UNK N   1      27.978  15.405   5.630  0.00  0.00     0.017 A 
HETATM   28  C   UNK N   1      27.131  16.371   6.175  0.00  0.00     0.003 A 
HETATM   29  C   UNK N   1      27.605  17.662   6.382  0.00  0.00     0.017 A 
HETATM   30  C   UNK N   1      28.922  17.963   6.041  0.00  0.00     0.090 A 
ENDBRANCH  24  25
ENDBRANCH   2  24
TORSDOF 7
ENDMDL
