MODEL 1
REMARK VINA RESULT:      -7.4      0.000      0.000
REMARK  5 active torsions:
REMARK  status: ('A' for Active; 'I' for Inactive)
REMARK    1  A    between atoms: C_7  and  O_1 
REMARK    2  A    between atoms: O_3  and  C_26 
REMARK    3  A    between atoms: C_7  and  C_17 
REMARK    4  A    between atoms: C_17  and  C_25 
REMARK    5  A    between atoms: C_25  and  C_26 
ROOT
HETATM    1  O   UNK N   1      37.617   8.398  16.196  0.00  0.00    -0.293 OA
HETATM    2  C   UNK N   1      35.835  14.126  10.945  0.00  0.00    -0.009 C 
HETATM    3  C   UNK N   1      34.752  13.033  11.003  0.00  0.00     0.005 C 
HETATM    4  C   UNK N   1      35.411  15.007   9.716  0.00  0.00     0.066 C 
HETATM    5  C   UNK N   1      35.236  11.833  11.832  0.00  0.00     0.018 C 
HETATM    6  C   UNK N   1      35.860  12.309  13.204  0.00  0.00     0.006 C 
HETATM    7  C   UNK N   1      35.492  11.408  14.416  0.00  0.00    -0.012 C 
HETATM    8  C   UNK N   1      35.847  14.790  12.337  0.00  0.00     0.013 C 
HETATM    9  C   UNK N   1      34.345  12.841   9.568  0.00  0.00     0.009 C 
HETATM   10  C   UNK N   1      34.168  14.304   9.165  0.00  0.00     0.039 C 
HETATM   11  C   UNK N   1      35.398   9.959  13.943  0.00  0.00    -0.046 C 
HETATM   12  C   UNK N   1      35.611  13.812  13.517  0.00  0.00     0.007 C 
HETATM   13  C   UNK N   1      34.270  10.672  11.915  0.00  0.00    -0.021 C 
HETATM   14  C   UNK N   1      37.247  13.565  10.694  0.00  0.00     0.019 C 
HETATM   15  C   UNK N   1      34.492   9.693  12.807  0.00  0.00     0.004 C 
HETATM   16  C   UNK N   1      36.545  11.628  15.528  0.00  0.00     0.022 C 
HETATM   17  C   UNK N   1      36.035   8.953  14.562  0.00  0.00     0.058 C 
HETATM   18  C   UNK N   1      34.111  11.778  14.963  0.00  0.00     0.021 C 
HETATM   19  C   UNK N   1      36.812   9.217  15.784  0.00  0.00     0.149 C 
HETATM   20  C   UNK N   1      36.573  10.489  16.533  0.00  0.00     0.084 C 
ENDROOT
BRANCH   4  21
HETATM   21  O   UNK N   1      36.354  14.950   8.678  0.00  0.00    -0.389 OA
HETATM   22  H   UNK N   1      36.918  15.281   7.961  0.00  0.00     0.210 HD
ENDBRANCH   4  21
BRANCH   4  23
HETATM   23  C   UNK N   1      35.123  16.481  10.047  0.00  0.00     0.049 C 
BRANCH  23  24
HETATM   24  C   UNK N   1      34.101  17.128   9.098  0.00  0.00     0.113 C 
BRANCH  24  25
HETATM   25  C   UNK N   1      34.687  18.147   8.173  0.00  0.00     0.139 C 
HETATM   26  O   UNK N   1      34.511  18.047   6.969  0.00  0.00    -0.650 OA
BRANCH  25  27
HETATM   27  O   UNK N   1      35.378  19.191   8.665  0.00  0.00    -0.776 OA
HETATM   28  H   UNK N   1      35.831  19.442   9.446  0.00  0.00     0.167 HD
ENDBRANCH  25  27
ENDBRANCH  24  25
ENDBRANCH  23  24
ENDBRANCH   4  23
TORSDOF 5
ENDMDL
MODEL 2
REMARK VINA RESULT:      -7.3      2.818      8.511
REMARK  5 active torsions:
REMARK  status: ('A' for Active; 'I' for Inactive)
REMARK    1  A    between atoms: C_7  and  O_1 
REMARK    2  A    between atoms: O_3  and  C_26 
REMARK    3  A    between atoms: C_7  and  C_17 
REMARK    4  A    between atoms: C_17  and  C_25 
REMARK    5  A    between atoms: C_25  and  C_26 
ROOT
HETATM    1  O   UNK N   1      32.994  16.568   2.741  0.00  0.00    -0.293 OA
HETATM    2  C   UNK N   1      35.499  14.234   9.941  0.00  0.00    -0.009 C 
HETATM    3  C   UNK N   1      34.891  15.649   9.967  0.00  0.00     0.005 C 
HETATM    4  C   UNK N   1      36.123  14.069  11.373  0.00  0.00     0.066 C 
HETATM    5  C   UNK N   1      34.647  16.161   8.540  0.00  0.00     0.018 C 
HETATM    6  C   UNK N   1      33.907  15.070   7.666  0.00  0.00     0.006 C 
HETATM    7  C   UNK N   1      32.814  15.645   6.724  0.00  0.00    -0.012 C 
HETATM    8  C   UNK N   1      34.352  13.284   9.542  0.00  0.00     0.013 C 
HETATM    9  C   UNK N   1      35.787  16.417  10.900  0.00  0.00     0.009 C 
HETATM   10  C   UNK N   1      35.860  15.416  12.051  0.00  0.00     0.039 C 
HETATM   11  C   UNK N   1      33.262  17.019   6.229  0.00  0.00    -0.046 C 
HETATM   12  C   UNK N   1      33.371  13.866   8.493  0.00  0.00     0.007 C 
HETATM   13  C   UNK N   1      34.098  17.567   8.441  0.00  0.00    -0.021 C 
HETATM   14  C   UNK N   1      36.612  14.075   8.889  0.00  0.00     0.019 C 
HETATM   15  C   UNK N   1      33.624  18.008   7.264  0.00  0.00     0.004 C 
HETATM   16  C   UNK N   1      32.565  14.628   5.584  0.00  0.00     0.022 C 
HETATM   17  C   UNK N   1      33.258  17.357   4.930  0.00  0.00     0.058 C 
HETATM   18  C   UNK N   1      31.505  15.863   7.487  0.00  0.00     0.021 C 
HETATM   19  C   UNK N   1      32.750  16.408   3.925  0.00  0.00     0.149 C 
HETATM   20  C   UNK N   1      31.898  15.264   4.376  0.00  0.00     0.084 C 
ENDROOT
BRANCH   4  21
HETATM   21  O   UNK N   1      37.521  13.950  11.326  0.00  0.00    -0.389 OA
HETATM   22  H   UNK N   1      38.395  13.581  11.528  0.00  0.00     0.210 HD
ENDBRANCH   4  21
BRANCH   4  23
HETATM   23  C   UNK N   1      35.551  12.903  12.197  0.00  0.00     0.049 C 
BRANCH  23  24
HETATM   24  C   UNK N   1      35.304  13.265  13.670  0.00  0.00     0.113 C 
BRANCH  24  25
HETATM   25  C   UNK N   1      36.461  12.970  14.572  0.00  0.00     0.139 C 
HETATM   26  O   UNK N   1      36.351  13.138  15.776  0.00  0.00    -0.650 OA
BRANCH  25  27
HETATM   27  O   UNK N   1      37.610  12.488  14.065  0.00  0.00    -0.776 OA
HETATM   28  H   UNK N   1      37.948  12.151  13.258  0.00  0.00     0.167 HD
ENDBRANCH  25  27
ENDBRANCH  24  25
ENDBRANCH  23  24
ENDBRANCH   4  23
TORSDOF 5
ENDMDL
MODEL 3
REMARK VINA RESULT:      -7.3      3.226      5.805
REMARK  5 active torsions:
REMARK  status: ('A' for Active; 'I' for Inactive)
REMARK    1  A    between atoms: C_7  and  O_1 
REMARK    2  A    between atoms: O_3  and  C_26 
REMARK    3  A    between atoms: C_7  and  C_17 
REMARK    4  A    between atoms: C_17  and  C_25 
REMARK    5  A    between atoms: C_25  and  C_26 
ROOT
HETATM    1  O   UNK N   1      32.610   7.722  21.379  0.00  0.00    -0.293 OA
HETATM    2  C   UNK N   1      35.253  11.399  14.817  0.00  0.00    -0.009 C 
HETATM    3  C   UNK N   1      35.713  12.106  16.106  0.00  0.00     0.005 C 
HETATM    4  C   UNK N   1      35.674  12.391  13.676  0.00  0.00     0.066 C 
HETATM    5  C   UNK N   1      34.991  11.524  17.331  0.00  0.00     0.018 C 
HETATM    6  C   UNK N   1      35.037   9.944  17.316  0.00  0.00     0.006 C 
HETATM    7  C   UNK N   1      35.279   9.302  18.711  0.00  0.00    -0.012 C 
HETATM    8  C   UNK N   1      35.910  10.003  14.839  0.00  0.00     0.013 C 
HETATM    9  C   UNK N   1      35.591  13.570  15.785  0.00  0.00     0.009 C 
HETATM   10  C   UNK N   1      36.279  13.582  14.422  0.00  0.00     0.039 C 
HETATM   11  C   UNK N   1      34.592  10.156  19.774  0.00  0.00    -0.046 C 
HETATM   12  C   UNK N   1      35.998   9.356  16.244  0.00  0.00     0.007 C 
HETATM   13  C   UNK N   1      35.328  12.180  18.652  0.00  0.00    -0.021 C 
HETATM   14  C   UNK N   1      33.729  11.186  14.757  0.00  0.00     0.019 C 
HETATM   15  C   UNK N   1      34.944  11.591  19.796  0.00  0.00     0.004 C 
HETATM   16  C   UNK N   1      34.774   7.840  18.671  0.00  0.00     0.022 C 
HETATM   17  C   UNK N   1      33.770   9.639  20.698  0.00  0.00     0.058 C 
HETATM   18  C   UNK N   1      36.772   9.301  19.050  0.00  0.00     0.021 C 
HETATM   19  C   UNK N   1      33.550   8.183  20.754  0.00  0.00     0.149 C 
HETATM   20  C   UNK N   1      34.518   7.278  20.060  0.00  0.00     0.084 C 
ENDROOT
BRANCH   4  21
HETATM   21  O   UNK N   1      34.562  12.912  12.995  0.00  0.00    -0.389 OA
HETATM   22  H   UNK N   1      34.059  13.276  12.250  0.00  0.00     0.210 HD
ENDBRANCH   4  21
BRANCH   4  23
HETATM   23  C   UNK N   1      36.661  11.811  12.648  0.00  0.00     0.049 C 
BRANCH  23  24
HETATM   24  C   UNK N   1      36.490  12.405  11.240  0.00  0.00     0.113 C 
BRANCH  24  25
HETATM   25  C   UNK N   1      37.513  13.438  10.886  0.00  0.00     0.139 C 
HETATM   26  O   UNK N   1      38.638  13.093  10.563  0.00  0.00    -0.650 OA
BRANCH  25  27
HETATM   27  O   UNK N   1      37.187  14.743  10.889  0.00  0.00    -0.776 OA
HETATM   28  H   UNK N   1      37.025  15.439  10.283  0.00  0.00     0.167 HD
ENDBRANCH  25  27
ENDBRANCH  24  25
ENDBRANCH  23  24
ENDBRANCH   4  23
TORSDOF 5
ENDMDL
MODEL 4
REMARK VINA RESULT:      -7.2      4.629      9.587
REMARK  5 active torsions:
REMARK  status: ('A' for Active; 'I' for Inactive)
REMARK    1  A    between atoms: C_7  and  O_1 
REMARK    2  A    between atoms: O_3  and  C_26 
REMARK    3  A    between atoms: C_7  and  C_17 
REMARK    4  A    between atoms: C_17  and  C_25 
REMARK    5  A    between atoms: C_25  and  C_26 
ROOT
HETATM    1  O   UNK N   1      37.997  10.224  11.545  0.00  0.00    -0.293 OA
HETATM    2  C   UNK N   1      35.285  10.334  19.041  0.00  0.00    -0.009 C 
HETATM    3  C   UNK N   1      35.055  11.675  18.319  0.00  0.00     0.005 C 
HETATM    4  C   UNK N   1      34.900  10.641  20.532  0.00  0.00     0.066 C 
HETATM    5  C   UNK N   1      35.800  11.703  16.977  0.00  0.00     0.018 C 
HETATM    6  C   UNK N   1      35.531  10.381  16.152  0.00  0.00     0.006 C 
HETATM    7  C   UNK N   1      35.335  10.611  14.628  0.00  0.00    -0.012 C 
HETATM    8  C   UNK N   1      34.442   9.289  18.280  0.00  0.00     0.013 C 
HETATM    9  C   UNK N   1      35.351  12.712  19.367  0.00  0.00     0.009 C 
HETATM   10  C   UNK N   1      34.544  12.129  20.526  0.00  0.00     0.039 C 
HETATM   11  C   UNK N   1      36.234  11.762  14.183  0.00  0.00    -0.046 C 
HETATM   12  C   UNK N   1      34.399   9.495  16.744  0.00  0.00     0.007 C 
HETATM   13  C   UNK N   1      35.688  12.997  16.200  0.00  0.00    -0.021 C 
HETATM   14  C   UNK N   1      36.751   9.864  18.990  0.00  0.00     0.019 C 
HETATM   15  C   UNK N   1      36.092  13.035  14.921  0.00  0.00     0.004 C 
HETATM   16  C   UNK N   1      35.623   9.282  13.891  0.00  0.00     0.022 C 
HETATM   17  C   UNK N   1      37.060  11.671  13.130  0.00  0.00     0.058 C 
HETATM   18  C   UNK N   1      33.896  11.041  14.329  0.00  0.00     0.021 C 
HETATM   19  C   UNK N   1      37.077  10.445  12.314  0.00  0.00     0.149 C 
HETATM   20  C   UNK N   1      35.929   9.491  12.417  0.00  0.00     0.084 C 
ENDROOT
BRANCH   4  21
HETATM   21  O   UNK N   1      36.004  10.533  21.393  0.00  0.00    -0.389 OA
HETATM   22  H   UNK N   1      36.699  10.092  21.906  0.00  0.00     0.210 HD
ENDBRANCH   4  21
BRANCH   4  23
HETATM   23  C   UNK N   1      33.748   9.789  21.091  0.00  0.00     0.049 C 
BRANCH  23  24
HETATM   24  C   UNK N   1      32.816  10.570  22.031  0.00  0.00     0.113 C 
BRANCH  24  25
HETATM   25  C   UNK N   1      33.085  10.341  23.484  0.00  0.00     0.139 C 
HETATM   26  O   UNK N   1      32.155  10.293  24.274  0.00  0.00    -0.650 OA
BRANCH  25  27
HETATM   27  O   UNK N   1      34.344  10.155  23.919  0.00  0.00    -0.776 OA
HETATM   28  H   UNK N   1      34.976  10.568  24.474  0.00  0.00     0.167 HD
ENDBRANCH  25  27
ENDBRANCH  24  25
ENDBRANCH  23  24
ENDBRANCH   4  23
TORSDOF 5
ENDMDL
MODEL 5
REMARK VINA RESULT:      -7.2      6.899     10.646
REMARK  5 active torsions:
REMARK  status: ('A' for Active; 'I' for Inactive)
REMARK    1  A    between atoms: C_7  and  O_1 
REMARK    2  A    between atoms: O_3  and  C_26 
REMARK    3  A    between atoms: C_7  and  C_17 
REMARK    4  A    between atoms: C_17  and  C_25 
REMARK    5  A    between atoms: C_25  and  C_26 
ROOT
HETATM    1  O   UNK N   1      24.045  13.433   5.234  0.00  0.00    -0.293 OA
HETATM    2  C   UNK N   1      31.437  16.353   5.851  0.00  0.00    -0.009 C 
HETATM    3  C   UNK N   1      30.707  16.877   4.601  0.00  0.00     0.005 C 
HETATM    4  C   UNK N   1      32.913  16.854   5.660  0.00  0.00     0.066 C 
HETATM    5  C   UNK N   1      29.393  16.114   4.380  0.00  0.00     0.018 C 
HETATM    6  C   UNK N   1      28.560  16.024   5.721  0.00  0.00     0.006 C 
HETATM    7  C   UNK N   1      27.029  16.216   5.532  0.00  0.00    -0.012 C 
HETATM    8  C   UNK N   1      30.647  16.888   7.063  0.00  0.00     0.013 C 
HETATM    9  C   UNK N   1      31.765  16.880   3.531  0.00  0.00     0.009 C 
HETATM   10  C   UNK N   1      32.894  17.561   4.303  0.00  0.00     0.039 C 
HETATM   11  C   UNK N   1      26.616  15.610   4.193  0.00  0.00    -0.046 C 
HETATM   12  C   UNK N   1      29.111  16.926   6.861  0.00  0.00     0.007 C 
HETATM   13  C   UNK N   1      28.612  16.511   3.146  0.00  0.00    -0.021 C 
HETATM   14  C   UNK N   1      31.439  14.816   5.949  0.00  0.00     0.019 C 
HETATM   15  C   UNK N   1      27.348  16.084   3.000  0.00  0.00     0.004 C 
HETATM   16  C   UNK N   1      26.303  15.587   6.746  0.00  0.00     0.022 C 
HETATM   17  C   UNK N   1      25.594  14.749   4.072  0.00  0.00     0.058 C 
HETATM   18  C   UNK N   1      26.678  17.705   5.463  0.00  0.00     0.021 C 
HETATM   19  C   UNK N   1      24.780  14.406   5.250  0.00  0.00     0.149 C 
HETATM   20  C   UNK N   1      24.841  15.290   6.455  0.00  0.00     0.084 C 
ENDROOT
BRANCH   4  21
HETATM   21  O   UNK N   1      33.814  15.788   5.503  0.00  0.00    -0.389 OA
HETATM   22  H   UNK N   1      34.421  15.190   5.039  0.00  0.00     0.210 HD
ENDBRANCH   4  21
BRANCH   4  23
HETATM   23  C   UNK N   1      33.430  17.783   6.771  0.00  0.00     0.049 C 
BRANCH  23  24
HETATM   24  C   UNK N   1      34.185  17.037   7.884  0.00  0.00     0.113 C 
BRANCH  24  25
HETATM   25  C   UNK N   1      34.932  17.933   8.820  0.00  0.00     0.139 C 
HETATM   26  O   UNK N   1      35.305  17.507   9.901  0.00  0.00    -0.650 OA
BRANCH  25  27
HETATM   27  O   UNK N   1      35.225  19.195   8.460  0.00  0.00    -0.776 OA
HETATM   28  H   UNK N   1      35.792  19.897   8.715  0.00  0.00     0.167 HD
ENDBRANCH  25  27
ENDBRANCH  24  25
ENDBRANCH  23  24
ENDBRANCH   4  23
TORSDOF 5
ENDMDL
MODEL 6
REMARK VINA RESULT:      -7.2      6.528     10.204
REMARK  5 active torsions:
REMARK  status: ('A' for Active; 'I' for Inactive)
REMARK    1  A    between atoms: C_7  and  O_1 
REMARK    2  A    between atoms: O_3  and  C_26 
REMARK    3  A    between atoms: C_7  and  C_17 
REMARK    4  A    between atoms: C_17  and  C_25 
REMARK    5  A    between atoms: C_25  and  C_26 
ROOT
HETATM    1  O   UNK N   1      34.586  12.900   7.351  0.00  0.00    -0.293 OA
HETATM    2  C   UNK N   1      28.482  17.664   5.450  0.00  0.00    -0.009 C 
HETATM    3  C   UNK N   1      29.347  18.251   6.580  0.00  0.00     0.005 C 
HETATM    4  C   UNK N   1      27.239  18.623   5.395  0.00  0.00     0.066 C 
HETATM    5  C   UNK N   1      30.357  17.209   7.086  0.00  0.00     0.018 C 
HETATM    6  C   UNK N   1      31.111  16.520   5.880  0.00  0.00     0.006 C 
HETATM    7  C   UNK N   1      32.626  16.279   6.132  0.00  0.00    -0.012 C 
HETATM    8  C   UNK N   1      29.393  17.594   4.207  0.00  0.00     0.013 C 
HETATM    9  C   UNK N   1      28.351  18.857   7.530  0.00  0.00     0.009 C 
HETATM   10  C   UNK N   1      27.489  19.622   6.527  0.00  0.00     0.039 C 
HETATM   11  C   UNK N   1      32.835  15.951   7.608  0.00  0.00    -0.046 C 
HETATM   12  C   UNK N   1      30.865  17.214   4.510  0.00  0.00     0.007 C 
HETATM   13  C   UNK N   1      31.230  17.660   8.237  0.00  0.00    -0.021 C 
HETATM   14  C   UNK N   1      27.996  16.232   5.742  0.00  0.00     0.019 C 
HETATM   15  C   UNK N   1      32.297  16.922   8.583  0.00  0.00     0.004 C 
HETATM   16  C   UNK N   1      33.110  15.163   5.175  0.00  0.00     0.022 C 
HETATM   17  C   UNK N   1      33.536  14.884   8.020  0.00  0.00     0.058 C 
HETATM   18  C   UNK N   1      33.427  17.553   5.851  0.00  0.00     0.021 C 
HETATM   19  C   UNK N   1      34.194  14.011   7.033  0.00  0.00     0.149 C 
HETATM   20  C   UNK N   1      34.406  14.522   5.643  0.00  0.00     0.084 C 
ENDROOT
BRANCH   4  21
HETATM   21  O   UNK N   1      26.051  17.963   5.746  0.00  0.00    -0.389 OA
HETATM   22  H   UNK N   1      25.491  17.254   6.100  0.00  0.00     0.210 HD
ENDBRANCH   4  21
BRANCH   4  23
HETATM   23  C   UNK N   1      27.034  19.338   4.049  0.00  0.00     0.049 C 
BRANCH  23  24
HETATM   24  C   UNK N   1      25.662  19.056   3.415  0.00  0.00     0.113 C 
BRANCH  24  25
HETATM   25  C   UNK N   1      24.956  20.279   2.920  0.00  0.00     0.139 C 
HETATM   26  O   UNK N   1      25.457  20.953   2.035  0.00  0.00    -0.650 OA
BRANCH  25  27
HETATM   27  O   UNK N   1      23.756  20.619   3.423  0.00  0.00    -0.776 OA
HETATM   28  H   UNK N   1      22.926  20.944   3.132  0.00  0.00     0.167 HD
ENDBRANCH  25  27
ENDBRANCH  24  25
ENDBRANCH  23  24
ENDBRANCH   4  23
TORSDOF 5
ENDMDL
MODEL 7
REMARK VINA RESULT:      -7.1      6.710     10.628
REMARK  5 active torsions:
REMARK  status: ('A' for Active; 'I' for Inactive)
REMARK    1  A    between atoms: C_7  and  O_1 
REMARK    2  A    between atoms: O_3  and  C_26 
REMARK    3  A    between atoms: C_7  and  C_17 
REMARK    4  A    between atoms: C_17  and  C_25 
REMARK    5  A    between atoms: C_25  and  C_26 
ROOT
HETATM    1  O   UNK N   1      26.595  21.526   6.202  0.00  0.00    -0.293 OA
HETATM    2  C   UNK N   1      32.446  16.139   5.650  0.00  0.00    -0.009 C 
HETATM    3  C   UNK N   1      31.780  16.134   7.038  0.00  0.00     0.005 C 
HETATM    4  C   UNK N   1      33.689  15.195   5.828  0.00  0.00     0.066 C 
HETATM    5  C   UNK N   1      30.836  17.335   7.191  0.00  0.00     0.018 C 
HETATM    6  C   UNK N   1      29.888  17.474   5.933  0.00  0.00     0.006 C 
HETATM    7  C   UNK N   1      28.425  17.866   6.279  0.00  0.00    -0.012 C 
HETATM    8  C   UNK N   1      31.353  15.710   4.650  0.00  0.00     0.013 C 
HETATM    9  C   UNK N   1      32.925  15.949   7.995  0.00  0.00     0.009 C 
HETATM   10  C   UNK N   1      33.641  14.791   7.303  0.00  0.00     0.039 C 
HETATM   11  C   UNK N   1      28.438  18.806   7.483  0.00  0.00    -0.046 C 
HETATM   12  C   UNK N   1      29.937  16.249   4.976  0.00  0.00     0.007 C 
HETATM   13  C   UNK N   1      30.161  17.462   8.540  0.00  0.00    -0.021 C 
HETATM   14  C   UNK N   1      32.936  17.534   5.220  0.00  0.00     0.019 C 
HETATM   15  C   UNK N   1      29.143  18.324   8.689  0.00  0.00     0.004 C 
HETATM   16  C   UNK N   1      27.772  18.485   5.020  0.00  0.00     0.022 C 
HETATM   17  C   UNK N   1      27.783  19.977   7.495  0.00  0.00     0.058 C 
HETATM   18  C   UNK N   1      27.621  16.632   6.698  0.00  0.00     0.021 C 
HETATM   19  C   UNK N   1      26.960  20.370   6.339  0.00  0.00     0.149 C 
HETATM   20  C   UNK N   1      26.549  19.322   5.354  0.00  0.00     0.084 C 
ENDROOT
BRANCH   4  21
HETATM   21  O   UNK N   1      34.901  15.888   5.678  0.00  0.00    -0.389 OA
HETATM   22  H   UNK N   1      35.804  16.054   5.366  0.00  0.00     0.210 HD
ENDBRANCH   4  21
BRANCH   4  23
HETATM   23  C   UNK N   1      33.702  13.963   4.907  0.00  0.00     0.049 C 
BRANCH  23  24
HETATM   24  C   UNK N   1      34.689  14.091   3.736  0.00  0.00     0.113 C 
BRANCH  24  25
HETATM   25  C   UNK N   1      34.058  14.527   2.452  0.00  0.00     0.139 C 
HETATM   26  O   UNK N   1      33.816  15.709   2.263  0.00  0.00    -0.650 OA
BRANCH  25  27
HETATM   27  O   UNK N   1      33.787  13.627   1.489  0.00  0.00    -0.776 OA
HETATM   28  H   UNK N   1      33.231  12.888   1.340  0.00  0.00     0.167 HD
ENDBRANCH  25  27
ENDBRANCH  24  25
ENDBRANCH  23  24
ENDBRANCH   4  23
TORSDOF 5
ENDMDL
MODEL 8
REMARK VINA RESULT:      -7.1     18.347     21.364
REMARK  5 active torsions:
REMARK  status: ('A' for Active; 'I' for Inactive)
REMARK    1  A    between atoms: C_7  and  O_1 
REMARK    2  A    between atoms: O_3  and  C_26 
REMARK    3  A    between atoms: C_7  and  C_17 
REMARK    4  A    between atoms: C_17  and  C_25 
REMARK    5  A    between atoms: C_25  and  C_26 
ROOT
HETATM    1  O   UNK N   1      35.119  20.822  -5.419  0.00  0.00    -0.293 OA
HETATM    2  C   UNK N   1      28.095  24.584  -5.682  0.00  0.00    -0.009 C 
HETATM    3  C   UNK N   1      27.977  23.103  -6.086  0.00  0.00     0.005 C 
HETATM    4  C   UNK N   1      26.681  25.177  -6.019  0.00  0.00     0.066 C 
HETATM    5  C   UNK N   1      29.368  22.476  -6.262  0.00  0.00     0.018 C 
HETATM    6  C   UNK N   1      30.303  22.820  -5.034  0.00  0.00     0.006 C 
HETATM    7  C   UNK N   1      31.201  21.640  -4.569  0.00  0.00    -0.012 C 
HETATM    8  C   UNK N   1      28.546  24.590  -4.207  0.00  0.00     0.013 C 
HETATM    9  C   UNK N   1      27.004  23.111  -7.232  0.00  0.00     0.009 C 
HETATM   10  C   UNK N   1      25.918  23.999  -6.628  0.00  0.00     0.039 C 
HETATM   11  C   UNK N   1      31.612  20.821  -5.790  0.00  0.00    -0.046 C 
HETATM   12  C   UNK N   1      29.550  23.469  -3.838  0.00  0.00     0.007 C 
HETATM   13  C   UNK N   1      29.376  21.031  -6.710  0.00  0.00    -0.021 C 
HETATM   14  C   UNK N   1      29.162  25.347  -6.489  0.00  0.00     0.019 C 
HETATM   15  C   UNK N   1      30.519  20.330  -6.654  0.00  0.00     0.004 C 
HETATM   16  C   UNK N   1      32.400  22.219  -3.780  0.00  0.00     0.022 C 
HETATM   17  C   UNK N   1      32.887  20.487  -6.042  0.00  0.00     0.058 C 
HETATM   18  C   UNK N   1      30.417  20.695  -3.654  0.00  0.00     0.021 C 
HETATM   19  C   UNK N   1      33.946  20.857  -5.088  0.00  0.00     0.149 C 
HETATM   20  C   UNK N   1      33.562  21.242  -3.695  0.00  0.00     0.084 C 
ENDROOT
BRANCH   4  21
HETATM   21  O   UNK N   1      26.743  26.139  -7.040  0.00  0.00    -0.389 OA
HETATM   22  H   UNK N   1      26.413  26.731  -7.734  0.00  0.00     0.210 HD
ENDBRANCH   4  21
BRANCH   4  23
HETATM   23  C   UNK N   1      25.928  25.775  -4.818  0.00  0.00     0.049 C 
BRANCH  23  24
HETATM   24  C   UNK N   1      25.606  27.268  -4.985  0.00  0.00     0.113 C 
BRANCH  24  25
HETATM   25  C   UNK N   1      25.763  28.070  -3.732  0.00  0.00     0.139 C 
HETATM   26  O   UNK N   1      25.894  27.502  -2.659  0.00  0.00    -0.650 OA
BRANCH  25  27
HETATM   27  O   UNK N   1      25.795  29.414  -3.787  0.00  0.00    -0.776 OA
HETATM   28  H   UNK N   1      26.093  30.098  -4.354  0.00  0.00     0.167 HD
ENDBRANCH  25  27
ENDBRANCH  24  25
ENDBRANCH  23  24
ENDBRANCH   4  23
TORSDOF 5
ENDMDL
MODEL 9
REMARK VINA RESULT:      -7.1     10.880     14.854
REMARK  5 active torsions:
REMARK  status: ('A' for Active; 'I' for Inactive)
REMARK    1  A    between atoms: C_7  and  O_1 
REMARK    2  A    between atoms: O_3  and  C_26 
REMARK    3  A    between atoms: C_7  and  C_17 
REMARK    4  A    between atoms: C_17  and  C_25 
REMARK    5  A    between atoms: C_25  and  C_26 
ROOT
HETATM    1  O   UNK N   1      19.726  15.116   1.765  0.00  0.00    -0.293 OA
HETATM    2  C   UNK N   1      26.601  17.798   4.783  0.00  0.00    -0.009 C 
HETATM    3  C   UNK N   1      25.508  18.883   4.772  0.00  0.00     0.005 C 
HETATM    4  C   UNK N   1      27.901  18.581   5.187  0.00  0.00     0.066 C 
HETATM    5  C   UNK N   1      24.286  18.413   3.968  0.00  0.00     0.018 C 
HETATM    6  C   UNK N   1      23.855  16.954   4.395  0.00  0.00     0.006 C 
HETATM    7  C   UNK N   1      22.317  16.746   4.481  0.00  0.00    -0.012 C 
HETATM    8  C   UNK N   1      26.099  16.695   5.737  0.00  0.00     0.013 C 
HETATM    9  C   UNK N   1      26.237  20.136   4.372  0.00  0.00     0.009 C 
HETATM   10  C   UNK N   1      27.437  20.034   5.313  0.00  0.00     0.039 C 
HETATM   11  C   UNK N   1      21.643  17.585   3.398  0.00  0.00    -0.046 C 
HETATM   12  C   UNK N   1      24.572  16.439   5.675  0.00  0.00     0.007 C 
HETATM   13  C   UNK N   1      23.165  19.422   3.845  0.00  0.00    -0.021 C 
HETATM   14  C   UNK N   1      26.819  17.146   3.405  0.00  0.00     0.019 C 
HETATM   15  C   UNK N   1      21.970  19.025   3.380  0.00  0.00     0.004 C 
HETATM   16  C   UNK N   1      22.020  15.231   4.364  0.00  0.00     0.022 C 
HETATM   17  C   UNK N   1      20.740  17.077   2.546  0.00  0.00     0.058 C 
HETATM   18  C   UNK N   1      21.779  17.252   5.822  0.00  0.00     0.021 C 
HETATM   19  C   UNK N   1      20.314  15.673   2.677  0.00  0.00     0.149 C 
HETATM   20  C   UNK N   1      20.582  14.953   3.960  0.00  0.00     0.084 C 
ENDROOT
BRANCH   4  21
HETATM   21  O   UNK N   1      28.852  18.590   4.154  0.00  0.00    -0.389 OA
HETATM   22  H   UNK N   1      29.200  18.725   3.259  0.00  0.00     0.210 HD
ENDBRANCH   4  21
BRANCH   4  23
HETATM   23  C   UNK N   1      28.574  18.092   6.480  0.00  0.00     0.049 C 
BRANCH  23  24
HETATM   24  C   UNK N   1      28.277  18.986   7.695  0.00  0.00     0.113 C 
BRANCH  24  25
HETATM   25  C   UNK N   1      28.395  18.284   9.011  0.00  0.00     0.139 C 
HETATM   26  O   UNK N   1      29.321  18.550   9.761  0.00  0.00    -0.650 OA
BRANCH  25  27
HETATM   27  O   UNK N   1      27.466  17.387   9.386  0.00  0.00    -0.776 OA
HETATM   28  H   UNK N   1      26.539  17.329   9.512  0.00  0.00     0.167 HD
ENDBRANCH  25  27
ENDBRANCH  24  25
ENDBRANCH  23  24
ENDBRANCH   4  23
TORSDOF 5
ENDMDL
