REMARK  2 active torsions:
REMARK  status: ('A' for Active; 'I' for Inactive)
REMARK    1  A    between atoms: N_4  and  C_10 
REMARK       I    between atoms: N_5  and  C_13 
REMARK    2  A    between atoms: C_10  and  C_13 
ROOT
HETATM    1  O   UNK N   1      -0.730   1.284  -0.000  0.00  0.00    -0.261 OA
HETATM    2  O   UNK N   1       1.473   1.387  -0.002  0.00  0.00    -0.238 OA
HETATM    3  N   UNK N   1       0.591  -0.703  -0.000  0.00  0.00    -0.315 N 
HETATM    4  C   UNK N   1      -1.893  -0.786   0.001  0.00  0.00    -0.006 A 
HETATM    5  C   UNK N   1      -1.895   0.608   0.000  0.00  0.00     0.088 A 
HETATM    6  C   UNK N   1       0.488   0.677  -0.001  0.00  0.00     0.368 A 
HETATM    7  C   UNK N   1      -0.605  -1.529   0.001  0.00  0.00     0.170 A 
HETATM    8  C   UNK N   1      -3.096  -1.494   0.001  0.00  0.00     0.011 A 
HETATM    9  C   UNK N   1      -3.111   1.300  -0.000  0.00  0.00     0.038 A 
HETATM   10  C   UNK N   1      -4.311  -0.805   0.000  0.00  0.00     0.001 A 
HETATM   11  C   UNK N   1      -4.319   0.593  -0.000  0.00  0.00     0.003 A 
ENDROOT
BRANCH   3  12
HETATM   12  C   UNK N   1       1.821  -1.501  -0.001  0.00  0.00     0.231 C 
BRANCH  12  13
HETATM   13  C   UNK N   1       3.248  -0.998   0.000  0.00  0.00     0.233 C 
HETATM   14  O   UNK N   1       3.543   0.180   0.004  0.00  0.00    -0.272 OA
HETATM   15  N   UNK N   1       4.234  -1.915  -0.001  0.00  0.00    -0.369 N 
HETATM   16  H   UNK N   1       4.014  -2.874  -0.002  0.00  0.00     0.159 HD
HETATM   17  H   UNK N   1       5.175  -1.625  -0.001  0.00  0.00     0.159 HD
ENDBRANCH  12  13
ENDBRANCH   3  12
TORSDOF 2
