MODEL 1
REMARK VINA RESULT:      -5.9      0.000      0.000
REMARK  5 active torsions:
REMARK  status: ('A' for Active; 'I' for Inactive)
REMARK    1  A    between atoms: C_5  and  O_7 
REMARK    2  A    between atoms: O_7  and  C_8 
REMARK    3  A    between atoms: C_8  and  C_9 
REMARK       I    between atoms: C_9  and  N_10 
REMARK    4  A    between atoms: N_10  and  N_11 
REMARK    5  A    between atoms: N_11  and  C_12 
ROOT
HETATM    1  C   UNK N   1      33.448  18.105   7.396  0.00  0.00     0.280 C 
ENDROOT
BRANCH   1   2
HETATM    2  O   UNK N   1      34.155  17.896   6.231  0.00  0.00    -0.342 OA
BRANCH   2   3
HETATM    3  C   UNK N   1      33.878  16.961   5.300  0.00  0.00     0.069 A 
HETATM    4  C   UNK N   1      34.465  15.700   5.439  0.00  0.00     0.038 A 
HETATM    5  C   UNK N   1      34.213  14.697   4.505  0.00  0.00     0.026 A 
HETATM    6  C   UNK N   1      33.370  14.949   3.422  0.00  0.00     0.034 A 
HETATM    7  C   UNK N   1      32.774  16.206   3.275  0.00  0.00     0.026 A 
HETATM    8 Cl   UNK N   1      33.067  13.686   2.250  0.00  0.00    -0.084 Cl
HETATM    9  C   UNK N   1      33.026  17.214   4.213  0.00  0.00     0.038 A 
ENDBRANCH   2   3
ENDBRANCH   1   2
BRANCH   1  10
HETATM   10  C   UNK N   1      34.423  18.168   8.532  0.00  0.00     0.260 C 
HETATM   11  N   UNK N   1      34.344  17.256   9.529  0.00  0.00    -0.272 N 
HETATM   12  H   UNK N   1      33.655  16.555   9.478  0.00  0.00     0.189 HD
HETATM   13  O   UNK N   1      35.265  19.055   8.565  0.00  0.00    -0.269 OA
BRANCH  11  14
HETATM   14  N   UNK N   1      35.200  17.273  10.621  0.00  0.00    -0.330 N 
HETATM   15  H   UNK N   1      35.666  18.094  11.008  0.00  0.00     0.180 HD
BRANCH  14  16
HETATM   16  C   UNK N   1      35.316  15.905  11.115  0.00  0.00     0.091 C 
HETATM   17  C   UNK N   1      34.106  15.114  10.670  0.00  0.00     0.033 C 
HETATM   18  C   UNK N   1      36.562  15.229  10.558  0.00  0.00     0.033 C 
ENDBRANCH  14  16
ENDBRANCH  11  14
ENDBRANCH   1  10
TORSDOF 5
ENDMDL
MODEL 2
REMARK VINA RESULT:      -5.8      5.101      8.399
REMARK  5 active torsions:
REMARK  status: ('A' for Active; 'I' for Inactive)
REMARK    1  A    between atoms: C_5  and  O_7 
REMARK    2  A    between atoms: O_7  and  C_8 
REMARK    3  A    between atoms: C_8  and  C_9 
REMARK       I    between atoms: C_9  and  N_10 
REMARK    4  A    between atoms: N_10  and  N_11 
REMARK    5  A    between atoms: N_11  and  C_12 
ROOT
HETATM    1  C   UNK N   1      34.814  15.020  11.439  0.00  0.00     0.280 C 
ENDROOT
BRANCH   1   2
HETATM    2  O   UNK N   1      35.874  14.480  12.134  0.00  0.00    -0.342 OA
BRANCH   2   3
HETATM    3  C   UNK N   1      35.807  13.908  13.352  0.00  0.00     0.069 A 
HETATM    4  C   UNK N   1      34.936  12.829  13.525  0.00  0.00     0.038 A 
HETATM    5  C   UNK N   1      34.827  12.200  14.764  0.00  0.00     0.026 A 
HETATM    6  C   UNK N   1      35.593  12.648  15.842  0.00  0.00     0.034 A 
HETATM    7  C   UNK N   1      36.471  13.725  15.680  0.00  0.00     0.026 A 
HETATM    8 Cl   UNK N   1      35.442  11.858  17.395  0.00  0.00    -0.084 Cl
HETATM    9  C   UNK N   1      36.581  14.357  14.435  0.00  0.00     0.038 A 
ENDBRANCH   2   3
ENDBRANCH   1   2
BRANCH   1  10
HETATM   10  C   UNK N   1      35.311  16.203  10.666  0.00  0.00     0.260 C 
HETATM   11  N   UNK N   1      34.444  16.919   9.912  0.00  0.00    -0.272 N 
HETATM   12  H   UNK N   1      33.495  16.656   9.901  0.00  0.00     0.189 HD
HETATM   13  O   UNK N   1      36.497  16.500  10.701  0.00  0.00    -0.269 OA
BRANCH  11  14
HETATM   14  N   UNK N   1      34.843  18.011   9.155  0.00  0.00    -0.330 N 
HETATM   15  H   UNK N   1      35.600  18.657   9.383  0.00  0.00     0.180 HD
BRANCH  14  16
HETATM   16  C   UNK N   1      33.987  18.071   7.975  0.00  0.00     0.091 C 
HETATM   17  C   UNK N   1      34.320  16.910   7.064  0.00  0.00     0.033 C 
HETATM   18  C   UNK N   1      32.518  17.971   8.363  0.00  0.00     0.033 C 
ENDBRANCH  14  16
ENDBRANCH  11  14
ENDBRANCH   1  10
TORSDOF 5
ENDMDL
MODEL 3
REMARK VINA RESULT:      -5.5      5.825      8.973
REMARK  5 active torsions:
REMARK  status: ('A' for Active; 'I' for Inactive)
REMARK    1  A    between atoms: C_5  and  O_7 
REMARK    2  A    between atoms: O_7  and  C_8 
REMARK    3  A    between atoms: C_8  and  C_9 
REMARK       I    between atoms: C_9  and  N_10 
REMARK    4  A    between atoms: N_10  and  N_11 
REMARK    5  A    between atoms: N_11  and  C_12 
ROOT
HETATM    1  C   UNK N   1      34.905  13.777  12.082  0.00  0.00     0.280 C 
ENDROOT
BRANCH   1   2
HETATM    2  O   UNK N   1      35.198  13.837  13.428  0.00  0.00    -0.342 OA
BRANCH   2   3
HETATM    3  C   UNK N   1      35.040  12.834  14.313  0.00  0.00     0.069 A 
HETATM    4  C   UNK N   1      35.613  12.978  15.580  0.00  0.00     0.038 A 
HETATM    5  C   UNK N   1      35.480  11.971  16.534  0.00  0.00     0.026 A 
HETATM    6  C   UNK N   1      34.771  10.809  16.227  0.00  0.00     0.034 A 
HETATM    7  C   UNK N   1      34.190  10.655  14.963  0.00  0.00     0.026 A 
HETATM    8 Cl   UNK N   1      34.617   9.547  17.428  0.00  0.00    -0.084 Cl
HETATM    9  C   UNK N   1      34.323  11.667  14.004  0.00  0.00     0.038 A 
ENDBRANCH   2   3
ENDBRANCH   1   2
BRANCH   1  10
HETATM   10  C   UNK N   1      35.250  15.099  11.466  0.00  0.00     0.260 C 
HETATM   11  N   UNK N   1      34.285  15.816  10.844  0.00  0.00    -0.272 N 
HETATM   12  H   UNK N   1      33.368  15.460  10.824  0.00  0.00     0.189 HD
HETATM   13  O   UNK N   1      36.402  15.510  11.508  0.00  0.00    -0.269 OA
BRANCH  11  14
HETATM   14  N   UNK N   1      34.542  17.035  10.234  0.00  0.00    -0.330 N 
HETATM   15  H   UNK N   1      34.881  17.880  10.696  0.00  0.00     0.180 HD
BRANCH  14  16
HETATM   16  C   UNK N   1      34.241  16.893   8.814  0.00  0.00     0.091 C 
HETATM   17  C   UNK N   1      32.809  16.430   8.656  0.00  0.00     0.033 C 
HETATM   18  C   UNK N   1      34.398  18.223   8.089  0.00  0.00     0.033 C 
ENDBRANCH  14  16
ENDBRANCH  11  14
ENDBRANCH   1  10
TORSDOF 5
ENDMDL
MODEL 4
REMARK VINA RESULT:      -5.4      5.746      6.662
REMARK  5 active torsions:
REMARK  status: ('A' for Active; 'I' for Inactive)
REMARK    1  A    between atoms: C_5  and  O_7 
REMARK    2  A    between atoms: O_7  and  C_8 
REMARK    3  A    between atoms: C_8  and  C_9 
REMARK       I    between atoms: C_9  and  N_10 
REMARK    4  A    between atoms: N_10  and  N_11 
REMARK    5  A    between atoms: N_11  and  C_12 
ROOT
HETATM    1  C   UNK N   1      28.236  18.693   8.333  0.00  0.00     0.280 C 
ENDROOT
BRANCH   1   2
HETATM    2  O   UNK N   1      28.538  19.545   7.293  0.00  0.00    -0.342 OA
BRANCH   2   3
HETATM    3  C   UNK N   1      27.799  19.719   6.178  0.00  0.00     0.069 A 
HETATM    4  C   UNK N   1      26.695  20.573   6.248  0.00  0.00     0.038 A 
HETATM    5  C   UNK N   1      25.897  20.788   5.125  0.00  0.00     0.026 A 
HETATM    6  C   UNK N   1      26.199  20.149   3.922  0.00  0.00     0.034 A 
HETATM    7  C   UNK N   1      27.304  19.294   3.841  0.00  0.00     0.026 A 
HETATM    8 Cl   UNK N   1      25.186  20.418   2.522  0.00  0.00    -0.084 Cl
HETATM    9  C   UNK N   1      28.107  19.077   4.967  0.00  0.00     0.038 A 
ENDBRANCH   2   3
ENDBRANCH   1   2
BRANCH   1  10
HETATM   10  C   UNK N   1      29.500  18.406   9.086  0.00  0.00     0.260 C 
HETATM   11  N   UNK N   1      30.523  17.782   8.457  0.00  0.00    -0.272 N 
HETATM   12  H   UNK N   1      30.422  17.544   7.507  0.00  0.00     0.189 HD
HETATM   13  O   UNK N   1      29.590  18.714  10.267  0.00  0.00    -0.269 OA
BRANCH  11  14
HETATM   14  N   UNK N   1      31.710  17.467   9.102  0.00  0.00    -0.330 N 
HETATM   15  H   UNK N   1      31.857  17.436  10.112  0.00  0.00     0.180 HD
BRANCH  14  16
HETATM   16  C   UNK N   1      32.712  17.188   8.079  0.00  0.00     0.091 C 
HETATM   17  C   UNK N   1      32.034  17.128   6.728  0.00  0.00     0.033 C 
HETATM   18  C   UNK N   1      33.767  18.285   8.038  0.00  0.00     0.033 C 
ENDBRANCH  14  16
ENDBRANCH  11  14
ENDBRANCH   1  10
TORSDOF 5
ENDMDL
MODEL 5
REMARK VINA RESULT:      -5.4      7.135     10.461
REMARK  5 active torsions:
REMARK  status: ('A' for Active; 'I' for Inactive)
REMARK    1  A    between atoms: C_5  and  O_7 
REMARK    2  A    between atoms: O_7  and  C_8 
REMARK    3  A    between atoms: C_8  and  C_9 
REMARK       I    between atoms: C_9  and  N_10 
REMARK    4  A    between atoms: N_10  and  N_11 
REMARK    5  A    between atoms: N_11  and  C_12 
ROOT
HETATM    1  C   UNK N   1      35.383  12.710  13.576  0.00  0.00     0.280 C 
ENDROOT
BRANCH   1   2
HETATM    2  O   UNK N   1      34.916  13.310  14.725  0.00  0.00    -0.342 OA
BRANCH   2   3
HETATM    3  C   UNK N   1      35.044  12.822  15.975  0.00  0.00     0.069 A 
HETATM    4  C   UNK N   1      35.211  11.443  16.129  0.00  0.00     0.038 A 
HETATM    5  C   UNK N   1      35.349  10.886  17.399  0.00  0.00     0.026 A 
HETATM    6  C   UNK N   1      35.321  11.706  18.527  0.00  0.00     0.034 A 
HETATM    7  C   UNK N   1      35.159  13.089  18.385  0.00  0.00     0.026 A 
HETATM    8 Cl   UNK N   1      35.486  10.996  20.117  0.00  0.00    -0.084 Cl
HETATM    9  C   UNK N   1      35.021  13.650  17.110  0.00  0.00     0.038 A 
ENDBRANCH   2   3
ENDBRANCH   1   2
BRANCH   1  10
HETATM   10  C   UNK N   1      35.495  13.758  12.511  0.00  0.00     0.260 C 
HETATM   11  N   UNK N   1      36.713  14.066  12.005  0.00  0.00    -0.272 N 
HETATM   12  H   UNK N   1      37.502  13.579  12.337  0.00  0.00     0.189 HD
HETATM   13  O   UNK N   1      34.494  14.344  12.123  0.00  0.00    -0.269 OA
BRANCH  11  14
HETATM   14  N   UNK N   1      36.889  15.042  11.035  0.00  0.00    -0.330 N 
HETATM   15  H   UNK N   1      36.618  16.023  11.111  0.00  0.00     0.180 HD
BRANCH  14  16
HETATM   16  C   UNK N   1      37.529  14.414   9.884  0.00  0.00     0.091 C 
HETATM   17  C   UNK N   1      38.402  13.275  10.365  0.00  0.00     0.033 C 
HETATM   18  C   UNK N   1      36.491  13.850   8.924  0.00  0.00     0.033 C 
ENDBRANCH  14  16
ENDBRANCH  11  14
ENDBRANCH   1  10
TORSDOF 5
ENDMDL
MODEL 6
REMARK VINA RESULT:      -5.4      2.432      3.582
REMARK  5 active torsions:
REMARK  status: ('A' for Active; 'I' for Inactive)
REMARK    1  A    between atoms: C_5  and  O_7 
REMARK    2  A    between atoms: O_7  and  C_8 
REMARK    3  A    between atoms: C_8  and  C_9 
REMARK       I    between atoms: C_9  and  N_10 
REMARK    4  A    between atoms: N_10  and  N_11 
REMARK    5  A    between atoms: N_11  and  C_12 
ROOT
HETATM    1  C   UNK N   1      34.401  17.756   8.090  0.00  0.00     0.280 C 
ENDROOT
BRANCH   1   2
HETATM    2  O   UNK N   1      34.199  18.073   6.764  0.00  0.00    -0.342 OA
BRANCH   2   3
HETATM    3  C   UNK N   1      33.873  17.203   5.787  0.00  0.00     0.069 A 
HETATM    4  C   UNK N   1      34.531  15.970   5.759  0.00  0.00     0.038 A 
HETATM    5  C   UNK N   1      34.233  15.033   4.771  0.00  0.00     0.026 A 
HETATM    6  C   UNK N   1      33.271  15.324   3.802  0.00  0.00     0.034 A 
HETATM    7  C   UNK N   1      32.604  16.554   3.823  0.00  0.00     0.026 A 
HETATM    8 Cl   UNK N   1      32.911  14.145   2.561  0.00  0.00    -0.084 Cl
HETATM    9  C   UNK N   1      32.903  17.496   4.815  0.00  0.00     0.038 A 
ENDBRANCH   2   3
ENDBRANCH   1   2
BRANCH   1  10
HETATM   10  C   UNK N   1      33.117  17.217   8.645  0.00  0.00     0.260 C 
HETATM   11  N   UNK N   1      32.038  18.029   8.737  0.00  0.00    -0.272 N 
HETATM   12  H   UNK N   1      32.114  18.957   8.419  0.00  0.00     0.189 HD
HETATM   13  O   UNK N   1      33.059  16.058   9.033  0.00  0.00    -0.269 OA
BRANCH  11  14
HETATM   14  N   UNK N   1      30.828  17.599   9.262  0.00  0.00    -0.330 N 
HETATM   15  H   UNK N   1      30.705  16.981  10.066  0.00  0.00     0.180 HD
BRANCH  14  16
HETATM   16  C   UNK N   1      29.762  18.187   8.459  0.00  0.00     0.091 C 
HETATM   17  C   UNK N   1      29.691  17.469   7.129  0.00  0.00     0.033 C 
HETATM   18  C   UNK N   1      28.414  18.043   9.154  0.00  0.00     0.033 C 
ENDBRANCH  14  16
ENDBRANCH  11  14
ENDBRANCH   1  10
TORSDOF 5
ENDMDL
MODEL 7
REMARK VINA RESULT:      -5.3      4.874      8.093
REMARK  5 active torsions:
REMARK  status: ('A' for Active; 'I' for Inactive)
REMARK    1  A    between atoms: C_5  and  O_7 
REMARK    2  A    between atoms: O_7  and  C_8 
REMARK    3  A    between atoms: C_8  and  C_9 
REMARK       I    between atoms: C_9  and  N_10 
REMARK    4  A    between atoms: N_10  and  N_11 
REMARK    5  A    between atoms: N_11  and  C_12 
ROOT
HETATM    1  C   UNK N   1      35.960  15.166  11.114  0.00  0.00     0.280 C 
ENDROOT
BRANCH   1   2
HETATM    2  O   UNK N   1      35.209  14.810  12.214  0.00  0.00    -0.342 OA
BRANCH   2   3
HETATM    3  C   UNK N   1      35.525  13.849  13.105  0.00  0.00     0.069 A 
HETATM    4  C   UNK N   1      36.423  14.169  14.127  0.00  0.00     0.038 A 
HETATM    5  C   UNK N   1      36.784  13.212  15.074  0.00  0.00     0.026 A 
HETATM    6  C   UNK N   1      36.247  11.926  15.006  0.00  0.00     0.034 A 
HETATM    7  C   UNK N   1      35.344  11.596  13.989  0.00  0.00     0.026 A 
HETATM    8 Cl   UNK N   1      36.713  10.731  16.195  0.00  0.00    -0.084 Cl
HETATM    9  C   UNK N   1      34.981  12.556  13.037  0.00  0.00     0.038 A 
ENDBRANCH   2   3
ENDBRANCH   1   2
BRANCH   1  10
HETATM   10  C   UNK N   1      35.361  16.403  10.517  0.00  0.00     0.260 C 
HETATM   11  N   UNK N   1      34.139  16.339   9.937  0.00  0.00    -0.272 N 
HETATM   12  H   UNK N   1      33.659  15.480   9.937  0.00  0.00     0.189 HD
HETATM   13  O   UNK N   1      35.987  17.454  10.534  0.00  0.00    -0.269 OA
BRANCH  11  14
HETATM   14  N   UNK N   1      33.539  17.441   9.346  0.00  0.00    -0.330 N 
HETATM   15  H   UNK N   1      33.563  18.400   9.696  0.00  0.00     0.180 HD
BRANCH  14  16
HETATM   16  C   UNK N   1      32.865  16.983   8.136  0.00  0.00     0.091 C 
HETATM   17  C   UNK N   1      31.454  17.529   8.120  0.00  0.00     0.033 C 
HETATM   18  C   UNK N   1      33.586  17.480   6.891  0.00  0.00     0.033 C 
ENDBRANCH  14  16
ENDBRANCH  11  14
ENDBRANCH   1  10
TORSDOF 5
ENDMDL
MODEL 8
REMARK VINA RESULT:      -5.3      3.619      4.917
REMARK  5 active torsions:
REMARK  status: ('A' for Active; 'I' for Inactive)
REMARK    1  A    between atoms: C_5  and  O_7 
REMARK    2  A    between atoms: O_7  and  C_8 
REMARK    3  A    between atoms: C_8  and  C_9 
REMARK       I    between atoms: C_9  and  N_10 
REMARK    4  A    between atoms: N_10  and  N_11 
REMARK    5  A    between atoms: N_11  and  C_12 
ROOT
HETATM    1  C   UNK N   1      35.411  16.292  11.416  0.00  0.00     0.280 C 
ENDROOT
BRANCH   1   2
HETATM    2  O   UNK N   1      35.417  16.319  10.037  0.00  0.00    -0.342 OA
BRANCH   2   3
HETATM    3  C   UNK N   1      34.354  16.577   9.251  0.00  0.00     0.069 A 
HETATM    4  C   UNK N   1      33.333  15.625   9.193  0.00  0.00     0.038 A 
HETATM    5  C   UNK N   1      32.210  15.841   8.395  0.00  0.00     0.026 A 
HETATM    6  C   UNK N   1      32.101  17.015   7.649  0.00  0.00     0.034 A 
HETATM    7  C   UNK N   1      33.116  17.977   7.702  0.00  0.00     0.026 A 
HETATM    8 Cl   UNK N   1      30.692  17.272   6.644  0.00  0.00    -0.084 Cl
HETATM    9  C   UNK N   1      34.243  17.761   8.503  0.00  0.00     0.038 A 
ENDBRANCH   2   3
ENDBRANCH   1   2
BRANCH   1  10
HETATM   10  C   UNK N   1      35.941  14.963  11.861  0.00  0.00     0.260 C 
HETATM   11  N   UNK N   1      36.490  14.843  13.094  0.00  0.00    -0.272 N 
HETATM   12  H   UNK N   1      36.512  15.633  13.681  0.00  0.00     0.189 HD
HETATM   13  O   UNK N   1      35.898  14.003  11.104  0.00  0.00    -0.269 OA
BRANCH  11  14
HETATM   14  N   UNK N   1      37.019  13.649  13.559  0.00  0.00    -0.330 N 
HETATM   15  H   UNK N   1      37.458  12.923  12.990  0.00  0.00     0.180 HD
BRANCH  14  16
HETATM   16  C   UNK N   1      36.834  13.614  15.005  0.00  0.00     0.091 C 
HETATM   17  C   UNK N   1      37.134  14.984  15.574  0.00  0.00     0.033 C 
HETATM   18  C   UNK N   1      35.399  13.250  15.362  0.00  0.00     0.033 C 
ENDBRANCH  14  16
ENDBRANCH  11  14
ENDBRANCH   1  10
TORSDOF 5
ENDMDL
MODEL 9
REMARK VINA RESULT:      -5.2     13.078     13.758
REMARK  5 active torsions:
REMARK  status: ('A' for Active; 'I' for Inactive)
REMARK    1  A    between atoms: C_5  and  O_7 
REMARK    2  A    between atoms: O_7  and  C_8 
REMARK    3  A    between atoms: C_8  and  C_9 
REMARK       I    between atoms: C_9  and  N_10 
REMARK    4  A    between atoms: N_10  and  N_11 
REMARK    5  A    between atoms: N_11  and  C_12 
ROOT
HETATM    1  C   UNK N   1      20.738  15.481   8.868  0.00  0.00     0.280 C 
ENDROOT
BRANCH   1   2
HETATM    2  O   UNK N   1      19.808  15.510   7.852  0.00  0.00    -0.342 OA
BRANCH   2   3
HETATM    3  C   UNK N   1      19.977  16.087   6.646  0.00  0.00     0.069 A 
HETATM    4  C   UNK N   1      21.018  17.008   6.498  0.00  0.00     0.038 A 
HETATM    5  C   UNK N   1      21.238  17.635   5.273  0.00  0.00     0.026 A 
HETATM    6  C   UNK N   1      20.416  17.343   4.183  0.00  0.00     0.034 A 
HETATM    7  C   UNK N   1      19.373  16.419   4.319  0.00  0.00     0.026 A 
HETATM    8 Cl   UNK N   1      20.695  18.141   2.652  0.00  0.00    -0.084 Cl
HETATM    9  C   UNK N   1      19.152  15.789   5.549  0.00  0.00     0.038 A 
ENDBRANCH   2   3
ENDBRANCH   1   2
BRANCH   1  10
HETATM   10  C   UNK N   1      20.522  14.233   9.669  0.00  0.00     0.260 C 
HETATM   11  N   UNK N   1      21.590  13.492  10.048  0.00  0.00    -0.272 N 
HETATM   12  H   UNK N   1      22.492  13.799   9.803  0.00  0.00     0.189 HD
HETATM   13  O   UNK N   1      19.386  13.880   9.954  0.00  0.00    -0.269 OA
BRANCH  11  14
HETATM   14  N   UNK N   1      21.458  12.315  10.770  0.00  0.00    -0.330 N 
HETATM   15  H   UNK N   1      20.580  11.883  11.063  0.00  0.00     0.180 HD
BRANCH  14  16
HETATM   16  C   UNK N   1      22.798  11.805  11.039  0.00  0.00     0.091 C 
HETATM   17  C   UNK N   1      23.803  12.624  10.258  0.00  0.00     0.033 C 
HETATM   18  C   UNK N   1      23.136  11.916  12.519  0.00  0.00     0.033 C 
ENDBRANCH  14  16
ENDBRANCH  11  14
ENDBRANCH   1  10
TORSDOF 5
ENDMDL
