MODEL 1
REMARK VINA RESULT:      -5.1      0.000      0.000
REMARK  5 active torsions:
REMARK  status: ('A' for Active; 'I' for Inactive)
REMARK    1  A    between atoms: O_1  and  C_5 
REMARK    2  A    between atoms: O_1  and  C_7 
REMARK    3  A    between atoms: N_2  and  N_3 
REMARK    4  A    between atoms: N_2  and  C_4 
REMARK    5  A    between atoms: C_4  and  C_5 
ROOT
HETATM    1  C   UNK N   1      21.731  19.871   3.255  0.00  0.00     0.196 C 
ENDROOT
BRANCH   1   2
HETATM    2  O   UNK N   1      22.895  20.569   3.020  0.00  0.00    -0.350 OA
BRANCH   2   3
HETATM    3  C   UNK N   1      24.110  20.072   3.358  0.00  0.00     0.068 A 
HETATM    4  C   UNK N   1      24.235  18.871   4.081  0.00  0.00     0.037 A 
HETATM    5  C   UNK N   1      25.496  18.376   4.418  0.00  0.00     0.003 A 
HETATM    6  C   UNK N   1      26.643  19.078   4.040  0.00  0.00     0.000 A 
HETATM    7  C   UNK N   1      26.528  20.272   3.320  0.00  0.00     0.003 A 
HETATM    8  C   UNK N   1      25.264  20.766   2.979  0.00  0.00     0.037 A 
ENDBRANCH   2   3
ENDBRANCH   1   2
BRANCH   1   9
HETATM    9  C   UNK N   1      20.807  19.942   2.053  0.00  0.00     0.091 C 
HETATM   10  C   UNK N   1      20.341  18.534   1.717  0.00  0.00     0.029 C 
BRANCH   9  11
HETATM   11  N   UNK N   1      21.535  20.551   0.934  0.00  0.00    -0.257 NA
HETATM   12  H   UNK N   1      21.995  21.421   1.291  0.00  0.00     0.140 HD
BRANCH  11  13
HETATM   13  N   UNK N   1      20.649  20.950  -0.088  0.00  0.00    -0.270 NA
HETATM   14  H   UNK N   1      20.952  20.568  -1.015  0.00  0.00     0.137 HD
HETATM   15  H   UNK N   1      20.604  21.993  -0.111  0.00  0.00     0.137 HD
ENDBRANCH  11  13
ENDBRANCH   9  11
ENDBRANCH   1   9
TORSDOF 5
ENDMDL
MODEL 2
REMARK VINA RESULT:      -5.0      9.319     11.477
REMARK  5 active torsions:
REMARK  status: ('A' for Active; 'I' for Inactive)
REMARK    1  A    between atoms: O_1  and  C_5 
REMARK    2  A    between atoms: O_1  and  C_7 
REMARK    3  A    between atoms: N_2  and  N_3 
REMARK    4  A    between atoms: N_2  and  C_4 
REMARK    5  A    between atoms: C_4  and  C_5 
ROOT
HETATM    1  C   UNK N   1      32.977  16.582   8.125  0.00  0.00     0.196 C 
ENDROOT
BRANCH   1   2
HETATM    2  O   UNK N   1      32.256  17.611   8.689  0.00  0.00    -0.350 OA
BRANCH   2   3
HETATM    3  C   UNK N   1      30.943  17.803   8.410  0.00  0.00     0.068 A 
HETATM    4  C   UNK N   1      30.095  18.482   9.306  0.00  0.00     0.037 A 
HETATM    5  C   UNK N   1      28.747  18.669   8.999  0.00  0.00     0.003 A 
HETATM    6  C   UNK N   1      28.231  18.177   7.797  0.00  0.00     0.000 A 
HETATM    7  C   UNK N   1      29.067  17.502   6.902  0.00  0.00     0.003 A 
HETATM    8  C   UNK N   1      30.420  17.318   7.207  0.00  0.00     0.037 A 
ENDBRANCH   2   3
ENDBRANCH   1   2
BRANCH   1   9
HETATM    9  C   UNK N   1      34.465  16.882   8.163  0.00  0.00     0.091 C 
HETATM   10  C   UNK N   1      34.925  16.870   9.613  0.00  0.00     0.029 C 
BRANCH   9  11
HETATM   11  N   UNK N   1      34.698  18.188   7.534  0.00  0.00    -0.257 NA
HETATM   12  H   UNK N   1      35.486  18.076   6.853  0.00  0.00     0.140 HD
BRANCH  11  13
HETATM   13  N   UNK N   1      35.116  19.140   8.487  0.00  0.00    -0.270 NA
HETATM   14  H   UNK N   1      34.680  18.950   9.420  0.00  0.00     0.137 HD
HETATM   15  H   UNK N   1      34.865  20.095   8.145  0.00  0.00     0.137 HD
ENDBRANCH  11  13
ENDBRANCH   9  11
ENDBRANCH   1   9
TORSDOF 5
ENDMDL
MODEL 3
REMARK VINA RESULT:      -5.0      9.786     10.649
REMARK  5 active torsions:
REMARK  status: ('A' for Active; 'I' for Inactive)
REMARK    1  A    between atoms: O_1  and  C_5 
REMARK    2  A    between atoms: O_1  and  C_7 
REMARK    3  A    between atoms: N_2  and  N_3 
REMARK    4  A    between atoms: N_2  and  C_4 
REMARK    5  A    between atoms: C_4  and  C_5 
ROOT
HETATM    1  C   UNK N   1      26.054  23.376  -6.012  0.00  0.00     0.196 C 
ENDROOT
BRANCH   1   2
HETATM    2  O   UNK N   1      25.311  24.530  -6.120  0.00  0.00    -0.350 OA
BRANCH   2   3
HETATM    3  C   UNK N   1      25.505  25.588  -5.294  0.00  0.00     0.068 A 
HETATM    4  C   UNK N   1      26.241  25.461  -4.101  0.00  0.00     0.037 A 
HETATM    5  C   UNK N   1      26.430  26.562  -3.265  0.00  0.00     0.003 A 
HETATM    6  C   UNK N   1      25.881  27.800  -3.611  0.00  0.00     0.000 A 
HETATM    7  C   UNK N   1      25.149  27.935  -4.795  0.00  0.00     0.003 A 
HETATM    8  C   UNK N   1      24.963  26.832  -5.635  0.00  0.00     0.037 A 
ENDBRANCH   2   3
ENDBRANCH   1   2
BRANCH   1   9
HETATM    9  C   UNK N   1      25.790  22.452  -7.187  0.00  0.00     0.091 C 
HETATM   10  C   UNK N   1      25.750  23.286  -8.459  0.00  0.00     0.029 C 
BRANCH   9  11
HETATM   11  N   UNK N   1      24.520  21.753  -6.961  0.00  0.00    -0.257 NA
HETATM   12  H   UNK N   1      24.722  20.726  -6.942  0.00  0.00     0.140 HD
BRANCH  11  13
HETATM   13  N   UNK N   1      23.625  21.972  -8.029  0.00  0.00    -0.270 NA
HETATM   14  H   UNK N   1      23.932  22.785  -8.612  0.00  0.00     0.137 HD
HETATM   15  H   UNK N   1      22.668  22.130  -7.642  0.00  0.00     0.137 HD
ENDBRANCH  11  13
ENDBRANCH   9  11
ENDBRANCH   1   9
TORSDOF 5
ENDMDL
MODEL 4
REMARK VINA RESULT:      -5.0     18.064     19.934
REMARK  5 active torsions:
REMARK  status: ('A' for Active; 'I' for Inactive)
REMARK    1  A    between atoms: O_1  and  C_5 
REMARK    2  A    between atoms: O_1  and  C_7 
REMARK    3  A    between atoms: N_2  and  N_3 
REMARK    4  A    between atoms: N_2  and  C_4 
REMARK    5  A    between atoms: C_4  and  C_5 
ROOT
HETATM    1  C   UNK N   1      36.096  12.777  14.680  0.00  0.00     0.196 C 
ENDROOT
BRANCH   1   2
HETATM    2  O   UNK N   1      35.046  12.871  15.566  0.00  0.00    -0.350 OA
BRANCH   2   3
HETATM    3  C   UNK N   1      35.163  12.485  16.860  0.00  0.00     0.068 A 
HETATM    4  C   UNK N   1      35.376  11.137  17.206  0.00  0.00     0.037 A 
HETATM    5  C   UNK N   1      35.494  10.760  18.545  0.00  0.00     0.003 A 
HETATM    6  C   UNK N   1      35.396  11.725  19.551  0.00  0.00     0.000 A 
HETATM    7  C   UNK N   1      35.184  13.067  19.215  0.00  0.00     0.003 A 
HETATM    8  C   UNK N   1      35.070  13.445  17.873  0.00  0.00     0.037 A 
ENDBRANCH   2   3
ENDBRANCH   1   2
BRANCH   1   9
HETATM    9  C   UNK N   1      36.079  13.933  13.696  0.00  0.00     0.091 C 
HETATM   10  C   UNK N   1      36.653  13.451  12.372  0.00  0.00     0.029 C 
BRANCH   9  11
HETATM   11  N   UNK N   1      36.866  15.039  14.254  0.00  0.00    -0.257 NA
HETATM   12  H   UNK N   1      37.610  15.281  13.559  0.00  0.00     0.140 HD
BRANCH  11  13
HETATM   13  N   UNK N   1      37.526  14.643  15.436  0.00  0.00    -0.270 NA
HETATM   14  H   UNK N   1      37.854  15.477  15.977  0.00  0.00     0.137 HD
HETATM   15  H   UNK N   1      38.328  14.022  15.184  0.00  0.00     0.137 HD
ENDBRANCH  11  13
ENDBRANCH   9  11
ENDBRANCH   1   9
TORSDOF 5
ENDMDL
MODEL 5
REMARK VINA RESULT:      -5.0      8.328      9.274
REMARK  5 active torsions:
REMARK  status: ('A' for Active; 'I' for Inactive)
REMARK    1  A    between atoms: O_1  and  C_5 
REMARK    2  A    between atoms: O_1  and  C_7 
REMARK    3  A    between atoms: N_2  and  N_3 
REMARK    4  A    between atoms: N_2  and  C_4 
REMARK    5  A    between atoms: C_4  and  C_5 
ROOT
HETATM    1  C   UNK N   1      29.008  17.522   7.506  0.00  0.00     0.196 C 
ENDROOT
BRANCH   1   2
HETATM    2  O   UNK N   1      30.294  17.040   7.621  0.00  0.00    -0.350 OA
BRANCH   2   3
HETATM    3  C   UNK N   1      31.207  17.192   6.631  0.00  0.00     0.068 A 
HETATM    4  C   UNK N   1      32.583  17.295   6.912  0.00  0.00     0.037 A 
HETATM    5  C   UNK N   1      33.507  17.450   5.877  0.00  0.00     0.003 A 
HETATM    6  C   UNK N   1      33.065  17.508   4.553  0.00  0.00     0.000 A 
HETATM    7  C   UNK N   1      31.700  17.406   4.265  0.00  0.00     0.003 A 
HETATM    8  C   UNK N   1      30.774  17.246   5.301  0.00  0.00     0.037 A 
ENDBRANCH   2   3
ENDBRANCH   1   2
BRANCH   1   9
HETATM    9  C   UNK N   1      28.749  18.617   8.525  0.00  0.00     0.091 C 
HETATM   10  C   UNK N   1      29.950  18.709   9.454  0.00  0.00     0.029 C 
BRANCH   9  11
HETATM   11  N   UNK N   1      27.521  18.293   9.262  0.00  0.00    -0.257 NA
HETATM   12  H   UNK N   1      27.597  18.730  10.211  0.00  0.00     0.140 HD
BRANCH  11  13
HETATM   13  N   UNK N   1      27.404  16.902   9.463  0.00  0.00    -0.270 NA
HETATM   14  H   UNK N   1      28.329  16.427   9.334  0.00  0.00     0.137 HD
HETATM   15  H   UNK N   1      26.694  16.522   8.798  0.00  0.00     0.137 HD
ENDBRANCH  11  13
ENDBRANCH   9  11
ENDBRANCH   1   9
TORSDOF 5
ENDMDL
MODEL 6
REMARK VINA RESULT:      -4.9     17.208     19.065
REMARK  5 active torsions:
REMARK  status: ('A' for Active; 'I' for Inactive)
REMARK    1  A    between atoms: O_1  and  C_5 
REMARK    2  A    between atoms: O_1  and  C_7 
REMARK    3  A    between atoms: N_2  and  N_3 
REMARK    4  A    between atoms: N_2  and  C_4 
REMARK    5  A    between atoms: C_4  and  C_5 
ROOT
HETATM    1  C   UNK N   1      35.065  12.531  13.743  0.00  0.00     0.196 C 
ENDROOT
BRANCH   1   2
HETATM    2  O   UNK N   1      34.509  13.059  14.887  0.00  0.00    -0.350 OA
BRANCH   2   3
HETATM    3  C   UNK N   1      34.798  12.569  16.117  0.00  0.00     0.068 A 
HETATM    4  C   UNK N   1      34.912  13.416  17.236  0.00  0.00     0.037 A 
HETATM    5  C   UNK N   1      35.209  12.890  18.494  0.00  0.00     0.003 A 
HETATM    6  C   UNK N   1      35.400  11.514  18.646  0.00  0.00     0.000 A 
HETATM    7  C   UNK N   1      35.288  10.666  17.540  0.00  0.00     0.003 A 
HETATM    8  C   UNK N   1      34.985  11.192  16.279  0.00  0.00     0.037 A 
ENDBRANCH   2   3
ENDBRANCH   1   2
BRANCH   1   9
HETATM    9  C   UNK N   1      35.397  13.627  12.747  0.00  0.00     0.091 C 
HETATM   10  C   UNK N   1      35.227  13.072  11.341  0.00  0.00     0.029 C 
BRANCH   9  11
HETATM   11  N   UNK N   1      36.772  14.080  12.985  0.00  0.00    -0.257 NA
HETATM   12  H   UNK N   1      37.366  13.229  13.127  0.00  0.00     0.140 HD
BRANCH  11  13
HETATM   13  N   UNK N   1      36.857  14.837  14.172  0.00  0.00    -0.270 NA
HETATM   14  H   UNK N   1      36.255  14.423  14.922  0.00  0.00     0.137 HD
HETATM   15  H   UNK N   1      36.573  15.821  13.967  0.00  0.00     0.137 HD
ENDBRANCH  11  13
ENDBRANCH   9  11
ENDBRANCH   1   9
TORSDOF 5
ENDMDL
MODEL 7
REMARK VINA RESULT:      -4.8      7.313      9.053
REMARK  5 active torsions:
REMARK  status: ('A' for Active; 'I' for Inactive)
REMARK    1  A    between atoms: O_1  and  C_5 
REMARK    2  A    between atoms: O_1  and  C_7 
REMARK    3  A    between atoms: N_2  and  N_3 
REMARK    4  A    between atoms: N_2  and  C_4 
REMARK    5  A    between atoms: C_4  and  C_5 
ROOT
HETATM    1  C   UNK N   1      28.997  17.266   6.273  0.00  0.00     0.196 C 
ENDROOT
BRANCH   1   2
HETATM    2  O   UNK N   1      29.892  16.839   7.229  0.00  0.00    -0.350 OA
BRANCH   2   3
HETATM    3  C   UNK N   1      31.202  17.181   7.188  0.00  0.00     0.068 A 
HETATM    4  C   UNK N   1      31.961  17.039   6.011  0.00  0.00     0.037 A 
HETATM    5  C   UNK N   1      33.310  17.398   5.991  0.00  0.00     0.003 A 
HETATM    6  C   UNK N   1      33.914  17.899   7.147  0.00  0.00     0.000 A 
HETATM    7  C   UNK N   1      33.167  18.044   8.321  0.00  0.00     0.003 A 
HETATM    8  C   UNK N   1      31.814  17.688   8.340  0.00  0.00     0.037 A 
ENDBRANCH   2   3
ENDBRANCH   1   2
BRANCH   1   9
HETATM    9  C   UNK N   1      27.772  17.888   6.919  0.00  0.00     0.091 C 
HETATM   10  C   UNK N   1      28.049  19.365   7.159  0.00  0.00     0.029 C 
BRANCH   9  11
HETATM   11  N   UNK N   1      27.491  17.181   8.174  0.00  0.00    -0.257 NA
HETATM   12  H   UNK N   1      26.489  16.882   8.151  0.00  0.00     0.140 HD
BRANCH  11  13
HETATM   13  N   UNK N   1      27.634  18.043   9.282  0.00  0.00    -0.270 NA
HETATM   14  H   UNK N   1      28.631  18.080   9.599  0.00  0.00     0.137 HD
HETATM   15  H   UNK N   1      27.009  17.712  10.051  0.00  0.00     0.137 HD
ENDBRANCH  11  13
ENDBRANCH   9  11
ENDBRANCH   1   9
TORSDOF 5
ENDMDL
MODEL 8
REMARK VINA RESULT:      -4.7     18.188     19.405
REMARK  5 active torsions:
REMARK  status: ('A' for Active; 'I' for Inactive)
REMARK    1  A    between atoms: O_1  and  C_5 
REMARK    2  A    between atoms: O_1  and  C_7 
REMARK    3  A    between atoms: N_2  and  N_3 
REMARK    4  A    between atoms: N_2  and  C_4 
REMARK    5  A    between atoms: C_4  and  C_5 
ROOT
HETATM    1  C   UNK N   1      42.048  22.639   2.358  0.00  0.00     0.196 C 
ENDROOT
BRANCH   1   2
HETATM    2  O   UNK N   1      41.755  23.895   1.876  0.00  0.00    -0.350 OA
BRANCH   2   3
HETATM    3  C   UNK N   1      40.908  24.084   0.835  0.00  0.00     0.068 A 
HETATM    4  C   UNK N   1      40.449  25.368   0.487  0.00  0.00     0.037 A 
HETATM    5  C   UNK N   1      39.576  25.541  -0.589  0.00  0.00     0.003 A 
HETATM    6  C   UNK N   1      39.151  24.431  -1.325  0.00  0.00     0.000 A 
HETATM    7  C   UNK N   1      39.603  23.152  -0.986  0.00  0.00     0.003 A 
HETATM    8  C   UNK N   1      40.481  22.979   0.090  0.00  0.00     0.037 A 
ENDBRANCH   2   3
ENDBRANCH   1   2
BRANCH   1   9
HETATM    9  C   UNK N   1      43.421  22.615   3.005  0.00  0.00     0.091 C 
HETATM   10  C   UNK N   1      43.473  21.456   3.989  0.00  0.00     0.029 C 
BRANCH   9  11
HETATM   11  N   UNK N   1      43.648  23.901   3.675  0.00  0.00    -0.257 NA
HETATM   12  H   UNK N   1      42.766  24.459   3.599  0.00  0.00     0.140 HD
BRANCH  11  13
HETATM   13  N   UNK N   1      44.656  24.641   3.022  0.00  0.00    -0.270 NA
HETATM   14  H   UNK N   1      44.244  25.268   2.291  0.00  0.00     0.137 HD
HETATM   15  H   UNK N   1      45.344  23.978   2.600  0.00  0.00     0.137 HD
ENDBRANCH  11  13
ENDBRANCH   9  11
ENDBRANCH   1   9
TORSDOF 5
ENDMDL
MODEL 9
REMARK VINA RESULT:      -4.7     10.891     12.508
REMARK  5 active torsions:
REMARK  status: ('A' for Active; 'I' for Inactive)
REMARK    1  A    between atoms: O_1  and  C_5 
REMARK    2  A    between atoms: O_1  and  C_7 
REMARK    3  A    between atoms: N_2  and  N_3 
REMARK    4  A    between atoms: N_2  and  C_4 
REMARK    5  A    between atoms: C_4  and  C_5 
ROOT
HETATM    1  C   UNK N   1      34.439  15.816   7.704  0.00  0.00     0.196 C 
ENDROOT
BRANCH   1   2
HETATM    2  O   UNK N   1      34.873  16.377   6.523  0.00  0.00    -0.350 OA
BRANCH   2   3
HETATM    3  C   UNK N   1      34.075  16.451   5.429  0.00  0.00     0.068 A 
HETATM    4  C   UNK N   1      34.062  15.429   4.461  0.00  0.00     0.037 A 
HETATM    5  C   UNK N   1      33.233  15.525   3.342  0.00  0.00     0.003 A 
HETATM    6  C   UNK N   1      32.413  16.645   3.177  0.00  0.00     0.000 A 
HETATM    7  C   UNK N   1      32.421  17.665   4.134  0.00  0.00     0.003 A 
HETATM    8  C   UNK N   1      33.248  17.566   5.259  0.00  0.00     0.037 A 
ENDBRANCH   2   3
ENDBRANCH   1   2
BRANCH   1   9
HETATM    9  C   UNK N   1      34.879  16.652   8.892  0.00  0.00     0.091 C 
HETATM   10  C   UNK N   1      34.508  15.912  10.168  0.00  0.00     0.029 C 
BRANCH   9  11
HETATM   11  N   UNK N   1      34.220  17.961   8.817  0.00  0.00    -0.257 NA
HETATM   12  H   UNK N   1      33.495  17.909   8.063  0.00  0.00     0.140 HD
BRANCH  11  13
HETATM   13  N   UNK N   1      35.133  18.966   8.436  0.00  0.00    -0.270 NA
HETATM   14  H   UNK N   1      35.575  19.407   9.276  0.00  0.00     0.137 HD
HETATM   15  H   UNK N   1      34.632  19.679   7.860  0.00  0.00     0.137 HD
ENDBRANCH  11  13
ENDBRANCH   9  11
ENDBRANCH   1   9
TORSDOF 5
ENDMDL
