REMARK  5 active torsions:
REMARK  status: ('A' for Active; 'I' for Inactive)
REMARK    1  A    between atoms: C_4  and  O_10 
REMARK    2  A    between atoms: C_5  and  O_7 
REMARK    3  A    between atoms: O_7  and  C_8 
REMARK    4  A    between atoms: C_8  and  C_9 
REMARK    5  A    between atoms: O_10  and  C_11 
ROOT
HETATM    1  C   UNK N   1      -4.423  -0.006  -0.168  0.00  0.00     0.003 A 
HETATM    2  C   UNK N   1      -4.477   1.372   0.007  0.00  0.00     0.003 A 
HETATM    3  C   UNK N   1      -3.297   2.106   0.118  0.00  0.00     0.039 A 
HETATM    4  C   UNK N   1      -2.046   1.484   0.065  0.00  0.00     0.102 A 
HETATM    5  C   UNK N   1      -1.985   0.053  -0.078  0.00  0.00     0.102 A 
HETATM    6  C   UNK N   1      -3.192  -0.655  -0.208  0.00  0.00     0.039 A 
ENDROOT
BRANCH   5   7
HETATM    7  O   UNK N   1      -0.853  -0.690  -0.065  0.00  0.00    -0.346 OA
BRANCH   7   8
HETATM    8  C   UNK N   1       0.263  -0.395   0.682  0.00  0.00     0.209 C 
BRANCH   8   9
HETATM    9  C   UNK N   1       1.515  -0.876  -0.024  0.00  0.00     0.163 C 
HETATM   10  O   UNK N   1       2.610  -0.137   0.458  0.00  0.00    -0.381 OA
HETATM   11  C   UNK N   1       3.724  -0.510  -0.312  0.00  0.00     0.187 C 
HETATM   12  C   UNK N   1       4.082  -1.960   0.013  0.00  0.00     0.140 C 
HETATM   13  N   UNK N   1       2.968  -2.829  -0.368  0.00  0.00    -0.417 N 
HETATM   14  C   UNK N   1       1.734  -2.365   0.273  0.00  0.00     0.147 C 
HETATM   15  H   UNK N   1       3.039  -3.637  -0.987  0.00  0.00     0.153 HD
ENDBRANCH   8   9
ENDBRANCH   7   8
ENDBRANCH   5   7
BRANCH   4  16
HETATM   16  O   UNK N   1      -0.965   2.311   0.144  0.00  0.00    -0.349 OA
BRANCH  16  17
HETATM   17  C   UNK N   1       0.250   2.123  -0.465  0.00  0.00     0.171 C 
HETATM   18  C   UNK N   1       1.182   3.252  -0.072  0.00  0.00     0.034 C 
ENDBRANCH  16  17
ENDBRANCH   4  16
TORSDOF 5
