MODEL 1
REMARK VINA RESULT:      -7.1      0.000      0.000
REMARK  7 active torsions:
REMARK  status: ('A' for Active; 'I' for Inactive)
REMARK    1  A    between atoms: C_3  and  C_15 
REMARK    2  A    between atoms: C_4  and  O_14 
REMARK    3  A    between atoms: C_7  and  N_9 
REMARK       I    between atoms: N_9  and  C_10 
REMARK    4  A    between atoms: C_10  and  C_13 
REMARK    5  A    between atoms: C_13  and  C_18 
REMARK    6  A    between atoms: C_13  and  N_24 
REMARK    7  A    between atoms: C_15  and  O_17 
ROOT
HETATM    1  C   UNK N   1      36.157  13.746   9.640  0.00  0.00     0.187 A 
HETATM    2  N   UNK N   1      35.374  14.954   9.636  0.00  0.00    -0.291 N 
HETATM    3  C   UNK N   1      34.939  15.782   8.536  0.00  0.00     0.142 C 
HETATM    4  C   UNK N   1      35.279  15.350   7.258  0.00  0.00     0.088 C 
HETATM    5  C   UNK N   1      36.174  14.139   7.135  0.00  0.00     0.143 C 
HETATM    6  S   UNK N   1      35.668  12.754   8.200  0.00  0.00    -0.134 SA
HETATM    7  C   UNK N   1      35.367  13.339  10.999  0.00  0.00     0.210 A 
HETATM    8  C   UNK N   1      34.758  14.671  10.755  0.00  0.00     0.251 A 
HETATM    9  O   UNK N   1      33.754  15.191  11.219  0.00  0.00    -0.271 OA
ENDROOT
BRANCH   7  10
HETATM   10  N   UNK N   1      36.139  13.252  12.234  0.00  0.00    -0.343 N 
HETATM   11  C   UNK N   1      35.696  12.912  13.476  0.00  0.00     0.245 C 
HETATM   12  O   UNK N   1      34.515  12.681  13.678  0.00  0.00    -0.271 OA
HETATM   13  H   UNK N   1      37.097  13.466  12.161  0.00  0.00     0.163 HD
BRANCH  11  14
HETATM   14  C   UNK N   1      36.681  12.806  14.620  0.00  0.00     0.197 C 
BRANCH  14  15
HETATM   15  C   UNK N   1      36.115  12.463  15.989  0.00  0.00    -0.049 A 
HETATM   16  C   UNK N   1      36.199  11.028  16.466  0.00  0.00     0.063 A 
HETATM   17  C   UNK N   1      35.716  10.787  17.872  0.00  0.00    -0.026 A 
HETATM   18  C   UNK N   1      35.246  11.763  18.653  0.00  0.00    -0.027 A 
HETATM   19  C   UNK N   1      35.143  13.190  18.194  0.00  0.00     0.054 A 
HETATM   20  C   UNK N   1      35.639  13.433  16.792  0.00  0.00    -0.017 A 
ENDBRANCH  14  15
BRANCH  14  21
HETATM   21  N   UNK N   1      37.846  12.007  14.270  0.00  0.00    -0.415 N 
HETATM   22  H   UNK N   1      38.793  12.383  14.215  0.00  0.00     0.151 HD
HETATM   23  H   UNK N   1      37.709  11.016  14.069  0.00  0.00     0.151 HD
ENDBRANCH  14  21
ENDBRANCH  11  14
ENDBRANCH   7  10
BRANCH   3  24
HETATM   24  C   UNK N   1      34.110  17.000   8.883  0.00  0.00     0.196 C 
HETATM   25  O   UNK N   1      34.674  18.068   9.056  0.00  0.00    -0.645 OA
BRANCH  24  26
HETATM   26  O   UNK N   1      32.779  16.972   9.026  0.00  0.00    -0.772 OA
HETATM   27  H   UNK N   1      32.368  16.316   9.554  0.00  0.00     0.167 HD
ENDBRANCH  24  26
ENDBRANCH   3  24
BRANCH   4  28
HETATM   28  O   UNK N   1      34.936  15.899   6.053  0.00  0.00    -0.357 OA
HETATM   29  C   UNK N   1      33.768  15.877   5.340  0.00  0.00     0.209 C 
ENDBRANCH   4  28
TORSDOF 7
ENDMDL
MODEL 2
REMARK VINA RESULT:      -6.8      3.085      8.171
REMARK  7 active torsions:
REMARK  status: ('A' for Active; 'I' for Inactive)
REMARK    1  A    between atoms: C_3  and  C_15 
REMARK    2  A    between atoms: C_4  and  O_14 
REMARK    3  A    between atoms: C_7  and  N_9 
REMARK       I    between atoms: N_9  and  C_10 
REMARK    4  A    between atoms: C_10  and  C_13 
REMARK    5  A    between atoms: C_13  and  C_18 
REMARK    6  A    between atoms: C_13  and  N_24 
REMARK    7  A    between atoms: C_15  and  O_17 
ROOT
HETATM    1  C   UNK N   1      35.525  13.964   8.726  0.00  0.00     0.187 A 
HETATM    2  N   UNK N   1      35.429  14.248  10.134  0.00  0.00    -0.291 N 
HETATM    3  C   UNK N   1      36.111  13.648  11.257  0.00  0.00     0.142 C 
HETATM    4  C   UNK N   1      37.050  12.665  10.963  0.00  0.00     0.088 C 
HETATM    5  C   UNK N   1      37.181  12.218   9.525  0.00  0.00     0.143 C 
HETATM    6  S   UNK N   1      37.262  13.599   8.344  0.00  0.00    -0.134 SA
HETATM    7  C   UNK N   1      35.125  15.517   8.473  0.00  0.00     0.210 A 
HETATM    8  C   UNK N   1      35.059  15.490   9.956  0.00  0.00     0.251 A 
HETATM    9  O   UNK N   1      35.030  16.397  10.775  0.00  0.00    -0.271 OA
ENDROOT
BRANCH   7  10
HETATM   10  N   UNK N   1      33.848  15.793   7.822  0.00  0.00    -0.343 N 
HETATM   11  C   UNK N   1      33.545  16.811   6.971  0.00  0.00     0.245 C 
HETATM   12  O   UNK N   1      34.370  17.668   6.700  0.00  0.00    -0.271 OA
HETATM   13  H   UNK N   1      33.116  15.167   8.025  0.00  0.00     0.163 HD
BRANCH  11  14
HETATM   14  C   UNK N   1      32.170  16.876   6.339  0.00  0.00     0.197 C 
BRANCH  14  15
HETATM   15  C   UNK N   1      31.026  17.347   7.223  0.00  0.00    -0.049 A 
HETATM   16  C   UNK N   1      31.359  18.083   8.504  0.00  0.00     0.063 A 
HETATM   17  C   UNK N   1      30.176  18.612   9.270  0.00  0.00    -0.026 A 
HETATM   18  C   UNK N   1      28.916  18.450   8.858  0.00  0.00    -0.027 A 
HETATM   19  C   UNK N   1      28.564  17.714   7.596  0.00  0.00     0.054 A 
HETATM   20  C   UNK N   1      29.750  17.196   6.823  0.00  0.00    -0.017 A 
ENDBRANCH  14  15
BRANCH  14  21
HETATM   21  N   UNK N   1      32.193  17.531   5.040  0.00  0.00    -0.415 N 
HETATM   22  H   UNK N   1      31.455  17.430   4.343  0.00  0.00     0.151 HD
HETATM   23  H   UNK N   1      32.991  18.126   4.813  0.00  0.00     0.151 HD
ENDBRANCH  14  21
ENDBRANCH  11  14
ENDBRANCH   7  10
BRANCH   3  24
HETATM   24  C   UNK N   1      35.778  14.192  12.630  0.00  0.00     0.196 C 
HETATM   25  O   UNK N   1      34.823  13.731  13.231  0.00  0.00    -0.645 OA
BRANCH  24  26
HETATM   26  O   UNK N   1      36.471  15.171  13.224  0.00  0.00    -0.772 OA
HETATM   27  H   UNK N   1      37.404  15.214  13.146  0.00  0.00     0.167 HD
ENDBRANCH  24  26
ENDBRANCH   3  24
BRANCH   4  28
HETATM   28  O   UNK N   1      37.880  11.995  11.819  0.00  0.00    -0.357 OA
HETATM   29  C   UNK N   1      37.649  10.975  12.702  0.00  0.00     0.209 C 
ENDBRANCH   4  28
TORSDOF 7
ENDMDL
MODEL 3
REMARK VINA RESULT:      -6.8      2.651      8.587
REMARK  7 active torsions:
REMARK  status: ('A' for Active; 'I' for Inactive)
REMARK    1  A    between atoms: C_3  and  C_15 
REMARK    2  A    between atoms: C_4  and  O_14 
REMARK    3  A    between atoms: C_7  and  N_9 
REMARK       I    between atoms: N_9  and  C_10 
REMARK    4  A    between atoms: C_10  and  C_13 
REMARK    5  A    between atoms: C_13  and  C_18 
REMARK    6  A    between atoms: C_13  and  N_24 
REMARK    7  A    between atoms: C_15  and  O_17 
ROOT
HETATM    1  C   UNK N   1      35.159  13.651   9.775  0.00  0.00     0.187 A 
HETATM    2  N   UNK N   1      35.325  13.915  11.180  0.00  0.00    -0.291 N 
HETATM    3  C   UNK N   1      35.876  13.087  12.228  0.00  0.00     0.142 C 
HETATM    4  C   UNK N   1      36.375  11.847  11.844  0.00  0.00     0.088 C 
HETATM    5  C   UNK N   1      36.181  11.419  10.408  0.00  0.00     0.143 C 
HETATM    6  S   UNK N   1      36.606  12.715   9.204  0.00  0.00    -0.134 SA
HETATM    7  C   UNK N   1      35.300  15.253   9.545  0.00  0.00     0.210 A 
HETATM    8  C   UNK N   1      35.394  15.213  11.026  0.00  0.00     0.251 A 
HETATM    9  O   UNK N   1      35.774  16.052  11.829  0.00  0.00    -0.271 OA
ENDROOT
BRANCH   7  10
HETATM   10  N   UNK N   1      34.135  15.972   9.039  0.00  0.00    -0.343 N 
HETATM   11  C   UNK N   1      34.032  17.297   8.746  0.00  0.00     0.245 C 
HETATM   12  O   UNK N   1      34.965  18.057   8.943  0.00  0.00    -0.271 OA
HETATM   13  H   UNK N   1      33.324  15.433   8.893  0.00  0.00     0.163 HD
BRANCH  11  14
HETATM   14  C   UNK N   1      32.747  17.837   8.154  0.00  0.00     0.197 C 
BRANCH  14  15
HETATM   15  C   UNK N   1      32.452  17.483   6.705  0.00  0.00    -0.049 A 
HETATM   16  C   UNK N   1      31.023  17.171   6.315  0.00  0.00     0.063 A 
HETATM   17  C   UNK N   1      30.793  16.937   4.845  0.00  0.00    -0.026 A 
HETATM   18  C   UNK N   1      31.773  16.998   3.940  0.00  0.00    -0.027 A 
HETATM   19  C   UNK N   1      33.199  17.295   4.308  0.00  0.00     0.054 A 
HETATM   20  C   UNK N   1      33.426  17.542   5.778  0.00  0.00    -0.017 A 
ENDBRANCH  14  15
BRANCH  14  21
HETATM   21  N   UNK N   1      31.606  17.628   9.033  0.00  0.00    -0.415 N 
HETATM   22  H   UNK N   1      30.693  17.310   8.709  0.00  0.00     0.151 HD
HETATM   23  H   UNK N   1      31.726  17.808  10.031  0.00  0.00     0.151 HD
ENDBRANCH  14  21
ENDBRANCH  11  14
ENDBRANCH   7  10
BRANCH   3  24
HETATM   24  C   UNK N   1      35.909  13.679  13.621  0.00  0.00     0.196 C 
HETATM   25  O   UNK N   1      34.978  13.457  14.377  0.00  0.00    -0.645 OA
BRANCH  24  26
HETATM   26  O   UNK N   1      36.904  14.452  14.072  0.00  0.00    -0.772 OA
HETATM   27  H   UNK N   1      37.228  15.165  13.558  0.00  0.00     0.167 HD
ENDBRANCH  24  26
ENDBRANCH   3  24
BRANCH   4  28
HETATM   28  O   UNK N   1      37.009  10.909  12.612  0.00  0.00    -0.357 OA
HETATM   29  C   UNK N   1      36.530   9.960  13.474  0.00  0.00     0.209 C 
ENDBRANCH   4  28
TORSDOF 7
ENDMDL
MODEL 4
REMARK VINA RESULT:      -6.7      4.772      9.745
REMARK  7 active torsions:
REMARK  status: ('A' for Active; 'I' for Inactive)
REMARK    1  A    between atoms: C_3  and  C_15 
REMARK    2  A    between atoms: C_4  and  O_14 
REMARK    3  A    between atoms: C_7  and  N_9 
REMARK       I    between atoms: N_9  and  C_10 
REMARK    4  A    between atoms: C_10  and  C_13 
REMARK    5  A    between atoms: C_13  and  C_18 
REMARK    6  A    between atoms: C_13  and  N_24 
REMARK    7  A    between atoms: C_15  and  O_17 
ROOT
HETATM    1  C   UNK N   1      32.442  15.291   8.388  0.00  0.00     0.187 A 
HETATM    2  N   UNK N   1      33.461  15.908   9.196  0.00  0.00    -0.291 N 
HETATM    3  C   UNK N   1      34.621  15.333   9.837  0.00  0.00     0.142 C 
HETATM    4  C   UNK N   1      34.841  13.976   9.625  0.00  0.00     0.088 C 
HETATM    5  C   UNK N   1      33.793  13.199   8.863  0.00  0.00     0.143 C 
HETATM    6  S   UNK N   1      33.234  14.033   7.347  0.00  0.00    -0.134 SA
HETATM    7  C   UNK N   1      32.279  16.728   7.649  0.00  0.00     0.210 A 
HETATM    8  C   UNK N   1      33.316  17.087   8.648  0.00  0.00     0.251 A 
HETATM    9  O   UNK N   1      34.064  18.052   8.718  0.00  0.00    -0.271 OA
ENDROOT
BRANCH   7  10
HETATM   10  N   UNK N   1      31.015  17.439   7.816  0.00  0.00    -0.343 N 
HETATM   11  C   UNK N   1      29.809  17.144   7.259  0.00  0.00     0.245 C 
HETATM   12  O   UNK N   1      29.691  16.215   6.477  0.00  0.00    -0.271 OA
HETATM   13  H   UNK N   1      31.039  18.230   8.402  0.00  0.00     0.163 HD
BRANCH  11  14
HETATM   14  C   UNK N   1      28.593  17.969   7.622  0.00  0.00     0.197 C 
BRANCH  14  15
HETATM   15  C   UNK N   1      28.089  18.954   6.579  0.00  0.00    -0.049 A 
HETATM   16  C   UNK N   1      28.104  18.533   5.124  0.00  0.00     0.063 A 
HETATM   17  C   UNK N   1      27.491  19.517   4.163  0.00  0.00    -0.026 A 
HETATM   18  C   UNK N   1      26.967  20.682   4.554  0.00  0.00    -0.027 A 
HETATM   19  C   UNK N   1      26.955  21.122   5.991  0.00  0.00     0.054 A 
HETATM   20  C   UNK N   1      27.557  20.131   6.954  0.00  0.00    -0.017 A 
ENDBRANCH  14  15
BRANCH  14  21
HETATM   21  N   UNK N   1      27.531  17.159   8.200  0.00  0.00    -0.415 N 
HETATM   22  H   UNK N   1      26.583  17.500   8.359  0.00  0.00     0.151 HD
HETATM   23  H   UNK N   1      27.746  16.196   8.459  0.00  0.00     0.151 HD
ENDBRANCH  14  21
ENDBRANCH  11  14
ENDBRANCH   7  10
BRANCH   3  24
HETATM   24  C   UNK N   1      35.507  16.277  10.621  0.00  0.00     0.196 C 
HETATM   25  O   UNK N   1      36.718  16.169  10.520  0.00  0.00    -0.645 OA
BRANCH  24  26
HETATM   26  O   UNK N   1      35.036  17.224  11.440  0.00  0.00    -0.772 OA
HETATM   27  H   UNK N   1      34.135  17.230  11.698  0.00  0.00     0.167 HD
ENDBRANCH  24  26
ENDBRANCH   3  24
BRANCH   4  28
HETATM   28  O   UNK N   1      35.890  13.206  10.049  0.00  0.00    -0.357 OA
HETATM   29  C   UNK N   1      36.189  12.664  11.269  0.00  0.00     0.209 C 
ENDBRANCH   4  28
TORSDOF 7
ENDMDL
MODEL 5
REMARK VINA RESULT:      -6.6      3.280      5.416
REMARK  7 active torsions:
REMARK  status: ('A' for Active; 'I' for Inactive)
REMARK    1  A    between atoms: C_3  and  C_15 
REMARK    2  A    between atoms: C_4  and  O_14 
REMARK    3  A    between atoms: C_7  and  N_9 
REMARK       I    between atoms: N_9  and  C_10 
REMARK    4  A    between atoms: C_10  and  C_13 
REMARK    5  A    between atoms: C_13  and  C_18 
REMARK    6  A    between atoms: C_13  and  N_24 
REMARK    7  A    between atoms: C_15  and  O_17 
ROOT
HETATM    1  C   UNK N   1      32.114  16.676   8.266  0.00  0.00     0.187 A 
HETATM    2  N   UNK N   1      32.263  16.773   6.838  0.00  0.00    -0.291 N 
HETATM    3  C   UNK N   1      31.280  17.028   5.811  0.00  0.00     0.142 C 
HETATM    4  C   UNK N   1      29.978  17.265   6.239  0.00  0.00     0.088 C 
HETATM    5  C   UNK N   1      29.678  17.107   7.712  0.00  0.00     0.143 C 
HETATM    6  S   UNK N   1      30.898  17.918   8.790  0.00  0.00    -0.134 SA
HETATM    7  C   UNK N   1      33.649  17.195   8.375  0.00  0.00     0.210 A 
HETATM    8  C   UNK N   1      33.515  17.146   6.897  0.00  0.00     0.251 A 
HETATM    9  O   UNK N   1      34.204  17.634   6.013  0.00  0.00    -0.271 OA
ENDROOT
BRANCH   7  10
HETATM   10  N   UNK N   1      34.642  16.271   8.916  0.00  0.00    -0.343 N 
HETATM   11  C   UNK N   1      35.363  16.397  10.064  0.00  0.00     0.245 C 
HETATM   12  O   UNK N   1      35.262  17.392  10.762  0.00  0.00    -0.271 OA
HETATM   13  H   UNK N   1      34.811  15.460   8.386  0.00  0.00     0.163 HD
BRANCH  11  14
HETATM   14  C   UNK N   1      36.294  15.281  10.490  0.00  0.00     0.197 C 
BRANCH  14  15
HETATM   15  C   UNK N   1      35.851  14.424  11.665  0.00  0.00    -0.049 A 
HETATM   16  C   UNK N   1      35.091  13.146  11.380  0.00  0.00     0.063 A 
HETATM   17  C   UNK N   1      34.782  12.297  12.585  0.00  0.00    -0.026 A 
HETATM   18  C   UNK N   1      35.148  12.638  13.823  0.00  0.00    -0.027 A 
HETATM   19  C   UNK N   1      35.892  13.907  14.129  0.00  0.00     0.054 A 
HETATM   20  C   UNK N   1      36.212  14.749  12.920  0.00  0.00    -0.017 A 
ENDBRANCH  14  15
BRANCH  14  21
HETATM   21  N   UNK N   1      36.766  14.496   9.359  0.00  0.00    -0.415 N 
HETATM   22  H   UNK N   1      37.750  14.402   9.108  0.00  0.00     0.151 HD
HETATM   23  H   UNK N   1      36.074  14.013   8.786  0.00  0.00     0.151 HD
ENDBRANCH  14  21
ENDBRANCH  11  14
ENDBRANCH   7  10
BRANCH   3  24
HETATM   24  C   UNK N   1      31.778  17.071   4.382  0.00  0.00     0.196 C 
HETATM   25  O   UNK N   1      31.962  16.020   3.790  0.00  0.00    -0.645 OA
BRANCH  24  26
HETATM   26  O   UNK N   1      32.046  18.207   3.726  0.00  0.00    -0.772 OA
HETATM   27  H   UNK N   1      31.355  18.783   3.465  0.00  0.00     0.167 HD
ENDBRANCH  24  26
ENDBRANCH   3  24
BRANCH   4  28
HETATM   28  O   UNK N   1      28.882  17.601   5.492  0.00  0.00    -0.357 OA
HETATM   29  C   UNK N   1      28.405  18.809   5.065  0.00  0.00     0.209 C 
ENDBRANCH   4  28
TORSDOF 7
ENDMDL
MODEL 6
REMARK VINA RESULT:      -6.5      2.010      2.607
REMARK  7 active torsions:
REMARK  status: ('A' for Active; 'I' for Inactive)
REMARK    1  A    between atoms: C_3  and  C_15 
REMARK    2  A    between atoms: C_4  and  O_14 
REMARK    3  A    between atoms: C_7  and  N_9 
REMARK       I    between atoms: N_9  and  C_10 
REMARK    4  A    between atoms: C_10  and  C_13 
REMARK    5  A    between atoms: C_13  and  C_18 
REMARK    6  A    between atoms: C_13  and  N_24 
REMARK    7  A    between atoms: C_15  and  O_17 
ROOT
HETATM    1  C   UNK N   1      35.745  11.633  11.082  0.00  0.00     0.187 A 
HETATM    2  N   UNK N   1      35.846  13.064  10.963  0.00  0.00    -0.291 N 
HETATM    3  C   UNK N   1      36.007  13.895   9.793  0.00  0.00     0.142 C 
HETATM    4  C   UNK N   1      36.029  13.245   8.564  0.00  0.00     0.088 C 
HETATM    5  C   UNK N   1      36.017  11.733   8.563  0.00  0.00     0.143 C 
HETATM    6  S   UNK N   1      34.770  11.020   9.679  0.00  0.00    -0.134 SA
HETATM    7  C   UNK N   1      34.858  11.892  12.417  0.00  0.00     0.210 A 
HETATM    8  C   UNK N   1      35.174  13.298  12.061  0.00  0.00     0.251 A 
HETATM    9  O   UNK N   1      34.682  14.352  12.437  0.00  0.00    -0.271 OA
ENDROOT
BRANCH   7  10
HETATM   10  N   UNK N   1      35.411  11.459  13.696  0.00  0.00    -0.343 N 
HETATM   11  C   UNK N   1      34.777  10.794  14.700  0.00  0.00     0.245 C 
HETATM   12  O   UNK N   1      33.590  10.527  14.622  0.00  0.00    -0.271 OA
HETATM   13  H   UNK N   1      36.358  11.676  13.852  0.00  0.00     0.163 HD
BRANCH  11  14
HETATM   14  C   UNK N   1      35.557  10.366  15.925  0.00  0.00     0.197 C 
BRANCH  14  15
HETATM   15  C   UNK N   1      35.378  11.201  17.184  0.00  0.00    -0.049 A 
HETATM   16  C   UNK N   1      35.460  10.507  18.527  0.00  0.00     0.063 A 
HETATM   17  C   UNK N   1      35.382  11.414  19.726  0.00  0.00    -0.026 A 
HETATM   18  C   UNK N   1      35.250  12.739  19.625  0.00  0.00    -0.027 A 
HETATM   19  C   UNK N   1      35.155  13.445  18.301  0.00  0.00     0.054 A 
HETATM   20  C   UNK N   1      35.247  12.538  17.101  0.00  0.00    -0.017 A 
ENDBRANCH  14  15
BRANCH  14  21
HETATM   21  N   UNK N   1      35.452   8.936  16.172  0.00  0.00    -0.415 N 
HETATM   22  H   UNK N   1      35.073   8.272  15.497  0.00  0.00     0.151 HD
HETATM   23  H   UNK N   1      35.778   8.576  17.070  0.00  0.00     0.151 HD
ENDBRANCH  14  21
ENDBRANCH  11  14
ENDBRANCH   7  10
BRANCH   3  24
HETATM   24  C   UNK N   1      36.075  15.391  10.021  0.00  0.00     0.196 C 
HETATM   25  O   UNK N   1      35.289  16.113   9.430  0.00  0.00    -0.645 OA
BRANCH  24  26
HETATM   26  O   UNK N   1      36.965  15.975  10.832  0.00  0.00    -0.772 OA
HETATM   27  H   UNK N   1      37.839  15.646  10.901  0.00  0.00     0.167 HD
ENDBRANCH  24  26
ENDBRANCH   3  24
BRANCH   4  28
HETATM   28  O   UNK N   1      36.096  13.790   7.312  0.00  0.00    -0.357 OA
HETATM   29  C   UNK N   1      37.157  14.083   6.499  0.00  0.00     0.209 C 
ENDBRANCH   4  28
TORSDOF 7
ENDMDL
MODEL 7
REMARK VINA RESULT:      -6.4     13.404     15.615
REMARK  7 active torsions:
REMARK  status: ('A' for Active; 'I' for Inactive)
REMARK    1  A    between atoms: C_3  and  C_15 
REMARK    2  A    between atoms: C_4  and  O_14 
REMARK    3  A    between atoms: C_7  and  N_9 
REMARK       I    between atoms: N_9  and  C_10 
REMARK    4  A    between atoms: C_10  and  C_13 
REMARK    5  A    between atoms: C_13  and  C_18 
REMARK    6  A    between atoms: C_13  and  N_24 
REMARK    7  A    between atoms: C_15  and  O_17 
ROOT
HETATM    1  C   UNK N   1      21.642  16.409   4.438  0.00  0.00     0.187 A 
HETATM    2  N   UNK N   1      21.073  16.297   3.121  0.00  0.00    -0.291 N 
HETATM    3  C   UNK N   1      20.512  17.308   2.256  0.00  0.00     0.142 C 
HETATM    4  C   UNK N   1      20.551  18.618   2.722  0.00  0.00     0.088 C 
HETATM    5  C   UNK N   1      21.048  18.855   4.130  0.00  0.00     0.143 C 
HETATM    6  S   UNK N   1      22.584  17.958   4.514  0.00  0.00    -0.134 SA
HETATM    7  C   UNK N   1      22.554  15.120   4.061  0.00  0.00     0.210 A 
HETATM    8  C   UNK N   1      21.762  15.229   2.810  0.00  0.00     0.251 A 
HETATM    9  O   UNK N   1      21.932  14.732   1.706  0.00  0.00    -0.271 OA
ENDROOT
BRANCH   7  10
HETATM   10  N   UNK N   1      22.329  13.885   4.806  0.00  0.00    -0.343 N 
HETATM   11  C   UNK N   1      22.892  13.504   5.984  0.00  0.00     0.245 C 
HETATM   12  O   UNK N   1      23.732  14.199   6.531  0.00  0.00    -0.271 OA
HETATM   13  H   UNK N   1      21.692  13.250   4.406  0.00  0.00     0.163 HD
BRANCH  11  14
HETATM   14  C   UNK N   1      22.463  12.207   6.636  0.00  0.00     0.197 C 
BRANCH  14  15
HETATM   15  C   UNK N   1      22.293  12.216   8.147  0.00  0.00    -0.049 A 
HETATM   16  C   UNK N   1      23.280  11.436   8.989  0.00  0.00     0.063 A 
HETATM   17  C   UNK N   1      23.112  11.581  10.479  0.00  0.00    -0.026 A 
HETATM   18  C   UNK N   1      22.162  12.341  11.030  0.00  0.00    -0.027 A 
HETATM   19  C   UNK N   1      21.166  13.113  10.211  0.00  0.00     0.054 A 
HETATM   20  C   UNK N   1      21.343  12.978   8.721  0.00  0.00    -0.017 A 
ENDBRANCH  14  15
BRANCH  14  21
HETATM   21  N   UNK N   1      21.345  11.586   5.941  0.00  0.00    -0.415 N 
HETATM   22  H   UNK N   1      20.374  11.872   6.065  0.00  0.00     0.151 HD
HETATM   23  H   UNK N   1      21.544  10.822   5.294  0.00  0.00     0.151 HD
ENDBRANCH  14  21
ENDBRANCH  11  14
ENDBRANCH   7  10
BRANCH   3  24
HETATM   24  C   UNK N   1      19.997  16.848   0.909  0.00  0.00     0.196 C 
HETATM   25  O   UNK N   1      20.383  17.420  -0.097  0.00  0.00    -0.645 OA
BRANCH  24  26
HETATM   26  O   UNK N   1      19.121  15.847   0.756  0.00  0.00    -0.772 OA
HETATM   27  H   UNK N   1      18.685  15.713  -0.063  0.00  0.00     0.167 HD
ENDBRANCH  24  26
ENDBRANCH   3  24
BRANCH   4  28
HETATM   28  O   UNK N   1      20.161  19.763   2.082  0.00  0.00    -0.357 OA
HETATM   29  C   UNK N   1      20.845  20.900   1.750  0.00  0.00     0.209 C 
ENDBRANCH   4  28
TORSDOF 7
ENDMDL
MODEL 8
REMARK VINA RESULT:      -6.4      1.366      2.065
REMARK  7 active torsions:
REMARK  status: ('A' for Active; 'I' for Inactive)
REMARK    1  A    between atoms: C_3  and  C_15 
REMARK    2  A    between atoms: C_4  and  O_14 
REMARK    3  A    between atoms: C_7  and  N_9 
REMARK       I    between atoms: N_9  and  C_10 
REMARK    4  A    between atoms: C_10  and  C_13 
REMARK    5  A    between atoms: C_13  and  C_18 
REMARK    6  A    between atoms: C_13  and  N_24 
REMARK    7  A    between atoms: C_15  and  O_17 
ROOT
HETATM    1  C   UNK N   1      36.174  13.476   9.960  0.00  0.00     0.187 A 
HETATM    2  N   UNK N   1      35.493  14.744   9.914  0.00  0.00    -0.291 N 
HETATM    3  C   UNK N   1      35.178  15.595   8.790  0.00  0.00     0.142 C 
HETATM    4  C   UNK N   1      35.538  15.125   7.532  0.00  0.00     0.088 C 
HETATM    5  C   UNK N   1      36.337  13.844   7.456  0.00  0.00     0.143 C 
HETATM    6  S   UNK N   1      35.671  12.515   8.505  0.00  0.00    -0.134 SA
HETATM    7  C   UNK N   1      35.293  13.148  11.283  0.00  0.00     0.210 A 
HETATM    8  C   UNK N   1      34.806  14.522  11.005  0.00  0.00     0.251 A 
HETATM    9  O   UNK N   1      33.828  15.127  11.420  0.00  0.00    -0.271 OA
ENDROOT
BRANCH   7  10
HETATM   10  N   UNK N   1      35.998  13.009  12.553  0.00  0.00    -0.343 N 
HETATM   11  C   UNK N   1      35.495  12.599  13.750  0.00  0.00     0.245 C 
HETATM   12  O   UNK N   1      34.310  12.340  13.875  0.00  0.00    -0.271 OA
HETATM   13  H   UNK N   1      36.955  13.241  12.543  0.00  0.00     0.163 HD
BRANCH  11  14
HETATM   14  C   UNK N   1      36.419  12.449  14.940  0.00  0.00     0.197 C 
BRANCH  14  15
HETATM   15  C   UNK N   1      37.043  11.081  15.161  0.00  0.00    -0.049 A 
HETATM   16  C   UNK N   1      38.268  10.708  14.352  0.00  0.00     0.063 A 
HETATM   17  C   UNK N   1      38.892   9.383  14.702  0.00  0.00    -0.026 A 
HETATM   18  C   UNK N   1      38.409   8.585  15.658  0.00  0.00    -0.027 A 
HETATM   19  C   UNK N   1      37.189   8.932  16.464  0.00  0.00     0.054 A 
HETATM   20  C   UNK N   1      36.572  10.264  16.121  0.00  0.00    -0.017 A 
ENDBRANCH  14  15
BRANCH  14  21
HETATM   21  N   UNK N   1      37.383  13.536  15.028  0.00  0.00    -0.415 N 
HETATM   22  H   UNK N   1      38.110  13.703  14.333  0.00  0.00     0.151 HD
HETATM   23  H   UNK N   1      37.329  14.165  15.830  0.00  0.00     0.151 HD
ENDBRANCH  14  21
ENDBRANCH  11  14
ENDBRANCH   7  10
BRANCH   3  24
HETATM   24  C   UNK N   1      34.436  16.880   9.093  0.00  0.00     0.196 C 
HETATM   25  O   UNK N   1      35.078  17.896   9.302  0.00  0.00    -0.645 OA
BRANCH  24  26
HETATM   26  O   UNK N   1      33.102  16.965   9.157  0.00  0.00    -0.772 OA
HETATM   27  H   UNK N   1      32.687  17.739   9.484  0.00  0.00     0.167 HD
ENDBRANCH  24  26
ENDBRANCH   3  24
BRANCH   4  28
HETATM   28  O   UNK N   1      35.296  15.690   6.310  0.00  0.00    -0.357 OA
HETATM   29  C   UNK N   1      34.264  15.540   5.424  0.00  0.00     0.209 C 
ENDBRANCH   4  28
TORSDOF 7
ENDMDL
MODEL 9
REMARK VINA RESULT:      -6.4     17.530     20.957
REMARK  7 active torsions:
REMARK  status: ('A' for Active; 'I' for Inactive)
REMARK    1  A    between atoms: C_3  and  C_15 
REMARK    2  A    between atoms: C_4  and  O_14 
REMARK    3  A    between atoms: C_7  and  N_9 
REMARK       I    between atoms: N_9  and  C_10 
REMARK    4  A    between atoms: C_10  and  C_13 
REMARK    5  A    between atoms: C_13  and  C_18 
REMARK    6  A    between atoms: C_13  and  N_24 
REMARK    7  A    between atoms: C_15  and  O_17 
ROOT
HETATM    1  C   UNK N   1      30.571  21.443  -5.996  0.00  0.00     0.187 A 
HETATM    2  N   UNK N   1      31.441  21.474  -4.850  0.00  0.00    -0.291 N 
HETATM    3  C   UNK N   1      32.661  20.749  -4.583  0.00  0.00     0.142 C 
HETATM    4  C   UNK N   1      33.121  19.910  -5.592  0.00  0.00     0.088 C 
HETATM    5  C   UNK N   1      32.249  19.726  -6.813  0.00  0.00     0.143 C 
HETATM    6  S   UNK N   1      31.603  21.290  -7.481  0.00  0.00    -0.134 SA
HETATM    7  C   UNK N   1      30.185  22.979  -5.638  0.00  0.00     0.210 A 
HETATM    8  C   UNK N   1      31.110  22.694  -4.513  0.00  0.00     0.251 A 
HETATM    9  O   UNK N   1      31.676  23.443  -3.730  0.00  0.00    -0.271 OA
ENDROOT
BRANCH   7  10
HETATM   10  N   UNK N   1      28.812  23.257  -5.227  0.00  0.00    -0.343 N 
HETATM   11  C   UNK N   1      27.756  23.598  -6.015  0.00  0.00     0.245 C 
HETATM   12  O   UNK N   1      27.895  23.757  -7.216  0.00  0.00    -0.271 OA
HETATM   13  H   UNK N   1      28.628  23.190  -4.262  0.00  0.00     0.163 HD
BRANCH  11  14
HETATM   14  C   UNK N   1      26.384  23.771  -5.397  0.00  0.00     0.197 C 
BRANCH  14  15
HETATM   15  C   UNK N   1      25.996  25.174  -4.959  0.00  0.00    -0.049 A 
HETATM   16  C   UNK N   1      26.534  25.694  -3.643  0.00  0.00     0.063 A 
HETATM   17  C   UNK N   1      26.195  27.128  -3.330  0.00  0.00    -0.026 A 
HETATM   18  C   UNK N   1      25.471  27.896  -4.148  0.00  0.00    -0.027 A 
HETATM   19  C   UNK N   1      24.918  27.395  -5.452  0.00  0.00     0.054 A 
HETATM   20  C   UNK N   1      25.269  25.964  -5.771  0.00  0.00    -0.017 A 
ENDBRANCH  14  15
BRANCH  14  21
HETATM   21  N   UNK N   1      25.345  23.108  -6.170  0.00  0.00    -0.415 N 
HETATM   22  H   UNK N   1      24.359  23.109  -5.910  0.00  0.00     0.151 HD
HETATM   23  H   UNK N   1      25.617  22.614  -7.021  0.00  0.00     0.151 HD
ENDBRANCH  14  21
ENDBRANCH  11  14
ENDBRANCH   7  10
BRANCH   3  24
HETATM   24  C   UNK N   1      33.344  21.024  -3.260  0.00  0.00     0.196 C 
HETATM   25  O   UNK N   1      34.552  21.192  -3.244  0.00  0.00    -0.645 OA
BRANCH  24  26
HETATM   26  O   UNK N   1      32.695  21.079  -2.091  0.00  0.00    -0.772 OA
HETATM   27  H   UNK N   1      33.001  20.594  -1.350  0.00  0.00     0.167 HD
ENDBRANCH  24  26
ENDBRANCH   3  24
BRANCH   4  28
HETATM   28  O   UNK N   1      34.273  19.173  -5.630  0.00  0.00    -0.357 OA
HETATM   29  C   UNK N   1      34.695  18.101  -4.892  0.00  0.00     0.209 C 
ENDBRANCH   4  28
TORSDOF 7
ENDMDL
