MODEL 1
REMARK VINA RESULT:      -7.7      0.000      0.000
REMARK  4 active torsions:
REMARK  status: ('A' for Active; 'I' for Inactive)
REMARK    1  A    between atoms: N_25  and  C_13 
REMARK    2  A    between atoms: C_20  and  C_15 
REMARK    3  A    between atoms: N_24  and  C_18 
REMARK    4  A    between atoms: O_28  and  C_20 
ROOT
HETATM    1  C   UNK N   1      26.349  20.077   3.743  0.00  0.00     0.062 A 
HETATM    2  C   UNK N   1      25.820  17.710   5.076  0.00  0.00     0.063 A 
HETATM    3  C   UNK N   1      22.487  18.484   3.766  0.00  0.00     0.120 A 
HETATM    4  C   UNK N   1      25.042  19.558   3.740  0.00  0.00     0.045 A 
HETATM    5  C   UNK N   1      22.701  19.707   3.121  0.00  0.00     0.104 A 
HETATM    6  C   UNK N   1      27.385  19.418   4.418  0.00  0.00     0.143 A 
HETATM    7  C   UNK N   1      24.769  18.337   4.402  0.00  0.00     0.055 A 
HETATM    8  C   UNK N   1      27.116  18.222   5.118  0.00  0.00     0.071 A 
HETATM    9  C   UNK N   1      24.001  20.243   3.097  0.00  0.00     0.202 A 
HETATM   10  F   UNK N   1      28.622  19.973   4.410  0.00  0.00    -0.204 F 
HETATM   11  N   UNK N   1      23.493  17.799   4.395  0.00  0.00    -0.320 N 
HETATM   12  O   UNK N   1      24.225  21.305   2.535  0.00  0.00    -0.286 OA
ENDROOT
BRANCH   8  13
HETATM   13  N   UNK N   1      28.100  17.533   5.903  0.00  0.00    -0.375 N 
HETATM   14  C   UNK N   1      29.124  16.741   5.250  0.00  0.00     0.142 C 
HETATM   15  C   UNK N   1      30.485  17.120   5.817  0.00  0.00     0.133 C 
HETATM   16  N   UNK N   1      30.470  16.941   7.270  0.00  0.00    -0.418 N 
HETATM   17  C   UNK N   1      29.498  17.873   7.849  0.00  0.00     0.133 C 
HETATM   18  H   UNK N   1      31.043  16.279   7.793  0.00  0.00     0.153 HD
HETATM   19  C   UNK N   1      28.090  17.542   7.349  0.00  0.00     0.142 C 
ENDBRANCH   8  13
BRANCH  11  20
HETATM   20  C   UNK N   1      23.141  16.520   5.024  0.00  0.00     0.039 A 
HETATM   21  C   UNK N   1      22.518  16.494   6.289  0.00  0.00     0.033 A 
HETATM   22  C   UNK N   1      22.163  15.282   6.892  0.00  0.00     0.044 A 
HETATM   23  C   UNK N   1      22.420  14.073   6.242  0.00  0.00     0.116 A 
HETATM   24  C   UNK N   1      23.030  14.075   4.990  0.00  0.00     0.044 A 
HETATM   25  F   UNK N   1      22.079  12.899   6.822  0.00  0.00    -0.206 F 
HETATM   26  C   UNK N   1      23.383  15.284   4.392  0.00  0.00     0.033 A 
ENDBRANCH  11  20
BRANCH   5  27
HETATM   27  C   UNK N   1      21.538  20.389   2.493  0.00  0.00     0.181 C 
HETATM   28  O   UNK N   1      20.722  19.761   1.835  0.00  0.00    -0.646 OA
BRANCH  27  29
HETATM   29  O   UNK N   1      21.383  21.721   2.633  0.00  0.00    -0.772 OA
HETATM   30  H   UNK N   1      21.169  22.083   3.471  0.00  0.00     0.167 HD
ENDBRANCH  27  29
ENDBRANCH   5  27
TORSDOF 4
ENDMDL
MODEL 2
REMARK VINA RESULT:      -7.3     11.752     14.577
REMARK  4 active torsions:
REMARK  status: ('A' for Active; 'I' for Inactive)
REMARK    1  A    between atoms: N_25  and  C_13 
REMARK    2  A    between atoms: C_20  and  C_15 
REMARK    3  A    between atoms: N_24  and  C_18 
REMARK    4  A    between atoms: O_28  and  C_20 
ROOT
HETATM    1  C   UNK N   1      30.237  20.189  -6.870  0.00  0.00     0.062 A 
HETATM    2  C   UNK N   1      28.305  22.082  -7.454  0.00  0.00     0.063 A 
HETATM    3  C   UNK N   1      29.337  23.204  -4.122  0.00  0.00     0.120 A 
HETATM    4  C   UNK N   1      29.948  21.195  -5.931  0.00  0.00     0.045 A 
HETATM    5  C   UNK N   1      30.287  22.239  -3.767  0.00  0.00     0.104 A 
HETATM    6  C   UNK N   1      29.555  20.125  -8.092  0.00  0.00     0.143 A 
HETATM    7  C   UNK N   1      28.976  22.179  -6.232  0.00  0.00     0.055 A 
HETATM    8  C   UNK N   1      28.554  21.076  -8.386  0.00  0.00     0.071 A 
HETATM    9  C   UNK N   1      30.605  21.229  -4.692  0.00  0.00     0.202 A 
HETATM   10  F   UNK N   1      29.855  19.121  -8.952  0.00  0.00    -0.204 F 
HETATM   11  N   UNK N   1      28.689  23.190  -5.329  0.00  0.00    -0.320 N 
HETATM   12  O   UNK N   1      31.435  20.376  -4.418  0.00  0.00    -0.286 OA
ENDROOT
BRANCH   8  13
HETATM   13  N   UNK N   1      27.752  21.030  -9.575  0.00  0.00    -0.375 N 
HETATM   14  C   UNK N   1      26.335  21.328  -9.506  0.00  0.00     0.142 C 
HETATM   15  C   UNK N   1      25.984  22.338 -10.590  0.00  0.00     0.133 C 
HETATM   16  N   UNK N   1      26.390  21.809 -11.893  0.00  0.00    -0.418 N 
HETATM   17  C   UNK N   1      27.848  21.663 -11.909  0.00  0.00     0.133 C 
HETATM   18  H   UNK N   1      25.762  21.582 -12.663  0.00  0.00     0.153 HD
HETATM   19  C   UNK N   1      28.285  20.637 -10.861  0.00  0.00     0.142 C 
ENDBRANCH   8  13
BRANCH  11  20
HETATM   20  C   UNK N   1      27.725  24.266  -5.585  0.00  0.00     0.039 A 
HETATM   21  C   UNK N   1      26.403  24.171  -5.101  0.00  0.00     0.033 A 
HETATM   22  C   UNK N   1      25.479  25.197  -5.325  0.00  0.00     0.044 A 
HETATM   23  C   UNK N   1      25.857  26.340  -6.033  0.00  0.00     0.116 A 
HETATM   24  C   UNK N   1      27.158  26.458  -6.516  0.00  0.00     0.044 A 
HETATM   25  F   UNK N   1      24.966  27.335  -6.252  0.00  0.00    -0.206 F 
HETATM   26  C   UNK N   1      28.076  25.433  -6.292  0.00  0.00     0.033 A 
ENDBRANCH  11  20
BRANCH   5  27
HETATM   27  C   UNK N   1      30.913  22.324  -2.421  0.00  0.00     0.181 C 
HETATM   28  O   UNK N   1      30.429  23.027  -1.546  0.00  0.00    -0.646 OA
BRANCH  27  29
HETATM   29  O   UNK N   1      32.039  21.631  -2.158  0.00  0.00    -0.772 OA
HETATM   30  H   UNK N   1      32.141  21.197  -1.334  0.00  0.00     0.167 HD
ENDBRANCH  27  29
ENDBRANCH   5  27
TORSDOF 4
ENDMDL
MODEL 3
REMARK VINA RESULT:      -7.1      2.567      5.736
REMARK  4 active torsions:
REMARK  status: ('A' for Active; 'I' for Inactive)
REMARK    1  A    between atoms: N_25  and  C_13 
REMARK    2  A    between atoms: C_20  and  C_15 
REMARK    3  A    between atoms: N_24  and  C_18 
REMARK    4  A    between atoms: O_28  and  C_20 
ROOT
HETATM    1  C   UNK N   1      22.387  16.849   5.585  0.00  0.00     0.062 A 
HETATM    2  C   UNK N   1      24.962  15.871   5.849  0.00  0.00     0.063 A 
HETATM    3  C   UNK N   1      25.602  18.873   3.848  0.00  0.00     0.120 A 
HETATM    4  C   UNK N   1      23.455  17.545   4.992  0.00  0.00     0.045 A 
HETATM    5  C   UNK N   1      24.312  19.376   3.651  0.00  0.00     0.104 A 
HETATM    6  C   UNK N   1      22.605  15.664   6.300  0.00  0.00     0.143 A 
HETATM    7  C   UNK N   1      24.777  17.061   5.141  0.00  0.00     0.055 A 
HETATM    8  C   UNK N   1      23.914  15.150   6.419  0.00  0.00     0.071 A 
HETATM    9  C   UNK N   1      23.225  18.708   4.244  0.00  0.00     0.202 A 
HETATM   10  F   UNK N   1      21.538  15.020   6.832  0.00  0.00    -0.204 F 
HETATM   11  N   UNK N   1      25.846  17.742   4.581  0.00  0.00    -0.320 N 
HETATM   12  O   UNK N   1      22.086  19.125   4.098  0.00  0.00    -0.286 OA
ENDROOT
BRANCH   8  13
HETATM   13  N   UNK N   1      24.212  13.900   7.060  0.00  0.00    -0.375 N 
HETATM   14  C   UNK N   1      25.195  13.847   8.124  0.00  0.00     0.142 C 
HETATM   15  C   UNK N   1      24.606  13.095   9.310  0.00  0.00     0.133 C 
HETATM   16  N   UNK N   1      24.171  11.768   8.873  0.00  0.00    -0.418 N 
HETATM   17  C   UNK N   1      23.091  11.925   7.894  0.00  0.00     0.133 C 
HETATM   18  H   UNK N   1      24.555  10.881   9.197  0.00  0.00     0.153 HD
HETATM   19  C   UNK N   1      23.608  12.651   6.651  0.00  0.00     0.142 C 
ENDBRANCH   8  13
BRANCH  11  20
HETATM   20  C   UNK N   1      27.247  17.325   4.724  0.00  0.00     0.039 A 
HETATM   21  C   UNK N   1      27.880  16.585   3.704  0.00  0.00     0.033 A 
HETATM   22  C   UNK N   1      29.219  16.196   3.823  0.00  0.00     0.044 A 
HETATM   23  C   UNK N   1      29.952  16.541   4.960  0.00  0.00     0.116 A 
HETATM   24  C   UNK N   1      29.348  17.276   5.977  0.00  0.00     0.044 A 
HETATM   25  F   UNK N   1      31.247  16.167   5.078  0.00  0.00    -0.206 F 
HETATM   26  C   UNK N   1      28.015  17.661   5.857  0.00  0.00     0.033 A 
ENDBRANCH  11  20
BRANCH   5  27
HETATM   27  C   UNK N   1      24.147  20.595   2.815  0.00  0.00     0.181 C 
HETATM   28  O   UNK N   1      24.990  20.906   1.986  0.00  0.00    -0.646 OA
BRANCH  27  29
HETATM   29  O   UNK N   1      23.064  21.381   2.977  0.00  0.00    -0.772 OA
HETATM   30  H   UNK N   1      22.372  21.115   3.550  0.00  0.00     0.167 HD
ENDBRANCH  27  29
ENDBRANCH   5  27
TORSDOF 4
ENDMDL
MODEL 4
REMARK VINA RESULT:      -7.1     11.842     14.296
REMARK  4 active torsions:
REMARK  status: ('A' for Active; 'I' for Inactive)
REMARK    1  A    between atoms: N_25  and  C_13 
REMARK    2  A    between atoms: C_20  and  C_15 
REMARK    3  A    between atoms: N_24  and  C_18 
REMARK    4  A    between atoms: O_28  and  C_20 
ROOT
HETATM    1  C   UNK N   1      28.880  23.748  -3.732  0.00  0.00     0.062 A 
HETATM    2  C   UNK N   1      28.574  22.575  -6.219  0.00  0.00     0.063 A 
HETATM    3  C   UNK N   1      31.669  20.959  -5.108  0.00  0.00     0.120 A 
HETATM    4  C   UNK N   1      29.830  22.813  -4.176  0.00  0.00     0.045 A 
HETATM    5  C   UNK N   1      31.887  21.563  -3.865  0.00  0.00     0.104 A 
HETATM    6  C   UNK N   1      27.786  24.102  -4.531  0.00  0.00     0.143 A 
HETATM    7  C   UNK N   1      29.669  22.193  -5.439  0.00  0.00     0.055 A 
HETATM    8  C   UNK N   1      27.637  23.522  -5.810  0.00  0.00     0.071 A 
HETATM    9  C   UNK N   1      30.946  22.493  -3.389  0.00  0.00     0.202 A 
HETATM   10  F   UNK N   1      26.912  25.027  -4.065  0.00  0.00    -0.204 F 
HETATM   11  N   UNK N   1      30.583  21.254  -5.889  0.00  0.00    -0.320 N 
HETATM   12  O   UNK N   1      31.101  23.033  -2.304  0.00  0.00    -0.286 OA
ENDROOT
BRANCH   8  13
HETATM   13  N   UNK N   1      26.593  23.893  -6.723  0.00  0.00    -0.375 N 
HETATM   14  C   UNK N   1      26.583  25.219  -7.312  0.00  0.00     0.142 C 
HETATM   15  C   UNK N   1      26.396  25.094  -8.818  0.00  0.00     0.133 C 
HETATM   16  N   UNK N   1      25.171  24.341  -9.092  0.00  0.00    -0.418 N 
HETATM   17  C   UNK N   1      25.328  22.979  -8.573  0.00  0.00     0.133 C 
HETATM   18  H   UNK N   1      24.345  24.703  -9.567  0.00  0.00     0.153 HD
HETATM   19  C   UNK N   1      25.494  23.012  -7.052  0.00  0.00     0.142 C 
ENDBRANCH   8  13
BRANCH  11  20
HETATM   20  C   UNK N   1      30.462  20.541  -7.167  0.00  0.00     0.039 A 
HETATM   21  C   UNK N   1      31.085  21.045  -8.327  0.00  0.00     0.033 A 
HETATM   22  C   UNK N   1      30.990  20.366  -9.547  0.00  0.00     0.044 A 
HETATM   23  C   UNK N   1      30.274  19.170  -9.631  0.00  0.00     0.116 A 
HETATM   24  C   UNK N   1      29.656  18.651  -8.496  0.00  0.00     0.044 A 
HETATM   25  F   UNK N   1      30.180  18.510 -10.809  0.00  0.00    -0.206 F 
HETATM   26  C   UNK N   1      29.751  19.330  -7.283  0.00  0.00     0.033 A 
ENDBRANCH  11  20
BRANCH   5  27
HETATM   27  C   UNK N   1      33.112  21.197  -3.105  0.00  0.00     0.181 C 
HETATM   28  O   UNK N   1      34.173  21.004  -3.680  0.00  0.00    -0.646 OA
BRANCH  27  29
HETATM   29  O   UNK N   1      33.057  21.060  -1.766  0.00  0.00    -0.772 OA
HETATM   30  H   UNK N   1      33.755  20.633  -1.309  0.00  0.00     0.167 HD
ENDBRANCH  27  29
ENDBRANCH   5  27
TORSDOF 4
ENDMDL
MODEL 5
REMARK VINA RESULT:      -7.1      6.584      8.242
REMARK  4 active torsions:
REMARK  status: ('A' for Active; 'I' for Inactive)
REMARK    1  A    between atoms: N_25  and  C_13 
REMARK    2  A    between atoms: C_20  and  C_15 
REMARK    3  A    between atoms: N_24  and  C_18 
REMARK    4  A    between atoms: O_28  and  C_20 
ROOT
HETATM    1  C   UNK N   1      20.250  13.881   4.952  0.00  0.00     0.062 A 
HETATM    2  C   UNK N   1      21.224  12.305   7.007  0.00  0.00     0.063 A 
HETATM    3  C   UNK N   1      20.827  15.498   8.760  0.00  0.00     0.120 A 
HETATM    4  C   UNK N   1      20.438  14.445   6.226  0.00  0.00     0.045 A 
HETATM    5  C   UNK N   1      20.378  16.341   7.738  0.00  0.00     0.104 A 
HETATM    6  C   UNK N   1      20.556  12.537   4.704  0.00  0.00     0.143 A 
HETATM    7  C   UNK N   1      20.916  13.639   7.287  0.00  0.00     0.055 A 
HETATM    8  C   UNK N   1      21.074  11.734   5.744  0.00  0.00     0.071 A 
HETATM    9  C   UNK N   1      20.169  15.802   6.456  0.00  0.00     0.202 A 
HETATM   10  F   UNK N   1      20.379  12.049   3.452  0.00  0.00    -0.204 F 
HETATM   11  N   UNK N   1      21.091  14.169   8.555  0.00  0.00    -0.320 N 
HETATM   12  O   UNK N   1      19.769  16.508   5.543  0.00  0.00    -0.286 OA
ENDROOT
BRANCH   8  13
HETATM   13  N   UNK N   1      21.492  10.374   5.552  0.00  0.00    -0.375 N 
HETATM   14  C   UNK N   1      20.508   9.346   5.274  0.00  0.00     0.142 C 
HETATM   15  C   UNK N   1      20.963   8.534   4.068  0.00  0.00     0.133 C 
HETATM   16  N   UNK N   1      22.296   7.989   4.328  0.00  0.00    -0.418 N 
HETATM   17  C   UNK N   1      23.241   9.101   4.468  0.00  0.00     0.133 C 
HETATM   18  H   UNK N   1      22.529   7.000   4.398  0.00  0.00     0.153 HD
HETATM   19  C   UNK N   1      22.870   9.956   5.682  0.00  0.00     0.142 C 
ENDBRANCH   8  13
BRANCH  11  20
HETATM   20  C   UNK N   1      21.544  13.389   9.713  0.00  0.00     0.039 A 
HETATM   21  C   UNK N   1      22.921  13.186   9.942  0.00  0.00     0.033 A 
HETATM   22  C   UNK N   1      23.366  12.457  11.051  0.00  0.00     0.044 A 
HETATM   23  C   UNK N   1      22.445  11.920  11.954  0.00  0.00     0.116 A 
HETATM   24  C   UNK N   1      21.081  12.113  11.749  0.00  0.00     0.044 A 
HETATM   25  F   UNK N   1      22.871  11.215  13.027  0.00  0.00    -0.206 F 
HETATM   26  C   UNK N   1      20.641  12.839  10.644  0.00  0.00     0.033 A 
ENDBRANCH  11  20
BRANCH   5  27
HETATM   27  C   UNK N   1      20.149  17.776   8.054  0.00  0.00     0.181 C 
HETATM   28  O   UNK N   1      19.357  18.109   8.923  0.00  0.00    -0.646 OA
BRANCH  27  29
HETATM   29  O   UNK N   1      20.808  18.730   7.367  0.00  0.00    -0.772 OA
HETATM   30  H   UNK N   1      21.742  18.697   7.296  0.00  0.00     0.167 HD
ENDBRANCH  27  29
ENDBRANCH   5  27
TORSDOF 4
ENDMDL
MODEL 6
REMARK VINA RESULT:      -7.0     11.645     14.836
REMARK  4 active torsions:
REMARK  status: ('A' for Active; 'I' for Inactive)
REMARK    1  A    between atoms: N_25  and  C_13 
REMARK    2  A    between atoms: C_20  and  C_15 
REMARK    3  A    between atoms: N_24  and  C_18 
REMARK    4  A    between atoms: O_28  and  C_20 
ROOT
HETATM    1  C   UNK N   1      28.822  22.087  -6.889  0.00  0.00     0.062 A 
HETATM    2  C   UNK N   1      27.448  24.482  -6.696  0.00  0.00     0.063 A 
HETATM    3  C   UNK N   1      29.133  24.427  -3.443  0.00  0.00     0.120 A 
HETATM    4  C   UNK N   1      28.939  22.859  -5.720  0.00  0.00     0.045 A 
HETATM    5  C   UNK N   1      29.806  23.201  -3.480  0.00  0.00     0.104 A 
HETATM    6  C   UNK N   1      28.014  22.507  -7.954  0.00  0.00     0.143 A 
HETATM    7  C   UNK N   1      28.256  24.096  -5.623  0.00  0.00     0.055 A 
HETATM    8  C   UNK N   1      27.294  23.717  -7.852  0.00  0.00     0.071 A 
HETATM    9  C   UNK N   1      29.717  22.414  -4.642  0.00  0.00     0.202 A 
HETATM   10  F   UNK N   1      27.917  21.714  -9.048  0.00  0.00    -0.204 F 
HETATM   11  N   UNK N   1      28.373  24.881  -4.488  0.00  0.00    -0.320 N 
HETATM   12  O   UNK N   1      30.299  21.342  -4.711  0.00  0.00    -0.286 OA
ENDROOT
BRANCH   8  13
HETATM   13  N   UNK N   1      26.380  24.175  -8.859  0.00  0.00    -0.375 N 
HETATM   14  C   UNK N   1      25.946  25.559  -8.869  0.00  0.00     0.142 C 
HETATM   15  C   UNK N   1      26.109  26.122 -10.274  0.00  0.00     0.133 C 
HETATM   16  N   UNK N   1      25.367  25.287 -11.219  0.00  0.00    -0.418 N 
HETATM   17  C   UNK N   1      25.960  23.947 -11.231  0.00  0.00     0.133 C 
HETATM   18  H   UNK N   1      24.570  25.589 -11.778  0.00  0.00     0.153 HD
HETATM   19  C   UNK N   1      25.812  23.294  -9.855  0.00  0.00     0.142 C 
ENDBRANCH   8  13
BRANCH  11  20
HETATM   20  C   UNK N   1      27.728  26.190  -4.329  0.00  0.00     0.039 A 
HETATM   21  C   UNK N   1      26.486  26.299  -3.670  0.00  0.00     0.033 A 
HETATM   22  C   UNK N   1      25.869  27.544  -3.499  0.00  0.00     0.044 A 
HETATM   23  C   UNK N   1      26.481  28.703  -3.979  0.00  0.00     0.116 A 
HETATM   24  C   UNK N   1      27.710  28.619  -4.628  0.00  0.00     0.044 A 
HETATM   25  F   UNK N   1      25.888  29.908  -3.815  0.00  0.00    -0.206 F 
HETATM   26  C   UNK N   1      28.322  27.379  -4.798  0.00  0.00     0.033 A 
ENDBRANCH  11  20
BRANCH   5  27
HETATM   27  C   UNK N   1      30.582  22.783  -2.282  0.00  0.00     0.181 C 
HETATM   28  O   UNK N   1      30.205  23.075  -1.157  0.00  0.00    -0.646 OA
BRANCH  27  29
HETATM   29  O   UNK N   1      31.725  22.085  -2.431  0.00  0.00    -0.772 OA
HETATM   30  H   UNK N   1      32.523  22.406  -2.058  0.00  0.00     0.167 HD
ENDBRANCH  27  29
ENDBRANCH   5  27
TORSDOF 4
ENDMDL
MODEL 7
REMARK VINA RESULT:      -7.0     12.020     14.405
REMARK  4 active torsions:
REMARK  status: ('A' for Active; 'I' for Inactive)
REMARK    1  A    between atoms: N_25  and  C_13 
REMARK    2  A    between atoms: C_20  and  C_15 
REMARK    3  A    between atoms: N_24  and  C_18 
REMARK    4  A    between atoms: O_28  and  C_20 
ROOT
HETATM    1  C   UNK N   1      27.574  22.519  -8.127  0.00  0.00     0.062 A 
HETATM    2  C   UNK N   1      27.813  24.490  -6.199  0.00  0.00     0.063 A 
HETATM    3  C   UNK N   1      25.593  26.168  -8.582  0.00  0.00     0.120 A 
HETATM    4  C   UNK N   1      26.900  23.740  -8.300  0.00  0.00     0.045 A 
HETATM    5  C   UNK N   1      25.483  25.217  -9.603  0.00  0.00     0.104 A 
HETATM    6  C   UNK N   1      28.372  22.288  -6.998  0.00  0.00     0.143 A 
HETATM    7  C   UNK N   1      27.001  24.745  -7.307  0.00  0.00     0.055 A 
HETATM    8  C   UNK N   1      28.514  23.298  -6.023  0.00  0.00     0.071 A 
HETATM    9  C   UNK N   1      26.137  23.981  -9.451  0.00  0.00     0.202 A 
HETATM   10  F   UNK N   1      29.019  21.102  -6.892  0.00  0.00    -0.204 F 
HETATM   11  N   UNK N   1      26.330  25.949  -7.449  0.00  0.00    -0.320 N 
HETATM   12  O   UNK N   1      26.055  23.125 -10.319  0.00  0.00    -0.286 OA
ENDROOT
BRANCH   8  13
HETATM   13  N   UNK N   1      29.378  23.173  -4.883  0.00  0.00    -0.375 N 
HETATM   14  C   UNK N   1      29.146  23.987  -3.706  0.00  0.00     0.142 C 
HETATM   15  C   UNK N   1      29.156  23.093  -2.473  0.00  0.00     0.133 C 
HETATM   16  N   UNK N   1      30.422  22.361  -2.417  0.00  0.00    -0.418 N 
HETATM   17  C   UNK N   1      30.505  21.474  -3.581  0.00  0.00     0.133 C 
HETATM   18  H   UNK N   1      31.128  22.452  -1.687  0.00  0.00     0.153 HD
HETATM   19  C   UNK N   1      30.530  22.299  -4.869  0.00  0.00     0.142 C 
ENDBRANCH   8  13
BRANCH  11  20
HETATM   20  C   UNK N   1      26.354  27.021  -6.447  0.00  0.00     0.039 A 
HETATM   21  C   UNK N   1      25.395  27.055  -5.414  0.00  0.00     0.033 A 
HETATM   22  C   UNK N   1      25.417  28.064  -4.444  0.00  0.00     0.044 A 
HETATM   23  C   UNK N   1      26.399  29.056  -4.485  0.00  0.00     0.116 A 
HETATM   24  C   UNK N   1      27.358  29.039  -5.494  0.00  0.00     0.044 A 
HETATM   25  F   UNK N   1      26.423  30.033  -3.549  0.00  0.00    -0.206 F 
HETATM   26  C   UNK N   1      27.333  28.034  -6.459  0.00  0.00     0.033 A 
ENDBRANCH  11  20
BRANCH   5  27
HETATM   27  C   UNK N   1      24.684  25.561 -10.809  0.00  0.00     0.181 C 
HETATM   28  O   UNK N   1      24.295  26.704 -10.999  0.00  0.00    -0.646 OA
BRANCH  27  29
HETATM   29  O   UNK N   1      24.366  24.603 -11.701  0.00  0.00    -0.772 OA
HETATM   30  H   UNK N   1      23.649  24.023 -11.532  0.00  0.00     0.167 HD
ENDBRANCH  27  29
ENDBRANCH   5  27
TORSDOF 4
ENDMDL
MODEL 8
REMARK VINA RESULT:      -6.9      3.401      4.730
REMARK  4 active torsions:
REMARK  status: ('A' for Active; 'I' for Inactive)
REMARK    1  A    between atoms: N_25  and  C_13 
REMARK    2  A    between atoms: C_20  and  C_15 
REMARK    3  A    between atoms: N_24  and  C_18 
REMARK    4  A    between atoms: O_28  and  C_20 
ROOT
HETATM    1  C   UNK N   1      23.042  18.081   5.203  0.00  0.00     0.062 A 
HETATM    2  C   UNK N   1      23.999  15.520   5.628  0.00  0.00     0.063 A 
HETATM    3  C   UNK N   1      21.053  15.490   7.807  0.00  0.00     0.120 A 
HETATM    4  C   UNK N   1      22.358  17.225   6.084  0.00  0.00     0.045 A 
HETATM    5  C   UNK N   1      20.562  16.791   7.657  0.00  0.00     0.104 A 
HETATM    6  C   UNK N   1      24.205  17.661   4.544  0.00  0.00     0.143 A 
HETATM    7  C   UNK N   1      22.831  15.906   6.290  0.00  0.00     0.055 A 
HETATM    8  C   UNK N   1      24.709  16.363   4.774  0.00  0.00     0.071 A 
HETATM    9  C   UNK N   1      21.219  17.666   6.772  0.00  0.00     0.202 A 
HETATM   10  F   UNK N   1      24.838  18.534   3.724  0.00  0.00    -0.204 F 
HETATM   11  N   UNK N   1      22.162  15.040   7.139  0.00  0.00    -0.320 N 
HETATM   12  O   UNK N   1      20.812  18.806   6.611  0.00  0.00    -0.286 OA
ENDROOT
BRANCH   8  13
HETATM   13  N   UNK N   1      25.938  15.886   4.206  0.00  0.00    -0.375 N 
HETATM   14  C   UNK N   1      25.912  14.867   3.174  0.00  0.00     0.142 C 
HETATM   15  C   UNK N   1      26.788  15.313   2.012  0.00  0.00     0.133 C 
HETATM   16  N   UNK N   1      28.139  15.590   2.503  0.00  0.00    -0.418 N 
HETATM   17  C   UNK N   1      28.079  16.714   3.441  0.00  0.00     0.133 C 
HETATM   18  H   UNK N   1      28.983  15.084   2.236  0.00  0.00     0.153 HD
HETATM   19  C   UNK N   1      27.234  16.337   4.660  0.00  0.00     0.142 C 
ENDBRANCH   8  13
BRANCH  11  20
HETATM   20  C   UNK N   1      22.567  13.648   7.374  0.00  0.00     0.039 A 
HETATM   21  C   UNK N   1      23.487  13.335   8.395  0.00  0.00     0.033 A 
HETATM   22  C   UNK N   1      23.869  12.011   8.638  0.00  0.00     0.044 A 
HETATM   23  C   UNK N   1      23.337  10.974   7.868  0.00  0.00     0.116 A 
HETATM   24  C   UNK N   1      22.423  11.261   6.857  0.00  0.00     0.044 A 
HETATM   25  F   UNK N   1      23.703   9.692   8.100  0.00  0.00    -0.206 F 
HETATM   26  C   UNK N   1      22.045  12.580   6.617  0.00  0.00     0.033 A 
ENDBRANCH  11  20
BRANCH   5  27
HETATM   27  C   UNK N   1      19.369  17.194   8.448  0.00  0.00     0.181 C 
HETATM   28  O   UNK N   1      18.401  16.455   8.544  0.00  0.00    -0.646 OA
BRANCH  27  29
HETATM   29  O   UNK N   1      19.341  18.395   9.059  0.00  0.00    -0.772 OA
HETATM   30  H   UNK N   1      19.330  18.445   9.995  0.00  0.00     0.167 HD
ENDBRANCH  27  29
ENDBRANCH   5  27
TORSDOF 4
ENDMDL
MODEL 9
REMARK VINA RESULT:      -6.9      4.677      6.265
REMARK  4 active torsions:
REMARK  status: ('A' for Active; 'I' for Inactive)
REMARK    1  A    between atoms: N_25  and  C_13 
REMARK    2  A    between atoms: C_20  and  C_15 
REMARK    3  A    between atoms: N_24  and  C_18 
REMARK    4  A    between atoms: O_28  and  C_20 
ROOT
HETATM    1  C   UNK N   1      21.463  16.354   7.203  0.00  0.00     0.062 A 
HETATM    2  C   UNK N   1      22.129  14.483   5.275  0.00  0.00     0.063 A 
HETATM    3  C   UNK N   1      21.948  17.510   3.219  0.00  0.00     0.120 A 
HETATM    4  C   UNK N   1      21.620  16.764   5.868  0.00  0.00     0.045 A 
HETATM    5  C   UNK N   1      21.565  18.479   4.153  0.00  0.00     0.104 A 
HETATM    6  C   UNK N   1      21.629  15.012   7.571  0.00  0.00     0.143 A 
HETATM    7  C   UNK N   1      21.981  15.815   4.880  0.00  0.00     0.055 A 
HETATM    8  C   UNK N   1      21.948  14.051   6.588  0.00  0.00     0.071 A 
HETATM    9  C   UNK N   1      21.413  18.100   5.499  0.00  0.00     0.202 A 
HETATM   10  F   UNK N   1      21.443  14.666   8.868  0.00  0.00    -0.204 F 
HETATM   11  N   UNK N   1      22.160  16.201   3.561  0.00  0.00    -0.320 N 
HETATM   12  O   UNK N   1      21.088  18.922   6.342  0.00  0.00    -0.286 OA
ENDROOT
BRANCH   8  13
HETATM   13  N   UNK N   1      22.051  12.646   6.867  0.00  0.00    -0.375 N 
HETATM   14  C   UNK N   1      21.047  11.731   6.359  0.00  0.00     0.142 C 
HETATM   15  C   UNK N   1      21.740  10.561   5.676  0.00  0.00     0.133 C 
HETATM   16  N   UNK N   1      22.662   9.926   6.619  0.00  0.00    -0.418 N 
HETATM   17  C   UNK N   1      23.709  10.888   6.974  0.00  0.00     0.133 C 
HETATM   18  H   UNK N   1      22.588   8.972   6.971  0.00  0.00     0.153 HD
HETATM   19  C   UNK N   1      23.097  12.090   7.696  0.00  0.00     0.142 C 
ENDBRANCH   8  13
BRANCH  11  20
HETATM   20  C   UNK N   1      22.571  15.286   2.490  0.00  0.00     0.039 A 
HETATM   21  C   UNK N   1      21.604  14.641   1.691  0.00  0.00     0.033 A 
HETATM   22  C   UNK N   1      21.985  13.778   0.657  0.00  0.00     0.044 A 
HETATM   23  C   UNK N   1      23.337  13.546   0.398  0.00  0.00     0.116 A 
HETATM   24  C   UNK N   1      24.309  14.176   1.171  0.00  0.00     0.044 A 
HETATM   25  F   UNK N   1      23.709  12.713  -0.602  0.00  0.00    -0.206 F 
HETATM   26  C   UNK N   1      23.928  15.034   2.201  0.00  0.00     0.033 A 
ENDBRANCH  11  20
BRANCH   5  27
HETATM   27  C   UNK N   1      21.329  19.868   3.676  0.00  0.00     0.181 C 
HETATM   28  O   UNK N   1      22.213  20.498   3.116  0.00  0.00    -0.646 OA
BRANCH  27  29
HETATM   29  O   UNK N   1      20.131  20.453   3.876  0.00  0.00    -0.772 OA
HETATM   30  H   UNK N   1      19.773  21.023   3.223  0.00  0.00     0.167 HD
ENDBRANCH  27  29
ENDBRANCH   5  27
TORSDOF 4
ENDMDL
