REMARK  7 active torsions:
REMARK  status: ('A' for Active; 'I' for Inactive)
REMARK    1  A    between atoms: C_3  and  C_15 
REMARK    2  A    between atoms: C_4  and  O_14 
REMARK    3  A    between atoms: C_7  and  N_9 
REMARK       I    between atoms: N_9  and  C_10 
REMARK    4  A    between atoms: C_10  and  C_13 
REMARK    5  A    between atoms: C_13  and  C_18 
REMARK    6  A    between atoms: C_13  and  N_24 
REMARK    7  A    between atoms: C_15  and  O_17 
ROOT
HETATM    1  C   UNK N   1       1.823   1.358   0.182  0.00  0.00     0.187 A 
HETATM    2  N   UNK N   1       1.825  -0.079   0.095  0.00  0.00    -0.291 N 
HETATM    3  C   UNK N   1       2.911  -0.999  -0.150  0.00  0.00     0.142 C 
HETATM    4  C   UNK N   1       4.179  -0.444  -0.286  0.00  0.00     0.088 C 
HETATM    5  C   UNK N   1       4.295   1.063  -0.299  0.00  0.00     0.143 C 
HETATM    6  S   UNK N   1       3.346   1.872   1.025  0.00  0.00    -0.134 SA
HETATM    7  C   UNK N   1       0.553   1.210   1.183  0.00  0.00     0.210 A 
HETATM    8  C   UNK N   1       0.774  -0.222   0.861  0.00  0.00     0.251 A 
HETATM    9  O   UNK N   1       0.363  -1.239   1.401  0.00  0.00    -0.271 OA
ENDROOT
BRANCH   7  10
HETATM   10  N   UNK N   1      -0.733   1.733   0.732  0.00  0.00    -0.343 N 
HETATM   11  C   UNK N   1      -1.402   1.434  -0.415  0.00  0.00     0.245 C 
HETATM   12  O   UNK N   1      -0.919   0.681  -1.244  0.00  0.00    -0.271 OA
HETATM   13  H   UNK N   1      -1.169   2.382   1.330  0.00  0.00     0.163 HD
BRANCH  11  14
HETATM   14  C   UNK N   1      -2.771   2.032  -0.662  0.00  0.00     0.197 C 
BRANCH  14  15
HETATM   15  C   UNK N   1      -3.974   1.185  -0.278  0.00  0.00    -0.049 A 
HETATM   16  C   UNK N   1      -5.345   1.827  -0.302  0.00  0.00     0.063 A 
HETATM   17  C   UNK N   1      -6.496   0.899  -0.015  0.00  0.00    -0.026 A 
HETATM   18  C   UNK N   1      -6.331  -0.401   0.243  0.00  0.00    -0.027 A 
HETATM   19  C   UNK N   1      -4.978  -1.054   0.283  0.00  0.00     0.054 A 
HETATM   20  C   UNK N   1      -3.828  -0.127  -0.017  0.00  0.00    -0.017 A 
ENDBRANCH  14  15
BRANCH  14  21
HETATM   21  N   UNK N   1      -2.866   3.404  -0.186  0.00  0.00    -0.415 N 
HETATM   22  H   UNK N   1      -2.067   3.943   0.147  0.00  0.00     0.151 HD
HETATM   23  H   UNK N   1      -3.783   3.852  -0.186  0.00  0.00     0.151 HD
ENDBRANCH  14  21
ENDBRANCH  11  14
ENDBRANCH   7  10
BRANCH   3  24
HETATM   24  C   UNK N   1       2.567  -2.473  -0.173  0.00  0.00     0.196 C 
HETATM   25  O   UNK N   1       1.409  -2.805  -0.363  0.00  0.00    -0.645 OA
BRANCH  24  26
HETATM   26  O   UNK N   1       3.467  -3.445   0.019  0.00  0.00    -0.772 OA
HETATM   27  H   UNK N   1       3.194  -4.331   0.154  0.00  0.00     0.167 HD
ENDBRANCH  24  26
ENDBRANCH   3  24
BRANCH   4  28
HETATM   28  O   UNK N   1       5.377  -1.084  -0.449  0.00  0.00    -0.357 OA
HETATM   29  C   UNK N   1       5.716  -2.409  -0.411  0.00  0.00     0.209 C 
ENDBRANCH   4  28
TORSDOF 7
