MODEL 1
REMARK VINA RESULT:      -7.1      0.000      0.000
REMARK  4 active torsions:
REMARK  status: ('A' for Active; 'I' for Inactive)
REMARK    1  A    between atoms: C_13  and  C_2 
REMARK    2  A    between atoms: C_16  and  C_9 
REMARK    3  A    between atoms: C_16  and  C_15 
REMARK    4  A    between atoms: O_21  and  C_17 
ROOT
HETATM    1  C   UNK N   1      29.330  16.691   6.271  0.00  0.00     0.195 C 
HETATM    2  O   UNK N   1      28.682  15.689   5.999  0.00  0.00    -0.287 OA
ENDROOT
BRANCH   1   3
HETATM    3  C   UNK N   1      30.809  16.600   6.098  0.00  0.00     0.018 A 
HETATM    4  C   UNK N   1      31.657  17.241   7.018  0.00  0.00     0.037 A 
HETATM    5  C   UNK N   1      33.047  17.138   6.903  0.00  0.00     0.046 A 
HETATM    6  C   UNK N   1      33.607  16.394   5.855  0.00  0.00     0.100 A 
HETATM    7 Br   UNK N   1      34.162  18.003   8.193  0.00  0.00    -0.048 Br
HETATM    8  C   UNK N   1      32.768  15.769   4.928  0.00  0.00     0.046 A 
HETATM    9  C   UNK N   1      31.388  15.879   5.060  0.00  0.00     0.037 A 
HETATM   10 Br   UNK N   1      33.471  14.743   3.478  0.00  0.00    -0.048 Br
BRANCH   6  11
HETATM   11  O   UNK N   1      34.943  16.278   5.742  0.00  0.00    -0.358 OA
HETATM   12  H   UNK N   1      35.505  16.884   6.185  0.00  0.00     0.217 HD
ENDBRANCH   6  11
ENDBRANCH   1   3
BRANCH   1  13
HETATM   13  C   UNK N   1      28.556  17.914   6.717  0.00  0.00     0.058 A 
HETATM   14  C   UNK N   1      27.978  18.800   5.818  0.00  0.00     0.014 A 
HETATM   15  C   UNK N   1      27.944  18.808   4.421  0.00  0.00     0.015 A 
HETATM   16  C   UNK N   1      27.388  19.796   6.544  0.00  0.00     0.087 A 
HETATM   17  C   UNK N   1      27.284  19.874   3.782  0.00  0.00     0.001 A 
HETATM   18  C   UNK N   1      26.677  20.898   4.542  0.00  0.00     0.003 A 
HETATM   19  C   UNK N   1      26.727  20.863   5.947  0.00  0.00     0.038 A 
HETATM   20  O   UNK N   1      27.561  19.590   7.822  0.00  0.00    -0.313 OA
HETATM   21  C   UNK N   1      28.256  18.480   7.986  0.00  0.00     0.068 A 
BRANCH  21  22
HETATM   22  C   UNK N   1      28.634  18.029   9.353  0.00  0.00     0.061 C 
HETATM   23  C   UNK N   1      29.876  18.755   9.834  0.00  0.00     0.012 C 
ENDBRANCH  21  22
ENDBRANCH   1  13
TORSDOF 4
ENDMDL
MODEL 2
REMARK VINA RESULT:      -7.1      0.053      2.022
REMARK  4 active torsions:
REMARK  status: ('A' for Active; 'I' for Inactive)
REMARK    1  A    between atoms: C_13  and  C_2 
REMARK    2  A    between atoms: C_16  and  C_9 
REMARK    3  A    between atoms: C_16  and  C_15 
REMARK    4  A    between atoms: O_21  and  C_17 
ROOT
HETATM    1  C   UNK N   1      29.307  16.709   6.275  0.00  0.00     0.195 C 
HETATM    2  O   UNK N   1      28.654  15.718   5.972  0.00  0.00    -0.287 OA
ENDROOT
BRANCH   1   3
HETATM    3  C   UNK N   1      30.789  16.596   6.152  0.00  0.00     0.018 A 
HETATM    4  C   UNK N   1      31.344  15.865   5.087  0.00  0.00     0.037 A 
HETATM    5  C   UNK N   1      32.731  15.777   4.924  0.00  0.00     0.046 A 
HETATM    6  C   UNK N   1      33.582  16.419   5.835  0.00  0.00     0.100 A 
HETATM    7 Br   UNK N   1      33.442  14.796   3.446  0.00  0.00    -0.048 Br
HETATM    8  C   UNK N   1      33.035  17.133   6.906  0.00  0.00     0.046 A 
HETATM    9  C   UNK N   1      31.654  17.212   7.049  0.00  0.00     0.037 A 
HETATM   10 Br   UNK N   1      34.142  18.025   8.180  0.00  0.00    -0.048 Br
BRANCH   6  11
HETATM   11  O   UNK N   1      34.917  16.351   5.682  0.00  0.00    -0.358 OA
HETATM   12  H   UNK N   1      35.386  15.599   5.987  0.00  0.00     0.217 HD
ENDBRANCH   6  11
ENDBRANCH   1   3
BRANCH   1  13
HETATM   13  C   UNK N   1      28.536  17.940   6.703  0.00  0.00     0.058 A 
HETATM   14  C   UNK N   1      27.957  18.813   5.791  0.00  0.00     0.014 A 
HETATM   15  C   UNK N   1      27.920  18.799   4.394  0.00  0.00     0.015 A 
HETATM   16  C   UNK N   1      27.370  19.821   6.503  0.00  0.00     0.087 A 
HETATM   17  C   UNK N   1      27.261  19.855   3.740  0.00  0.00     0.001 A 
HETATM   18  C   UNK N   1      26.658  20.892   4.485  0.00  0.00     0.003 A 
HETATM   19  C   UNK N   1      26.710  20.880   5.890  0.00  0.00     0.038 A 
HETATM   20  O   UNK N   1      27.545  19.635   7.783  0.00  0.00    -0.313 OA
HETATM   21  C   UNK N   1      28.239  18.527   7.963  0.00  0.00     0.068 A 
BRANCH  21  22
HETATM   22  C   UNK N   1      28.619  18.097   9.337  0.00  0.00     0.061 C 
HETATM   23  C   UNK N   1      29.885  18.799   9.788  0.00  0.00     0.012 C 
ENDBRANCH  21  22
ENDBRANCH   1  13
TORSDOF 4
ENDMDL
MODEL 3
REMARK VINA RESULT:      -6.8      8.841     11.592
REMARK  4 active torsions:
REMARK  status: ('A' for Active; 'I' for Inactive)
REMARK    1  A    between atoms: C_13  and  C_2 
REMARK    2  A    between atoms: C_16  and  C_9 
REMARK    3  A    between atoms: C_16  and  C_15 
REMARK    4  A    between atoms: O_21  and  C_17 
ROOT
HETATM    1  C   UNK N   1      36.817  12.329  13.741  0.00  0.00     0.195 C 
HETATM    2  O   UNK N   1      37.813  11.618  13.783  0.00  0.00    -0.287 OA
ENDROOT
BRANCH   1   3
HETATM    3  C   UNK N   1      36.414  12.837  12.397  0.00  0.00     0.018 A 
HETATM    4  C   UNK N   1      36.274  11.936  11.328  0.00  0.00     0.037 A 
HETATM    5  C   UNK N   1      35.857  12.379  10.067  0.00  0.00     0.046 A 
HETATM    6  C   UNK N   1      35.582  13.739   9.862  0.00  0.00     0.100 A 
HETATM    7 Br   UNK N   1      35.654  11.115   8.648  0.00  0.00    -0.048 Br
HETATM    8  C   UNK N   1      35.736  14.641  10.919  0.00  0.00     0.046 A 
HETATM    9  C   UNK N   1      36.147  14.181  12.166  0.00  0.00     0.037 A 
HETATM   10 Br   UNK N   1      35.378  16.504  10.701  0.00  0.00    -0.048 Br
BRANCH   6  11
HETATM   11  O   UNK N   1      35.169  14.174   8.658  0.00  0.00    -0.358 OA
HETATM   12  H   UNK N   1      34.572  13.657   8.153  0.00  0.00     0.217 HD
ENDBRANCH   6  11
ENDBRANCH   1   3
BRANCH   1  13
HETATM   13  C   UNK N   1      36.091  12.579  15.046  0.00  0.00     0.058 A 
HETATM   14  C   UNK N   1      36.339  13.694  15.836  0.00  0.00     0.014 A 
HETATM   15  C   UNK N   1      37.216  14.769  15.668  0.00  0.00     0.015 A 
HETATM   16  C   UNK N   1      35.544  13.598  16.944  0.00  0.00     0.087 A 
HETATM   17  C   UNK N   1      37.256  15.752  16.673  0.00  0.00     0.001 A 
HETATM   18  C   UNK N   1      36.430  15.644  17.813  0.00  0.00     0.003 A 
HETATM   19  C   UNK N   1      35.558  14.551  17.956  0.00  0.00     0.038 A 
HETATM   20  O   UNK N   1      34.826  12.509  16.895  0.00  0.00    -0.313 OA
HETATM   21  C   UNK N   1      35.113  11.858  15.783  0.00  0.00     0.068 A 
BRANCH  21  22
HETATM   22  C   UNK N   1      34.463  10.550  15.493  0.00  0.00     0.061 C 
HETATM   23  C   UNK N   1      33.650  10.626  14.215  0.00  0.00     0.012 C 
ENDBRANCH  21  22
ENDBRANCH   1  13
TORSDOF 4
ENDMDL
MODEL 4
REMARK VINA RESULT:      -6.8      8.814     11.421
REMARK  4 active torsions:
REMARK  status: ('A' for Active; 'I' for Inactive)
REMARK    1  A    between atoms: C_13  and  C_2 
REMARK    2  A    between atoms: C_16  and  C_9 
REMARK    3  A    between atoms: C_16  and  C_15 
REMARK    4  A    between atoms: O_21  and  C_17 
ROOT
HETATM    1  C   UNK N   1      36.747  12.333  13.705  0.00  0.00     0.195 C 
HETATM    2  O   UNK N   1      37.777  11.673  13.735  0.00  0.00    -0.287 OA
ENDROOT
BRANCH   1   3
HETATM    3  C   UNK N   1      36.289  12.800  12.364  0.00  0.00     0.018 A 
HETATM    4  C   UNK N   1      36.049  14.169  12.151  0.00  0.00     0.037 A 
HETATM    5  C   UNK N   1      35.659  14.641  10.893  0.00  0.00     0.046 A 
HETATM    6  C   UNK N   1      35.498  13.740   9.830  0.00  0.00     0.100 A 
HETATM    7 Br   UNK N   1      35.369  16.513  10.640  0.00  0.00    -0.048 Br
HETATM    8  C   UNK N   1      35.720  12.376  10.042  0.00  0.00     0.046 A 
HETATM    9  C   UNK N   1      36.110  11.926  11.299  0.00  0.00     0.037 A 
HETATM   10 Br   UNK N   1      35.515  11.101   8.635  0.00  0.00    -0.048 Br
BRANCH   6  11
HETATM   11  O   UNK N   1      35.135  14.184   8.613  0.00  0.00    -0.358 OA
HETATM   12  H   UNK N   1      34.241  14.116   8.337  0.00  0.00     0.217 HD
ENDBRANCH   6  11
ENDBRANCH   1   3
BRANCH   1  13
HETATM   13  C   UNK N   1      36.038  12.568  15.023  0.00  0.00     0.058 A 
HETATM   14  C   UNK N   1      36.302  13.670  15.826  0.00  0.00     0.014 A 
HETATM   15  C   UNK N   1      37.181  14.744  15.662  0.00  0.00     0.015 A 
HETATM   16  C   UNK N   1      35.520  13.563  16.941  0.00  0.00     0.087 A 
HETATM   17  C   UNK N   1      37.239  15.712  16.680  0.00  0.00     0.001 A 
HETATM   18  C   UNK N   1      36.426  15.592  17.829  0.00  0.00     0.003 A 
HETATM   19  C   UNK N   1      35.550  14.500  17.967  0.00  0.00     0.038 A 
HETATM   20  O   UNK N   1      34.796  12.477  16.886  0.00  0.00    -0.313 OA
HETATM   21  C   UNK N   1      35.066  11.841  15.762  0.00  0.00     0.068 A 
BRANCH  21  22
HETATM   22  C   UNK N   1      34.406  10.540  15.461  0.00  0.00     0.061 C 
HETATM   23  C   UNK N   1      33.668  10.605  14.137  0.00  0.00     0.012 C 
ENDBRANCH  21  22
ENDBRANCH   1  13
TORSDOF 4
ENDMDL
MODEL 5
REMARK VINA RESULT:      -6.6      5.154      8.128
REMARK  4 active torsions:
REMARK  status: ('A' for Active; 'I' for Inactive)
REMARK    1  A    between atoms: C_13  and  C_2 
REMARK    2  A    between atoms: C_16  and  C_9 
REMARK    3  A    between atoms: C_16  and  C_15 
REMARK    4  A    between atoms: O_21  and  C_17 
ROOT
HETATM    1  C   UNK N   1      25.727  20.176   3.490  0.00  0.00     0.195 C 
HETATM    2  O   UNK N   1      26.031  20.857   2.519  0.00  0.00    -0.287 OA
ENDROOT
BRANCH   1   3
HETATM    3  C   UNK N   1      24.296  19.766   3.599  0.00  0.00     0.018 A 
HETATM    4  C   UNK N   1      23.336  20.375   2.771  0.00  0.00     0.037 A 
HETATM    5  C   UNK N   1      21.994  19.981   2.823  0.00  0.00     0.046 A 
HETATM    6  C   UNK N   1      21.597  18.973   3.714  0.00  0.00     0.100 A 
HETATM    7 Br   UNK N   1      20.726  20.815   1.662  0.00  0.00    -0.048 Br
HETATM    8  C   UNK N   1      22.546  18.378   4.550  0.00  0.00     0.046 A 
HETATM    9  C   UNK N   1      23.876  18.779   4.482  0.00  0.00     0.037 A 
HETATM   10 Br   UNK N   1      22.066  17.002   5.784  0.00  0.00    -0.048 Br
BRANCH   6  11
HETATM   11  O   UNK N   1      20.312  18.578   3.763  0.00  0.00    -0.358 OA
HETATM   12  H   UNK N   1      20.038  17.952   4.406  0.00  0.00     0.217 HD
ENDBRANCH   6  11
ENDBRANCH   1   3
BRANCH   1  13
HETATM   13  C   UNK N   1      26.840  19.800   4.446  0.00  0.00     0.058 A 
HETATM   14  C   UNK N   1      27.537  18.604   4.345  0.00  0.00     0.014 A 
HETATM   15  C   UNK N   1      27.429  17.544   3.441  0.00  0.00     0.015 A 
HETATM   16  C   UNK N   1      28.443  18.569   5.369  0.00  0.00     0.087 A 
HETATM   17  C   UNK N   1      28.279  16.437   3.615  0.00  0.00     0.001 A 
HETATM   18  C   UNK N   1      29.211  16.411   4.676  0.00  0.00     0.003 A 
HETATM   19  C   UNK N   1      29.298  17.492   5.570  0.00  0.00     0.038 A 
HETATM   20  O   UNK N   1      28.353  19.652   6.091  0.00  0.00    -0.313 OA
HETATM   21  C   UNK N   1      27.409  20.425   5.588  0.00  0.00     0.068 A 
BRANCH  21  22
HETATM   22  C   UNK N   1      27.067  21.714   6.249  0.00  0.00     0.061 C 
HETATM   23  C   UNK N   1      26.149  21.484   7.435  0.00  0.00     0.012 C 
ENDBRANCH  21  22
ENDBRANCH   1  13
TORSDOF 4
ENDMDL
MODEL 6
REMARK VINA RESULT:      -6.6      5.120      8.028
REMARK  4 active torsions:
REMARK  status: ('A' for Active; 'I' for Inactive)
REMARK    1  A    between atoms: C_13  and  C_2 
REMARK    2  A    between atoms: C_16  and  C_9 
REMARK    3  A    between atoms: C_16  and  C_15 
REMARK    4  A    between atoms: O_21  and  C_17 
ROOT
HETATM    1  C   UNK N   1      25.772  20.198   3.510  0.00  0.00     0.195 C 
HETATM    2  O   UNK N   1      26.096  20.898   2.560  0.00  0.00    -0.287 OA
ENDROOT
BRANCH   1   3
HETATM    3  C   UNK N   1      24.345  19.769   3.570  0.00  0.00     0.018 A 
HETATM    4  C   UNK N   1      23.958  18.769   4.481  0.00  0.00     0.037 A 
HETATM    5  C   UNK N   1      22.620  18.376   4.587  0.00  0.00     0.046 A 
HETATM    6  C   UNK N   1      21.649  18.979   3.774  0.00  0.00     0.100 A 
HETATM    7 Br   UNK N   1      22.134  17.033   5.857  0.00  0.00    -0.048 Br
HETATM    8  C   UNK N   1      22.032  19.961   2.855  0.00  0.00     0.046 A 
HETATM    9  C   UNK N   1      23.367  20.342   2.766  0.00  0.00     0.037 A 
HETATM   10 Br   UNK N   1      20.757  20.816   1.719  0.00  0.00    -0.048 Br
BRANCH   6  11
HETATM   11  O   UNK N   1      20.357  18.617   3.876  0.00  0.00    -0.358 OA
HETATM   12  H   UNK N   1      19.723  18.974   3.285  0.00  0.00     0.217 HD
ENDBRANCH   6  11
ENDBRANCH   1   3
BRANCH   1  13
HETATM   13  C   UNK N   1      26.861  19.820   4.493  0.00  0.00     0.058 A 
HETATM   14  C   UNK N   1      27.565  18.626   4.404  0.00  0.00     0.014 A 
HETATM   15  C   UNK N   1      27.482  17.570   3.492  0.00  0.00     0.015 A 
HETATM   16  C   UNK N   1      28.443  18.588   5.451  0.00  0.00     0.087 A 
HETATM   17  C   UNK N   1      28.331  16.465   3.683  0.00  0.00     0.001 A 
HETATM   18  C   UNK N   1      29.235  16.436   4.767  0.00  0.00     0.003 A 
HETATM   19  C   UNK N   1      29.296  17.512   5.669  0.00  0.00     0.038 A 
HETATM   20  O   UNK N   1      28.332  19.667   6.176  0.00  0.00    -0.313 OA
HETATM   21  C   UNK N   1      27.399  20.440   5.653  0.00  0.00     0.068 A 
BRANCH  21  22
HETATM   22  C   UNK N   1      27.036  21.726   6.311  0.00  0.00     0.061 C 
HETATM   23  C   UNK N   1      26.139  21.481   7.509  0.00  0.00     0.012 C 
ENDBRANCH  21  22
ENDBRANCH   1  13
TORSDOF 4
ENDMDL
MODEL 7
REMARK VINA RESULT:      -6.6      1.671      3.152
REMARK  4 active torsions:
REMARK  status: ('A' for Active; 'I' for Inactive)
REMARK    1  A    between atoms: C_13  and  C_2 
REMARK    2  A    between atoms: C_16  and  C_9 
REMARK    3  A    between atoms: C_16  and  C_15 
REMARK    4  A    between atoms: O_21  and  C_17 
ROOT
HETATM    1  C   UNK N   1      29.087  17.314   7.376  0.00  0.00     0.195 C 
HETATM    2  O   UNK N   1      28.831  17.221   8.570  0.00  0.00    -0.287 OA
ENDROOT
BRANCH   1   3
HETATM    3  C   UNK N   1      30.528  17.253   6.993  0.00  0.00     0.018 A 
HETATM    4  C   UNK N   1      30.881  17.152   5.636  0.00  0.00     0.037 A 
HETATM    5  C   UNK N   1      32.224  17.134   5.245  0.00  0.00     0.046 A 
HETATM    6  C   UNK N   1      33.234  17.210   6.216  0.00  0.00     0.100 A 
HETATM    7 Br   UNK N   1      32.660  17.025   3.387  0.00  0.00    -0.048 Br
HETATM    8  C   UNK N   1      32.887  17.293   7.567  0.00  0.00     0.046 A 
HETATM    9  C   UNK N   1      31.546  17.313   7.937  0.00  0.00     0.037 A 
HETATM   10 Br   UNK N   1      34.216  17.396   8.935  0.00  0.00    -0.048 Br
BRANCH   6  11
HETATM   11  O   UNK N   1      34.529  17.206   5.850  0.00  0.00    -0.358 OA
HETATM   12  H   UNK N   1      34.833  17.807   5.198  0.00  0.00     0.217 HD
ENDBRANCH   6  11
ENDBRANCH   1   3
BRANCH   1  13
HETATM   13  C   UNK N   1      27.914  17.443   6.426  0.00  0.00     0.058 A 
HETATM   14  C   UNK N   1      27.410  18.673   6.026  0.00  0.00     0.014 A 
HETATM   15  C   UNK N   1      27.798  19.978   6.342  0.00  0.00     0.015 A 
HETATM   16  C   UNK N   1      26.348  18.433   5.200  0.00  0.00     0.087 A 
HETATM   17  C   UNK N   1      27.062  21.039   5.785  0.00  0.00     0.001 A 
HETATM   18  C   UNK N   1      25.967  20.780   4.933  0.00  0.00     0.003 A 
HETATM   19  C   UNK N   1      25.599  19.457   4.632  0.00  0.00     0.038 A 
HETATM   20  O   UNK N   1      26.160  17.148   5.063  0.00  0.00    -0.313 OA
HETATM   21  C   UNK N   1      27.066  16.506   5.776  0.00  0.00     0.068 A 
BRANCH  21  22
HETATM   22  C   UNK N   1      27.056  15.018   5.833  0.00  0.00     0.061 C 
HETATM   23  C   UNK N   1      28.249  14.444   5.094  0.00  0.00     0.012 C 
ENDBRANCH  21  22
ENDBRANCH   1  13
TORSDOF 4
ENDMDL
MODEL 8
REMARK VINA RESULT:      -6.5      2.795      5.366
REMARK  4 active torsions:
REMARK  status: ('A' for Active; 'I' for Inactive)
REMARK    1  A    between atoms: C_13  and  C_2 
REMARK    2  A    between atoms: C_16  and  C_9 
REMARK    3  A    between atoms: C_16  and  C_15 
REMARK    4  A    between atoms: O_21  and  C_17 
ROOT
HETATM    1  C   UNK N   1      33.767  17.122   6.955  0.00  0.00     0.195 C 
HETATM    2  O   UNK N   1      34.349  18.157   6.656  0.00  0.00    -0.287 OA
ENDROOT
BRANCH   1   3
HETATM    3  C   UNK N   1      34.557  16.103   7.706  0.00  0.00     0.018 A 
HETATM    4  C   UNK N   1      35.130  15.022   7.014  0.00  0.00     0.037 A 
HETATM    5  C   UNK N   1      35.910  14.074   7.687  0.00  0.00     0.046 A 
HETATM    6  C   UNK N   1      36.118  14.195   9.068  0.00  0.00     0.100 A 
HETATM    7 Br   UNK N   1      36.693  12.635   6.702  0.00  0.00    -0.048 Br
HETATM    8  C   UNK N   1      35.536  15.260   9.763  0.00  0.00     0.046 A 
HETATM    9  C   UNK N   1      34.767  16.195   9.077  0.00  0.00     0.037 A 
HETATM   10 Br   UNK N   1      35.781  15.478  11.644  0.00  0.00    -0.048 Br
BRANCH   6  11
HETATM   11  O   UNK N   1      36.875  13.297   9.723  0.00  0.00    -0.358 OA
HETATM   12  H   UNK N   1      37.633  12.932   9.307  0.00  0.00     0.217 HD
ENDBRANCH   6  11
ENDBRANCH   1   3
BRANCH   1  13
HETATM   13  C   UNK N   1      32.309  17.010   6.561  0.00  0.00     0.058 A 
HETATM   14  C   UNK N   1      31.278  17.443   7.385  0.00  0.00     0.014 A 
HETATM   15  C   UNK N   1      31.293  18.037   8.650  0.00  0.00     0.015 A 
HETATM   16  C   UNK N   1      30.101  17.172   6.746  0.00  0.00     0.087 A 
HETATM   17  C   UNK N   1      30.059  18.347   9.248  0.00  0.00     0.001 A 
HETATM   18  C   UNK N   1      28.848  18.064   8.580  0.00  0.00     0.003 A 
HETATM   19  C   UNK N   1      28.864  17.466   7.307  0.00  0.00     0.038 A 
HETATM   20  O   UNK N   1      30.330  16.605   5.593  0.00  0.00    -0.313 OA
HETATM   21  C   UNK N   1      31.633  16.480   5.429  0.00  0.00     0.068 A 
BRANCH  21  22
HETATM   22  C   UNK N   1      32.174  15.822   4.208  0.00  0.00     0.061 C 
HETATM   23  C   UNK N   1      32.844  16.837   3.302  0.00  0.00     0.012 C 
ENDBRANCH  21  22
ENDBRANCH   1  13
TORSDOF 4
ENDMDL
MODEL 9
REMARK VINA RESULT:      -6.5      8.040     10.425
REMARK  4 active torsions:
REMARK  status: ('A' for Active; 'I' for Inactive)
REMARK    1  A    between atoms: C_13  and  C_2 
REMARK    2  A    between atoms: C_16  and  C_9 
REMARK    3  A    between atoms: C_16  and  C_15 
REMARK    4  A    between atoms: O_21  and  C_17 
ROOT
HETATM    1  C   UNK N   1      21.541  17.453   5.995  0.00  0.00     0.195 C 
HETATM    2  O   UNK N   1      21.428  18.451   6.696  0.00  0.00    -0.287 OA
ENDROOT
BRANCH   1   3
HETATM    3  C   UNK N   1      21.112  17.582   4.572  0.00  0.00     0.018 A 
HETATM    4  C   UNK N   1      21.122  18.846   3.956  0.00  0.00     0.037 A 
HETATM    5  C   UNK N   1      20.764  18.990   2.611  0.00  0.00     0.046 A 
HETATM    6  C   UNK N   1      20.383  17.864   1.867  0.00  0.00     0.100 A 
HETATM    7 Br   UNK N   1      20.818  20.723   1.806  0.00  0.00    -0.048 Br
HETATM    8  C   UNK N   1      20.355  16.608   2.480  0.00  0.00     0.046 A 
HETATM    9  C   UNK N   1      20.718  16.484   3.817  0.00  0.00     0.037 A 
HETATM   10 Br   UNK N   1      19.843  15.039   1.520  0.00  0.00    -0.048 Br
BRANCH   6  11
HETATM   11  O   UNK N   1      20.049  17.989   0.570  0.00  0.00    -0.358 OA
HETATM   12  H   UNK N   1      20.144  17.259  -0.011  0.00  0.00     0.217 HD
ENDBRANCH   6  11
ENDBRANCH   1   3
BRANCH   1  13
HETATM   13  C   UNK N   1      22.135  16.219   6.642  0.00  0.00     0.058 A 
HETATM   14  C   UNK N   1      21.499  15.536   7.670  0.00  0.00     0.014 A 
HETATM   15  C   UNK N   1      20.279  15.761   8.313  0.00  0.00     0.015 A 
HETATM   16  C   UNK N   1      22.310  14.499   8.038  0.00  0.00     0.087 A 
HETATM   17  C   UNK N   1      19.910  14.890   9.354  0.00  0.00     0.001 A 
HETATM   18  C   UNK N   1      20.755  13.822   9.726  0.00  0.00     0.003 A 
HETATM   19  C   UNK N   1      21.977  13.619   9.061  0.00  0.00     0.038 A 
HETATM   20  O   UNK N   1      23.397  14.495   7.315  0.00  0.00    -0.313 OA
HETATM   21  C   UNK N   1      23.349  15.502   6.464  0.00  0.00     0.068 A 
BRANCH  21  22
HETATM   22  C   UNK N   1      24.490  15.758   5.542  0.00  0.00     0.061 C 
HETATM   23  C   UNK N   1      24.152  15.309   4.133  0.00  0.00     0.012 C 
ENDBRANCH  21  22
ENDBRANCH   1  13
TORSDOF 4
ENDMDL
