MODEL 1
REMARK VINA RESULT:      -5.6      0.000      0.000
REMARK  6 active torsions:
REMARK  status: ('A' for Active; 'I' for Inactive)
REMARK    1  A    between atoms: C_5  and  C_2 
REMARK    2  A    between atoms: O_15  and  C_5 
REMARK    3  A    between atoms: C_8  and  C_7 
REMARK    4  A    between atoms: C_11  and  C_7 
REMARK    5  A    between atoms: O_15  and  C_10 
REMARK    6  A    between atoms: O_14  and  C_11 
ROOT
HETATM    1  C   UNK N   1      30.795  18.340   8.911  0.00  0.00     0.010 A 
HETATM    2  C   UNK N   1      29.475  18.497   8.477  0.00  0.00     0.039 A 
HETATM    3  C   UNK N   1      31.295  17.086   6.918  0.00  0.00     0.034 A 
HETATM    4  C   UNK N   1      31.717  17.641   8.128  0.00  0.00    -0.046 A 
HETATM    5  C   UNK N   1      29.986  17.233   6.466  0.00  0.00     0.068 A 
HETATM    6  C   UNK N   1      29.052  17.968   7.249  0.00  0.00     0.090 A 
HETATM    7 Cl   UNK N   1      29.599  16.452   4.939  0.00  0.00    -0.081 Cl
ENDROOT
BRANCH   4   8
HETATM    8  C   UNK N   1      33.141  17.524   8.612  0.00  0.00     0.148 C 
BRANCH   8   9
HETATM    9  C   UNK N   1      34.238  18.215   7.829  0.00  0.00     0.143 C 
HETATM   10  O   UNK N   1      34.888  19.089   8.372  0.00  0.00    -0.650 OA
BRANCH   9  11
HETATM   11  O   UNK N   1      34.514  17.892   6.549  0.00  0.00    -0.776 OA
HETATM   12  H   UNK N   1      33.864  18.007   5.885  0.00  0.00     0.167 HD
ENDBRANCH   9  11
ENDBRANCH   8   9
ENDBRANCH   4   8
BRANCH   6  13
HETATM   13  O   UNK N   1      27.765  18.198   6.874  0.00  0.00    -0.346 OA
BRANCH  13  14
HETATM   14  C   UNK N   1      27.383  19.113   5.920  0.00  0.00     0.202 C 
BRANCH  14  15
HETATM   15  C   UNK N   1      26.940  20.384   6.558  0.00  0.00    -0.011 C 
HETATM   16  C   UNK N   1      27.514  21.529   6.201  0.00  0.00     0.009 C 
ENDBRANCH  14  15
ENDBRANCH  13  14
ENDBRANCH   6  13
TORSDOF 6
ENDMDL
MODEL 2
REMARK VINA RESULT:      -5.6      1.648      2.158
REMARK  6 active torsions:
REMARK  status: ('A' for Active; 'I' for Inactive)
REMARK    1  A    between atoms: C_5  and  C_2 
REMARK    2  A    between atoms: O_15  and  C_5 
REMARK    3  A    between atoms: C_8  and  C_7 
REMARK    4  A    between atoms: C_11  and  C_7 
REMARK    5  A    between atoms: O_15  and  C_10 
REMARK    6  A    between atoms: O_14  and  C_11 
ROOT
HETATM    1  C   UNK N   1      31.726  17.167   6.129  0.00  0.00     0.010 A 
HETATM    2  C   UNK N   1      30.336  17.265   6.015  0.00  0.00     0.039 A 
HETATM    3  C   UNK N   1      31.581  17.858   8.430  0.00  0.00     0.034 A 
HETATM    4  C   UNK N   1      32.357  17.454   7.342  0.00  0.00    -0.046 A 
HETATM    5  C   UNK N   1      30.195  17.960   8.339  0.00  0.00     0.068 A 
HETATM    6  C   UNK N   1      29.548  17.642   7.112  0.00  0.00     0.090 A 
HETATM    7 Cl   UNK N   1      29.359  18.511   9.785  0.00  0.00    -0.081 Cl
ENDROOT
BRANCH   4   8
HETATM    8  C   UNK N   1      33.855  17.301   7.437  0.00  0.00     0.148 C 
BRANCH   8   9
HETATM    9  C   UNK N   1      34.589  17.989   8.569  0.00  0.00     0.143 C 
HETATM   10  O   UNK N   1      35.083  19.084   8.371  0.00  0.00    -0.650 OA
BRANCH   9  11
HETATM   11  O   UNK N   1      34.713  17.424   9.788  0.00  0.00    -0.776 OA
HETATM   12  H   UNK N   1      35.186  16.622   9.887  0.00  0.00     0.167 HD
ENDBRANCH   9  11
ENDBRANCH   8   9
ENDBRANCH   4   8
BRANCH   6  13
HETATM   13  O   UNK N   1      28.199  17.674   6.936  0.00  0.00    -0.346 OA
BRANCH  13  14
HETATM   14  C   UNK N   1      27.543  18.545   6.098  0.00  0.00     0.202 C 
BRANCH  14  15
HETATM   15  C   UNK N   1      27.537  19.921   6.668  0.00  0.00    -0.011 C 
HETATM   16  C   UNK N   1      27.527  20.968   5.849  0.00  0.00     0.009 C 
ENDBRANCH  14  15
ENDBRANCH  13  14
ENDBRANCH   6  13
TORSDOF 6
ENDMDL
MODEL 3
REMARK VINA RESULT:      -5.6      5.875      9.828
REMARK  6 active torsions:
REMARK  status: ('A' for Active; 'I' for Inactive)
REMARK    1  A    between atoms: C_5  and  C_2 
REMARK    2  A    between atoms: O_15  and  C_5 
REMARK    3  A    between atoms: C_8  and  C_7 
REMARK    4  A    between atoms: C_11  and  C_7 
REMARK    5  A    between atoms: O_15  and  C_10 
REMARK    6  A    between atoms: O_14  and  C_11 
ROOT
HETATM    1  C   UNK N   1      23.306  20.799   2.690  0.00  0.00     0.010 A 
HETATM    2  C   UNK N   1      24.547  20.450   3.231  0.00  0.00     0.039 A 
HETATM    3  C   UNK N   1      22.306  18.894   3.769  0.00  0.00     0.034 A 
HETATM    4  C   UNK N   1      22.174  20.027   2.965  0.00  0.00    -0.046 A 
HETATM    5  C   UNK N   1      23.533  18.530   4.320  0.00  0.00     0.068 A 
HETATM    6  C   UNK N   1      24.682  19.329   4.064  0.00  0.00     0.090 A 
HETATM    7 Cl   UNK N   1      23.545  17.060   5.286  0.00  0.00    -0.081 Cl
ENDROOT
BRANCH   4   8
HETATM    8  C   UNK N   1      20.845  20.456   2.395  0.00  0.00     0.148 C 
BRANCH   8   9
HETATM    9  C   UNK N   1      20.814  21.120   1.034  0.00  0.00     0.143 C 
HETATM   10  O   UNK N   1      21.098  20.461   0.050  0.00  0.00    -0.650 OA
BRANCH   9  11
HETATM   11  O   UNK N   1      20.481  22.418   0.880  0.00  0.00    -0.776 OA
HETATM   12  H   UNK N   1      20.790  23.057   1.491  0.00  0.00     0.167 HD
ENDBRANCH   9  11
ENDBRANCH   8   9
ENDBRANCH   4   8
BRANCH   6  13
HETATM   13  O   UNK N   1      25.911  19.078   4.586  0.00  0.00    -0.346 OA
BRANCH  13  14
HETATM   14  C   UNK N   1      27.055  19.768   4.257  0.00  0.00     0.202 C 
BRANCH  14  15
HETATM   15  C   UNK N   1      27.656  20.398   5.465  0.00  0.00    -0.011 C 
HETATM   16  C   UNK N   1      27.065  21.456   6.013  0.00  0.00     0.009 C 
ENDBRANCH  14  15
ENDBRANCH  13  14
ENDBRANCH   6  13
TORSDOF 6
ENDMDL
MODEL 4
REMARK VINA RESULT:      -5.2      2.727      5.487
REMARK  6 active torsions:
REMARK  status: ('A' for Active; 'I' for Inactive)
REMARK    1  A    between atoms: C_5  and  C_2 
REMARK    2  A    between atoms: O_15  and  C_5 
REMARK    3  A    between atoms: C_8  and  C_7 
REMARK    4  A    between atoms: C_11  and  C_7 
REMARK    5  A    between atoms: O_15  and  C_10 
REMARK    6  A    between atoms: O_14  and  C_11 
ROOT
HETATM    1  C   UNK N   1      30.419  17.142   7.307  0.00  0.00     0.010 A 
HETATM    2  C   UNK N   1      31.381  16.810   6.348  0.00  0.00     0.039 A 
HETATM    3  C   UNK N   1      32.116  18.221   8.629  0.00  0.00     0.034 A 
HETATM    4  C   UNK N   1      30.780  17.860   8.450  0.00  0.00    -0.046 A 
HETATM    5  C   UNK N   1      33.090  17.902   7.685  0.00  0.00     0.068 A 
HETATM    6  C   UNK N   1      32.720  17.194   6.507  0.00  0.00     0.090 A 
HETATM    7 Cl   UNK N   1      34.734  18.398   8.067  0.00  0.00    -0.081 Cl
ENDROOT
BRANCH   4   8
HETATM    8  C   UNK N   1      29.707  18.232   9.444  0.00  0.00     0.148 C 
BRANCH   8   9
HETATM    9  C   UNK N   1      28.262  18.235   8.992  0.00  0.00     0.143 C 
HETATM   10  O   UNK N   1      27.872  19.134   8.269  0.00  0.00    -0.650 OA
BRANCH   9  11
HETATM   11  O   UNK N   1      27.395  17.272   9.367  0.00  0.00    -0.776 OA
HETATM   12  H   UNK N   1      27.714  16.465   9.719  0.00  0.00     0.167 HD
ENDBRANCH   9  11
ENDBRANCH   8   9
ENDBRANCH   4   8
BRANCH   6  13
HETATM   13  O   UNK N   1      33.590  16.872   5.513  0.00  0.00    -0.346 OA
BRANCH  13  14
HETATM   14  C   UNK N   1      33.387  15.867   4.595  0.00  0.00     0.202 C 
BRANCH  14  15
HETATM   15  C   UNK N   1      33.277  16.426   3.219  0.00  0.00    -0.011 C 
HETATM   16  C   UNK N   1      32.135  16.988   2.831  0.00  0.00     0.009 C 
ENDBRANCH  14  15
ENDBRANCH  13  14
ENDBRANCH   6  13
TORSDOF 6
ENDMDL
MODEL 5
REMARK VINA RESULT:      -5.2      3.001      7.051
REMARK  6 active torsions:
REMARK  status: ('A' for Active; 'I' for Inactive)
REMARK    1  A    between atoms: C_5  and  C_2 
REMARK    2  A    between atoms: O_15  and  C_5 
REMARK    3  A    between atoms: C_8  and  C_7 
REMARK    4  A    between atoms: C_11  and  C_7 
REMARK    5  A    between atoms: O_15  and  C_10 
REMARK    6  A    between atoms: O_14  and  C_11 
ROOT
HETATM    1  C   UNK N   1      26.369  20.847   5.203  0.00  0.00     0.010 A 
HETATM    2  C   UNK N   1      27.164  20.477   6.293  0.00  0.00     0.039 A 
HETATM    3  C   UNK N   1      27.120  18.900   4.003  0.00  0.00     0.034 A 
HETATM    4  C   UNK N   1      26.335  20.053   4.054  0.00  0.00    -0.046 A 
HETATM    5  C   UNK N   1      27.916  18.513   5.078  0.00  0.00     0.068 A 
HETATM    6  C   UNK N   1      27.933  19.305   6.260  0.00  0.00     0.090 A 
HETATM    7 Cl   UNK N   1      28.871  17.053   4.852  0.00  0.00    -0.081 Cl
ENDROOT
BRANCH   4   8
HETATM    8  C   UNK N   1      25.436  20.464   2.913  0.00  0.00     0.148 C 
BRANCH   8   9
HETATM    9  C   UNK N   1      23.936  20.408   3.109  0.00  0.00     0.143 C 
HETATM   10  O   UNK N   1      23.430  19.372   3.499  0.00  0.00    -0.650 OA
BRANCH   9  11
HETATM   11  O   UNK N   1      23.144  21.472   2.862  0.00  0.00    -0.776 OA
HETATM   12  H   UNK N   1      23.524  22.294   2.621  0.00  0.00     0.167 HD
ENDBRANCH   9  11
ENDBRANCH   8   9
ENDBRANCH   4   8
BRANCH   6  13
HETATM   13  O   UNK N   1      28.647  18.989   7.374  0.00  0.00    -0.346 OA
BRANCH  13  14
HETATM   14  C   UNK N   1      28.104  18.472   8.528  0.00  0.00     0.202 C 
BRANCH  14  15
HETATM   15  C   UNK N   1      29.167  18.205   9.535  0.00  0.00    -0.011 C 
HETATM   16  C   UNK N   1      30.394  18.675   9.331  0.00  0.00     0.009 C 
ENDBRANCH  14  15
ENDBRANCH  13  14
ENDBRANCH   6  13
TORSDOF 6
ENDMDL
MODEL 6
REMARK VINA RESULT:      -5.0      3.800      7.820
REMARK  6 active torsions:
REMARK  status: ('A' for Active; 'I' for Inactive)
REMARK    1  A    between atoms: C_5  and  C_2 
REMARK    2  A    between atoms: O_15  and  C_5 
REMARK    3  A    between atoms: C_8  and  C_7 
REMARK    4  A    between atoms: C_11  and  C_7 
REMARK    5  A    between atoms: O_15  and  C_10 
REMARK    6  A    between atoms: O_14  and  C_11 
ROOT
HETATM    1  C   UNK N   1      25.948  18.697   3.388  0.00  0.00     0.010 A 
HETATM    2  C   UNK N   1      26.955  18.204   4.223  0.00  0.00     0.039 A 
HETATM    3  C   UNK N   1      26.135  20.852   4.444  0.00  0.00     0.034 A 
HETATM    4  C   UNK N   1      25.538  20.029   3.487  0.00  0.00    -0.046 A 
HETATM    5  C   UNK N   1      27.142  20.381   5.284  0.00  0.00     0.068 A 
HETATM    6  C   UNK N   1      27.579  19.032   5.167  0.00  0.00     0.090 A 
HETATM    7 Cl   UNK N   1      27.773  21.528   6.458  0.00  0.00    -0.081 Cl
ENDROOT
BRANCH   4   8
HETATM    8  C   UNK N   1      24.475  20.535   2.544  0.00  0.00     0.148 C 
BRANCH   8   9
HETATM    9  C   UNK N   1      23.035  20.560   3.012  0.00  0.00     0.143 C 
HETATM   10  O   UNK N   1      22.617  19.634   3.683  0.00  0.00    -0.650 OA
BRANCH   9  11
HETATM   11  O   UNK N   1      22.202  21.576   2.706  0.00  0.00    -0.776 OA
HETATM   12  H   UNK N   1      22.475  22.462   2.842  0.00  0.00     0.167 HD
ENDBRANCH   9  11
ENDBRANCH   8   9
ENDBRANCH   4   8
BRANCH   6  13
HETATM   13  O   UNK N   1      28.580  18.493   5.914  0.00  0.00    -0.346 OA
BRANCH  13  14
HETATM   14  C   UNK N   1      28.387  17.640   6.976  0.00  0.00     0.202 C 
BRANCH  14  15
HETATM   15  C   UNK N   1      28.338  18.397   8.257  0.00  0.00    -0.011 C 
HETATM   16  C   UNK N   1      28.223  17.734   9.404  0.00  0.00     0.009 C 
ENDBRANCH  14  15
ENDBRANCH  13  14
ENDBRANCH   6  13
TORSDOF 6
ENDMDL
MODEL 7
REMARK VINA RESULT:      -5.0     15.098     16.449
REMARK  6 active torsions:
REMARK  status: ('A' for Active; 'I' for Inactive)
REMARK    1  A    between atoms: C_5  and  C_2 
REMARK    2  A    between atoms: O_15  and  C_5 
REMARK    3  A    between atoms: C_8  and  C_7 
REMARK    4  A    between atoms: C_11  and  C_7 
REMARK    5  A    between atoms: O_15  and  C_10 
REMARK    6  A    between atoms: O_14  and  C_11 
ROOT
HETATM    1  C   UNK N   1      25.847  24.715  -7.784  0.00  0.00     0.010 A 
HETATM    2  C   UNK N   1      25.915  26.075  -7.468  0.00  0.00     0.039 A 
HETATM    3  C   UNK N   1      26.170  24.166  -5.462  0.00  0.00     0.034 A 
HETATM    4  C   UNK N   1      25.964  23.751  -6.779  0.00  0.00    -0.046 A 
HETATM    5  C   UNK N   1      26.237  25.516  -5.126  0.00  0.00     0.068 A 
HETATM    6  C   UNK N   1      26.092  26.501  -6.143  0.00  0.00     0.090 A 
HETATM    7 Cl   UNK N   1      26.531  25.881  -3.431  0.00  0.00    -0.081 Cl
ENDROOT
BRANCH   4   8
HETATM    8  C   UNK N   1      25.848  22.294  -7.153  0.00  0.00     0.148 C 
BRANCH   8   9
HETATM    9  C   UNK N   1      24.471  21.674  -7.258  0.00  0.00     0.143 C 
HETATM   10  O   UNK N   1      24.162  20.789  -6.481  0.00  0.00    -0.650 OA
BRANCH   9  11
HETATM   11  O   UNK N   1      23.578  22.072  -8.187  0.00  0.00    -0.776 OA
HETATM   12  H   UNK N   1      22.730  21.674  -8.223  0.00  0.00     0.167 HD
ENDBRANCH   9  11
ENDBRANCH   8   9
ENDBRANCH   4   8
BRANCH   6  13
HETATM   13  O   UNK N   1      26.105  27.840  -5.909  0.00  0.00    -0.346 OA
BRANCH  13  14
HETATM   14  C   UNK N   1      27.234  28.626  -5.938  0.00  0.00     0.202 C 
BRANCH  14  15
HETATM   15  C   UNK N   1      27.236  29.588  -4.802  0.00  0.00    -0.011 C 
HETATM   16  C   UNK N   1      26.317  29.473  -3.847  0.00  0.00     0.009 C 
ENDBRANCH  14  15
ENDBRANCH  13  14
ENDBRANCH   6  13
TORSDOF 6
ENDMDL
MODEL 8
REMARK VINA RESULT:      -5.0     14.105     15.710
REMARK  6 active torsions:
REMARK  status: ('A' for Active; 'I' for Inactive)
REMARK    1  A    between atoms: C_5  and  C_2 
REMARK    2  A    between atoms: O_15  and  C_5 
REMARK    3  A    between atoms: C_8  and  C_7 
REMARK    4  A    between atoms: C_11  and  C_7 
REMARK    5  A    between atoms: O_15  and  C_10 
REMARK    6  A    between atoms: O_14  and  C_11 
ROOT
HETATM    1  C   UNK N   1      27.057  23.761  -4.779  0.00  0.00     0.010 A 
HETATM    2  C   UNK N   1      27.011  24.821  -3.869  0.00  0.00     0.039 A 
HETATM    3  C   UNK N   1      25.520  24.932  -6.214  0.00  0.00     0.034 A 
HETATM    4  C   UNK N   1      26.319  23.815  -5.964  0.00  0.00    -0.046 A 
HETATM    5  C   UNK N   1      25.461  26.000  -5.322  0.00  0.00     0.068 A 
HETATM    6  C   UNK N   1      26.233  25.960  -4.127  0.00  0.00     0.090 A 
HETATM    7 Cl   UNK N   1      24.386  27.321  -5.761  0.00  0.00    -0.081 Cl
ENDROOT
BRANCH   4   8
HETATM    8  C   UNK N   1      26.424  22.668  -6.939  0.00  0.00     0.148 C 
BRANCH   8   9
HETATM    9  C   UNK N   1      25.152  22.070  -7.503  0.00  0.00     0.143 C 
HETATM   10  O   UNK N   1      24.963  22.113  -8.705  0.00  0.00    -0.650 OA
BRANCH   9  11
HETATM   11  O   UNK N   1      24.223  21.492  -6.714  0.00  0.00    -0.776 OA
HETATM   12  H   UNK N   1      23.479  21.984  -6.429  0.00  0.00     0.167 HD
ENDBRANCH   9  11
ENDBRANCH   8   9
ENDBRANCH   4   8
BRANCH   6  13
HETATM   13  O   UNK N   1      26.271  26.968  -3.216  0.00  0.00    -0.346 OA
BRANCH  13  14
HETATM   14  C   UNK N   1      27.092  28.069  -3.306  0.00  0.00     0.202 C 
BRANCH  14  15
HETATM   15  C   UNK N   1      26.311  29.276  -3.695  0.00  0.00    -0.011 C 
HETATM   16  C   UNK N   1      26.736  30.479  -3.318  0.00  0.00     0.009 C 
ENDBRANCH  14  15
ENDBRANCH  13  14
ENDBRANCH   6  13
TORSDOF 6
ENDMDL
MODEL 9
REMARK VINA RESULT:      -4.9      2.041      2.406
REMARK  6 active torsions:
REMARK  status: ('A' for Active; 'I' for Inactive)
REMARK    1  A    between atoms: C_5  and  C_2 
REMARK    2  A    between atoms: O_15  and  C_5 
REMARK    3  A    between atoms: C_8  and  C_7 
REMARK    4  A    between atoms: C_11  and  C_7 
REMARK    5  A    between atoms: O_15  and  C_10 
REMARK    6  A    between atoms: O_14  and  C_11 
ROOT
HETATM    1  C   UNK N   1      32.082  17.411   8.326  0.00  0.00     0.010 A 
HETATM    2  C   UNK N   1      30.895  17.191   7.620  0.00  0.00     0.039 A 
HETATM    3  C   UNK N   1      33.284  17.562   6.245  0.00  0.00     0.034 A 
HETATM    4  C   UNK N   1      33.284  17.609   7.641  0.00  0.00    -0.046 A 
HETATM    5  C   UNK N   1      32.112  17.347   5.524  0.00  0.00     0.068 A 
HETATM    6  C   UNK N   1      30.882  17.172   6.218  0.00  0.00     0.090 A 
HETATM    7 Cl   UNK N   1      32.278  17.284   3.774  0.00  0.00    -0.081 Cl
ENDROOT
BRANCH   4   8
HETATM    8  C   UNK N   1      34.537  17.881   8.435  0.00  0.00     0.148 C 
BRANCH   8   9
HETATM    9  C   UNK N   1      34.934  16.912   9.529  0.00  0.00     0.143 C 
HETATM   10  O   UNK N   1      35.208  17.349  10.632  0.00  0.00    -0.650 OA
BRANCH   9  11
HETATM   11  O   UNK N   1      34.993  15.581   9.318  0.00  0.00    -0.776 OA
HETATM   12  H   UNK N   1      35.097  14.997  10.043  0.00  0.00     0.167 HD
ENDBRANCH   9  11
ENDBRANCH   8   9
ENDBRANCH   4   8
BRANCH   6  13
HETATM   13  O   UNK N   1      29.683  16.995   5.602  0.00  0.00    -0.346 OA
BRANCH  13  14
HETATM   14  C   UNK N   1      28.583  17.800   5.790  0.00  0.00     0.202 C 
BRANCH  14  15
HETATM   15  C   UNK N   1      28.328  18.633   4.583  0.00  0.00    -0.011 C 
HETATM   16  C   UNK N   1      27.967  19.904   4.730  0.00  0.00     0.009 C 
ENDBRANCH  14  15
ENDBRANCH  13  14
ENDBRANCH   6  13
TORSDOF 6
ENDMDL
