REMARK  13 active torsions:
REMARK  status: ('A' for Active; 'I' for Inactive)
REMARK    1  A    between atoms: C_1  and  C_2 
REMARK    2  A    between atoms: C_1  and  O_13 
REMARK    3  A    between atoms: C_2  and  C_3 
REMARK    4  A    between atoms: C_3  and  C_4 
REMARK    5  A    between atoms: C_4  and  C_5 
REMARK    6  A    between atoms: C_5  and  C_6 
REMARK    7  A    between atoms: C_6  and  C_7 
REMARK    8  A    between atoms: C_7  and  C_8 
REMARK    9  A    between atoms: C_8  and  C_9 
REMARK   10  A    between atoms: C_9  and  C_10 
REMARK   11  A    between atoms: C_10  and  C_11 
REMARK   12  A    between atoms: C_11  and  C_12 
REMARK   13  A    between atoms: C_12  and  O_15 
ROOT
HETATM    1  C   UNK N   1       0.632   0.729   0.000  0.00  0.00     0.000 C 
ENDROOT
BRANCH   1   2
HETATM    2  C   UNK N   1      -0.609  -0.123  -0.000  0.00  0.00     0.000 C 
BRANCH   2   3
HETATM    3  C   UNK N   1      -1.834   0.755  -0.000  0.00  0.00     0.000 C 
BRANCH   3   4
HETATM    4  C   UNK N   1      -3.037  -0.153   0.000  0.00  0.00     0.000 C 
BRANCH   4   5
HETATM    5  C   UNK N   1      -4.309   0.655  -0.000  0.00  0.00     0.002 C 
BRANCH   5   6
HETATM    6  C   UNK N   1      -5.465  -0.318   0.000  0.00  0.00     0.026 C 
BRANCH   6   7
HETATM    7  C   UNK N   1      -6.775   0.432  -0.000  0.00  0.00     0.164 C 
BRANCH   7   8
HETATM    8  O   UNK N   1      -7.822  -0.487  -0.000  0.00  0.00    -0.401 OA
HETATM    9  H   UNK N   1      -8.741  -0.175   0.000  0.00  0.00     0.209 HD
ENDBRANCH   7   8
ENDBRANCH   6   7
ENDBRANCH   5   6
ENDBRANCH   4   5
ENDBRANCH   3   4
ENDBRANCH   2   3
ENDBRANCH   1   2
BRANCH   1  10
HETATM   10  C   UNK N   1       1.828  -0.189   0.000  0.00  0.00     0.000 C 
BRANCH  10  11
HETATM   11  C   UNK N   1       3.086   0.641   0.000  0.00  0.00     0.001 C 
BRANCH  11  12
HETATM   12  C   UNK N   1       4.275  -0.287  -0.001  0.00  0.00     0.010 C 
BRANCH  12  13
HETATM   13  C   UNK N   1       5.545   0.537  -0.000  0.00  0.00     0.110 C 
BRANCH  13  14
HETATM   14  C   UNK N   1       6.768  -0.325  -0.000  0.00  0.00     0.139 C 
HETATM   15  O   UNK N   1       7.868   0.199   0.000  0.00  0.00    -0.650 OA
BRANCH  14  16
HETATM   16  O   UNK N   1       6.670  -1.670  -0.000  0.00  0.00    -0.776 OA
HETATM   17  H   UNK N   1       5.826  -2.078  -0.000  0.00  0.00     0.167 HD
ENDBRANCH  14  16
ENDBRANCH  13  14
ENDBRANCH  12  13
ENDBRANCH  11  12
ENDBRANCH  10  11
ENDBRANCH   1  10
TORSDOF 13
