MODEL 1
REMARK VINA RESULT:      -4.8      0.000      0.000
REMARK  13 active torsions:
REMARK  status: ('A' for Active; 'I' for Inactive)
REMARK    1  A    between atoms: C_1  and  C_2 
REMARK    2  A    between atoms: C_1  and  O_13 
REMARK    3  A    between atoms: C_2  and  C_3 
REMARK    4  A    between atoms: C_3  and  C_4 
REMARK    5  A    between atoms: C_4  and  C_5 
REMARK    6  A    between atoms: C_5  and  C_6 
REMARK    7  A    between atoms: C_6  and  C_7 
REMARK    8  A    between atoms: C_7  and  C_8 
REMARK    9  A    between atoms: C_8  and  C_9 
REMARK   10  A    between atoms: C_9  and  C_10 
REMARK   11  A    between atoms: C_10  and  C_11 
REMARK   12  A    between atoms: C_11  and  C_12 
REMARK   13  A    between atoms: C_12  and  O_15 
ROOT
HETATM    1  C   UNK N   1      28.498  18.780   8.267  0.00  0.00     0.000 C 
ENDROOT
BRANCH   1   2
HETATM    2  C   UNK N   1      27.870  19.537   7.128  0.00  0.00     0.000 C 
BRANCH   2   3
HETATM    3  C   UNK N   1      28.146  18.829   5.827  0.00  0.00     0.000 C 
BRANCH   3   4
HETATM    4  C   UNK N   1      27.876  19.810   4.715  0.00  0.00     0.000 C 
BRANCH   4   5
HETATM    5  C   UNK N   1      26.755  20.744   5.095  0.00  0.00     0.002 C 
BRANCH   5   6
HETATM    6  C   UNK N   1      25.497  20.237   4.430  0.00  0.00     0.026 C 
BRANCH   6   7
HETATM    7  C   UNK N   1      25.759  19.954   2.970  0.00  0.00     0.164 C 
BRANCH   7   8
HETATM    8  O   UNK N   1      25.099  20.908   2.200  0.00  0.00    -0.401 OA
HETATM    9  H   UNK N   1      24.157  20.798   1.992  0.00  0.00     0.209 HD
ENDBRANCH   7   8
ENDBRANCH   6   7
ENDBRANCH   5   6
ENDBRANCH   4   5
ENDBRANCH   3   4
ENDBRANCH   2   3
ENDBRANCH   1   2
BRANCH   1  10
HETATM   10  C   UNK N   1      29.441  17.759   7.684  0.00  0.00     0.000 C 
BRANCH  10  11
HETATM   11  C   UNK N   1      30.654  17.645   8.571  0.00  0.00     0.001 C 
BRANCH  11  12
HETATM   12  C   UNK N   1      31.881  17.540   7.700  0.00  0.00     0.010 C 
BRANCH  12  13
HETATM   13  C   UNK N   1      33.115  17.656   8.568  0.00  0.00     0.110 C 
BRANCH  13  14
HETATM   14  C   UNK N   1      34.276  18.222   7.813  0.00  0.00     0.139 C 
HETATM   15  O   UNK N   1      34.992  19.049   8.349  0.00  0.00    -0.650 OA
BRANCH  14  16
HETATM   16  O   UNK N   1      34.541  17.830   6.550  0.00  0.00    -0.776 OA
HETATM   17  H   UNK N   1      35.331  17.362   6.360  0.00  0.00     0.167 HD
ENDBRANCH  14  16
ENDBRANCH  13  14
ENDBRANCH  12  13
ENDBRANCH  11  12
ENDBRANCH  10  11
ENDBRANCH   1  10
TORSDOF 13
ENDMDL
MODEL 2
REMARK VINA RESULT:      -4.6     10.223     12.918
REMARK  13 active torsions:
REMARK  status: ('A' for Active; 'I' for Inactive)
REMARK    1  A    between atoms: C_1  and  C_2 
REMARK    2  A    between atoms: C_1  and  O_13 
REMARK    3  A    between atoms: C_2  and  C_3 
REMARK    4  A    between atoms: C_3  and  C_4 
REMARK    5  A    between atoms: C_4  and  C_5 
REMARK    6  A    between atoms: C_5  and  C_6 
REMARK    7  A    between atoms: C_6  and  C_7 
REMARK    8  A    between atoms: C_7  and  C_8 
REMARK    9  A    between atoms: C_8  and  C_9 
REMARK   10  A    between atoms: C_9  and  C_10 
REMARK   11  A    between atoms: C_10  and  C_11 
REMARK   12  A    between atoms: C_11  and  C_12 
REMARK   13  A    between atoms: C_12  and  O_15 
ROOT
HETATM    1  C   UNK N   1      26.181  24.601  -5.118  0.00  0.00     0.000 C 
ENDROOT
BRANCH   1   2
HETATM    2  C   UNK N   1      25.728  25.817  -5.882  0.00  0.00     0.000 C 
BRANCH   2   3
HETATM    3  C   UNK N   1      26.865  26.353  -6.714  0.00  0.00     0.000 C 
BRANCH   3   4
HETATM    4  C   UNK N   1      26.810  27.857  -6.633  0.00  0.00     0.000 C 
BRANCH   4   5
HETATM    5  C   UNK N   1      27.725  28.361  -5.547  0.00  0.00     0.002 C 
BRANCH   5   6
HETATM    6  C   UNK N   1      26.942  29.352  -4.717  0.00  0.00     0.026 C 
BRANCH   6   7
HETATM    7  C   UNK N   1      26.666  28.778  -3.348  0.00  0.00     0.164 C 
BRANCH   7   8
HETATM    8  O   UNK N   1      25.363  28.286  -3.319  0.00  0.00    -0.401 OA
HETATM    9  H   UNK N   1      24.682  28.683  -3.885  0.00  0.00     0.209 HD
ENDBRANCH   7   8
ENDBRANCH   6   7
ENDBRANCH   5   6
ENDBRANCH   4   5
ENDBRANCH   3   4
ENDBRANCH   2   3
ENDBRANCH   1   2
BRANCH   1  10
HETATM   10  C   UNK N   1      26.678  25.056  -3.770  0.00  0.00     0.000 C 
BRANCH  10  11
HETATM   11  C   UNK N   1      27.497  23.954  -3.149  0.00  0.00     0.001 C 
BRANCH  11  12
HETATM   12  C   UNK N   1      28.954  24.212  -3.444  0.00  0.00     0.010 C 
BRANCH  12  13
HETATM   13  C   UNK N   1      29.685  22.889  -3.522  0.00  0.00     0.110 C 
BRANCH  13  14
HETATM   14  C   UNK N   1      30.591  22.683  -2.349  0.00  0.00     0.139 C 
HETATM   15  O   UNK N   1      30.276  23.139  -1.264  0.00  0.00    -0.650 OA
BRANCH  14  16
HETATM   16  O   UNK N   1      31.747  22.001  -2.476  0.00  0.00    -0.776 OA
HETATM   17  H   UNK N   1      31.852  21.173  -2.049  0.00  0.00     0.167 HD
ENDBRANCH  14  16
ENDBRANCH  13  14
ENDBRANCH  12  13
ENDBRANCH  11  12
ENDBRANCH  10  11
ENDBRANCH   1  10
TORSDOF 13
ENDMDL
MODEL 3
REMARK VINA RESULT:      -4.6      1.863      2.148
REMARK  13 active torsions:
REMARK  status: ('A' for Active; 'I' for Inactive)
REMARK    1  A    between atoms: C_1  and  C_2 
REMARK    2  A    between atoms: C_1  and  O_13 
REMARK    3  A    between atoms: C_2  and  C_3 
REMARK    4  A    between atoms: C_3  and  C_4 
REMARK    5  A    between atoms: C_4  and  C_5 
REMARK    6  A    between atoms: C_5  and  C_6 
REMARK    7  A    between atoms: C_6  and  C_7 
REMARK    8  A    between atoms: C_7  and  C_8 
REMARK    9  A    between atoms: C_8  and  C_9 
REMARK   10  A    between atoms: C_9  and  C_10 
REMARK   11  A    between atoms: C_10  and  C_11 
REMARK   12  A    between atoms: C_11  and  C_12 
REMARK   13  A    between atoms: C_12  and  O_15 
ROOT
HETATM    1  C   UNK N   1      29.453  17.015   6.744  0.00  0.00     0.000 C 
ENDROOT
BRANCH   1   2
HETATM    2  C   UNK N   1      28.846  18.260   6.154  0.00  0.00     0.000 C 
BRANCH   2   3
HETATM    3  C   UNK N   1      27.828  17.887   5.106  0.00  0.00     0.000 C 
BRANCH   3   4
HETATM    4  C   UNK N   1      27.545  19.126   4.295  0.00  0.00     0.000 C 
BRANCH   4   5
HETATM    5  C   UNK N   1      27.755  20.363   5.129  0.00  0.00     0.002 C 
BRANCH   5   6
HETATM    6  C   UNK N   1      26.392  20.871   5.539  0.00  0.00     0.026 C 
BRANCH   6   7
HETATM    7  C   UNK N   1      26.443  21.415   6.946  0.00  0.00     0.164 C 
BRANCH   7   8
HETATM    8  O   UNK N   1      26.527  20.350   7.840  0.00  0.00    -0.401 OA
HETATM    9  H   UNK N   1      25.718  19.912   8.150  0.00  0.00     0.209 HD
ENDBRANCH   7   8
ENDBRANCH   6   7
ENDBRANCH   5   6
ENDBRANCH   4   5
ENDBRANCH   3   4
ENDBRANCH   2   3
ENDBRANCH   1   2
BRANCH   1  10
HETATM   10  C   UNK N   1      29.582  17.219   8.232  0.00  0.00     0.000 C 
BRANCH  10  11
HETATM   11  C   UNK N   1      30.797  18.067   8.509  0.00  0.00     0.001 C 
BRANCH  11  12
HETATM   12  C   UNK N   1      31.991  17.427   7.847  0.00  0.00     0.010 C 
BRANCH  12  13
HETATM   13  C   UNK N   1      33.225  17.705   8.679  0.00  0.00     0.110 C 
BRANCH  13  14
HETATM   14  C   UNK N   1      34.329  18.293   7.858  0.00  0.00     0.139 C 
HETATM   15  O   UNK N   1      35.105  19.078   8.375  0.00  0.00    -0.650 OA
BRANCH  14  16
HETATM   16  O   UNK N   1      34.477  17.968   6.558  0.00  0.00    -0.776 OA
HETATM   17  H   UNK N   1      35.289  18.140   6.122  0.00  0.00     0.167 HD
ENDBRANCH  14  16
ENDBRANCH  13  14
ENDBRANCH  12  13
ENDBRANCH  11  12
ENDBRANCH  10  11
ENDBRANCH   1  10
TORSDOF 13
ENDMDL
MODEL 4
REMARK VINA RESULT:      -4.6     10.869     14.182
REMARK  13 active torsions:
REMARK  status: ('A' for Active; 'I' for Inactive)
REMARK    1  A    between atoms: C_1  and  C_2 
REMARK    2  A    between atoms: C_1  and  O_13 
REMARK    3  A    between atoms: C_2  and  C_3 
REMARK    4  A    between atoms: C_3  and  C_4 
REMARK    5  A    between atoms: C_4  and  C_5 
REMARK    6  A    between atoms: C_5  and  C_6 
REMARK    7  A    between atoms: C_6  and  C_7 
REMARK    8  A    between atoms: C_7  and  C_8 
REMARK    9  A    between atoms: C_8  and  C_9 
REMARK   10  A    between atoms: C_9  and  C_10 
REMARK   11  A    between atoms: C_10  and  C_11 
REMARK   12  A    between atoms: C_11  and  C_12 
REMARK   13  A    between atoms: C_12  and  O_15 
ROOT
HETATM    1  C   UNK N   1      26.005  26.233  -6.533  0.00  0.00     0.000 C 
ENDROOT
BRANCH   1   2
HETATM    2  C   UNK N   1      26.909  25.245  -5.846  0.00  0.00     0.000 C 
BRANCH   2   3
HETATM    3  C   UNK N   1      26.095  24.332  -4.965  0.00  0.00     0.000 C 
BRANCH   3   4
HETATM    4  C   UNK N   1      26.797  24.251  -3.634  0.00  0.00     0.000 C 
BRANCH   4   5
HETATM    5  C   UNK N   1      28.266  24.548  -3.791  0.00  0.00     0.002 C 
BRANCH   5   6
HETATM    6  C   UNK N   1      29.026  23.304  -3.393  0.00  0.00     0.026 C 
BRANCH   6   7
HETATM    7  C   UNK N   1      30.375  23.679  -2.828  0.00  0.00     0.164 C 
BRANCH   7   8
HETATM    8  O   UNK N   1      30.532  23.061  -1.589  0.00  0.00    -0.401 OA
HETATM    9  H   UNK N   1      30.803  23.584  -0.818  0.00  0.00     0.209 HD
ENDBRANCH   7   8
ENDBRANCH   6   7
ENDBRANCH   5   6
ENDBRANCH   4   5
ENDBRANCH   3   4
ENDBRANCH   2   3
ENDBRANCH   1   2
BRANCH   1  10
HETATM   10  C   UNK N   1      24.961  26.679  -5.541  0.00  0.00     0.000 C 
BRANCH  10  11
HETATM   11  C   UNK N   1      25.363  28.014  -4.969  0.00  0.00     0.001 C 
BRANCH  11  12
HETATM   12  C   UNK N   1      25.721  27.826  -3.515  0.00  0.00     0.010 C 
BRANCH  12  13
HETATM   13  C   UNK N   1      27.198  28.104  -3.330  0.00  0.00     0.110 C 
BRANCH  13  14
HETATM   14  C   UNK N   1      27.436  29.409  -2.638  0.00  0.00     0.139 C 
HETATM   15  O   UNK N   1      27.349  30.446  -3.272  0.00  0.00    -0.650 OA
BRANCH  14  16
HETATM   16  O   UNK N   1      27.745  29.453  -1.326  0.00  0.00    -0.776 OA
HETATM   17  H   UNK N   1      27.316  28.877  -0.724  0.00  0.00     0.167 HD
ENDBRANCH  14  16
ENDBRANCH  13  14
ENDBRANCH  12  13
ENDBRANCH  11  12
ENDBRANCH  10  11
ENDBRANCH   1  10
TORSDOF 13
ENDMDL
MODEL 5
REMARK VINA RESULT:      -4.6      3.614      4.769
REMARK  13 active torsions:
REMARK  status: ('A' for Active; 'I' for Inactive)
REMARK    1  A    between atoms: C_1  and  C_2 
REMARK    2  A    between atoms: C_1  and  O_13 
REMARK    3  A    between atoms: C_2  and  C_3 
REMARK    4  A    between atoms: C_3  and  C_4 
REMARK    5  A    between atoms: C_4  and  C_5 
REMARK    6  A    between atoms: C_5  and  C_6 
REMARK    7  A    between atoms: C_6  and  C_7 
REMARK    8  A    between atoms: C_7  and  C_8 
REMARK    9  A    between atoms: C_8  and  C_9 
REMARK   10  A    between atoms: C_9  and  C_10 
REMARK   11  A    between atoms: C_10  and  C_11 
REMARK   12  A    between atoms: C_11  and  C_12 
REMARK   13  A    between atoms: C_12  and  O_15 
ROOT
HETATM    1  C   UNK N   1      30.175  16.907   7.102  0.00  0.00     0.000 C 
ENDROOT
BRANCH   1   2
HETATM    2  C   UNK N   1      29.263  17.546   6.089  0.00  0.00     0.000 C 
BRANCH   2   3
HETATM    3  C   UNK N   1      29.896  17.490   4.722  0.00  0.00     0.000 C 
BRANCH   3   4
HETATM    4  C   UNK N   1      31.290  16.945   4.894  0.00  0.00     0.000 C 
BRANCH   4   5
HETATM    5  C   UNK N   1      32.261  17.687   4.012  0.00  0.00     0.002 C 
BRANCH   5   6
HETATM    6  C   UNK N   1      32.885  16.678   3.076  0.00  0.00     0.026 C 
BRANCH   6   7
HETATM    7  C   UNK N   1      33.001  15.337   3.759  0.00  0.00     0.164 C 
BRANCH   7   8
HETATM    8  O   UNK N   1      32.688  14.335   2.843  0.00  0.00    -0.401 OA
HETATM    9  H   UNK N   1      33.397  13.882   2.360  0.00  0.00     0.209 HD
ENDBRANCH   7   8
ENDBRANCH   6   7
ENDBRANCH   5   6
ENDBRANCH   4   5
ENDBRANCH   3   4
ENDBRANCH   2   3
ENDBRANCH   1   2
BRANCH   1  10
HETATM   10  C   UNK N   1      30.246  17.814   8.304  0.00  0.00     0.000 C 
BRANCH  10  11
HETATM   11  C   UNK N   1      31.688  18.155   8.580  0.00  0.00     0.001 C 
BRANCH  11  12
HETATM   12  C   UNK N   1      32.506  16.891   8.492  0.00  0.00     0.010 C 
BRANCH  12  13
HETATM   13  C   UNK N   1      33.925  17.189   8.927  0.00  0.00     0.110 C 
BRANCH  13  14
HETATM   14  C   UNK N   1      34.584  18.189   8.030  0.00  0.00     0.139 C 
HETATM   15  O   UNK N   1      34.524  18.039   6.822  0.00  0.00    -0.650 OA
BRANCH  14  16
HETATM   16  O   UNK N   1      35.241  19.252   8.538  0.00  0.00    -0.776 OA
HETATM   17  H   UNK N   1      35.922  19.123   9.169  0.00  0.00     0.167 HD
ENDBRANCH  14  16
ENDBRANCH  13  14
ENDBRANCH  12  13
ENDBRANCH  11  12
ENDBRANCH  10  11
ENDBRANCH   1  10
TORSDOF 13
ENDMDL
MODEL 6
REMARK VINA RESULT:      -4.4      4.348      5.584
REMARK  13 active torsions:
REMARK  status: ('A' for Active; 'I' for Inactive)
REMARK    1  A    between atoms: C_1  and  C_2 
REMARK    2  A    between atoms: C_1  and  O_13 
REMARK    3  A    between atoms: C_2  and  C_3 
REMARK    4  A    between atoms: C_3  and  C_4 
REMARK    5  A    between atoms: C_4  and  C_5 
REMARK    6  A    between atoms: C_5  and  C_6 
REMARK    7  A    between atoms: C_6  and  C_7 
REMARK    8  A    between atoms: C_7  and  C_8 
REMARK    9  A    between atoms: C_8  and  C_9 
REMARK   10  A    between atoms: C_9  and  C_10 
REMARK   11  A    between atoms: C_10  and  C_11 
REMARK   12  A    between atoms: C_11  and  C_12 
REMARK   13  A    between atoms: C_12  and  O_15 
ROOT
HETATM    1  C   UNK N   1      33.772  17.208   6.403  0.00  0.00     0.000 C 
ENDROOT
BRANCH   1   2
HETATM    2  C   UNK N   1      32.451  17.186   5.683  0.00  0.00     0.000 C 
BRANCH   2   3
HETATM    3  C   UNK N   1      31.460  16.351   6.453  0.00  0.00     0.000 C 
BRANCH   3   4
HETATM    4  C   UNK N   1      30.100  16.971   6.254  0.00  0.00     0.000 C 
BRANCH   4   5
HETATM    5  C   UNK N   1      29.741  17.845   7.427  0.00  0.00     0.002 C 
BRANCH   5   6
HETATM    6  C   UNK N   1      30.245  17.159   8.676  0.00  0.00     0.026 C 
BRANCH   6   7
HETATM    7  C   UNK N   1      29.326  17.453   9.837  0.00  0.00     0.164 C 
BRANCH   7   8
HETATM    8  O   UNK N   1      29.713  18.655  10.427  0.00  0.00    -0.401 OA
HETATM    9  H   UNK N   1      29.073  19.169  10.944  0.00  0.00     0.209 HD
ENDBRANCH   7   8
ENDBRANCH   6   7
ENDBRANCH   5   6
ENDBRANCH   4   5
ENDBRANCH   3   4
ENDBRANCH   2   3
ENDBRANCH   1   2
BRANCH   1  10
HETATM   10  C   UNK N   1      33.656  18.167   7.561  0.00  0.00     0.000 C 
BRANCH  10  11
HETATM   11  C   UNK N   1      34.548  17.697   8.681  0.00  0.00     0.001 C 
BRANCH  11  12
HETATM   12  C   UNK N   1      34.238  16.249   8.968  0.00  0.00     0.010 C 
BRANCH  12  13
HETATM   13  C   UNK N   1      35.027  15.806  10.182  0.00  0.00     0.110 C 
BRANCH  13  14
HETATM   14  C   UNK N   1      34.194  14.990  11.120  0.00  0.00     0.139 C 
HETATM   15  O   UNK N   1      34.740  14.346  11.998  0.00  0.00    -0.650 OA
BRANCH  14  16
HETATM   16  O   UNK N   1      32.850  14.959  11.008  0.00  0.00    -0.776 OA
HETATM   17  H   UNK N   1      32.379  14.181  11.236  0.00  0.00     0.167 HD
ENDBRANCH  14  16
ENDBRANCH  13  14
ENDBRANCH  12  13
ENDBRANCH  11  12
ENDBRANCH  10  11
ENDBRANCH   1  10
TORSDOF 13
ENDMDL
MODEL 7
REMARK VINA RESULT:      -4.4      3.660      5.199
REMARK  13 active torsions:
REMARK  status: ('A' for Active; 'I' for Inactive)
REMARK    1  A    between atoms: C_1  and  C_2 
REMARK    2  A    between atoms: C_1  and  O_13 
REMARK    3  A    between atoms: C_2  and  C_3 
REMARK    4  A    between atoms: C_3  and  C_4 
REMARK    5  A    between atoms: C_4  and  C_5 
REMARK    6  A    between atoms: C_5  and  C_6 
REMARK    7  A    between atoms: C_6  and  C_7 
REMARK    8  A    between atoms: C_7  and  C_8 
REMARK    9  A    between atoms: C_8  and  C_9 
REMARK   10  A    between atoms: C_9  and  C_10 
REMARK   11  A    between atoms: C_10  and  C_11 
REMARK   12  A    between atoms: C_11  and  C_12 
REMARK   13  A    between atoms: C_12  and  O_15 
ROOT
HETATM    1  C   UNK N   1      25.866  20.401   4.391  0.00  0.00     0.000 C 
ENDROOT
BRANCH   1   2
HETATM    2  C   UNK N   1      24.709  19.990   3.520  0.00  0.00     0.000 C 
BRANCH   2   3
HETATM    3  C   UNK N   1      24.055  18.755   4.085  0.00  0.00     0.000 C 
BRANCH   3   4
HETATM    4  C   UNK N   1      22.584  18.840   3.767  0.00  0.00     0.000 C 
BRANCH   4   5
HETATM    5  C   UNK N   1      22.264  20.149   3.093  0.00  0.00     0.002 C 
BRANCH   5   6
HETATM    6  C   UNK N   1      21.102  19.907   2.159  0.00  0.00     0.026 C 
BRANCH   6   7
HETATM    7  C   UNK N   1      21.197  20.825   0.964  0.00  0.00     0.164 C 
BRANCH   7   8
HETATM    8  O   UNK N   1      20.509  20.250  -0.103  0.00  0.00    -0.401 OA
HETATM    9  H   UNK N   1      19.677  20.642  -0.411  0.00  0.00     0.209 HD
ENDBRANCH   7   8
ENDBRANCH   6   7
ENDBRANCH   5   6
ENDBRANCH   4   5
ENDBRANCH   3   4
ENDBRANCH   2   3
ENDBRANCH   1   2
BRANCH   1  10
HETATM   10  C   UNK N   1      26.362  19.175   5.116  0.00  0.00     0.000 C 
BRANCH  10  11
HETATM   11  C   UNK N   1      27.788  19.401   5.546  0.00  0.00     0.001 C 
BRANCH  11  12
HETATM   12  C   UNK N   1      27.814  19.610   7.039  0.00  0.00     0.010 C 
BRANCH  12  13
HETATM   13  C   UNK N   1      28.871  18.712   7.646  0.00  0.00     0.110 C 
BRANCH  13  14
HETATM   14  C   UNK N   1      28.595  18.422   9.088  0.00  0.00     0.139 C 
HETATM   15  O   UNK N   1      29.472  18.607   9.913  0.00  0.00    -0.650 OA
BRANCH  14  16
HETATM   16  O   UNK N   1      27.392  17.960   9.485  0.00  0.00    -0.776 OA
HETATM   17  H   UNK N   1      27.325  17.119   9.895  0.00  0.00     0.167 HD
ENDBRANCH  14  16
ENDBRANCH  13  14
ENDBRANCH  12  13
ENDBRANCH  11  12
ENDBRANCH  10  11
ENDBRANCH   1  10
TORSDOF 13
ENDMDL
MODEL 8
REMARK VINA RESULT:      -4.4     12.216     14.194
REMARK  13 active torsions:
REMARK  status: ('A' for Active; 'I' for Inactive)
REMARK    1  A    between atoms: C_1  and  C_2 
REMARK    2  A    between atoms: C_1  and  O_13 
REMARK    3  A    between atoms: C_2  and  C_3 
REMARK    4  A    between atoms: C_3  and  C_4 
REMARK    5  A    between atoms: C_4  and  C_5 
REMARK    6  A    between atoms: C_5  and  C_6 
REMARK    7  A    between atoms: C_6  and  C_7 
REMARK    8  A    between atoms: C_7  and  C_8 
REMARK    9  A    between atoms: C_8  and  C_9 
REMARK   10  A    between atoms: C_9  and  C_10 
REMARK   11  A    between atoms: C_10  and  C_11 
REMARK   12  A    between atoms: C_11  and  C_12 
REMARK   13  A    between atoms: C_12  and  O_15 
ROOT
HETATM    1  C   UNK N   1      35.775  11.235  18.651  0.00  0.00     0.000 C 
ENDROOT
BRANCH   1   2
HETATM    2  C   UNK N   1      34.812  10.080  18.576  0.00  0.00     0.000 C 
BRANCH   2   3
HETATM    3  C   UNK N   1      35.016   9.325  17.288  0.00  0.00     0.000 C 
BRANCH   3   4
HETATM    4  C   UNK N   1      36.321   9.793  16.695  0.00  0.00     0.000 C 
BRANCH   4   5
HETATM    5  C   UNK N   1      36.207   9.916  15.198  0.00  0.00     0.002 C 
BRANCH   5   6
HETATM    6  C   UNK N   1      34.736   9.970  14.857  0.00  0.00     0.026 C 
BRANCH   6   7
HETATM    7  C   UNK N   1      34.554  10.159  13.370  0.00  0.00     0.164 C 
BRANCH   7   8
HETATM    8  O   UNK N   1      35.800  10.372  12.786  0.00  0.00    -0.401 OA
HETATM    9  H   UNK N   1      36.466   9.665  12.791  0.00  0.00     0.209 HD
ENDBRANCH   7   8
ENDBRANCH   6   7
ENDBRANCH   5   6
ENDBRANCH   4   5
ENDBRANCH   3   4
ENDBRANCH   2   3
ENDBRANCH   1   2
BRANCH   1  10
HETATM   10  C   UNK N   1      35.013  12.448  19.120  0.00  0.00     0.000 C 
BRANCH  10  11
HETATM   11  C   UNK N   1      35.347  13.615  18.227  0.00  0.00     0.001 C 
BRANCH  11  12
HETATM   12  C   UNK N   1      35.101  13.211  16.795  0.00  0.00     0.010 C 
BRANCH  12  13
HETATM   13  C   UNK N   1      36.245  13.710  15.938  0.00  0.00     0.110 C 
BRANCH  13  14
HETATM   14  C   UNK N   1      36.001  13.459  14.483  0.00  0.00     0.139 C 
HETATM   15  O   UNK N   1      34.867  13.540  14.045  0.00  0.00    -0.650 OA
BRANCH  14  16
HETATM   16  O   UNK N   1      37.016  13.146  13.652  0.00  0.00    -0.776 OA
HETATM   17  H   UNK N   1      36.834  12.823  12.791  0.00  0.00     0.167 HD
ENDBRANCH  14  16
ENDBRANCH  13  14
ENDBRANCH  12  13
ENDBRANCH  11  12
ENDBRANCH  10  11
ENDBRANCH   1  10
TORSDOF 13
ENDMDL
MODEL 9
REMARK VINA RESULT:      -4.4      2.277      7.409
REMARK  13 active torsions:
REMARK  status: ('A' for Active; 'I' for Inactive)
REMARK    1  A    between atoms: C_1  and  C_2 
REMARK    2  A    between atoms: C_1  and  O_13 
REMARK    3  A    between atoms: C_2  and  C_3 
REMARK    4  A    between atoms: C_3  and  C_4 
REMARK    5  A    between atoms: C_4  and  C_5 
REMARK    6  A    between atoms: C_5  and  C_6 
REMARK    7  A    between atoms: C_6  and  C_7 
REMARK    8  A    between atoms: C_7  and  C_8 
REMARK    9  A    between atoms: C_8  and  C_9 
REMARK   10  A    between atoms: C_9  and  C_10 
REMARK   11  A    between atoms: C_10  and  C_11 
REMARK   12  A    between atoms: C_11  and  C_12 
REMARK   13  A    between atoms: C_12  and  O_15 
ROOT
HETATM    1  C   UNK N   1      27.813  19.031   6.679  0.00  0.00     0.000 C 
ENDROOT
BRANCH   1   2
HETATM    2  C   UNK N   1      28.171  18.819   8.126  0.00  0.00     0.000 C 
BRANCH   2   3
HETATM    3  C   UNK N   1      28.985  17.559   8.274  0.00  0.00     0.000 C 
BRANCH   3   4
HETATM    4  C   UNK N   1      30.438  17.961   8.266  0.00  0.00     0.000 C 
BRANCH   4   5
HETATM    5  C   UNK N   1      31.268  16.927   7.548  0.00  0.00     0.002 C 
BRANCH   5   6
HETATM    6  C   UNK N   1      30.664  16.733   6.177  0.00  0.00     0.026 C 
BRANCH   6   7
HETATM    7  C   UNK N   1      31.632  17.190   5.113  0.00  0.00     0.164 C 
BRANCH   7   8
HETATM    8  O   UNK N   1      30.950  17.980   4.190  0.00  0.00    -0.401 OA
HETATM    9  H   UNK N   1      31.445  18.555   3.584  0.00  0.00     0.209 HD
ENDBRANCH   7   8
ENDBRANCH   6   7
ENDBRANCH   5   6
ENDBRANCH   4   5
ENDBRANCH   3   4
ENDBRANCH   2   3
ENDBRANCH   1   2
BRANCH   1  10
HETATM   10  C   UNK N   1      27.782  20.515   6.419  0.00  0.00     0.000 C 
BRANCH  10  11
HETATM   11  C   UNK N   1      26.440  20.886   5.843  0.00  0.00     0.001 C 
BRANCH  11  12
HETATM   12  C   UNK N   1      26.415  20.491   4.387  0.00  0.00     0.010 C 
BRANCH  12  13
HETATM   13  C   UNK N   1      25.049  19.933   4.050  0.00  0.00     0.110 C 
BRANCH  13  14
HETATM   14  C   UNK N   1      24.435  20.634   2.879  0.00  0.00     0.139 C 
HETATM   15  O   UNK N   1      25.071  20.738   1.845  0.00  0.00    -0.650 OA
BRANCH  14  16
HETATM   16  O   UNK N   1      23.191  21.150   2.952  0.00  0.00    -0.776 OA
HETATM   17  H   UNK N   1      23.041  21.943   3.428  0.00  0.00     0.167 HD
ENDBRANCH  14  16
ENDBRANCH  13  14
ENDBRANCH  12  13
ENDBRANCH  11  12
ENDBRANCH  10  11
ENDBRANCH   1  10
TORSDOF 13
ENDMDL
