REMARK  5 active torsions:
REMARK  status: ('A' for Active; 'I' for Inactive)
REMARK    1  A    between atoms: C_1  and  C_7 
REMARK    2  A    between atoms: C_7  and  N_8 
REMARK    3  A    between atoms: C_12  and  C_13 
REMARK    4  A    between atoms: C_17  and  C_20 
REMARK    5  A    between atoms: C_18  and  O_19 
ROOT
HETATM    1  C   UNK N   1       4.903  -0.505   0.073  0.00  0.00     0.030 A 
HETATM    2  C   UNK N   1       4.954  -1.875  -0.369  0.00  0.00     0.050 A 
HETATM    3  C   UNK N   1       3.776  -2.664  -0.384  0.00  0.00     0.055 A 
HETATM    4  C   UNK N   1       2.583  -2.074   0.031  0.00  0.00     0.044 A 
HETATM    5  C   UNK N   1       2.561  -0.786   0.459  0.00  0.00    -0.006 A 
HETATM    6  C   UNK N   1       3.674   0.018   0.503  0.00  0.00     0.030 A 
HETATM    7  N   UNK N   1       1.338  -2.590  -0.010  0.00  0.00    -0.355 N 
HETATM    8  C   UNK N   1       1.278  -0.444   0.707  0.00  0.00     0.044 A 
HETATM    9  C   UNK N   1       0.530  -1.570   0.395  0.00  0.00     0.046 A 
HETATM   10 Cl   UNK N   1       6.431  -2.633  -0.947  0.00  0.00    -0.083 Cl
HETATM   11  H   UNK N   1       1.072  -3.501  -0.272  0.00  0.00     0.166 HD
ENDROOT
BRANCH   9  12
HETATM   12  C   UNK N   1      -0.953  -1.549   0.273  0.00  0.00     0.025 A 
HETATM   13  C   UNK N   1      -1.664  -2.714  -0.036  0.00  0.00     0.016 A 
HETATM   14  C   UNK N   1      -3.046  -2.659  -0.244  0.00  0.00     0.002 A 
HETATM   15  C   UNK N   1      -3.722  -1.434  -0.198  0.00  0.00     0.015 A 
HETATM   16  C   UNK N   1      -3.032  -0.243   0.085  0.00  0.00     0.008 A 
HETATM   17  C   UNK N   1      -1.646  -0.313   0.348  0.00  0.00     0.089 A 
BRANCH  16  18
HETATM   18  C   UNK N   1      -3.750   1.075   0.034  0.00  0.00    -0.023 A 
HETATM   19  C   UNK N   1      -5.135   1.131  -0.185  0.00  0.00     0.012 A 
HETATM   20  C   UNK N   1      -5.789   2.366  -0.282  0.00  0.00     0.001 A 
HETATM   21  C   UNK N   1      -5.067   3.558  -0.176  0.00  0.00     0.000 A 
HETATM   22  C   UNK N   1      -3.691   3.520   0.032  0.00  0.00     0.001 A 
HETATM   23  C   UNK N   1      -3.044   2.291   0.136  0.00  0.00     0.012 A 
ENDBRANCH  16  18
BRANCH  17  24
HETATM   24  O   UNK N   1      -0.970   0.814   0.632  0.00  0.00    -0.359 OA
HETATM   25  H   UNK N   1      -0.055   0.799   0.829  0.00  0.00     0.217 HD
ENDBRANCH  17  24
ENDBRANCH   9  12
BRANCH   1  26
HETATM   26  C   UNK N   1       6.065   0.433   0.071  0.00  0.00     0.104 C 
HETATM   27  N   UNK N   1       5.902   1.649   0.452  0.00  0.00    -0.385 N 
HETATM   28  H   UNK N   1       6.647   2.223   0.744  0.00  0.00     0.157 HD
HETATM   29  H   UNK N   1       4.992   2.023   0.452  0.00  0.00     0.157 HD
BRANCH  26  30
HETATM   30  N   UNK N   1       7.328   0.043  -0.422  0.00  0.00    -0.385 N 
HETATM   31  H   UNK N   1       7.533  -0.857  -0.766  0.00  0.00     0.157 HD
HETATM   32  H   UNK N   1       8.050   0.712  -0.422  0.00  0.00     0.157 HD
ENDBRANCH  26  30
ENDBRANCH   1  26
TORSDOF 5
