MODEL 1
REMARK VINA RESULT:      -7.9      0.000      0.000
REMARK  5 active torsions:
REMARK  status: ('A' for Active; 'I' for Inactive)
REMARK    1  A    between atoms: C_1  and  C_7 
REMARK    2  A    between atoms: C_7  and  N_8 
REMARK    3  A    between atoms: C_12  and  C_13 
REMARK    4  A    between atoms: C_17  and  C_20 
REMARK    5  A    between atoms: C_18  and  O_19 
ROOT
HETATM    1  C   UNK N   1      35.214  11.904  18.042  0.00  0.00     0.030 A 
HETATM    2  C   UNK N   1      34.830  10.612  17.533  0.00  0.00     0.050 A 
HETATM    3  C   UNK N   1      34.739  10.394  16.135  0.00  0.00     0.055 A 
HETATM    4  C   UNK N   1      35.038  11.456  15.282  0.00  0.00     0.044 A 
HETATM    5  C   UNK N   1      35.383  12.669  15.784  0.00  0.00    -0.006 A 
HETATM    6  C   UNK N   1      35.475  12.936  17.128  0.00  0.00     0.030 A 
HETATM    7  N   UNK N   1      35.131  11.445  13.937  0.00  0.00    -0.355 N 
HETATM    8  C   UNK N   1      35.709  13.477  14.751  0.00  0.00     0.044 A 
HETATM    9  C   UNK N   1      35.563  12.696  13.613  0.00  0.00     0.046 A 
HETATM   10 Cl   UNK N   1      34.496   9.239  18.579  0.00  0.00    -0.083 Cl
HETATM   11  H   UNK N   1      34.930  10.701  13.325  0.00  0.00     0.166 HD
ENDROOT
BRANCH   9  12
HETATM   12  C   UNK N   1      36.070  13.111  12.277  0.00  0.00     0.025 A 
HETATM   13  C   UNK N   1      37.392  12.851  11.899  0.00  0.00     0.016 A 
HETATM   14  C   UNK N   1      37.882  13.333  10.681  0.00  0.00     0.002 A 
HETATM   15  C   UNK N   1      37.074  14.122   9.853  0.00  0.00     0.015 A 
HETATM   16  C   UNK N   1      35.750  14.421  10.217  0.00  0.00     0.008 A 
HETATM   17  C   UNK N   1      35.244  13.886  11.422  0.00  0.00     0.089 A 
BRANCH  16  18
HETATM   18  C   UNK N   1      34.926  15.348   9.370  0.00  0.00    -0.023 A 
HETATM   19  C   UNK N   1      34.964  16.735   9.578  0.00  0.00     0.012 A 
HETATM   20  C   UNK N   1      34.154  17.589   8.817  0.00  0.00     0.001 A 
HETATM   21  C   UNK N   1      33.289  17.068   7.852  0.00  0.00     0.000 A 
HETATM   22  C   UNK N   1      33.232  15.693   7.639  0.00  0.00     0.001 A 
HETATM   23  C   UNK N   1      34.044  14.847   8.391  0.00  0.00     0.012 A 
ENDBRANCH  16  18
BRANCH  17  24
HETATM   24  O   UNK N   1      33.976  14.151  11.782  0.00  0.00    -0.359 OA
HETATM   25  H   UNK N   1      33.523  13.620  12.406  0.00  0.00     0.217 HD
ENDBRANCH  17  24
ENDBRANCH   9  12
BRANCH   1  26
HETATM   26  C   UNK N   1      35.402  12.227  19.488  0.00  0.00     0.104 C 
HETATM   27  N   UNK N   1      34.903  13.309  19.967  0.00  0.00    -0.385 N 
HETATM   28  H   UNK N   1      34.741  13.443  20.929  0.00  0.00     0.157 HD
HETATM   29  H   UNK N   1      34.674  14.037  19.346  0.00  0.00     0.157 HD
BRANCH  26  30
HETATM   30  N   UNK N   1      36.189  11.414  20.330  0.00  0.00    -0.385 N 
HETATM   31  H   UNK N   1      35.860  10.995  21.158  0.00  0.00     0.157 HD
HETATM   32  H   UNK N   1      37.127  11.257  20.074  0.00  0.00     0.157 HD
ENDBRANCH  26  30
ENDBRANCH   1  26
TORSDOF 5
ENDMDL
MODEL 2
REMARK VINA RESULT:      -7.8      5.658     10.094
REMARK  5 active torsions:
REMARK  status: ('A' for Active; 'I' for Inactive)
REMARK    1  A    between atoms: C_1  and  C_7 
REMARK    2  A    between atoms: C_7  and  N_8 
REMARK    3  A    between atoms: C_12  and  C_13 
REMARK    4  A    between atoms: C_17  and  C_20 
REMARK    5  A    between atoms: C_18  and  O_19 
ROOT
HETATM    1  C   UNK N   1      29.193  17.543   6.123  0.00  0.00     0.030 A 
HETATM    2  C   UNK N   1      29.006  18.204   7.389  0.00  0.00     0.050 A 
HETATM    3  C   UNK N   1      29.823  17.867   8.497  0.00  0.00     0.055 A 
HETATM    4  C   UNK N   1      30.804  16.893   8.320  0.00  0.00     0.044 A 
HETATM    5  C   UNK N   1      30.952  16.271   7.122  0.00  0.00    -0.006 A 
HETATM    6  C   UNK N   1      30.181  16.552   6.021  0.00  0.00     0.030 A 
HETATM    7  N   UNK N   1      31.759  16.502   9.188  0.00  0.00    -0.355 N 
HETATM    8  C   UNK N   1      32.024  15.453   7.200  0.00  0.00     0.044 A 
HETATM    9  C   UNK N   1      32.523  15.620   8.483  0.00  0.00     0.046 A 
HETATM   10 Cl   UNK N   1      27.813  19.473   7.631  0.00  0.00    -0.083 Cl
HETATM   11  H   UNK N   1      31.877  16.788  10.122  0.00  0.00     0.166 HD
ENDROOT
BRANCH   9  12
HETATM   12  C   UNK N   1      33.853  15.106   8.909  0.00  0.00     0.025 A 
HETATM   13  C   UNK N   1      34.846  14.817   7.966  0.00  0.00     0.016 A 
HETATM   14  C   UNK N   1      36.054  14.242   8.372  0.00  0.00     0.002 A 
HETATM   15  C   UNK N   1      36.262  13.901   9.714  0.00  0.00     0.015 A 
HETATM   16  C   UNK N   1      35.274  14.155  10.681  0.00  0.00     0.008 A 
HETATM   17  C   UNK N   1      34.078  14.786  10.273  0.00  0.00     0.089 A 
BRANCH  16  18
HETATM   18  C   UNK N   1      35.469  13.695  12.097  0.00  0.00    -0.023 A 
HETATM   19  C   UNK N   1      34.908  12.489  12.545  0.00  0.00     0.012 A 
HETATM   20  C   UNK N   1      35.052  12.092  13.881  0.00  0.00     0.001 A 
HETATM   21  C   UNK N   1      35.743  12.900  14.787  0.00  0.00     0.000 A 
HETATM   22  C   UNK N   1      36.298  14.104  14.362  0.00  0.00     0.001 A 
HETATM   23  C   UNK N   1      36.161  14.493  13.031  0.00  0.00     0.012 A 
ENDBRANCH  16  18
BRANCH  17  24
HETATM   24  O   UNK N   1      33.126  15.048  11.185  0.00  0.00    -0.359 OA
HETATM   25  H   UNK N   1      33.038  15.896  11.571  0.00  0.00     0.217 HD
ENDBRANCH  17  24
ENDBRANCH   9  12
BRANCH   1  26
HETATM   26  C   UNK N   1      28.434  17.862   4.877  0.00  0.00     0.104 C 
HETATM   27  N   UNK N   1      27.704  16.959   4.328  0.00  0.00    -0.385 N 
HETATM   28  H   UNK N   1      26.976  17.168   3.698  0.00  0.00     0.157 HD
HETATM   29  H   UNK N   1      27.879  16.016   4.547  0.00  0.00     0.157 HD
BRANCH  26  30
HETATM   30  N   UNK N   1      28.564  19.110   4.231  0.00  0.00    -0.385 N 
HETATM   31  H   UNK N   1      29.409  19.613   4.167  0.00  0.00     0.157 HD
HETATM   32  H   UNK N   1      27.761  19.502   3.820  0.00  0.00     0.157 HD
ENDBRANCH  26  30
ENDBRANCH   1  26
TORSDOF 5
ENDMDL
MODEL 3
REMARK VINA RESULT:      -7.6      3.016      4.949
REMARK  5 active torsions:
REMARK  status: ('A' for Active; 'I' for Inactive)
REMARK    1  A    between atoms: C_1  and  C_7 
REMARK    2  A    between atoms: C_7  and  N_8 
REMARK    3  A    between atoms: C_12  and  C_13 
REMARK    4  A    between atoms: C_17  and  C_20 
REMARK    5  A    between atoms: C_18  and  O_19 
ROOT
HETATM    1  C   UNK N   1      36.308  12.042  13.371  0.00  0.00     0.030 A 
HETATM    2  C   UNK N   1      35.756  11.083  12.448  0.00  0.00     0.050 A 
HETATM    3  C   UNK N   1      34.944  11.518  11.369  0.00  0.00     0.055 A 
HETATM    4  C   UNK N   1      34.709  12.885  11.231  0.00  0.00     0.044 A 
HETATM    5  C   UNK N   1      35.226  13.769  12.122  0.00  0.00    -0.006 A 
HETATM    6  C   UNK N   1      36.009  13.401  13.189  0.00  0.00     0.030 A 
HETATM    7  N   UNK N   1      34.074  13.525  10.229  0.00  0.00    -0.355 N 
HETATM    8  C   UNK N   1      34.927  15.017  11.702  0.00  0.00     0.044 A 
HETATM    9  C   UNK N   1      34.226  14.849  10.517  0.00  0.00     0.046 A 
HETATM   10 Cl   UNK N   1      36.075   9.359  12.564  0.00  0.00    -0.083 Cl
HETATM   11  H   UNK N   1      33.604  13.126   9.461  0.00  0.00     0.166 HD
ENDROOT
BRANCH   9  12
HETATM   12  C   UNK N   1      33.932  15.970   9.583  0.00  0.00     0.025 A 
HETATM   13  C   UNK N   1      34.939  16.858   9.189  0.00  0.00     0.016 A 
HETATM   14  C   UNK N   1      34.627  17.963   8.390  0.00  0.00     0.002 A 
HETATM   15  C   UNK N   1      33.302  18.221   8.022  0.00  0.00     0.015 A 
HETATM   16  C   UNK N   1      32.265  17.362   8.423  0.00  0.00     0.008 A 
HETATM   17  C   UNK N   1      32.593  16.218   9.184  0.00  0.00     0.089 A 
BRANCH  16  18
HETATM   18  C   UNK N   1      30.837  17.703   8.106  0.00  0.00    -0.023 A 
HETATM   19  C   UNK N   1      30.048  18.417   9.021  0.00  0.00     0.012 A 
HETATM   20  C   UNK N   1      28.703  18.687   8.739  0.00  0.00     0.001 A 
HETATM   21  C   UNK N   1      28.126  18.236   7.548  0.00  0.00     0.000 A 
HETATM   22  C   UNK N   1      28.893  17.518   6.634  0.00  0.00     0.001 A 
HETATM   23  C   UNK N   1      30.232  17.258   6.913  0.00  0.00     0.012 A 
ENDBRANCH  16  18
BRANCH  17  24
HETATM   24  O   UNK N   1      31.616  15.377   9.567  0.00  0.00    -0.359 OA
HETATM   25  H   UNK N   1      31.301  14.703   9.000  0.00  0.00     0.217 HD
ENDBRANCH  17  24
ENDBRANCH   9  12
BRANCH   1  26
HETATM   26  C   UNK N   1      37.223  11.704  14.502  0.00  0.00     0.104 C 
HETATM   27  N   UNK N   1      38.495  11.754  14.328  0.00  0.00    -0.385 N 
HETATM   28  H   UNK N   1      39.135  11.826  15.073  0.00  0.00     0.157 HD
HETATM   29  H   UNK N   1      38.845  11.718  13.409  0.00  0.00     0.157 HD
BRANCH  26  30
HETATM   30  N   UNK N   1      36.728  11.245  15.740  0.00  0.00    -0.385 N 
HETATM   31  H   UNK N   1      36.614  11.815  16.535  0.00  0.00     0.157 HD
HETATM   32  H   UNK N   1      36.482  10.295  15.816  0.00  0.00     0.157 HD
ENDBRANCH  26  30
ENDBRANCH   1  26
TORSDOF 5
ENDMDL
MODEL 4
REMARK VINA RESULT:      -7.5      1.593      2.189
REMARK  5 active torsions:
REMARK  status: ('A' for Active; 'I' for Inactive)
REMARK    1  A    between atoms: C_1  and  C_7 
REMARK    2  A    between atoms: C_7  and  N_8 
REMARK    3  A    between atoms: C_12  and  C_13 
REMARK    4  A    between atoms: C_17  and  C_20 
REMARK    5  A    between atoms: C_18  and  O_19 
ROOT
HETATM    1  C   UNK N   1      35.737  11.175  17.325  0.00  0.00     0.030 A 
HETATM    2  C   UNK N   1      35.498  12.556  17.659  0.00  0.00     0.050 A 
HETATM    3  C   UNK N   1      35.688  13.569  16.686  0.00  0.00     0.055 A 
HETATM    4  C   UNK N   1      36.101  13.186  15.410  0.00  0.00     0.044 A 
HETATM    5  C   UNK N   1      36.335  11.881  15.121  0.00  0.00    -0.006 A 
HETATM    6  C   UNK N   1      36.177  10.863  16.029  0.00  0.00     0.030 A 
HETATM    7  N   UNK N   1      36.230  13.955  14.309  0.00  0.00    -0.355 N 
HETATM    8  C   UNK N   1      36.626  11.784  13.806  0.00  0.00     0.044 A 
HETATM    9  C   UNK N   1      36.540  13.078  13.313  0.00  0.00     0.046 A 
HETATM   10 Cl   UNK N   1      34.929  13.065  19.242  0.00  0.00    -0.083 Cl
HETATM   11  H   UNK N   1      36.125  14.931  14.241  0.00  0.00     0.166 HD
ENDROOT
BRANCH   9  12
HETATM   12  C   UNK N   1      36.528  13.392  11.859  0.00  0.00     0.025 A 
HETATM   13  C   UNK N   1      37.662  13.174  11.068  0.00  0.00     0.016 A 
HETATM   14  C   UNK N   1      37.669  13.565   9.725  0.00  0.00     0.002 A 
HETATM   15  C   UNK N   1      36.564  14.224   9.174  0.00  0.00     0.015 A 
HETATM   16  C   UNK N   1      35.420  14.481   9.948  0.00  0.00     0.008 A 
HETATM   17  C   UNK N   1      35.399  14.034  11.288  0.00  0.00     0.089 A 
BRANCH  16  18
HETATM   18  C   UNK N   1      34.282  15.275   9.374  0.00  0.00    -0.023 A 
HETATM   19  C   UNK N   1      33.132  14.635   8.887  0.00  0.00     0.012 A 
HETATM   20  C   UNK N   1      32.097  15.380   8.307  0.00  0.00     0.001 A 
HETATM   21  C   UNK N   1      32.205  16.769   8.191  0.00  0.00     0.000 A 
HETATM   22  C   UNK N   1      33.344  17.418   8.660  0.00  0.00     0.001 A 
HETATM   23  C   UNK N   1      34.368  16.676   9.245  0.00  0.00     0.012 A 
ENDBRANCH  16  18
BRANCH  17  24
HETATM   24  O   UNK N   1      34.309  14.260  12.042  0.00  0.00    -0.359 OA
HETATM   25  H   UNK N   1      34.117  15.111  12.382  0.00  0.00     0.217 HD
ENDBRANCH  17  24
ENDBRANCH   9  12
BRANCH   1  26
HETATM   26  C   UNK N   1      35.509  10.024  18.249  0.00  0.00     0.104 C 
HETATM   27  N   UNK N   1      36.472   9.602  18.988  0.00  0.00    -0.385 N 
HETATM   28  H   UNK N   1      36.327   9.062  19.799  0.00  0.00     0.157 HD
HETATM   29  H   UNK N   1      37.394   9.828  18.732  0.00  0.00     0.157 HD
BRANCH  26  30
HETATM   30  N   UNK N   1      34.283   9.328  18.273  0.00  0.00    -0.385 N 
HETATM   31  H   UNK N   1      33.887   8.935  19.085  0.00  0.00     0.157 HD
HETATM   32  H   UNK N   1      33.793   9.227  17.426  0.00  0.00     0.157 HD
ENDBRANCH  26  30
ENDBRANCH   1  26
TORSDOF 5
ENDMDL
MODEL 5
REMARK VINA RESULT:      -7.4      3.423      5.720
REMARK  5 active torsions:
REMARK  status: ('A' for Active; 'I' for Inactive)
REMARK    1  A    between atoms: C_1  and  C_7 
REMARK    2  A    between atoms: C_7  and  N_8 
REMARK    3  A    between atoms: C_12  and  C_13 
REMARK    4  A    between atoms: C_17  and  C_20 
REMARK    5  A    between atoms: C_18  and  O_19 
ROOT
HETATM    1  C   UNK N   1      36.619  12.820  12.766  0.00  0.00     0.030 A 
HETATM    2  C   UNK N   1      36.476  14.050  13.501  0.00  0.00     0.050 A 
HETATM    3  C   UNK N   1      36.019  15.223  12.848  0.00  0.00     0.055 A 
HETATM    4  C   UNK N   1      35.712  15.143  11.491  0.00  0.00     0.044 A 
HETATM    5  C   UNK N   1      35.870  13.977  10.813  0.00  0.00    -0.006 A 
HETATM    6  C   UNK N   1      36.317  12.816  11.396  0.00  0.00     0.030 A 
HETATM    7  N   UNK N   1      35.158  16.087  10.703  0.00  0.00    -0.355 N 
HETATM    8  C   UNK N   1      35.413  14.154   9.554  0.00  0.00     0.044 A 
HETATM    9  C   UNK N   1      34.960  15.464   9.507  0.00  0.00     0.046 A 
HETATM   10 Cl   UNK N   1      36.805  14.172  15.224  0.00  0.00    -0.083 Cl
HETATM   11  H   UNK N   1      34.947  17.019  10.938  0.00  0.00     0.166 HD
ENDROOT
BRANCH   9  12
HETATM   12  C   UNK N   1      34.139  15.997   8.387  0.00  0.00     0.025 A 
HETATM   13  C   UNK N   1      34.731  16.355   7.170  0.00  0.00     0.016 A 
HETATM   14  C   UNK N   1      33.962  16.946   6.162  0.00  0.00     0.002 A 
HETATM   15  C   UNK N   1      32.609  17.233   6.378  0.00  0.00     0.015 A 
HETATM   16  C   UNK N   1      31.992  16.909   7.598  0.00  0.00     0.008 A 
HETATM   17  C   UNK N   1      32.760  16.263   8.592  0.00  0.00     0.089 A 
BRANCH  16  18
HETATM   18  C   UNK N   1      30.568  17.312   7.854  0.00  0.00    -0.023 A 
HETATM   19  C   UNK N   1      29.533  16.863   7.019  0.00  0.00     0.012 A 
HETATM   20  C   UNK N   1      28.214  17.284   7.233  0.00  0.00     0.001 A 
HETATM   21  C   UNK N   1      27.915  18.169   8.273  0.00  0.00     0.000 A 
HETATM   22  C   UNK N   1      28.932  18.631   9.105  0.00  0.00     0.001 A 
HETATM   23  C   UNK N   1      30.241  18.205   8.895  0.00  0.00     0.012 A 
ENDBRANCH  16  18
BRANCH  17  24
HETATM   24  O   UNK N   1      32.185  15.935   9.762  0.00  0.00    -0.359 OA
HETATM   25  H   UNK N   1      32.475  15.197  10.260  0.00  0.00     0.217 HD
ENDBRANCH  17  24
ENDBRANCH   9  12
BRANCH   1  26
HETATM   26  C   UNK N   1      37.029  11.514  13.364  0.00  0.00     0.104 C 
HETATM   27  N   UNK N   1      36.208  10.527  13.361  0.00  0.00    -0.385 N 
HETATM   28  H   UNK N   1      36.496   9.591  13.468  0.00  0.00     0.157 HD
HETATM   29  H   UNK N   1      35.249  10.714  13.246  0.00  0.00     0.157 HD
BRANCH  26  30
HETATM   30  N   UNK N   1      38.271  11.358  14.014  0.00  0.00    -0.385 N 
HETATM   31  H   UNK N   1      38.569  10.523  14.444  0.00  0.00     0.157 HD
HETATM   32  H   UNK N   1      38.879  12.132  14.041  0.00  0.00     0.157 HD
ENDBRANCH  26  30
ENDBRANCH   1  26
TORSDOF 5
ENDMDL
MODEL 6
REMARK VINA RESULT:      -7.3      8.961     13.138
REMARK  5 active torsions:
REMARK  status: ('A' for Active; 'I' for Inactive)
REMARK    1  A    between atoms: C_1  and  C_7 
REMARK    2  A    between atoms: C_7  and  N_8 
REMARK    3  A    between atoms: C_12  and  C_13 
REMARK    4  A    between atoms: C_17  and  C_20 
REMARK    5  A    between atoms: C_18  and  O_19 
ROOT
HETATM    1  C   UNK N   1      31.770  16.979   7.319  0.00  0.00     0.030 A 
HETATM    2  C   UNK N   1      32.377  17.034   6.014  0.00  0.00     0.050 A 
HETATM    3  C   UNK N   1      31.577  17.259   4.865  0.00  0.00     0.055 A 
HETATM    4  C   UNK N   1      30.205  17.429   5.040  0.00  0.00     0.044 A 
HETATM    5  C   UNK N   1      29.652  17.357   6.278  0.00  0.00    -0.006 A 
HETATM    6  C   UNK N   1      30.379  17.132   7.422  0.00  0.00     0.030 A 
HETATM    7  N   UNK N   1      29.281  17.765   4.118  0.00  0.00    -0.355 N 
HETATM    8  C   UNK N   1      28.338  17.650   6.172  0.00  0.00     0.044 A 
HETATM    9  C   UNK N   1      28.127  17.917   4.827  0.00  0.00     0.046 A 
HETATM   10 Cl   UNK N   1      34.109  16.875   5.764  0.00  0.00    -0.083 Cl
HETATM   11  H   UNK N   1      29.410  17.875   3.148  0.00  0.00     0.166 HD
ENDROOT
BRANCH   9  12
HETATM   12  C   UNK N   1      26.877  18.537   4.311  0.00  0.00     0.025 A 
HETATM   13  C   UNK N   1      26.892  19.815   3.740  0.00  0.00     0.016 A 
HETATM   14  C   UNK N   1      25.695  20.424   3.350  0.00  0.00     0.002 A 
HETATM   15  C   UNK N   1      24.469  19.787   3.573  0.00  0.00     0.015 A 
HETATM   16  C   UNK N   1      24.419  18.514   4.166  0.00  0.00     0.008 A 
HETATM   17  C   UNK N   1      25.634  17.881   4.509  0.00  0.00     0.089 A 
BRANCH  16  18
HETATM   18  C   UNK N   1      23.094  17.885   4.490  0.00  0.00    -0.023 A 
HETATM   19  C   UNK N   1      22.448  17.053   3.563  0.00  0.00     0.012 A 
HETATM   20  C   UNK N   1      21.189  16.511   3.852  0.00  0.00     0.001 A 
HETATM   21  C   UNK N   1      20.555  16.804   5.063  0.00  0.00     0.000 A 
HETATM   22  C   UNK N   1      21.178  17.635   5.989  0.00  0.00     0.001 A 
HETATM   23  C   UNK N   1      22.433  18.167   5.703  0.00  0.00     0.012 A 
ENDBRANCH  16  18
BRANCH  17  24
HETATM   24  O   UNK N   1      25.607  16.659   5.067  0.00  0.00    -0.359 OA
HETATM   25  H   UNK N   1      26.386  16.251   5.390  0.00  0.00     0.217 HD
ENDBRANCH  17  24
ENDBRANCH   9  12
BRANCH   1  26
HETATM   26  C   UNK N   1      32.520  16.811   8.600  0.00  0.00     0.104 C 
HETATM   27  N   UNK N   1      32.272  15.802   9.355  0.00  0.00    -0.385 N 
HETATM   28  H   UNK N   1      32.901  15.479  10.041  0.00  0.00     0.157 HD
HETATM   29  H   UNK N   1      31.415  15.332   9.244  0.00  0.00     0.157 HD
BRANCH  26  30
HETATM   30  N   UNK N   1      33.440  17.782   9.049  0.00  0.00    -0.385 N 
HETATM   31  H   UNK N   1      33.992  18.338   8.452  0.00  0.00     0.157 HD
HETATM   32  H   UNK N   1      33.538  17.911  10.020  0.00  0.00     0.157 HD
ENDBRANCH  26  30
ENDBRANCH   1  26
TORSDOF 5
ENDMDL
MODEL 7
REMARK VINA RESULT:      -7.3      9.959     14.227
REMARK  5 active torsions:
REMARK  status: ('A' for Active; 'I' for Inactive)
REMARK    1  A    between atoms: C_1  and  C_7 
REMARK    2  A    between atoms: C_7  and  N_8 
REMARK    3  A    between atoms: C_12  and  C_13 
REMARK    4  A    between atoms: C_17  and  C_20 
REMARK    5  A    between atoms: C_18  and  O_19 
ROOT
HETATM    1  C   UNK N   1      30.907  17.188   5.906  0.00  0.00     0.030 A 
HETATM    2  C   UNK N   1      30.392  17.307   7.246  0.00  0.00     0.050 A 
HETATM    3  C   UNK N   1      29.099  17.846   7.467  0.00  0.00     0.055 A 
HETATM    4  C   UNK N   1      28.353  18.244   6.359  0.00  0.00     0.044 A 
HETATM    5  C   UNK N   1      28.864  18.137   5.107  0.00  0.00    -0.006 A 
HETATM    6  C   UNK N   1      30.113  17.632   4.838  0.00  0.00     0.030 A 
HETATM    7  N   UNK N   1      27.073  18.668   6.323  0.00  0.00    -0.355 N 
HETATM    8  C   UNK N   1      27.906  18.499   4.226  0.00  0.00     0.044 A 
HETATM    9  C   UNK N   1      26.796  18.810   4.997  0.00  0.00     0.046 A 
HETATM   10 Cl   UNK N   1      31.286  16.768   8.660  0.00  0.00    -0.083 Cl
HETATM   11  H   UNK N   1      26.474  18.840   7.085  0.00  0.00     0.166 HD
ENDROOT
BRANCH   9  12
HETATM   12  C   UNK N   1      25.438  19.005   4.419  0.00  0.00     0.025 A 
HETATM   13  C   UNK N   1      25.162  20.098   3.590  0.00  0.00     0.016 A 
HETATM   14  C   UNK N   1      23.858  20.322   3.135  0.00  0.00     0.002 A 
HETATM   15  C   UNK N   1      22.810  19.490   3.546  0.00  0.00     0.015 A 
HETATM   16  C   UNK N   1      23.052  18.399   4.399  0.00  0.00     0.008 A 
HETATM   17  C   UNK N   1      24.379  18.146   4.811  0.00  0.00     0.089 A 
BRANCH  16  18
HETATM   18  C   UNK N   1      21.906  17.574   4.911  0.00  0.00    -0.023 A 
HETATM   19  C   UNK N   1      21.190  16.727   4.052  0.00  0.00     0.012 A 
HETATM   20  C   UNK N   1      20.090  16.000   4.526  0.00  0.00     0.001 A 
HETATM   21  C   UNK N   1      19.685  16.120   5.858  0.00  0.00     0.000 A 
HETATM   22  C   UNK N   1      20.379  16.963   6.721  0.00  0.00     0.001 A 
HETATM   23  C   UNK N   1      21.477  17.680   6.250  0.00  0.00     0.012 A 
ENDBRANCH  16  18
BRANCH  17  24
HETATM   24  O   UNK N   1      24.632  17.101   5.617  0.00  0.00    -0.359 OA
HETATM   25  H   UNK N   1      25.360  16.532   5.467  0.00  0.00     0.217 HD
ENDBRANCH  17  24
ENDBRANCH   9  12
BRANCH   1  26
HETATM   26  C   UNK N   1      32.224  16.579   5.552  0.00  0.00     0.104 C 
HETATM   27  N   UNK N   1      32.311  15.310   5.372  0.00  0.00    -0.385 N 
HETATM   28  H   UNK N   1      33.049  14.890   4.873  0.00  0.00     0.157 HD
HETATM   29  H   UNK N   1      31.610  14.733   5.750  0.00  0.00     0.157 HD
BRANCH  26  30
HETATM   30  N   UNK N   1      33.403  17.353   5.494  0.00  0.00    -0.385 N 
HETATM   31  H   UNK N   1      34.256  17.091   5.911  0.00  0.00     0.157 HD
HETATM   32  H   UNK N   1      33.371  18.207   5.006  0.00  0.00     0.157 HD
ENDBRANCH  26  30
ENDBRANCH   1  26
TORSDOF 5
ENDMDL
MODEL 8
REMARK VINA RESULT:      -7.2     12.880     15.320
REMARK  5 active torsions:
REMARK  status: ('A' for Active; 'I' for Inactive)
REMARK    1  A    between atoms: C_1  and  C_7 
REMARK    2  A    between atoms: C_7  and  N_8 
REMARK    3  A    between atoms: C_12  and  C_13 
REMARK    4  A    between atoms: C_17  and  C_20 
REMARK    5  A    between atoms: C_18  and  O_19 
ROOT
HETATM    1  C   UNK N   1      22.514  12.665  10.746  0.00  0.00     0.030 A 
HETATM    2  C   UNK N   1      21.075  12.683  10.787  0.00  0.00     0.050 A 
HETATM    3  C   UNK N   1      20.339  13.289   9.737  0.00  0.00     0.055 A 
HETATM    4  C   UNK N   1      21.047  13.851   8.676  0.00  0.00     0.044 A 
HETATM    5  C   UNK N   1      22.404  13.837   8.666  0.00  0.00    -0.006 A 
HETATM    6  C   UNK N   1      23.165  13.273   9.661  0.00  0.00     0.030 A 
HETATM    7  N   UNK N   1      20.562  14.369   7.530  0.00  0.00    -0.355 N 
HETATM    8  C   UNK N   1      22.825  14.356   7.492  0.00  0.00     0.044 A 
HETATM    9  C   UNK N   1      21.668  14.666   6.791  0.00  0.00     0.046 A 
HETATM   10 Cl   UNK N   1      20.151  11.938  12.084  0.00  0.00    -0.083 Cl
HETATM   11  H   UNK N   1      19.618  14.505   7.282  0.00  0.00     0.166 HD
ENDROOT
BRANCH   9  12
HETATM   12  C   UNK N   1      21.666  15.018   5.345  0.00  0.00     0.025 A 
HETATM   13  C   UNK N   1      22.042  14.079   4.378  0.00  0.00     0.016 A 
HETATM   14  C   UNK N   1      22.130  14.453   3.033  0.00  0.00     0.002 A 
HETATM   15  C   UNK N   1      21.896  15.778   2.649  0.00  0.00     0.015 A 
HETATM   16  C   UNK N   1      21.541  16.750   3.600  0.00  0.00     0.008 A 
HETATM   17  C   UNK N   1      21.401  16.354   4.948  0.00  0.00     0.089 A 
BRANCH  16  18
HETATM   18  C   UNK N   1      21.390  18.187   3.189  0.00  0.00    -0.023 A 
HETATM   19  C   UNK N   1      20.199  18.645   2.604  0.00  0.00     0.012 A 
HETATM   20  C   UNK N   1      20.084  19.974   2.177  0.00  0.00     0.001 A 
HETATM   21  C   UNK N   1      21.159  20.857   2.317  0.00  0.00     0.000 A 
HETATM   22  C   UNK N   1      22.350  20.415   2.887  0.00  0.00     0.001 A 
HETATM   23  C   UNK N   1      22.460  19.095   3.318  0.00  0.00     0.012 A 
ENDBRANCH  16  18
BRANCH  17  24
HETATM   24  O   UNK N   1      21.051  17.267   5.871  0.00  0.00    -0.359 OA
HETATM   25  H   UNK N   1      21.638  17.522   6.554  0.00  0.00     0.217 HD
ENDBRANCH  17  24
ENDBRANCH   9  12
BRANCH   1  26
HETATM   26  C   UNK N   1      23.386  12.002  11.762  0.00  0.00     0.104 C 
HETATM   27  N   UNK N   1      22.857  11.479  12.810  0.00  0.00    -0.385 N 
HETATM   28  H   UNK N   1      23.313  10.799  13.357  0.00  0.00     0.157 HD
HETATM   29  H   UNK N   1      21.957  11.773  13.077  0.00  0.00     0.157 HD
BRANCH  26  30
HETATM   30  N   UNK N   1      24.792  12.007  11.645  0.00  0.00    -0.385 N 
HETATM   31  H   UNK N   1      25.398  12.430  12.296  0.00  0.00     0.157 HD
HETATM   32  H   UNK N   1      25.192  11.562  10.864  0.00  0.00     0.157 HD
ENDBRANCH  26  30
ENDBRANCH   1  26
TORSDOF 5
ENDMDL
MODEL 9
REMARK VINA RESULT:      -7.2     11.986     13.251
REMARK  5 active torsions:
REMARK  status: ('A' for Active; 'I' for Inactive)
REMARK    1  A    between atoms: C_1  and  C_7 
REMARK    2  A    between atoms: C_7  and  N_8 
REMARK    3  A    between atoms: C_12  and  C_13 
REMARK    4  A    between atoms: C_17  and  C_20 
REMARK    5  A    between atoms: C_18  and  O_19 
ROOT
HETATM    1  C   UNK N   1      22.232  12.729   9.788  0.00  0.00     0.030 A 
HETATM    2  C   UNK N   1      23.580  12.521  10.252  0.00  0.00     0.050 A 
HETATM    3  C   UNK N   1      24.672  12.674   9.361  0.00  0.00     0.055 A 
HETATM    4  C   UNK N   1      24.401  13.034   8.042  0.00  0.00     0.044 A 
HETATM    5  C   UNK N   1      23.122  13.208   7.622  0.00  0.00    -0.006 A 
HETATM    6  C   UNK N   1      22.028  13.063   8.441  0.00  0.00     0.030 A 
HETATM    7  N   UNK N   1      25.276  13.345   7.065  0.00  0.00    -0.355 N 
HETATM    8  C   UNK N   1      23.152  13.641   6.343  0.00  0.00     0.044 A 
HETATM    9  C   UNK N   1      24.497  13.736   6.018  0.00  0.00     0.046 A 
HETATM   10 Cl   UNK N   1      23.959  12.117  11.920  0.00  0.00    -0.083 Cl
HETATM   11  H   UNK N   1      26.259  13.297   7.099  0.00  0.00     0.166 HD
ENDROOT
BRANCH   9  12
HETATM   12  C   UNK N   1      24.987  14.424   4.792  0.00  0.00     0.025 A 
HETATM   13  C   UNK N   1      25.287  13.698   3.634  0.00  0.00     0.016 A 
HETATM   14  C   UNK N   1      25.839  14.345   2.523  0.00  0.00     0.002 A 
HETATM   15  C   UNK N   1      26.147  15.709   2.578  0.00  0.00     0.015 A 
HETATM   16  C   UNK N   1      25.881  16.460   3.735  0.00  0.00     0.008 A 
HETATM   17  C   UNK N   1      25.273  15.813   4.834  0.00  0.00     0.089 A 
BRANCH  16  18
HETATM   18  C   UNK N   1      26.306  17.898   3.816  0.00  0.00    -0.023 A 
HETATM   19  C   UNK N   1      27.546  18.252   4.369  0.00  0.00     0.012 A 
HETATM   20  C   UNK N   1      27.913  19.599   4.487  0.00  0.00     0.001 A 
HETATM   21  C   UNK N   1      27.042  20.607   4.067  0.00  0.00     0.000 A 
HETATM   22  C   UNK N   1      25.804  20.274   3.525  0.00  0.00     0.001 A 
HETATM   23  C   UNK N   1      25.444  18.934   3.401  0.00  0.00     0.012 A 
ENDBRANCH  16  18
BRANCH  17  24
HETATM   24  O   UNK N   1      25.001  16.517   5.947  0.00  0.00    -0.359 OA
HETATM   25  H   UNK N   1      24.280  17.114   5.984  0.00  0.00     0.217 HD
ENDBRANCH  17  24
ENDBRANCH   9  12
BRANCH   1  26
HETATM   26  C   UNK N   1      21.015  12.656  10.650  0.00  0.00     0.104 C 
HETATM   27  N   UNK N   1      20.029  13.449  10.428  0.00  0.00    -0.385 N 
HETATM   28  H   UNK N   1      19.116  13.273  10.752  0.00  0.00     0.157 HD
HETATM   29  H   UNK N   1      20.194  14.269   9.910  0.00  0.00     0.157 HD
BRANCH  26  30
HETATM   30  N   UNK N   1      20.950  11.794  11.765  0.00  0.00    -0.385 N 
HETATM   31  H   UNK N   1      20.119  11.384  12.099  0.00  0.00     0.157 HD
HETATM   32  H   UNK N   1      21.788  11.590  12.240  0.00  0.00     0.157 HD
ENDBRANCH  26  30
ENDBRANCH   1  26
TORSDOF 5
ENDMDL
