REMARK  17 active torsions:
REMARK  status: ('A' for Active; 'I' for Inactive)
REMARK    1  A    between atoms: C_1  and  O_3 
REMARK    2  A    between atoms: C_1  and  C_4 
REMARK    3  A    between atoms: C_4  and  N_5 
REMARK       I    between atoms: N_5  and  C_6 
REMARK    4  A    between atoms: C_6  and  C_8 
REMARK    5  A    between atoms: C_8  and  C_9 
REMARK    6  A    between atoms: C_9  and  C_10 
REMARK    7  A    between atoms: C_10  and  C_11 
REMARK    8  A    between atoms: C_11  and  C_12 
REMARK    9  A    between atoms: C_12  and  C_13 
REMARK   10  A    between atoms: C_13  and  C_14 
REMARK   11  A    between atoms: C_14  and  C_15 
REMARK   12  A    between atoms: C_15  and  C_16 
REMARK   13  A    between atoms: C_16  and  C_17 
REMARK   14  A    between atoms: C_17  and  C_18 
REMARK   15  A    between atoms: C_18  and  C_19 
REMARK   16  A    between atoms: C_19  and  C_20 
REMARK   17  A    between atoms: C_20  and  C_21 
ROOT
HETATM    1  C   UNK N   1      -3.012   1.933  -0.169  0.00  0.00     0.000 C 
ENDROOT
BRANCH   1   2
HETATM    2  C   UNK N   1      -3.822   0.729  -0.610  0.00  0.00     0.009 C 
BRANCH   2   3
HETATM    3  C   UNK N   1      -3.918  -0.277   0.524  0.00  0.00     0.103 C 
BRANCH   3   4
HETATM    4  C   UNK N   1      -4.970  -1.308   0.237  0.00  0.00     0.217 C 
HETATM    5  N   UNK N   1      -6.281  -0.978   0.130  0.00  0.00    -0.351 N 
HETATM    6  H   UNK N   1      -6.936  -1.689  -0.057  0.00  0.00     0.163 HD
HETATM    7  O   UNK N   1      -4.635  -2.476   0.108  0.00  0.00    -0.274 OA
BRANCH   5   8
HETATM    8  C   UNK N   1      -6.749   0.381   0.282  0.00  0.00     0.232 C 
BRANCH   8   9
HETATM    9  C   UNK N   1      -8.214   0.497  -0.008  0.00  0.00     0.158 C 
HETATM   10  O   UNK N   1      -8.883  -0.490  -0.267  0.00  0.00    -0.649 OA
BRANCH   9  11
HETATM   11  O   UNK N   1      -8.794   1.712   0.006  0.00  0.00    -0.775 OA
HETATM   12  H   UNK N   1      -8.264   2.484   0.016  0.00  0.00     0.167 HD
ENDBRANCH   9  11
ENDBRANCH   8   9
ENDBRANCH   5   8
ENDBRANCH   3   4
ENDBRANCH   2   3
ENDBRANCH   1   2
BRANCH   1  13
HETATM   13  C   UNK N   1      -1.586   1.832  -0.682  0.00  0.00     0.000 C 
BRANCH  13  14
HETATM   14  C   UNK N   1      -0.615   1.487   0.440  0.00  0.00     0.000 C 
BRANCH  14  15
HETATM   15  C   UNK N   1      -0.599  -0.006   0.742  0.00  0.00     0.000 C 
BRANCH  15  16
HETATM   16  C   UNK N   1      -0.060  -0.802  -0.439  0.00  0.00     0.000 C 
BRANCH  16  17
HETATM   17  C   UNK N   1       1.264  -1.461  -0.094  0.00  0.00     0.000 C 
BRANCH  17  18
HETATM   18  C   UNK N   1       2.395  -0.465  -0.249  0.00  0.00     0.000 C 
BRANCH  18  19
HETATM   19  C   UNK N   1       3.718  -1.114   0.099  0.00  0.00     0.000 C 
BRANCH  19  20
HETATM   20  C   UNK N   1       4.782  -0.039   0.102  0.00  0.00     0.000 C 
BRANCH  20  21
HETATM   21  C   UNK N   1       6.164  -0.654   0.129  0.00  0.00     0.000 C 
BRANCH  21  22
HETATM   22  C   UNK N   1       7.184   0.462   0.057  0.00  0.00    -0.000 C 
BRANCH  22  23
HETATM   23  C   UNK N   1       8.581  -0.115  -0.013  0.00  0.00    -0.005 C 
HETATM   24  C   UNK N   1       9.586   1.018  -0.035  0.00  0.00     0.005 C 
ENDBRANCH  22  23
ENDBRANCH  21  22
ENDBRANCH  20  21
ENDBRANCH  19  20
ENDBRANCH  18  19
ENDBRANCH  17  18
ENDBRANCH  16  17
ENDBRANCH  15  16
ENDBRANCH  14  15
ENDBRANCH  13  14
ENDBRANCH   1  13
TORSDOF 17
