MODEL 1
REMARK VINA RESULT:      -5.1      0.000      0.000
REMARK  17 active torsions:
REMARK  status: ('A' for Active; 'I' for Inactive)
REMARK    1  A    between atoms: C_1  and  O_3 
REMARK    2  A    between atoms: C_1  and  C_4 
REMARK    3  A    between atoms: C_4  and  N_5 
REMARK       I    between atoms: N_5  and  C_6 
REMARK    4  A    between atoms: C_6  and  C_8 
REMARK    5  A    between atoms: C_8  and  C_9 
REMARK    6  A    between atoms: C_9  and  C_10 
REMARK    7  A    between atoms: C_10  and  C_11 
REMARK    8  A    between atoms: C_11  and  C_12 
REMARK    9  A    between atoms: C_12  and  C_13 
REMARK   10  A    between atoms: C_13  and  C_14 
REMARK   11  A    between atoms: C_14  and  C_15 
REMARK   12  A    between atoms: C_15  and  C_16 
REMARK   13  A    between atoms: C_16  and  C_17 
REMARK   14  A    between atoms: C_17  and  C_18 
REMARK   15  A    between atoms: C_18  and  C_19 
REMARK   16  A    between atoms: C_19  and  C_20 
REMARK   17  A    between atoms: C_20  and  C_21 
ROOT
HETATM    1  C   UNK N   1      35.204  12.326  10.996  0.00  0.00     0.000 C 
ENDROOT
BRANCH   1   2
HETATM    2  C   UNK N   1      34.570  13.693  11.162  0.00  0.00     0.009 C 
BRANCH   2   3
HETATM    3  C   UNK N   1      35.204  14.682  10.199  0.00  0.00     0.103 C 
BRANCH   3   4
HETATM    4  C   UNK N   1      35.420  16.011  10.862  0.00  0.00     0.217 C 
HETATM    5  N   UNK N   1      34.932  17.160  10.331  0.00  0.00    -0.351 N 
HETATM    6  H   UNK N   1      35.101  18.009  10.800  0.00  0.00     0.163 HD
HETATM    7  O   UNK N   1      36.062  16.058  11.901  0.00  0.00    -0.274 OA
BRANCH   5   8
HETATM    8  C   UNK N   1      34.175  17.180   9.100  0.00  0.00     0.232 C 
BRANCH   8   9
HETATM    9  C   UNK N   1      34.659  18.250   8.171  0.00  0.00     0.158 C 
HETATM   10  O   UNK N   1      35.291  19.206   8.589  0.00  0.00    -0.649 OA
BRANCH   9  11
HETATM   11  O   UNK N   1      34.379  18.157   6.857  0.00  0.00    -0.775 OA
HETATM   12  H   UNK N   1      34.694  18.809   6.264  0.00  0.00     0.167 HD
ENDBRANCH   9  11
ENDBRANCH   8   9
ENDBRANCH   5   8
ENDBRANCH   3   4
ENDBRANCH   2   3
ENDBRANCH   1   2
BRANCH   1  13
HETATM   13  C   UNK N   1      36.712  12.451  10.862  0.00  0.00     0.000 C 
BRANCH  13  14
HETATM   14  C   UNK N   1      37.417  12.089  12.163  0.00  0.00     0.000 C 
BRANCH  14  15
HETATM   15  C   UNK N   1      36.717  10.950  12.893  0.00  0.00     0.000 C 
BRANCH  15  16
HETATM   16  C   UNK N   1      36.457  11.306  14.351  0.00  0.00     0.000 C 
BRANCH  16  17
HETATM   17  C   UNK N   1      37.039  12.666  14.692  0.00  0.00     0.000 C 
BRANCH  17  18
HETATM   18  C   UNK N   1      35.937  13.606  15.138  0.00  0.00     0.000 C 
BRANCH  18  19
HETATM   19  C   UNK N   1      34.942  12.870  16.010  0.00  0.00     0.000 C 
BRANCH  19  20
HETATM   20  C   UNK N   1      35.039  13.434  17.411  0.00  0.00     0.000 C 
BRANCH  20  21
HETATM   21  C   UNK N   1      35.296  12.331  18.415  0.00  0.00     0.000 C 
BRANCH  21  22
HETATM   22  C   UNK N   1      35.135  11.000  17.712  0.00  0.00    -0.000 C 
BRANCH  22  23
HETATM   23  C   UNK N   1      36.383  10.164  17.892  0.00  0.00    -0.005 C 
HETATM   24  C   UNK N   1      36.080   8.730  17.511  0.00  0.00     0.005 C 
ENDBRANCH  22  23
ENDBRANCH  21  22
ENDBRANCH  20  21
ENDBRANCH  19  20
ENDBRANCH  18  19
ENDBRANCH  17  18
ENDBRANCH  16  17
ENDBRANCH  15  16
ENDBRANCH  14  15
ENDBRANCH  13  14
ENDBRANCH   1  13
TORSDOF 17
ENDMDL
MODEL 2
REMARK VINA RESULT:      -4.9      4.927     10.651
REMARK  17 active torsions:
REMARK  status: ('A' for Active; 'I' for Inactive)
REMARK    1  A    between atoms: C_1  and  O_3 
REMARK    2  A    between atoms: C_1  and  C_4 
REMARK    3  A    between atoms: C_4  and  N_5 
REMARK       I    between atoms: N_5  and  C_6 
REMARK    4  A    between atoms: C_6  and  C_8 
REMARK    5  A    between atoms: C_8  and  C_9 
REMARK    6  A    between atoms: C_9  and  C_10 
REMARK    7  A    between atoms: C_10  and  C_11 
REMARK    8  A    between atoms: C_11  and  C_12 
REMARK    9  A    between atoms: C_12  and  C_13 
REMARK   10  A    between atoms: C_13  and  C_14 
REMARK   11  A    between atoms: C_14  and  C_15 
REMARK   12  A    between atoms: C_15  and  C_16 
REMARK   13  A    between atoms: C_16  and  C_17 
REMARK   14  A    between atoms: C_17  and  C_18 
REMARK   15  A    between atoms: C_18  and  C_19 
REMARK   16  A    between atoms: C_19  and  C_20 
REMARK   17  A    between atoms: C_20  and  C_21 
ROOT
HETATM    1  C   UNK N   1      31.936  16.957   7.334  0.00  0.00     0.000 C 
ENDROOT
BRANCH   1   2
HETATM    2  C   UNK N   1      33.172  17.560   6.694  0.00  0.00     0.009 C 
BRANCH   2   3
HETATM    3  C   UNK N   1      34.420  17.071   7.410  0.00  0.00     0.103 C 
BRANCH   3   4
HETATM    4  C   UNK N   1      34.798  18.003   8.524  0.00  0.00     0.217 C 
HETATM    5  N   UNK N   1      34.984  17.560   9.792  0.00  0.00    -0.351 N 
HETATM    6  H   UNK N   1      35.229  18.209  10.490  0.00  0.00     0.163 HD
HETATM    7  O   UNK N   1      34.929  19.193   8.281  0.00  0.00    -0.274 OA
BRANCH   5   8
HETATM    8  C   UNK N   1      34.834  16.169  10.152  0.00  0.00     0.232 C 
BRANCH   8   9
HETATM    9  C   UNK N   1      35.895  15.730  11.115  0.00  0.00     0.158 C 
HETATM   10  O   UNK N   1      35.601  15.251  12.198  0.00  0.00    -0.649 OA
BRANCH   9  11
HETATM   11  O   UNK N   1      37.190  15.880  10.781  0.00  0.00    -0.775 OA
HETATM   12  H   UNK N   1      37.727  16.489  11.248  0.00  0.00     0.167 HD
ENDBRANCH   9  11
ENDBRANCH   8   9
ENDBRANCH   5   8
ENDBRANCH   3   4
ENDBRANCH   2   3
ENDBRANCH   1   2
BRANCH   1  13
HETATM   13  C   UNK N   1      31.350  17.910   8.361  0.00  0.00     0.000 C 
BRANCH  13  14
HETATM   14  C   UNK N   1      30.149  17.295   9.068  0.00  0.00     0.000 C 
BRANCH  14  15
HETATM   15  C   UNK N   1      28.847  17.992   8.694  0.00  0.00     0.000 C 
BRANCH  15  16
HETATM   16  C   UNK N   1      27.946  17.075   7.878  0.00  0.00     0.000 C 
BRANCH  16  17
HETATM   17  C   UNK N   1      27.467  17.766   6.613  0.00  0.00     0.000 C 
BRANCH  17  18
HETATM   18  C   UNK N   1      28.651  18.135   5.744  0.00  0.00     0.000 C 
BRANCH  18  19
HETATM   19  C   UNK N   1      28.216  18.291   4.302  0.00  0.00     0.000 C 
BRANCH  19  20
HETATM   20  C   UNK N   1      28.680  17.072   3.536  0.00  0.00     0.000 C 
BRANCH  20  21
HETATM   21  C   UNK N   1      29.826  16.393   4.254  0.00  0.00     0.000 C 
BRANCH  21  22
HETATM   22  C   UNK N   1      30.842  15.955   3.222  0.00  0.00    -0.000 C 
BRANCH  22  23
HETATM   23  C   UNK N   1      31.993  16.937   3.177  0.00  0.00    -0.005 C 
HETATM   24  C   UNK N   1      33.292  16.173   3.018  0.00  0.00     0.005 C 
ENDBRANCH  22  23
ENDBRANCH  21  22
ENDBRANCH  20  21
ENDBRANCH  19  20
ENDBRANCH  18  19
ENDBRANCH  17  18
ENDBRANCH  16  17
ENDBRANCH  15  16
ENDBRANCH  14  15
ENDBRANCH  13  14
ENDBRANCH   1  13
TORSDOF 17
ENDMDL
MODEL 3
REMARK VINA RESULT:      -4.9      1.239      2.600
REMARK  17 active torsions:
REMARK  status: ('A' for Active; 'I' for Inactive)
REMARK    1  A    between atoms: C_1  and  O_3 
REMARK    2  A    between atoms: C_1  and  C_4 
REMARK    3  A    between atoms: C_4  and  N_5 
REMARK       I    between atoms: N_5  and  C_6 
REMARK    4  A    between atoms: C_6  and  C_8 
REMARK    5  A    between atoms: C_8  and  C_9 
REMARK    6  A    between atoms: C_9  and  C_10 
REMARK    7  A    between atoms: C_10  and  C_11 
REMARK    8  A    between atoms: C_11  and  C_12 
REMARK    9  A    between atoms: C_12  and  C_13 
REMARK   10  A    between atoms: C_13  and  C_14 
REMARK   11  A    between atoms: C_14  and  C_15 
REMARK   12  A    between atoms: C_15  and  C_16 
REMARK   13  A    between atoms: C_16  and  C_17 
REMARK   14  A    between atoms: C_17  and  C_18 
REMARK   15  A    between atoms: C_18  and  C_19 
REMARK   16  A    between atoms: C_19  and  C_20 
REMARK   17  A    between atoms: C_20  and  C_21 
ROOT
HETATM    1  C   UNK N   1      35.487  13.200  11.802  0.00  0.00     0.000 C 
ENDROOT
BRANCH   1   2
HETATM    2  C   UNK N   1      34.564  14.341  11.418  0.00  0.00     0.009 C 
BRANCH   2   3
HETATM    3  C   UNK N   1      34.971  14.908  10.069  0.00  0.00     0.103 C 
BRANCH   3   4
HETATM    4  C   UNK N   1      35.387  16.344  10.195  0.00  0.00     0.217 C 
HETATM    5  N   UNK N   1      34.674  17.346   9.624  0.00  0.00    -0.351 N 
HETATM    6  H   UNK N   1      34.986  18.273   9.732  0.00  0.00     0.163 HD
HETATM    7  O   UNK N   1      36.402  16.614  10.820  0.00  0.00    -0.274 OA
BRANCH   5   8
HETATM    8  C   UNK N   1      33.470  17.098   8.862  0.00  0.00     0.232 C 
BRANCH   8   9
HETATM    9  C   UNK N   1      33.569  17.658   7.476  0.00  0.00     0.158 C 
HETATM   10  O   UNK N   1      34.569  18.251   7.108  0.00  0.00    -0.649 OA
BRANCH   9  11
HETATM   11  O   UNK N   1      32.530  17.512   6.632  0.00  0.00    -0.775 OA
HETATM   12  H   UNK N   1      31.752  18.019   6.754  0.00  0.00     0.167 HD
ENDBRANCH   9  11
ENDBRANCH   8   9
ENDBRANCH   5   8
ENDBRANCH   3   4
ENDBRANCH   2   3
ENDBRANCH   1   2
BRANCH   1  13
HETATM   13  C   UNK N   1      36.457  13.642  12.884  0.00  0.00     0.000 C 
BRANCH  13  14
HETATM   14  C   UNK N   1      35.834  13.530  14.269  0.00  0.00     0.000 C 
BRANCH  14  15
HETATM   15  C   UNK N   1      36.825  13.883  15.371  0.00  0.00     0.000 C 
BRANCH  15  16
HETATM   16  C   UNK N   1      36.111  14.159  16.688  0.00  0.00     0.000 C 
BRANCH  16  17
HETATM   17  C   UNK N   1      35.003  13.149  16.929  0.00  0.00     0.000 C 
BRANCH  17  18
HETATM   18  C   UNK N   1      35.193  12.484  18.278  0.00  0.00     0.000 C 
BRANCH  18  19
HETATM   19  C   UNK N   1      35.640  11.049  18.098  0.00  0.00     0.000 C 
BRANCH  19  20
HETATM   20  C   UNK N   1      34.677  10.373  17.147  0.00  0.00     0.000 C 
BRANCH  20  21
HETATM   21  C   UNK N   1      35.417   9.454  16.200  0.00  0.00     0.000 C 
BRANCH  21  22
HETATM   22  C   UNK N   1      36.811  10.006  15.991  0.00  0.00    -0.000 C 
BRANCH  22  23
HETATM   23  C   UNK N   1      37.134  10.056  14.514  0.00  0.00    -0.005 C 
HETATM   24  C   UNK N   1      38.472  10.740  14.321  0.00  0.00     0.005 C 
ENDBRANCH  22  23
ENDBRANCH  21  22
ENDBRANCH  20  21
ENDBRANCH  19  20
ENDBRANCH  18  19
ENDBRANCH  17  18
ENDBRANCH  16  17
ENDBRANCH  15  16
ENDBRANCH  14  15
ENDBRANCH  13  14
ENDBRANCH   1  13
TORSDOF 17
ENDMDL
MODEL 4
REMARK VINA RESULT:      -4.8     19.025     22.950
REMARK  17 active torsions:
REMARK  status: ('A' for Active; 'I' for Inactive)
REMARK    1  A    between atoms: C_1  and  O_3 
REMARK    2  A    between atoms: C_1  and  C_4 
REMARK    3  A    between atoms: C_4  and  N_5 
REMARK       I    between atoms: N_5  and  C_6 
REMARK    4  A    between atoms: C_6  and  C_8 
REMARK    5  A    between atoms: C_8  and  C_9 
REMARK    6  A    between atoms: C_9  and  C_10 
REMARK    7  A    between atoms: C_10  and  C_11 
REMARK    8  A    between atoms: C_11  and  C_12 
REMARK    9  A    between atoms: C_12  and  C_13 
REMARK   10  A    between atoms: C_13  and  C_14 
REMARK   11  A    between atoms: C_14  and  C_15 
REMARK   12  A    between atoms: C_15  and  C_16 
REMARK   13  A    between atoms: C_16  and  C_17 
REMARK   14  A    between atoms: C_17  and  C_18 
REMARK   15  A    between atoms: C_18  and  C_19 
REMARK   16  A    between atoms: C_19  and  C_20 
REMARK   17  A    between atoms: C_20  and  C_21 
ROOT
HETATM    1  C   UNK N   1      29.057  25.511  -4.841  0.00  0.00     0.000 C 
ENDROOT
BRANCH   1   2
HETATM    2  C   UNK N   1      29.164  24.425  -3.787  0.00  0.00     0.009 C 
BRANCH   2   3
HETATM    3  C   UNK N   1      30.607  24.278  -3.336  0.00  0.00     0.103 C 
BRANCH   3   4
HETATM    4  C   UNK N   1      30.783  23.045  -2.500  0.00  0.00     0.217 C 
HETATM    5  N   UNK N   1      31.474  21.970  -2.952  0.00  0.00    -0.351 N 
HETATM    6  H   UNK N   1      31.562  21.181  -2.368  0.00  0.00     0.163 HD
HETATM    7  O   UNK N   1      30.280  23.008  -1.387  0.00  0.00    -0.274 OA
BRANCH   5   8
HETATM    8  C   UNK N   1      32.085  21.941  -4.261  0.00  0.00     0.232 C 
BRANCH   8   9
HETATM    9  C   UNK N   1      31.351  21.027  -5.194  0.00  0.00     0.158 C 
HETATM   10  O   UNK N   1      31.956  20.292  -5.958  0.00  0.00    -0.649 OA
BRANCH   9  11
HETATM   11  O   UNK N   1      30.005  21.030  -5.195  0.00  0.00    -0.775 OA
HETATM   12  H   UNK N   1      29.536  20.547  -5.846  0.00  0.00     0.167 HD
ENDBRANCH   9  11
ENDBRANCH   8   9
ENDBRANCH   5   8
ENDBRANCH   3   4
ENDBRANCH   2   3
ENDBRANCH   1   2
BRANCH   1  13
HETATM   13  C   UNK N   1      29.469  26.854  -4.264  0.00  0.00     0.000 C 
BRANCH  13  14
HETATM   14  C   UNK N   1      29.118  27.996  -5.210  0.00  0.00     0.000 C 
BRANCH  14  15
HETATM   15  C   UNK N   1      28.414  29.139  -4.488  0.00  0.00     0.000 C 
BRANCH  15  16
HETATM   16  C   UNK N   1      26.941  29.207  -4.867  0.00  0.00     0.000 C 
BRANCH  16  17
HETATM   17  C   UNK N   1      26.068  28.621  -3.771  0.00  0.00     0.000 C 
BRANCH  17  18
HETATM   18  C   UNK N   1      25.486  27.298  -4.223  0.00  0.00     0.000 C 
BRANCH  18  19
HETATM   19  C   UNK N   1      25.270  27.304  -5.722  0.00  0.00     0.000 C 
BRANCH  19  20
HETATM   20  C   UNK N   1      25.536  25.908  -6.240  0.00  0.00     0.000 C 
BRANCH  20  21
HETATM   21  C   UNK N   1      25.587  24.914  -5.100  0.00  0.00     0.000 C 
BRANCH  21  22
HETATM   22  C   UNK N   1      25.811  23.534  -5.680  0.00  0.00    -0.000 C 
BRANCH  22  23
HETATM   23  C   UNK N   1      26.378  23.644  -7.079  0.00  0.00    -0.005 C 
HETATM   24  C   UNK N   1      27.704  22.915  -7.136  0.00  0.00     0.005 C 
ENDBRANCH  22  23
ENDBRANCH  21  22
ENDBRANCH  20  21
ENDBRANCH  19  20
ENDBRANCH  18  19
ENDBRANCH  17  18
ENDBRANCH  16  17
ENDBRANCH  15  16
ENDBRANCH  14  15
ENDBRANCH  13  14
ENDBRANCH   1  13
TORSDOF 17
ENDMDL
MODEL 5
REMARK VINA RESULT:      -4.8     11.031     14.940
REMARK  17 active torsions:
REMARK  status: ('A' for Active; 'I' for Inactive)
REMARK    1  A    between atoms: C_1  and  O_3 
REMARK    2  A    between atoms: C_1  and  C_4 
REMARK    3  A    between atoms: C_4  and  N_5 
REMARK       I    between atoms: N_5  and  C_6 
REMARK    4  A    between atoms: C_6  and  C_8 
REMARK    5  A    between atoms: C_8  and  C_9 
REMARK    6  A    between atoms: C_9  and  C_10 
REMARK    7  A    between atoms: C_10  and  C_11 
REMARK    8  A    between atoms: C_11  and  C_12 
REMARK    9  A    between atoms: C_12  and  C_13 
REMARK   10  A    between atoms: C_13  and  C_14 
REMARK   11  A    between atoms: C_14  and  C_15 
REMARK   12  A    between atoms: C_15  and  C_16 
REMARK   13  A    between atoms: C_16  and  C_17 
REMARK   14  A    between atoms: C_17  and  C_18 
REMARK   15  A    between atoms: C_18  and  C_19 
REMARK   16  A    between atoms: C_19  and  C_20 
REMARK   17  A    between atoms: C_20  and  C_21 
ROOT
HETATM    1  C   UNK N   1      24.522  19.834   3.636  0.00  0.00     0.000 C 
ENDROOT
BRANCH   1   2
HETATM    2  C   UNK N   1      23.456  20.556   2.834  0.00  0.00     0.009 C 
BRANCH   2   3
HETATM    3  C   UNK N   1      22.100  19.916   3.078  0.00  0.00     0.103 C 
BRANCH   3   4
HETATM    4  C   UNK N   1      21.140  20.261   1.977  0.00  0.00     0.217 C 
HETATM    5  N   UNK N   1      20.266  19.350   1.482  0.00  0.00    -0.351 N 
HETATM    6  H   UNK N   1      19.657  19.621   0.758  0.00  0.00     0.163 HD
HETATM    7  O   UNK N   1      21.157  21.389   1.509  0.00  0.00    -0.274 OA
BRANCH   5   8
HETATM    8  C   UNK N   1      20.200  17.995   1.980  0.00  0.00     0.232 C 
BRANCH   8   9
HETATM    9  C   UNK N   1      19.979  17.009   0.874  0.00  0.00     0.158 C 
HETATM   10  O   UNK N   1      20.374  17.236  -0.258  0.00  0.00    -0.649 OA
BRANCH   9  11
HETATM   11  O   UNK N   1      19.321  15.863   1.135  0.00  0.00    -0.775 OA
HETATM   12  H   UNK N   1      19.277  15.190   0.485  0.00  0.00     0.167 HD
ENDBRANCH   9  11
ENDBRANCH   8   9
ENDBRANCH   5   8
ENDBRANCH   3   4
ENDBRANCH   2   3
ENDBRANCH   1   2
BRANCH   1  13
HETATM   13  C   UNK N   1      25.895  20.412   3.337  0.00  0.00     0.000 C 
BRANCH  13  14
HETATM   14  C   UNK N   1      26.701  20.618   4.613  0.00  0.00     0.000 C 
BRANCH  14  15
HETATM   15  C   UNK N   1      28.029  19.873   4.576  0.00  0.00     0.000 C 
BRANCH  15  16
HETATM   16  C   UNK N   1      27.919  18.515   5.257  0.00  0.00     0.000 C 
BRANCH  16  17
HETATM   17  C   UNK N   1      28.796  17.486   4.566  0.00  0.00     0.000 C 
BRANCH  17  18
HETATM   18  C   UNK N   1      29.517  16.642   5.597  0.00  0.00     0.000 C 
BRANCH  18  19
HETATM   19  C   UNK N   1      29.705  17.426   6.878  0.00  0.00     0.000 C 
BRANCH  19  20
HETATM   20  C   UNK N   1      30.888  16.841   7.618  0.00  0.00     0.000 C 
BRANCH  20  21
HETATM   21  C   UNK N   1      31.505  17.869   8.540  0.00  0.00     0.000 C 
BRANCH  21  22
HETATM   22  C   UNK N   1      32.937  18.098   8.108  0.00  0.00    -0.000 C 
BRANCH  22  23
HETATM   23  C   UNK N   1      33.224  17.333   6.835  0.00  0.00    -0.005 C 
HETATM   24  C   UNK N   1      34.501  16.537   7.011  0.00  0.00     0.005 C 
ENDBRANCH  22  23
ENDBRANCH  21  22
ENDBRANCH  20  21
ENDBRANCH  19  20
ENDBRANCH  18  19
ENDBRANCH  17  18
ENDBRANCH  16  17
ENDBRANCH  15  16
ENDBRANCH  14  15
ENDBRANCH  13  14
ENDBRANCH   1  13
TORSDOF 17
ENDMDL
MODEL 6
REMARK VINA RESULT:      -4.7     18.490     23.603
REMARK  17 active torsions:
REMARK  status: ('A' for Active; 'I' for Inactive)
REMARK    1  A    between atoms: C_1  and  O_3 
REMARK    2  A    between atoms: C_1  and  C_4 
REMARK    3  A    between atoms: C_4  and  N_5 
REMARK       I    between atoms: N_5  and  C_6 
REMARK    4  A    between atoms: C_6  and  C_8 
REMARK    5  A    between atoms: C_8  and  C_9 
REMARK    6  A    between atoms: C_9  and  C_10 
REMARK    7  A    between atoms: C_10  and  C_11 
REMARK    8  A    between atoms: C_11  and  C_12 
REMARK    9  A    between atoms: C_12  and  C_13 
REMARK   10  A    between atoms: C_13  and  C_14 
REMARK   11  A    between atoms: C_14  and  C_15 
REMARK   12  A    between atoms: C_15  and  C_16 
REMARK   13  A    between atoms: C_16  and  C_17 
REMARK   14  A    between atoms: C_17  and  C_18 
REMARK   15  A    between atoms: C_18  and  C_19 
REMARK   16  A    between atoms: C_19  and  C_20 
REMARK   17  A    between atoms: C_20  and  C_21 
ROOT
HETATM    1  C   UNK N   1      26.584  25.485  -3.932  0.00  0.00     0.000 C 
ENDROOT
BRANCH   1   2
HETATM    2  C   UNK N   1      28.004  25.271  -4.421  0.00  0.00     0.009 C 
BRANCH   2   3
HETATM    3  C   UNK N   1      28.672  24.172  -3.614  0.00  0.00     0.103 C 
BRANCH   3   4
HETATM    4  C   UNK N   1      30.090  24.536  -3.285  0.00  0.00     0.217 C 
HETATM    5  N   UNK N   1      31.018  23.593  -2.988  0.00  0.00    -0.351 N 
HETATM    6  H   UNK N   1      31.936  23.880  -2.776  0.00  0.00     0.163 HD
HETATM    7  O   UNK N   1      30.411  25.715  -3.274  0.00  0.00    -0.274 OA
BRANCH   5   8
HETATM    8  C   UNK N   1      30.705  22.182  -2.970  0.00  0.00     0.232 C 
BRANCH   8   9
HETATM    9  C   UNK N   1      31.939  21.341  -3.080  0.00  0.00     0.158 C 
HETATM   10  O   UNK N   1      32.240  20.801  -4.132  0.00  0.00    -0.649 OA
BRANCH   9  11
HETATM   11  O   UNK N   1      32.718  21.169  -1.995  0.00  0.00    -0.775 OA
HETATM   12  H   UNK N   1      33.542  20.730  -2.074  0.00  0.00     0.167 HD
ENDBRANCH   9  11
ENDBRANCH   8   9
ENDBRANCH   5   8
ENDBRANCH   3   4
ENDBRANCH   2   3
ENDBRANCH   1   2
BRANCH   1  13
HETATM   13  C   UNK N   1      26.473  26.798  -3.178  0.00  0.00     0.000 C 
BRANCH  13  14
HETATM   14  C   UNK N   1      25.554  27.777  -3.898  0.00  0.00     0.000 C 
BRANCH  14  15
HETATM   15  C   UNK N   1      26.216  29.132  -4.110  0.00  0.00     0.000 C 
BRANCH  15  16
HETATM   16  C   UNK N   1      27.731  28.998  -4.196  0.00  0.00     0.000 C 
BRANCH  16  17
HETATM   17  C   UNK N   1      28.224  29.287  -5.603  0.00  0.00     0.000 C 
BRANCH  17  18
HETATM   18  C   UNK N   1      27.389  28.527  -6.613  0.00  0.00     0.000 C 
BRANCH  18  19
HETATM   19  C   UNK N   1      28.282  27.846  -7.627  0.00  0.00     0.000 C 
BRANCH  19  20
HETATM   20  C   UNK N   1      27.653  26.519  -7.991  0.00  0.00     0.000 C 
BRANCH  20  21
HETATM   21  C   UNK N   1      26.216  26.461  -7.519  0.00  0.00     0.000 C 
BRANCH  21  22
HETATM   22  C   UNK N   1      25.795  25.009  -7.452  0.00  0.00    -0.000 C 
BRANCH  22  23
HETATM   23  C   UNK N   1      26.894  24.124  -7.997  0.00  0.00    -0.005 C 
HETATM   24  C   UNK N   1      27.101  22.953  -7.058  0.00  0.00     0.005 C 
ENDBRANCH  22  23
ENDBRANCH  21  22
ENDBRANCH  20  21
ENDBRANCH  19  20
ENDBRANCH  18  19
ENDBRANCH  17  18
ENDBRANCH  16  17
ENDBRANCH  15  16
ENDBRANCH  14  15
ENDBRANCH  13  14
ENDBRANCH   1  13
TORSDOF 17
ENDMDL
MODEL 7
REMARK VINA RESULT:      -4.7     18.989     23.078
REMARK  17 active torsions:
REMARK  status: ('A' for Active; 'I' for Inactive)
REMARK    1  A    between atoms: C_1  and  O_3 
REMARK    2  A    between atoms: C_1  and  C_4 
REMARK    3  A    between atoms: C_4  and  N_5 
REMARK       I    between atoms: N_5  and  C_6 
REMARK    4  A    between atoms: C_6  and  C_8 
REMARK    5  A    between atoms: C_8  and  C_9 
REMARK    6  A    between atoms: C_9  and  C_10 
REMARK    7  A    between atoms: C_10  and  C_11 
REMARK    8  A    between atoms: C_11  and  C_12 
REMARK    9  A    between atoms: C_12  and  C_13 
REMARK   10  A    between atoms: C_13  and  C_14 
REMARK   11  A    between atoms: C_14  and  C_15 
REMARK   12  A    between atoms: C_15  and  C_16 
REMARK   13  A    between atoms: C_16  and  C_17 
REMARK   14  A    between atoms: C_17  and  C_18 
REMARK   15  A    between atoms: C_18  and  C_19 
REMARK   16  A    between atoms: C_19  and  C_20 
REMARK   17  A    between atoms: C_20  and  C_21 
ROOT
HETATM    1  C   UNK N   1      28.371  24.831  -3.870  0.00  0.00     0.000 C 
ENDROOT
BRANCH   1   2
HETATM    2  C   UNK N   1      29.348  23.746  -4.283  0.00  0.00     0.009 C 
BRANCH   2   3
HETATM    3  C   UNK N   1      30.694  23.978  -3.618  0.00  0.00     0.103 C 
BRANCH   3   4
HETATM    4  C   UNK N   1      30.960  22.936  -2.572  0.00  0.00     0.217 C 
HETATM    5  N   UNK N   1      31.820  21.910  -2.791  0.00  0.00    -0.351 N 
HETATM    6  H   UNK N   1      31.962  21.248  -2.076  0.00  0.00     0.163 HD
HETATM    7  O   UNK N   1      30.378  23.009  -1.501  0.00  0.00    -0.274 OA
BRANCH   5   8
HETATM    8  C   UNK N   1      32.534  21.755  -4.038  0.00  0.00     0.232 C 
BRANCH   8   9
HETATM    9  C   UNK N   1      32.045  20.569  -4.812  0.00  0.00     0.158 C 
HETATM   10  O   UNK N   1      30.890  20.506  -5.201  0.00  0.00    -0.649 OA
BRANCH   9  11
HETATM   11  O   UNK N   1      32.892  19.555  -5.069  0.00  0.00    -0.775 OA
HETATM   12  H   UNK N   1      33.784  19.735  -5.294  0.00  0.00     0.167 HD
ENDBRANCH   9  11
ENDBRANCH   8   9
ENDBRANCH   5   8
ENDBRANCH   3   4
ENDBRANCH   2   3
ENDBRANCH   1   2
BRANCH   1  13
HETATM   13  C   UNK N   1      26.941  24.376  -4.104  0.00  0.00     0.000 C 
BRANCH  13  14
HETATM   14  C   UNK N   1      26.738  23.893  -5.535  0.00  0.00     0.000 C 
BRANCH  14  15
HETATM   15  C   UNK N   1      25.860  24.844  -6.339  0.00  0.00     0.000 C 
BRANCH  15  16
HETATM   16  C   UNK N   1      24.986  25.693  -5.425  0.00  0.00     0.000 C 
BRANCH  16  17
HETATM   17  C   UNK N   1      25.069  27.162  -5.801  0.00  0.00     0.000 C 
BRANCH  17  18
HETATM   18  C   UNK N   1      25.459  27.985  -4.591  0.00  0.00     0.000 C 
BRANCH  18  19
HETATM   19  C   UNK N   1      26.943  28.287  -4.618  0.00  0.00     0.000 C 
BRANCH  19  20
HETATM   20  C   UNK N   1      27.353  28.496  -6.059  0.00  0.00     0.000 C 
BRANCH  20  21
HETATM   21  C   UNK N   1      28.653  27.780  -6.354  0.00  0.00     0.000 C 
BRANCH  21  22
HETATM   22  C   UNK N   1      28.468  26.952  -7.608  0.00  0.00    -0.000 C 
BRANCH  22  23
HETATM   23  C   UNK N   1      29.341  25.718  -7.549  0.00  0.00    -0.005 C 
HETATM   24  C   UNK N   1      30.648  26.066  -6.866  0.00  0.00     0.005 C 
ENDBRANCH  22  23
ENDBRANCH  21  22
ENDBRANCH  20  21
ENDBRANCH  19  20
ENDBRANCH  18  19
ENDBRANCH  17  18
ENDBRANCH  16  17
ENDBRANCH  15  16
ENDBRANCH  14  15
ENDBRANCH  13  14
ENDBRANCH   1  13
TORSDOF 17
ENDMDL
MODEL 8
REMARK VINA RESULT:      -4.7     20.825     23.356
REMARK  17 active torsions:
REMARK  status: ('A' for Active; 'I' for Inactive)
REMARK    1  A    between atoms: C_1  and  O_3 
REMARK    2  A    between atoms: C_1  and  C_4 
REMARK    3  A    between atoms: C_4  and  N_5 
REMARK       I    between atoms: N_5  and  C_6 
REMARK    4  A    between atoms: C_6  and  C_8 
REMARK    5  A    between atoms: C_8  and  C_9 
REMARK    6  A    between atoms: C_9  and  C_10 
REMARK    7  A    between atoms: C_10  and  C_11 
REMARK    8  A    between atoms: C_11  and  C_12 
REMARK    9  A    between atoms: C_12  and  C_13 
REMARK   10  A    between atoms: C_13  and  C_14 
REMARK   11  A    between atoms: C_14  and  C_15 
REMARK   12  A    between atoms: C_15  and  C_16 
REMARK   13  A    between atoms: C_16  and  C_17 
REMARK   14  A    between atoms: C_17  and  C_18 
REMARK   15  A    between atoms: C_18  and  C_19 
REMARK   16  A    between atoms: C_19  and  C_20 
REMARK   17  A    between atoms: C_20  and  C_21 
ROOT
HETATM    1  C   UNK N   1      30.592  20.907  -5.920  0.00  0.00     0.000 C 
ENDROOT
BRANCH   1   2
HETATM    2  C   UNK N   1      29.651  20.825  -7.106  0.00  0.00     0.009 C 
BRANCH   2   3
HETATM    3  C   UNK N   1      28.538  21.848  -6.959  0.00  0.00     0.103 C 
BRANCH   3   4
HETATM    4  C   UNK N   1      28.102  22.361  -8.300  0.00  0.00     0.217 C 
HETATM    5  N   UNK N   1      26.909  22.014  -8.843  0.00  0.00    -0.351 N 
HETATM    6  H   UNK N   1      26.667  22.373  -9.727  0.00  0.00     0.163 HD
HETATM    7  O   UNK N   1      28.849  23.102  -8.922  0.00  0.00    -0.274 OA
BRANCH   5   8
HETATM    8  C   UNK N   1      25.982  21.133  -8.168  0.00  0.00     0.232 C 
BRANCH   8   9
HETATM    9  C   UNK N   1      24.737  21.855  -7.753  0.00  0.00     0.158 C 
HETATM   10  O   UNK N   1      24.055  21.448  -6.826  0.00  0.00    -0.649 OA
BRANCH   9  11
HETATM   11  O   UNK N   1      24.362  22.961  -8.423  0.00  0.00    -0.775 OA
HETATM   12  H   UNK N   1      23.526  22.992  -8.844  0.00  0.00     0.167 HD
ENDBRANCH   9  11
ENDBRANCH   8   9
ENDBRANCH   5   8
ENDBRANCH   3   4
ENDBRANCH   2   3
ENDBRANCH   1   2
BRANCH   1  13
HETATM   13  C   UNK N   1      29.963  21.712  -4.796  0.00  0.00     0.000 C 
BRANCH  13  14
HETATM   14  C   UNK N   1      31.019  22.446  -3.980  0.00  0.00     0.000 C 
BRANCH  14  15
HETATM   15  C   UNK N   1      30.513  23.789  -3.468  0.00  0.00     0.000 C 
BRANCH  15  16
HETATM   16  C   UNK N   1      29.046  23.710  -3.069  0.00  0.00     0.000 C 
BRANCH  16  17
HETATM   17  C   UNK N   1      28.199  24.641  -3.918  0.00  0.00     0.000 C 
BRANCH  17  18
HETATM   18  C   UNK N   1      26.730  24.316  -3.737  0.00  0.00     0.000 C 
BRANCH  18  19
HETATM   19  C   UNK N   1      26.100  23.971  -5.070  0.00  0.00     0.000 C 
BRANCH  19  20
HETATM   20  C   UNK N   1      26.402  25.095  -6.037  0.00  0.00     0.000 C 
BRANCH  20  21
HETATM   21  C   UNK N   1      25.305  26.136  -6.005  0.00  0.00     0.000 C 
BRANCH  21  22
HETATM   22  C   UNK N   1      25.914  27.458  -5.590  0.00  0.00    -0.000 C 
BRANCH  22  23
HETATM   23  C   UNK N   1      25.529  27.782  -4.163  0.00  0.00    -0.005 C 
HETATM   24  C   UNK N   1      26.779  28.115  -3.375  0.00  0.00     0.005 C 
ENDBRANCH  22  23
ENDBRANCH  21  22
ENDBRANCH  20  21
ENDBRANCH  19  20
ENDBRANCH  18  19
ENDBRANCH  17  18
ENDBRANCH  16  17
ENDBRANCH  15  16
ENDBRANCH  14  15
ENDBRANCH  13  14
ENDBRANCH   1  13
TORSDOF 17
ENDMDL
MODEL 9
REMARK VINA RESULT:      -4.7     18.764     23.617
REMARK  17 active torsions:
REMARK  status: ('A' for Active; 'I' for Inactive)
REMARK    1  A    between atoms: C_1  and  O_3 
REMARK    2  A    between atoms: C_1  and  C_4 
REMARK    3  A    between atoms: C_4  and  N_5 
REMARK       I    between atoms: N_5  and  C_6 
REMARK    4  A    between atoms: C_6  and  C_8 
REMARK    5  A    between atoms: C_8  and  C_9 
REMARK    6  A    between atoms: C_9  and  C_10 
REMARK    7  A    between atoms: C_10  and  C_11 
REMARK    8  A    between atoms: C_11  and  C_12 
REMARK    9  A    between atoms: C_12  and  C_13 
REMARK   10  A    between atoms: C_13  and  C_14 
REMARK   11  A    between atoms: C_14  and  C_15 
REMARK   12  A    between atoms: C_15  and  C_16 
REMARK   13  A    between atoms: C_16  and  C_17 
REMARK   14  A    between atoms: C_17  and  C_18 
REMARK   15  A    between atoms: C_18  and  C_19 
REMARK   16  A    between atoms: C_19  and  C_20 
REMARK   17  A    between atoms: C_20  and  C_21 
ROOT
HETATM    1  C   UNK N   1      29.898  27.715  -5.062  0.00  0.00     0.000 C 
ENDROOT
BRANCH   1   2
HETATM    2  C   UNK N   1      29.803  26.218  -5.289  0.00  0.00     0.009 C 
BRANCH   2   3
HETATM    3  C   UNK N   1      29.457  25.516  -3.988  0.00  0.00     0.103 C 
BRANCH   3   4
HETATM    4  C   UNK N   1      28.794  24.196  -4.252  0.00  0.00     0.217 C 
HETATM    5  N   UNK N   1      29.485  23.029  -4.203  0.00  0.00    -0.351 N 
HETATM    6  H   UNK N   1      29.008  22.187  -4.386  0.00  0.00     0.163 HD
HETATM    7  O   UNK N   1      27.604  24.175  -4.529  0.00  0.00    -0.274 OA
BRANCH   5   8
HETATM    8  C   UNK N   1      30.895  22.981  -3.893  0.00  0.00     0.232 C 
BRANCH   8   9
HETATM    9  C   UNK N   1      31.139  22.480  -2.502  0.00  0.00     0.158 C 
HETATM   10  O   UNK N   1      30.581  22.991  -1.544  0.00  0.00    -0.649 OA
BRANCH   9  11
HETATM   11  O   UNK N   1      31.995  21.459  -2.310  0.00  0.00    -0.775 OA
HETATM   12  H   UNK N   1      32.155  21.139  -1.445  0.00  0.00     0.167 HD
ENDBRANCH   9  11
ENDBRANCH   8   9
ENDBRANCH   5   8
ENDBRANCH   3   4
ENDBRANCH   2   3
ENDBRANCH   1   2
BRANCH   1  13
HETATM   13  C   UNK N   1      29.410  28.074  -3.670  0.00  0.00     0.000 C 
BRANCH  13  14
HETATM   14  C   UNK N   1      28.331  29.148  -3.719  0.00  0.00     0.000 C 
BRANCH  14  15
HETATM   15  C   UNK N   1      27.154  28.816  -2.811  0.00  0.00     0.000 C 
BRANCH  15  16
HETATM   16  C   UNK N   1      26.423  27.569  -3.290  0.00  0.00     0.000 C 
BRANCH  16  17
HETATM   17  C   UNK N   1      25.427  27.906  -4.385  0.00  0.00     0.000 C 
BRANCH  17  18
HETATM   18  C   UNK N   1      25.555  26.917  -5.525  0.00  0.00     0.000 C 
BRANCH  18  19
HETATM   19  C   UNK N   1      26.562  27.414  -6.541  0.00  0.00     0.000 C 
BRANCH  19  20
HETATM   20  C   UNK N   1      26.736  26.341  -7.593  0.00  0.00     0.000 C 
BRANCH  20  21
HETATM   21  C   UNK N   1      25.774  25.198  -7.356  0.00  0.00     0.000 C 
BRANCH  21  22
HETATM   22  C   UNK N   1      25.596  24.448  -8.659  0.00  0.00    -0.000 C 
BRANCH  22  23
HETATM   23  C   UNK N   1      25.375  22.976  -8.384  0.00  0.00    -0.005 C 
HETATM   24  C   UNK N   1      25.647  22.698  -6.920  0.00  0.00     0.005 C 
ENDBRANCH  22  23
ENDBRANCH  21  22
ENDBRANCH  20  21
ENDBRANCH  19  20
ENDBRANCH  18  19
ENDBRANCH  17  18
ENDBRANCH  16  17
ENDBRANCH  15  16
ENDBRANCH  14  15
ENDBRANCH  13  14
ENDBRANCH   1  13
TORSDOF 17
ENDMDL
