MODEL 1
REMARK VINA RESULT:      -5.6      0.000      0.000
REMARK  1 active torsions:
REMARK  status: ('A' for Active; 'I' for Inactive)
REMARK    1  A    between atoms: O_2  and  C_6 
ROOT
HETATM    1  O   UNK N   1      34.278  18.253   6.758  0.00  0.00    -0.275 OA
HETATM    2  O   UNK N   1      35.335  19.075   8.509  0.00  0.00    -0.260 OA
HETATM    3  C   UNK N   1      32.562  16.632   7.057  0.00  0.00     0.031 A 
HETATM    4  C   UNK N   1      33.361  17.450   6.227  0.00  0.00     0.092 A 
HETATM    5  C   UNK N   1      32.758  16.687   8.440  0.00  0.00     0.084 A 
HETATM    6  C   UNK N   1      31.600  15.790   6.487  0.00  0.00     0.017 A 
HETATM    7  C   UNK N   1      33.187  17.415   4.841  0.00  0.00     0.038 A 
HETATM    8  C   UNK N   1      33.730  17.543   8.953  0.00  0.00     0.120 A 
HETATM    9  C   UNK N   1      31.432  15.762   5.099  0.00  0.00     0.001 A 
HETATM   10  C   UNK N   1      32.224  16.572   4.279  0.00  0.00     0.003 A 
HETATM   11  C   UNK N   1      34.484  18.324   8.072  0.00  0.00     0.290 A 
ENDROOT
BRANCH   5  12
HETATM   12  O   UNK N   1      32.024  15.929   9.273  0.00  0.00    -0.360 OA
HETATM   13  H   UNK N   1      32.447  15.401   9.921  0.00  0.00     0.217 HD
ENDBRANCH   5  12
TORSDOF 1
ENDMDL
MODEL 2
REMARK VINA RESULT:      -5.4     10.948     12.037
REMARK  1 active torsions:
REMARK  status: ('A' for Active; 'I' for Inactive)
REMARK    1  A    between atoms: O_2  and  C_6 
ROOT
HETATM    1  O   UNK N   1      31.979  21.998  -2.306  0.00  0.00    -0.275 OA
HETATM    2  O   UNK N   1      30.318  23.190  -1.483  0.00  0.00    -0.260 OA
HETATM    3  C   UNK N   1      31.760  20.965  -4.438  0.00  0.00     0.031 A 
HETATM    4  C   UNK N   1      32.504  21.247  -3.270  0.00  0.00     0.092 A 
HETATM    5  C   UNK N   1      30.470  21.490  -4.554  0.00  0.00     0.084 A 
HETATM    6  C   UNK N   1      32.321  20.174  -5.447  0.00  0.00     0.017 A 
HETATM    7  C   UNK N   1      33.796  20.736  -3.128  0.00  0.00     0.038 A 
HETATM    8  C   UNK N   1      29.960  22.270  -3.519  0.00  0.00     0.120 A 
HETATM    9  C   UNK N   1      33.616  19.666  -5.297  0.00  0.00     0.001 A 
HETATM   10  C   UNK N   1      34.350  19.947  -4.140  0.00  0.00     0.003 A 
HETATM   11  C   UNK N   1      30.752  22.509  -2.392  0.00  0.00     0.290 A 
ENDROOT
BRANCH   5  12
HETATM   12  O   UNK N   1      29.721  21.250  -5.645  0.00  0.00    -0.360 OA
HETATM   13  H   UNK N   1      29.923  20.525  -6.202  0.00  0.00     0.217 HD
ENDBRANCH   5  12
TORSDOF 1
ENDMDL
MODEL 3
REMARK VINA RESULT:      -5.4     10.755     12.521
REMARK  1 active torsions:
REMARK  status: ('A' for Active; 'I' for Inactive)
REMARK    1  A    between atoms: O_2  and  C_6 
ROOT
HETATM    1  O   UNK N   1      21.904  14.119   8.978  0.00  0.00    -0.275 OA
HETATM    2  O   UNK N   1      19.852  14.786   8.529  0.00  0.00    -0.260 OA
HETATM    3  C   UNK N   1      22.296  12.581  10.749  0.00  0.00     0.031 A 
HETATM    4  C   UNK N   1      22.761  13.398   9.695  0.00  0.00     0.092 A 
HETATM    5  C   UNK N   1      20.925  12.550  11.018  0.00  0.00     0.084 A 
HETATM    6  C   UNK N   1      23.206  11.825  11.498  0.00  0.00     0.017 A 
HETATM    7  C   UNK N   1      24.127  13.448   9.404  0.00  0.00     0.038 A 
HETATM    8  C   UNK N   1      20.064  13.321  10.242  0.00  0.00     0.120 A 
HETATM    9  C   UNK N   1      24.571  11.881  11.200  0.00  0.00     0.001 A 
HETATM   10  C   UNK N   1      25.029  12.691  10.156  0.00  0.00     0.003 A 
HETATM   11  C   UNK N   1      20.594  14.107   9.214  0.00  0.00     0.290 A 
ENDROOT
BRANCH   5  12
HETATM   12  O   UNK N   1      20.431  11.788  12.011  0.00  0.00    -0.360 OA
HETATM   13  H   UNK N   1      20.896  11.025  12.292  0.00  0.00     0.217 HD
ENDBRANCH   5  12
TORSDOF 1
ENDMDL
MODEL 4
REMARK VINA RESULT:      -5.3      7.693      9.512
REMARK  1 active torsions:
REMARK  status: ('A' for Active; 'I' for Inactive)
REMARK    1  A    between atoms: O_2  and  C_6 
ROOT
HETATM    1  O   UNK N   1      34.573  12.901  12.970  0.00  0.00    -0.275 OA
HETATM    2  O   UNK N   1      35.013  14.559  11.585  0.00  0.00    -0.260 OA
HETATM    3  C   UNK N   1      35.817  12.673  14.985  0.00  0.00     0.031 A 
HETATM    4  C   UNK N   1      34.807  12.237  14.098  0.00  0.00     0.092 A 
HETATM    5  C   UNK N   1      36.558  13.809  14.650  0.00  0.00     0.084 A 
HETATM    6  C   UNK N   1      36.056  11.967  16.170  0.00  0.00     0.017 A 
HETATM    7  C   UNK N   1      34.051  11.104  14.408  0.00  0.00     0.038 A 
HETATM    8  C   UNK N   1      36.279  14.474  13.458  0.00  0.00     0.120 A 
HETATM    9  C   UNK N   1      35.294  10.834  16.472  0.00  0.00     0.001 A 
HETATM   10  C   UNK N   1      34.294  10.404  15.592  0.00  0.00     0.003 A 
HETATM   11  C   UNK N   1      35.265  13.986  12.628  0.00  0.00     0.290 A 
ENDROOT
BRANCH   5  12
HETATM   12  O   UNK N   1      37.531  14.265  15.459  0.00  0.00    -0.360 OA
HETATM   13  H   UNK N   1      37.454  14.162  16.387  0.00  0.00     0.217 HD
ENDBRANCH   5  12
TORSDOF 1
ENDMDL
MODEL 5
REMARK VINA RESULT:      -5.3      9.925     11.787
REMARK  1 active torsions:
REMARK  status: ('A' for Active; 'I' for Inactive)
REMARK    1  A    between atoms: O_2  and  C_6 
ROOT
HETATM    1  O   UNK N   1      21.296  12.716  10.038  0.00  0.00    -0.275 OA
HETATM    2  O   UNK N   1      20.324  11.963  11.867  0.00  0.00    -0.260 OA
HETATM    3  C   UNK N   1      23.669  12.825   9.911  0.00  0.00     0.031 A 
HETATM    4  C   UNK N   1      22.389  13.020   9.344  0.00  0.00     0.092 A 
HETATM    5  C   UNK N   1      23.757  12.311  11.207  0.00  0.00     0.084 A 
HETATM    6  C   UNK N   1      24.814  13.148   9.172  0.00  0.00     0.017 A 
HETATM    7  C   UNK N   1      22.272  13.533   8.050  0.00  0.00     0.038 A 
HETATM    8  C   UNK N   1      22.586  12.007  11.897  0.00  0.00     0.120 A 
HETATM    9  C   UNK N   1      24.687  13.661   7.878  0.00  0.00     0.001 A 
HETATM   10  C   UNK N   1      23.419  13.852   7.319  0.00  0.00     0.003 A 
HETATM   11  C   UNK N   1      21.353  12.225  11.274  0.00  0.00     0.290 A 
ENDROOT
BRANCH   5  12
HETATM   12  O   UNK N   1      24.951  12.107  11.791  0.00  0.00    -0.360 OA
HETATM   13  H   UNK N   1      25.651  11.718  11.305  0.00  0.00     0.217 HD
ENDBRANCH   5  12
TORSDOF 1
ENDMDL
MODEL 6
REMARK VINA RESULT:      -5.2     13.242     13.802
REMARK  1 active torsions:
REMARK  status: ('A' for Active; 'I' for Inactive)
REMARK    1  A    between atoms: O_2  and  C_6 
ROOT
HETATM    1  O   UNK N   1      20.634  18.913   0.523  0.00  0.00    -0.275 OA
HETATM    2  O   UNK N   1      21.061  21.014   0.009  0.00  0.00    -0.260 OA
HETATM    3  C   UNK N   1      20.444  18.260   2.803  0.00  0.00     0.031 A 
HETATM    4  C   UNK N   1      20.422  17.957   1.423  0.00  0.00     0.092 A 
HETATM    5  C   UNK N   1      20.692  19.579   3.196  0.00  0.00     0.084 A 
HETATM    6  C   UNK N   1      20.219  17.248   3.743  0.00  0.00     0.017 A 
HETATM    7  C   UNK N   1      20.176  16.648   1.003  0.00  0.00     0.038 A 
HETATM    8  C   UNK N   1      20.909  20.547   2.219  0.00  0.00     0.120 A 
HETATM    9  C   UNK N   1      19.974  15.940   3.313  0.00  0.00     0.001 A 
HETATM   10  C   UNK N   1      19.952  15.642   1.946  0.00  0.00     0.003 A 
HETATM   11  C   UNK N   1      20.873  20.176   0.871  0.00  0.00     0.290 A 
ENDROOT
BRANCH   5  12
HETATM   12  O   UNK N   1      20.724  19.919   4.496  0.00  0.00    -0.360 OA
HETATM   13  H   UNK N   1      20.105  20.536   4.834  0.00  0.00     0.217 HD
ENDBRANCH   5  12
TORSDOF 1
ENDMDL
MODEL 7
REMARK VINA RESULT:      -5.1     17.193     18.167
REMARK  1 active torsions:
REMARK  status: ('A' for Active; 'I' for Inactive)
REMARK    1  A    between atoms: O_2  and  C_6 
ROOT
HETATM    1  O   UNK N   1      26.594  26.582  -6.853  0.00  0.00    -0.275 OA
HETATM    2  O   UNK N   1      25.223  24.894  -6.495  0.00  0.00    -0.260 OA
HETATM    3  C   UNK N   1      26.713  28.371  -5.290  0.00  0.00     0.031 A 
HETATM    4  C   UNK N   1      27.122  27.747  -6.490  0.00  0.00     0.092 A 
HETATM    5  C   UNK N   1      25.748  27.739  -4.501  0.00  0.00     0.084 A 
HETATM    6  C   UNK N   1      27.274  29.598  -4.916  0.00  0.00     0.017 A 
HETATM    7  C   UNK N   1      28.084  28.357  -7.298  0.00  0.00     0.038 A 
HETATM    8  C   UNK N   1      25.223  26.519  -4.920  0.00  0.00     0.120 A 
HETATM    9  C   UNK N   1      28.237  30.201  -5.731  0.00  0.00     0.001 A 
HETATM   10  C   UNK N   1      28.640  29.582  -6.919  0.00  0.00     0.003 A 
HETATM   11  C   UNK N   1      25.674  25.959  -6.119  0.00  0.00     0.290 A 
ENDROOT
BRANCH   5  12
HETATM   12  O   UNK N   1      25.325  28.291  -3.350  0.00  0.00    -0.360 OA
HETATM   13  H   UNK N   1      24.430  28.203  -3.089  0.00  0.00     0.217 HD
ENDBRANCH   5  12
TORSDOF 1
ENDMDL
MODEL 8
REMARK VINA RESULT:      -5.0      1.516      2.973
REMARK  1 active torsions:
REMARK  status: ('A' for Active; 'I' for Inactive)
REMARK    1  A    between atoms: O_2  and  C_6 
ROOT
HETATM    1  O   UNK N   1      30.574  17.166   6.926  0.00  0.00    -0.275 OA
HETATM    2  O   UNK N   1      30.490  17.497   9.104  0.00  0.00    -0.260 OA
HETATM    3  C   UNK N   1      32.636  17.409   5.765  0.00  0.00     0.031 A 
HETATM    4  C   UNK N   1      31.252  17.125   5.783  0.00  0.00     0.092 A 
HETATM    5  C   UNK N   1      33.270  17.733   6.968  0.00  0.00     0.084 A 
HETATM    6  C   UNK N   1      33.341  17.363   4.556  0.00  0.00     0.017 A 
HETATM    7  C   UNK N   1      30.594  16.798   4.595  0.00  0.00     0.038 A 
HETATM    8  C   UNK N   1      32.520  17.765   8.141  0.00  0.00     0.120 A 
HETATM    9  C   UNK N   1      32.674  17.035   3.372  0.00  0.00     0.001 A 
HETATM   10  C   UNK N   1      31.303  16.753   3.392  0.00  0.00     0.003 A 
HETATM   11  C   UNK N   1      31.154  17.472   8.085  0.00  0.00     0.290 A 
ENDROOT
BRANCH   5  12
HETATM   12  O   UNK N   1      34.585  18.013   7.004  0.00  0.00    -0.360 OA
HETATM   13  H   UNK N   1      34.904  18.691   7.566  0.00  0.00     0.217 HD
ENDBRANCH   5  12
TORSDOF 1
ENDMDL
MODEL 9
REMARK VINA RESULT:      -5.0      9.344     10.517
REMARK  1 active torsions:
REMARK  status: ('A' for Active; 'I' for Inactive)
REMARK    1  A    between atoms: O_2  and  C_6 
ROOT
HETATM    1  O   UNK N   1      23.594  20.885   2.508  0.00  0.00    -0.275 OA
HETATM    2  O   UNK N   1      21.448  21.126   2.065  0.00  0.00    -0.260 OA
HETATM    3  C   UNK N   1      24.320  19.151   3.965  0.00  0.00     0.031 A 
HETATM    4  C   UNK N   1      24.589  20.254   3.124  0.00  0.00     0.092 A 
HETATM    5  C   UNK N   1      22.994  18.742   4.132  0.00  0.00     0.084 A 
HETATM    6  C   UNK N   1      25.375  18.493   4.610  0.00  0.00     0.017 A 
HETATM    7  C   UNK N   1      25.905  20.683   2.939  0.00  0.00     0.038 A 
HETATM    8  C   UNK N   1      21.984  19.432   3.467  0.00  0.00     0.120 A 
HETATM    9  C   UNK N   1      26.689  18.930   4.419  0.00  0.00     0.001 A 
HETATM   10  C   UNK N   1      26.953  20.022   3.585  0.00  0.00     0.003 A 
HETATM   11  C   UNK N   1      22.322  20.516   2.650  0.00  0.00     0.290 A 
ENDROOT
BRANCH   5  12
HETATM   12  O   UNK N   1      22.686  17.699   4.922  0.00  0.00    -0.360 OA
HETATM   13  H   UNK N   1      21.791  17.442   5.031  0.00  0.00     0.217 HD
ENDBRANCH   5  12
TORSDOF 1
ENDMDL
