MODEL 1
REMARK VINA RESULT:      -8.2      0.000      0.000
REMARK  9 active torsions:
REMARK  status: ('A' for Active; 'I' for Inactive)
REMARK    1  A    between atoms: C_3  and  O_13 
REMARK    2  A    between atoms: C_5  and  C_10 
REMARK    3  A    between atoms: C_6  and  C_7 
REMARK    4  A    between atoms: C_7  and  O_8 
REMARK    5  A    between atoms: C_10  and  O_11 
REMARK    6  A    between atoms: O_13  and  C_14 
REMARK    7  A    between atoms: C_15  and  N_20 
REMARK       I    between atoms: N_20  and  C_21 
REMARK    8  A    between atoms: C_21  and  C_23 
REMARK    9  A    between atoms: C_25  and  N_29 
ROOT
HETATM    1  C   UNK N   1      30.808  15.587   3.364  0.00  0.00     0.102 A 
HETATM    2  C   UNK N   1      29.451  15.541   2.955  0.00  0.00     0.069 A 
HETATM    3  C   UNK N   1      28.940  14.371   2.383  0.00  0.00     0.032 A 
HETATM    4  C   UNK N   1      29.752  13.240   2.251  0.00  0.00     0.002 A 
HETATM    5  C   UNK N   1      31.081  13.273   2.680  0.00  0.00     0.003 A 
HETATM    6  C   UNK N   1      31.610  14.443   3.229  0.00  0.00     0.039 A 
ENDROOT
BRANCH   1   7
HETATM    7  O   UNK N   1      31.291  16.751   3.876  0.00  0.00    -0.308 OA
BRANCH   7   8
HETATM    8  C   UNK N   1      31.945  16.953   5.046  0.00  0.00     0.077 A 
HETATM    9  C   UNK N   1      33.324  17.090   5.004  0.00  0.00     0.038 A 
HETATM   10  C   UNK N   1      34.026  17.444   6.146  0.00  0.00     0.022 A 
HETATM   11  C   UNK N   1      33.387  17.659   7.381  0.00  0.00     0.054 A 
HETATM   12  C   UNK N   1      31.955  17.464   7.446  0.00  0.00     0.057 A 
HETATM   13  C   UNK N   1      31.281  17.130   6.257  0.00  0.00     0.056 A 
BRANCH  11  14
HETATM   14  C   UNK N   1      34.303  18.086   8.491  0.00  0.00     0.177 C 
HETATM   15  O   UNK N   1      34.965  19.104   8.357  0.00  0.00    -0.646 OA
BRANCH  14  16
HETATM   16  O   UNK N   1      34.407  17.419   9.647  0.00  0.00    -0.773 OA
HETATM   17  H   UNK N   1      34.534  16.491   9.680  0.00  0.00     0.167 HD
ENDBRANCH  14  16
ENDBRANCH  11  14
BRANCH  12  18
HETATM   18  C   UNK N   1      31.065  17.592   8.646  0.00  0.00     0.177 C 
HETATM   19  O   UNK N   1      30.549  18.673   8.890  0.00  0.00    -0.646 OA
BRANCH  18  20
HETATM   20  O   UNK N   1      30.788  16.567   9.460  0.00  0.00    -0.773 OA
HETATM   21  H   UNK N   1      31.465  16.022   9.811  0.00  0.00     0.167 HD
ENDBRANCH  18  20
ENDBRANCH  12  18
ENDBRANCH   7   8
ENDBRANCH   1   7
BRANCH   2  22
HETATM   22  N   UNK N   1      28.602  16.680   3.110  0.00  0.00    -0.320 N 
HETATM   23  C   UNK N   1      28.008  16.993   4.299  0.00  0.00     0.256 C 
HETATM   24  O   UNK N   1      27.964  16.167   5.203  0.00  0.00    -0.267 OA
HETATM   25  H   UNK N   1      28.440  17.261   2.332  0.00  0.00     0.169 HD
BRANCH  23  26
HETATM   26  C   UNK N   1      27.485  18.345   4.551  0.00  0.00     0.034 A 
HETATM   27  C   UNK N   1      26.462  18.826   3.725  0.00  0.00     0.053 A 
HETATM   28  C   UNK N   1      25.850  20.058   3.977  0.00  0.00     0.103 A 
HETATM   29  C   UNK N   1      26.293  20.830   5.061  0.00  0.00     0.036 A 
HETATM   30  C   UNK N   1      27.323  20.360   5.887  0.00  0.00     0.003 A 
HETATM   31  C   UNK N   1      27.901  19.108   5.648  0.00  0.00     0.017 A 
BRANCH  28  32
HETATM   32  N   UNK N   1      24.761  20.492   3.170  0.00  0.00    -0.116 N 
HETATM   33  O   UNK N   1      23.522  20.308   3.576  0.00  0.00    -0.532 OA
HETATM   34  O   UNK N   1      24.962  20.971   2.096  0.00  0.00    -0.532 OA
ENDBRANCH  28  32
ENDBRANCH  23  26
ENDBRANCH   2  22
TORSDOF 9
ENDMDL
MODEL 2
REMARK VINA RESULT:      -8.0     10.459     13.609
REMARK  9 active torsions:
REMARK  status: ('A' for Active; 'I' for Inactive)
REMARK    1  A    between atoms: C_3  and  O_13 
REMARK    2  A    between atoms: C_5  and  C_10 
REMARK    3  A    between atoms: C_6  and  C_7 
REMARK    4  A    between atoms: C_7  and  O_8 
REMARK    5  A    between atoms: C_10  and  O_11 
REMARK    6  A    between atoms: O_13  and  C_14 
REMARK    7  A    between atoms: C_15  and  N_20 
REMARK       I    between atoms: N_20  and  C_21 
REMARK    8  A    between atoms: C_21  and  C_23 
REMARK    9  A    between atoms: C_25  and  N_29 
ROOT
HETATM    1  C   UNK N   1      26.287  25.853  -3.758  0.00  0.00     0.102 A 
HETATM    2  C   UNK N   1      25.643  25.987  -5.014  0.00  0.00     0.069 A 
HETATM    3  C   UNK N   1      25.267  27.256  -5.467  0.00  0.00     0.032 A 
HETATM    4  C   UNK N   1      25.560  28.391  -4.703  0.00  0.00     0.002 A 
HETATM    5  C   UNK N   1      26.221  28.264  -3.478  0.00  0.00     0.003 A 
HETATM    6  C   UNK N   1      26.578  27.000  -3.004  0.00  0.00     0.039 A 
ENDROOT
BRANCH   1   7
HETATM    7  O   UNK N   1      26.602  24.603  -3.323  0.00  0.00    -0.308 OA
BRANCH   7   8
HETATM    8  C   UNK N   1      27.810  23.989  -3.319  0.00  0.00     0.077 A 
HETATM    9  C   UNK N   1      28.297  23.521  -2.108  0.00  0.00     0.038 A 
HETATM   10  C   UNK N   1      29.454  22.757  -2.069  0.00  0.00     0.022 A 
HETATM   11  C   UNK N   1      30.183  22.442  -3.231  0.00  0.00     0.054 A 
HETATM   12  C   UNK N   1      29.711  22.972  -4.491  0.00  0.00     0.057 A 
HETATM   13  C   UNK N   1      28.520  23.721  -4.487  0.00  0.00     0.056 A 
BRANCH  11  14
HETATM   14  C   UNK N   1      31.377  21.562  -2.997  0.00  0.00     0.177 C 
HETATM   15  O   UNK N   1      32.178  21.867  -2.126  0.00  0.00    -0.646 OA
BRANCH  14  16
HETATM   16  O   UNK N   1      31.593  20.431  -3.680  0.00  0.00    -0.773 OA
HETATM   17  H   UNK N   1      30.894  19.871  -3.955  0.00  0.00     0.167 HD
ENDBRANCH  14  16
ENDBRANCH  11  14
BRANCH  12  18
HETATM   18  C   UNK N   1      30.334  22.810  -5.845  0.00  0.00     0.177 C 
HETATM   19  O   UNK N   1      30.403  23.780  -6.587  0.00  0.00    -0.646 OA
BRANCH  18  20
HETATM   20  O   UNK N   1      30.841  21.651  -6.281  0.00  0.00    -0.773 OA
HETATM   21  H   UNK N   1      31.766  21.518  -6.357  0.00  0.00     0.167 HD
ENDBRANCH  18  20
ENDBRANCH  12  18
ENDBRANCH   7   8
ENDBRANCH   1   7
BRANCH   2  22
HETATM   22  N   UNK N   1      25.362  24.839  -5.818  0.00  0.00    -0.320 N 
HETATM   23  C   UNK N   1      26.178  24.446  -6.839  0.00  0.00     0.256 C 
HETATM   24  O   UNK N   1      27.032  25.207  -7.276  0.00  0.00    -0.267 OA
HETATM   25  H   UNK N   1      24.553  24.313  -5.628  0.00  0.00     0.169 HD
BRANCH  23  26
HETATM   26  C   UNK N   1      26.107  23.079  -7.381  0.00  0.00     0.034 A 
HETATM   27  C   UNK N   1      27.291  22.479  -7.828  0.00  0.00     0.053 A 
HETATM   28  C   UNK N   1      27.308  21.147  -8.254  0.00  0.00     0.103 A 
HETATM   29  C   UNK N   1      26.111  20.417  -8.258  0.00  0.00     0.036 A 
HETATM   30  C   UNK N   1      24.921  21.012  -7.821  0.00  0.00     0.003 A 
HETATM   31  C   UNK N   1      24.922  22.334  -7.359  0.00  0.00     0.017 A 
BRANCH  28  32
HETATM   32  N   UNK N   1      28.536  20.535  -8.632  0.00  0.00    -0.116 N 
HETATM   33  O   UNK N   1      28.980  20.650  -9.867  0.00  0.00    -0.532 OA
HETATM   34  O   UNK N   1      29.141  19.865  -7.851  0.00  0.00    -0.532 OA
ENDBRANCH  28  32
ENDBRANCH  23  26
ENDBRANCH   2  22
TORSDOF 9
ENDMDL
MODEL 3
REMARK VINA RESULT:      -7.9     11.177     13.445
REMARK  9 active torsions:
REMARK  status: ('A' for Active; 'I' for Inactive)
REMARK    1  A    between atoms: C_3  and  O_13 
REMARK    2  A    between atoms: C_5  and  C_10 
REMARK    3  A    between atoms: C_6  and  C_7 
REMARK    4  A    between atoms: C_7  and  O_8 
REMARK    5  A    between atoms: C_10  and  O_11 
REMARK    6  A    between atoms: O_13  and  C_14 
REMARK    7  A    between atoms: C_15  and  N_20 
REMARK       I    between atoms: N_20  and  C_21 
REMARK    8  A    between atoms: C_21  and  C_23 
REMARK    9  A    between atoms: C_25  and  N_29 
ROOT
HETATM    1  C   UNK N   1      27.352  22.546  -7.821  0.00  0.00     0.102 A 
HETATM    2  C   UNK N   1      26.262  23.421  -8.054  0.00  0.00     0.069 A 
HETATM    3  C   UNK N   1      25.018  22.895  -8.417  0.00  0.00     0.032 A 
HETATM    4  C   UNK N   1      24.840  21.511  -8.513  0.00  0.00     0.002 A 
HETATM    5  C   UNK N   1      25.906  20.645  -8.256  0.00  0.00     0.003 A 
HETATM    6  C   UNK N   1      27.159  21.159  -7.917  0.00  0.00     0.039 A 
ENDROOT
BRANCH   1   7
HETATM    7  O   UNK N   1      28.562  23.087  -7.512  0.00  0.00    -0.308 OA
BRANCH   7   8
HETATM    8  C   UNK N   1      29.307  22.907  -6.394  0.00  0.00     0.077 A 
HETATM    9  C   UNK N   1      29.085  23.758  -5.322  0.00  0.00     0.038 A 
HETATM   10  C   UNK N   1      29.711  23.528  -4.106  0.00  0.00     0.022 A 
HETATM   11  C   UNK N   1      30.598  22.452  -3.912  0.00  0.00     0.054 A 
HETATM   12  C   UNK N   1      30.877  21.593  -5.042  0.00  0.00     0.057 A 
HETATM   13  C   UNK N   1      30.200  21.849  -6.249  0.00  0.00     0.056 A 
BRANCH  11  14
HETATM   14  C   UNK N   1      31.137  22.333  -2.517  0.00  0.00     0.177 C 
HETATM   15  O   UNK N   1      30.597  22.957  -1.615  0.00  0.00    -0.646 OA
BRANCH  14  16
HETATM   16  O   UNK N   1      32.170  21.543  -2.200  0.00  0.00    -0.773 OA
HETATM   17  H   UNK N   1      32.324  20.724  -2.628  0.00  0.00     0.167 HD
ENDBRANCH  14  16
ENDBRANCH  11  14
BRANCH  12  18
HETATM   18  C   UNK N   1      31.808  20.419  -5.094  0.00  0.00     0.177 C 
HETATM   19  O   UNK N   1      32.625  20.348  -6.001  0.00  0.00    -0.646 OA
BRANCH  18  20
HETATM   20  O   UNK N   1      31.804  19.444  -4.177  0.00  0.00    -0.773 OA
HETATM   21  H   UNK N   1      32.296  18.656  -4.297  0.00  0.00     0.167 HD
ENDBRANCH  18  20
ENDBRANCH  12  18
ENDBRANCH   7   8
ENDBRANCH   1   7
BRANCH   2  22
HETATM   22  N   UNK N   1      26.421  24.837  -7.932  0.00  0.00    -0.320 N 
HETATM   23  C   UNK N   1      26.040  25.521  -6.814  0.00  0.00     0.256 C 
HETATM   24  O   UNK N   1      25.307  24.994  -5.987  0.00  0.00    -0.267 OA
HETATM   25  H   UNK N   1      26.821  25.335  -8.680  0.00  0.00     0.169 HD
BRANCH  23  26
HETATM   26  C   UNK N   1      26.564  26.869  -6.537  0.00  0.00     0.034 A 
HETATM   27  C   UNK N   1      26.169  27.504  -5.353  0.00  0.00     0.053 A 
HETATM   28  C   UNK N   1      26.712  28.739  -4.982  0.00  0.00     0.103 A 
HETATM   29  C   UNK N   1      27.645  29.356  -5.828  0.00  0.00     0.036 A 
HETATM   30  C   UNK N   1      28.038  28.730  -7.018  0.00  0.00     0.003 A 
HETATM   31  C   UNK N   1      27.518  27.477  -7.361  0.00  0.00     0.017 A 
BRANCH  28  32
HETATM   32  N   UNK N   1      26.354  29.330  -3.738  0.00  0.00    -0.116 N 
HETATM   33  O   UNK N   1      26.297  30.641  -3.620  0.00  0.00    -0.532 OA
HETATM   34  O   UNK N   1      26.161  28.646  -2.779  0.00  0.00    -0.532 OA
ENDBRANCH  28  32
ENDBRANCH  23  26
ENDBRANCH   2  22
TORSDOF 9
ENDMDL
MODEL 4
REMARK VINA RESULT:      -7.9      5.982     10.227
REMARK  9 active torsions:
REMARK  status: ('A' for Active; 'I' for Inactive)
REMARK    1  A    between atoms: C_3  and  O_13 
REMARK    2  A    between atoms: C_5  and  C_10 
REMARK    3  A    between atoms: C_6  and  C_7 
REMARK    4  A    between atoms: C_7  and  O_8 
REMARK    5  A    between atoms: C_10  and  O_11 
REMARK    6  A    between atoms: O_13  and  C_14 
REMARK    7  A    between atoms: C_15  and  N_20 
REMARK       I    between atoms: N_20  and  C_21 
REMARK    8  A    between atoms: C_21  and  C_23 
REMARK    9  A    between atoms: C_25  and  N_29 
ROOT
HETATM    1  C   UNK N   1      24.988  17.068   4.555  0.00  0.00     0.102 A 
HETATM    2  C   UNK N   1      24.994  15.884   5.336  0.00  0.00     0.069 A 
HETATM    3  C   UNK N   1      25.858  14.837   4.998  0.00  0.00     0.032 A 
HETATM    4  C   UNK N   1      26.739  14.971   3.920  0.00  0.00     0.002 A 
HETATM    5  C   UNK N   1      26.755  16.148   3.166  0.00  0.00     0.003 A 
HETATM    6  C   UNK N   1      25.880  17.191   3.478  0.00  0.00     0.039 A 
ENDROOT
BRANCH   1   7
HETATM    7  O   UNK N   1      24.107  18.053   4.880  0.00  0.00    -0.308 OA
BRANCH   7   8
HETATM    8  C   UNK N   1      23.221  18.691   4.078  0.00  0.00     0.077 A 
HETATM    9  C   UNK N   1      23.619  19.882   3.490  0.00  0.00     0.038 A 
HETATM   10  C   UNK N   1      22.810  20.499   2.547  0.00  0.00     0.022 A 
HETATM   11  C   UNK N   1      21.565  19.967   2.164  0.00  0.00     0.054 A 
HETATM   12  C   UNK N   1      21.118  18.754   2.815  0.00  0.00     0.057 A 
HETATM   13  C   UNK N   1      21.982  18.149   3.746  0.00  0.00     0.056 A 
BRANCH  11  14
HETATM   14  C   UNK N   1      20.856  20.745   1.094  0.00  0.00     0.177 C 
HETATM   15  O   UNK N   1      20.602  21.925   1.288  0.00  0.00    -0.646 OA
BRANCH  14  16
HETATM   16  O   UNK N   1      20.517  20.216  -0.088  0.00  0.00    -0.773 OA
HETATM   17  H   UNK N   1      21.082  19.637  -0.558  0.00  0.00     0.167 HD
ENDBRANCH  14  16
ENDBRANCH  11  14
BRANCH  12  18
HETATM   18  C   UNK N   1      19.824  18.026   2.609  0.00  0.00     0.177 C 
HETATM   19  O   UNK N   1      19.832  16.805   2.552  0.00  0.00    -0.646 OA
BRANCH  18  20
HETATM   20  O   UNK N   1      18.645  18.650   2.503  0.00  0.00    -0.773 OA
HETATM   21  H   UNK N   1      18.210  18.739   1.678  0.00  0.00     0.167 HD
ENDBRANCH  18  20
ENDBRANCH  12  18
ENDBRANCH   7   8
ENDBRANCH   1   7
BRANCH   2  22
HETATM   22  N   UNK N   1      24.120  15.744   6.458  0.00  0.00    -0.320 N 
HETATM   23  C   UNK N   1      22.901  15.139   6.363  0.00  0.00     0.256 C 
HETATM   24  O   UNK N   1      22.396  14.934   5.266  0.00  0.00    -0.267 OA
HETATM   25  H   UNK N   1      24.409  16.095   7.331  0.00  0.00     0.169 HD
BRANCH  23  26
HETATM   26  C   UNK N   1      22.204  14.647   7.563  0.00  0.00     0.034 A 
HETATM   27  C   UNK N   1      22.908  13.819   8.447  0.00  0.00     0.053 A 
HETATM   28  C   UNK N   1      22.338  13.406   9.656  0.00  0.00     0.103 A 
HETATM   29  C   UNK N   1      21.031  13.808   9.966  0.00  0.00     0.036 A 
HETATM   30  C   UNK N   1      20.317  14.628   9.083  0.00  0.00     0.003 A 
HETATM   31  C   UNK N   1      20.911  15.068   7.894  0.00  0.00     0.017 A 
BRANCH  28  32
HETATM   32  N   UNK N   1      23.099  12.628  10.573  0.00  0.00    -0.116 N 
HETATM   33  O   UNK N   1      24.360  12.348  10.317  0.00  0.00    -0.532 OA
HETATM   34  O   UNK N   1      22.583  12.174  11.550  0.00  0.00    -0.532 OA
ENDBRANCH  28  32
ENDBRANCH  23  26
ENDBRANCH   2  22
TORSDOF 9
ENDMDL
MODEL 5
REMARK VINA RESULT:      -7.9     11.309     13.671
REMARK  9 active torsions:
REMARK  status: ('A' for Active; 'I' for Inactive)
REMARK    1  A    between atoms: C_3  and  O_13 
REMARK    2  A    between atoms: C_5  and  C_10 
REMARK    3  A    between atoms: C_6  and  C_7 
REMARK    4  A    between atoms: C_7  and  O_8 
REMARK    5  A    between atoms: C_10  and  O_11 
REMARK    6  A    between atoms: O_13  and  C_14 
REMARK    7  A    between atoms: C_15  and  N_20 
REMARK       I    between atoms: N_20  and  C_21 
REMARK    8  A    between atoms: C_21  and  C_23 
REMARK    9  A    between atoms: C_25  and  N_29 
ROOT
HETATM    1  C   UNK N   1      28.044  22.925  -8.533  0.00  0.00     0.102 A 
HETATM    2  C   UNK N   1      27.058  23.843  -8.975  0.00  0.00     0.069 A 
HETATM    3  C   UNK N   1      26.028  23.402  -9.812  0.00  0.00     0.032 A 
HETATM    4  C   UNK N   1      25.947  22.056 -10.181  0.00  0.00     0.002 A 
HETATM    5  C   UNK N   1      26.902  21.143  -9.724  0.00  0.00     0.003 A 
HETATM    6  C   UNK N   1      27.950  21.575  -8.908  0.00  0.00     0.039 A 
ENDROOT
BRANCH   1   7
HETATM    7  O   UNK N   1      29.059  23.389  -7.756  0.00  0.00    -0.308 OA
BRANCH   7   8
HETATM    8  C   UNK N   1      29.287  23.162  -6.439  0.00  0.00     0.077 A 
HETATM    9  C   UNK N   1      30.443  22.482  -6.088  0.00  0.00     0.038 A 
HETATM   10  C   UNK N   1      30.800  22.352  -4.754  0.00  0.00     0.022 A 
HETATM   11  C   UNK N   1      30.012  22.878  -3.714  0.00  0.00     0.054 A 
HETATM   12  C   UNK N   1      28.776  23.540  -4.069  0.00  0.00     0.057 A 
HETATM   13  C   UNK N   1      28.467  23.671  -5.436  0.00  0.00     0.056 A 
BRANCH  11  14
HETATM   14  C   UNK N   1      30.584  22.685  -2.340  0.00  0.00     0.177 C 
HETATM   15  O   UNK N   1      31.680  22.158  -2.221  0.00  0.00    -0.646 OA
BRANCH  14  16
HETATM   16  O   UNK N   1      29.963  23.097  -1.228  0.00  0.00    -0.773 OA
HETATM   17  H   UNK N   1      30.349  23.014  -0.378  0.00  0.00     0.167 HD
ENDBRANCH  14  16
ENDBRANCH  11  14
BRANCH  12  18
HETATM   18  C   UNK N   1      27.757  24.139  -3.146  0.00  0.00     0.177 C 
HETATM   19  O   UNK N   1      27.284  23.448  -2.255  0.00  0.00    -0.646 OA
BRANCH  18  20
HETATM   20  O   UNK N   1      27.350  25.411  -3.236  0.00  0.00    -0.773 OA
HETATM   21  H   UNK N   1      27.798  26.032  -3.777  0.00  0.00     0.167 HD
ENDBRANCH  18  20
ENDBRANCH  12  18
ENDBRANCH   7   8
ENDBRANCH   1   7
BRANCH   2  22
HETATM   22  N   UNK N   1      27.110  25.216  -8.583  0.00  0.00    -0.320 N 
HETATM   23  C   UNK N   1      26.396  25.703  -7.526  0.00  0.00     0.256 C 
HETATM   24  O   UNK N   1      25.483  25.045  -7.043  0.00  0.00    -0.267 OA
HETATM   25  H   UNK N   1      27.683  25.834  -9.092  0.00  0.00     0.169 HD
BRANCH  23  26
HETATM   26  C   UNK N   1      26.756  26.982  -6.894  0.00  0.00     0.034 A 
HETATM   27  C   UNK N   1      26.183  27.295  -5.655  0.00  0.00     0.053 A 
HETATM   28  C   UNK N   1      26.564  28.444  -4.954  0.00  0.00     0.103 A 
HETATM   29  C   UNK N   1      27.514  29.306  -5.522  0.00  0.00     0.036 A 
HETATM   30  C   UNK N   1      28.085  29.004  -6.765  0.00  0.00     0.003 A 
HETATM   31  C   UNK N   1      27.726  27.831  -7.440  0.00  0.00     0.017 A 
BRANCH  28  32
HETATM   32  N   UNK N   1      26.026  28.703  -3.663  0.00  0.00    -0.116 N 
HETATM   33  O   UNK N   1      26.235  29.865  -3.079  0.00  0.00    -0.532 OA
HETATM   34  O   UNK N   1      25.433  27.850  -3.075  0.00  0.00    -0.532 OA
ENDBRANCH  28  32
ENDBRANCH  23  26
ENDBRANCH   2  22
TORSDOF 9
ENDMDL
MODEL 6
REMARK VINA RESULT:      -7.7      1.617      2.165
REMARK  9 active torsions:
REMARK  status: ('A' for Active; 'I' for Inactive)
REMARK    1  A    between atoms: C_3  and  O_13 
REMARK    2  A    between atoms: C_5  and  C_10 
REMARK    3  A    between atoms: C_6  and  C_7 
REMARK    4  A    between atoms: C_7  and  O_8 
REMARK    5  A    between atoms: C_10  and  O_11 
REMARK    6  A    between atoms: O_13  and  C_14 
REMARK    7  A    between atoms: C_15  and  N_20 
REMARK       I    between atoms: N_20  and  C_21 
REMARK    8  A    between atoms: C_21  and  C_23 
REMARK    9  A    between atoms: C_25  and  N_29 
ROOT
HETATM    1  C   UNK N   1      30.312  14.874   5.290  0.00  0.00     0.102 A 
HETATM    2  C   UNK N   1      29.353  15.537   4.483  0.00  0.00     0.069 A 
HETATM    3  C   UNK N   1      29.165  15.130   3.157  0.00  0.00     0.032 A 
HETATM    4  C   UNK N   1      29.891  14.051   2.642  0.00  0.00     0.002 A 
HETATM    5  C   UNK N   1      30.816  13.379   3.445  0.00  0.00     0.003 A 
HETATM    6  C   UNK N   1      31.031  13.791   4.762  0.00  0.00     0.039 A 
ENDROOT
BRANCH   1   7
HETATM    7  O   UNK N   1      30.505  15.319   6.561  0.00  0.00    -0.308 OA
BRANCH   7   8
HETATM    8  C   UNK N   1      31.631  15.831   7.115  0.00  0.00     0.077 A 
HETATM    9  C   UNK N   1      32.113  17.030   6.614  0.00  0.00     0.038 A 
HETATM   10  C   UNK N   1      33.172  17.673   7.238  0.00  0.00     0.022 A 
HETATM   11  C   UNK N   1      33.805  17.140   8.376  0.00  0.00     0.054 A 
HETATM   12  C   UNK N   1      33.343  15.862   8.872  0.00  0.00     0.057 A 
HETATM   13  C   UNK N   1      32.250  15.259   8.223  0.00  0.00     0.056 A 
BRANCH  11  14
HETATM   14  C   UNK N   1      34.896  18.001   8.943  0.00  0.00     0.177 C 
HETATM   15  O   UNK N   1      35.157  19.065   8.399  0.00  0.00    -0.646 OA
BRANCH  14  16
HETATM   16  O   UNK N   1      35.582  17.677  10.046  0.00  0.00    -0.773 OA
HETATM   17  H   UNK N   1      35.179  17.260  10.781  0.00  0.00     0.167 HD
ENDBRANCH  14  16
ENDBRANCH  11  14
BRANCH  12  18
HETATM   18  C   UNK N   1      33.881  15.080  10.033  0.00  0.00     0.177 C 
HETATM   19  O   UNK N   1      34.993  14.579   9.948  0.00  0.00    -0.646 OA
BRANCH  18  20
HETATM   20  O   UNK N   1      33.206  14.917  11.177  0.00  0.00    -0.773 OA
HETATM   21  H   UNK N   1      32.827  15.644  11.631  0.00  0.00     0.167 HD
ENDBRANCH  18  20
ENDBRANCH  12  18
ENDBRANCH   7   8
ENDBRANCH   1   7
BRANCH   2  22
HETATM   22  N   UNK N   1      28.583  16.622   5.004  0.00  0.00    -0.320 N 
HETATM   23  C   UNK N   1      28.931  17.927   4.804  0.00  0.00     0.256 C 
HETATM   24  O   UNK N   1      30.053  18.213   4.404  0.00  0.00    -0.267 OA
HETATM   25  H   UNK N   1      27.772  16.422   5.524  0.00  0.00     0.169 HD
BRANCH  23  26
HETATM   26  C   UNK N   1      27.949  19.008   4.984  0.00  0.00     0.034 A 
HETATM   27  C   UNK N   1      26.995  19.214   3.979  0.00  0.00     0.053 A 
HETATM   28  C   UNK N   1      25.971  20.154   4.139  0.00  0.00     0.103 A 
HETATM   29  C   UNK N   1      25.923  20.918   5.314  0.00  0.00     0.036 A 
HETATM   30  C   UNK N   1      26.879  20.724   6.319  0.00  0.00     0.003 A 
HETATM   31  C   UNK N   1      27.876  19.754   6.167  0.00  0.00     0.017 A 
BRANCH  28  32
HETATM   32  N   UNK N   1      24.969  20.293   3.138  0.00  0.00    -0.116 N 
HETATM   33  O   UNK N   1      25.251  20.886   1.996  0.00  0.00    -0.532 OA
HETATM   34  O   UNK N   1      23.852  19.927   3.349  0.00  0.00    -0.532 OA
ENDBRANCH  28  32
ENDBRANCH  23  26
ENDBRANCH   2  22
TORSDOF 9
ENDMDL
MODEL 7
REMARK VINA RESULT:      -7.4     10.956     13.113
REMARK  9 active torsions:
REMARK  status: ('A' for Active; 'I' for Inactive)
REMARK    1  A    between atoms: C_3  and  O_13 
REMARK    2  A    between atoms: C_5  and  C_10 
REMARK    3  A    between atoms: C_6  and  C_7 
REMARK    4  A    between atoms: C_7  and  O_8 
REMARK    5  A    between atoms: C_10  and  O_11 
REMARK    6  A    between atoms: O_13  and  C_14 
REMARK    7  A    between atoms: C_15  and  N_20 
REMARK       I    between atoms: N_20  and  C_21 
REMARK    8  A    between atoms: C_21  and  C_23 
REMARK    9  A    between atoms: C_25  and  N_29 
ROOT
HETATM    1  C   UNK N   1      27.517  22.110  -7.538  0.00  0.00     0.102 A 
HETATM    2  C   UNK N   1      26.610  23.144  -7.196  0.00  0.00     0.069 A 
HETATM    3  C   UNK N   1      25.238  22.954  -7.392  0.00  0.00     0.032 A 
HETATM    4  C   UNK N   1      24.760  21.737  -7.886  0.00  0.00     0.002 A 
HETATM    5  C   UNK N   1      25.650  20.706  -8.198  0.00  0.00     0.003 A 
HETATM    6  C   UNK N   1      27.023  20.892  -8.031  0.00  0.00     0.039 A 
ENDROOT
BRANCH   1   7
HETATM    7  O   UNK N   1      28.849  22.338  -7.379  0.00  0.00    -0.308 OA
BRANCH   7   8
HETATM    8  C   UNK N   1      29.711  21.741  -6.520  0.00  0.00     0.077 A 
HETATM    9  C   UNK N   1      30.588  20.797  -7.031  0.00  0.00     0.038 A 
HETATM   10  C   UNK N   1      31.587  20.265  -6.230  0.00  0.00     0.022 A 
HETATM   11  C   UNK N   1      31.744  20.638  -4.882  0.00  0.00     0.054 A 
HETATM   12  C   UNK N   1      30.799  21.581  -4.326  0.00  0.00     0.057 A 
HETATM   13  C   UNK N   1      29.818  22.113  -5.182  0.00  0.00     0.056 A 
BRANCH  11  14
HETATM   14  C   UNK N   1      32.912  19.997  -4.190  0.00  0.00     0.177 C 
HETATM   15  O   UNK N   1      33.836  20.700  -3.810  0.00  0.00    -0.646 OA
BRANCH  14  16
HETATM   16  O   UNK N   1      32.977  18.684  -3.935  0.00  0.00    -0.773 OA
HETATM   17  H   UNK N   1      33.790  18.223  -3.885  0.00  0.00     0.167 HD
ENDBRANCH  14  16
ENDBRANCH  11  14
BRANCH  12  18
HETATM   18  C   UNK N   1      30.736  22.095  -2.919  0.00  0.00     0.177 C 
HETATM   19  O   UNK N   1      29.675  22.530  -2.493  0.00  0.00    -0.646 OA
BRANCH  18  20
HETATM   20  O   UNK N   1      31.787  22.085  -2.091  0.00  0.00    -0.773 OA
HETATM   21  H   UNK N   1      31.678  22.084  -1.160  0.00  0.00     0.167 HD
ENDBRANCH  18  20
ENDBRANCH  12  18
ENDBRANCH   7   8
ENDBRANCH   1   7
BRANCH   2  22
HETATM   22  N   UNK N   1      27.082  24.383  -6.662  0.00  0.00    -0.320 N 
HETATM   23  C   UNK N   1      27.159  25.520  -7.413  0.00  0.00     0.256 C 
HETATM   24  O   UNK N   1      27.082  25.461  -8.634  0.00  0.00    -0.267 OA
HETATM   25  H   UNK N   1      27.361  24.418  -5.718  0.00  0.00     0.169 HD
BRANCH  23  26
HETATM   26  C   UNK N   1      27.252  26.844  -6.775  0.00  0.00     0.034 A 
HETATM   27  C   UNK N   1      26.746  26.993  -5.478  0.00  0.00     0.053 A 
HETATM   28  C   UNK N   1      26.899  28.195  -4.778  0.00  0.00     0.103 A 
HETATM   29  C   UNK N   1      27.546  29.271  -5.404  0.00  0.00     0.036 A 
HETATM   30  C   UNK N   1      28.047  29.132  -6.705  0.00  0.00     0.003 A 
HETATM   31  C   UNK N   1      27.923  27.912  -7.381  0.00  0.00     0.017 A 
BRANCH  28  32
HETATM   32  N   UNK N   1      26.445  28.300  -3.434  0.00  0.00    -0.116 N 
HETATM   33  O   UNK N   1      25.350  27.674  -3.055  0.00  0.00    -0.532 OA
HETATM   34  O   UNK N   1      27.018  29.003  -2.657  0.00  0.00    -0.532 OA
ENDBRANCH  28  32
ENDBRANCH  23  26
ENDBRANCH   2  22
TORSDOF 9
ENDMDL
MODEL 8
REMARK VINA RESULT:      -7.4      3.303      4.199
REMARK  9 active torsions:
REMARK  status: ('A' for Active; 'I' for Inactive)
REMARK    1  A    between atoms: C_3  and  O_13 
REMARK    2  A    between atoms: C_5  and  C_10 
REMARK    3  A    between atoms: C_6  and  C_7 
REMARK    4  A    between atoms: C_7  and  O_8 
REMARK    5  A    between atoms: C_10  and  O_11 
REMARK    6  A    between atoms: O_13  and  C_14 
REMARK    7  A    between atoms: C_15  and  N_20 
REMARK       I    between atoms: N_20  and  C_21 
REMARK    8  A    between atoms: C_21  and  C_23 
REMARK    9  A    between atoms: C_25  and  N_29 
ROOT
HETATM    1  C   UNK N   1      32.559  14.351   3.028  0.00  0.00     0.102 A 
HETATM    2  C   UNK N   1      31.256  13.889   3.341  0.00  0.00     0.069 A 
HETATM    3  C   UNK N   1      30.884  12.584   3.003  0.00  0.00     0.032 A 
HETATM    4  C   UNK N   1      31.806  11.725   2.394  0.00  0.00     0.002 A 
HETATM    5  C   UNK N   1      33.100  12.169   2.110  0.00  0.00     0.003 A 
HETATM    6  C   UNK N   1      33.475  13.478   2.420  0.00  0.00     0.039 A 
ENDROOT
BRANCH   1   7
HETATM    7  O   UNK N   1      32.879  15.639   3.329  0.00  0.00    -0.308 OA
BRANCH   7   8
HETATM    8  C   UNK N   1      33.395  16.135   4.480  0.00  0.00     0.077 A 
HETATM    9  C   UNK N   1      33.063  17.433   4.834  0.00  0.00     0.038 A 
HETATM   10  C   UNK N   1      33.440  17.939   6.069  0.00  0.00     0.022 A 
HETATM   11  C   UNK N   1      34.178  17.179   6.995  0.00  0.00     0.054 A 
HETATM   12  C   UNK N   1      34.576  15.843   6.611  0.00  0.00     0.057 A 
HETATM   13  C   UNK N   1      34.150  15.362   5.359  0.00  0.00     0.056 A 
BRANCH  11  14
HETATM   14  C   UNK N   1      34.448  17.875   8.297  0.00  0.00     0.177 C 
HETATM   15  O   UNK N   1      35.000  18.966   8.285  0.00  0.00    -0.646 OA
BRANCH  14  16
HETATM   16  O   UNK N   1      34.080  17.372   9.482  0.00  0.00    -0.773 OA
HETATM   17  H   UNK N   1      33.815  17.917  10.197  0.00  0.00     0.167 HD
ENDBRANCH  14  16
ENDBRANCH  11  14
BRANCH  12  18
HETATM   18  C   UNK N   1      35.393  14.865   7.401  0.00  0.00     0.177 C 
HETATM   19  O   UNK N   1      36.410  14.402   6.904  0.00  0.00    -0.646 OA
BRANCH  18  20
HETATM   20  O   UNK N   1      35.074  14.485   8.644  0.00  0.00    -0.773 OA
HETATM   21  H   UNK N   1      35.699  14.070   9.206  0.00  0.00     0.167 HD
ENDBRANCH  18  20
ENDBRANCH  12  18
ENDBRANCH   7   8
ENDBRANCH   1   7
BRANCH   2  22
HETATM   22  N   UNK N   1      30.313  14.746   3.989  0.00  0.00    -0.320 N 
HETATM   23  C   UNK N   1      30.291  14.917   5.343  0.00  0.00     0.256 C 
HETATM   24  O   UNK N   1      30.897  14.143   6.073  0.00  0.00    -0.267 OA
HETATM   25  H   UNK N   1      29.656  15.231   3.439  0.00  0.00     0.169 HD
BRANCH  23  26
HETATM   26  C   UNK N   1      29.611  16.073   5.949  0.00  0.00     0.034 A 
HETATM   27  C   UNK N   1      30.122  16.592   7.145  0.00  0.00     0.053 A 
HETATM   28  C   UNK N   1      29.587  17.752   7.714  0.00  0.00     0.103 A 
HETATM   29  C   UNK N   1      28.503  18.383   7.086  0.00  0.00     0.036 A 
HETATM   30  C   UNK N   1      27.981  17.865   5.894  0.00  0.00     0.003 A 
HETATM   31  C   UNK N   1      28.549  16.726   5.312  0.00  0.00     0.017 A 
BRANCH  28  32
HETATM   32  N   UNK N   1      30.170  18.305   8.889  0.00  0.00    -0.116 N 
HETATM   33  O   UNK N   1      29.422  18.558   9.943  0.00  0.00    -0.532 OA
HETATM   34  O   UNK N   1      31.327  18.598   8.906  0.00  0.00    -0.532 OA
ENDBRANCH  28  32
ENDBRANCH  23  26
ENDBRANCH   2  22
TORSDOF 9
ENDMDL
MODEL 9
REMARK VINA RESULT:      -7.4      4.831      9.349
REMARK  9 active torsions:
REMARK  status: ('A' for Active; 'I' for Inactive)
REMARK    1  A    between atoms: C_3  and  O_13 
REMARK    2  A    between atoms: C_5  and  C_10 
REMARK    3  A    between atoms: C_6  and  C_7 
REMARK    4  A    between atoms: C_7  and  O_8 
REMARK    5  A    between atoms: C_10  and  O_11 
REMARK    6  A    between atoms: O_13  and  C_14 
REMARK    7  A    between atoms: C_15  and  N_20 
REMARK       I    between atoms: N_20  and  C_21 
REMARK    8  A    between atoms: C_21  and  C_23 
REMARK    9  A    between atoms: C_25  and  N_29 
ROOT
HETATM    1  C   UNK N   1      23.632  14.243   5.246  0.00  0.00     0.102 A 
HETATM    2  C   UNK N   1      24.416  14.826   6.273  0.00  0.00     0.069 A 
HETATM    3  C   UNK N   1      24.587  14.146   7.483  0.00  0.00     0.032 A 
HETATM    4  C   UNK N   1      24.021  12.880   7.665  0.00  0.00     0.002 A 
HETATM    5  C   UNK N   1      23.272  12.291   6.643  0.00  0.00     0.003 A 
HETATM    6  C   UNK N   1      23.073  12.970   5.440  0.00  0.00     0.039 A 
ENDROOT
BRANCH   1   7
HETATM    7  O   UNK N   1      23.446  14.946   4.095  0.00  0.00    -0.308 OA
BRANCH   7   8
HETATM    8  C   UNK N   1      22.413  15.756   3.758  0.00  0.00     0.077 A 
HETATM    9  C   UNK N   1      22.066  16.766   4.641  0.00  0.00     0.038 A 
HETATM   10  C   UNK N   1      21.117  17.713   4.282  0.00  0.00     0.022 A 
HETATM   11  C   UNK N   1      20.464  17.683   3.036  0.00  0.00     0.054 A 
HETATM   12  C   UNK N   1      20.781  16.599   2.131  0.00  0.00     0.057 A 
HETATM   13  C   UNK N   1      21.767  15.677   2.527  0.00  0.00     0.056 A 
BRANCH  11  14
HETATM   14  C   UNK N   1      19.510  18.818   2.805  0.00  0.00     0.177 C 
HETATM   15  O   UNK N   1      19.898  19.964   2.974  0.00  0.00    -0.646 OA
BRANCH  14  16
HETATM   16  O   UNK N   1      18.251  18.638   2.386  0.00  0.00    -0.773 OA
HETATM   17  H   UNK N   1      17.929  19.014   1.591  0.00  0.00     0.167 HD
ENDBRANCH  14  16
ENDBRANCH  11  14
BRANCH  12  18
HETATM   18  C   UNK N   1      20.192  16.331   0.778  0.00  0.00     0.177 C 
HETATM   19  O   UNK N   1      19.531  15.317   0.609  0.00  0.00    -0.646 OA
BRANCH  18  20
HETATM   20  O   UNK N   1      20.339  17.165  -0.258  0.00  0.00    -0.773 OA
HETATM   21  H   UNK N   1      21.138  17.202  -0.748  0.00  0.00     0.167 HD
ENDBRANCH  18  20
ENDBRANCH  12  18
ENDBRANCH   7   8
ENDBRANCH   1   7
BRANCH   2  22
HETATM   22  N   UNK N   1      25.024  16.107   6.091  0.00  0.00    -0.320 N 
HETATM   23  C   UNK N   1      26.130  16.287   5.311  0.00  0.00     0.256 C 
HETATM   24  O   UNK N   1      26.798  15.324   4.956  0.00  0.00    -0.267 OA
HETATM   25  H   UNK N   1      24.631  16.888   6.543  0.00  0.00     0.169 HD
BRANCH  23  26
HETATM   26  C   UNK N   1      26.496  17.622   4.814  0.00  0.00     0.034 A 
HETATM   27  C   UNK N   1      25.559  18.326   4.047  0.00  0.00     0.053 A 
HETATM   28  C   UNK N   1      25.805  19.640   3.635  0.00  0.00     0.103 A 
HETATM   29  C   UNK N   1      27.024  20.244   3.975  0.00  0.00     0.036 A 
HETATM   30  C   UNK N   1      27.971  19.543   4.733  0.00  0.00     0.003 A 
HETATM   31  C   UNK N   1      27.698  18.243   5.174  0.00  0.00     0.017 A 
BRANCH  28  32
HETATM   32  N   UNK N   1      24.807  20.363   2.923  0.00  0.00    -0.116 N 
HETATM   33  O   UNK N   1      23.596  20.488   3.424  0.00  0.00    -0.532 OA
HETATM   34  O   UNK N   1      25.043  20.807   1.840  0.00  0.00    -0.532 OA
ENDBRANCH  28  32
ENDBRANCH  23  26
ENDBRANCH   2  22
TORSDOF 9
ENDMDL
