REMARK  2 active torsions:
REMARK  status: ('A' for Active; 'I' for Inactive)
REMARK    1  A    between atoms: C_6  and  N_10 
REMARK       I    between atoms: N_10  and  C_15 
REMARK       I    between atoms: C_15  and  N_16 
REMARK    2  A    between atoms: N_16  and  C_18 
ROOT
HETATM    1  C   UNK N   1       1.614   1.507   0.077  0.00  0.00     0.007 A 
HETATM    2  C   UNK N   1       0.093   1.500   0.236  0.00  0.00     0.124 A 
HETATM    3  C   UNK N   1       2.046   2.826   0.102  0.00  0.00     0.042 A 
HETATM    4  C   UNK N   1       0.877   3.660   0.187  0.00  0.00     0.255 A 
HETATM    5  C   UNK N   1      -0.771   1.031  -0.913  0.00  0.00     0.032 C 
HETATM    6  C   UNK N   1       2.557   0.455  -0.113  0.00  0.00     0.045 A 
HETATM    7  N   UNK N   1      -0.214   2.887   0.273  0.00  0.00    -0.339 N 
HETATM    8  C   UNK N   1       3.380   3.182  -0.052  0.00  0.00     0.018 A 
HETATM    9  C   UNK N   1       3.908   0.813  -0.276  0.00  0.00     0.030 A 
HETATM   10  C   UNK N   1      -1.548   3.233  -0.091  0.00  0.00     0.127 C 
HETATM   11  C   UNK N   1      -2.015   1.951  -0.806  0.00  0.00     0.022 C 
HETATM   12  O   UNK N   1       0.848   4.874   0.053  0.00  0.00    -0.267 OA
HETATM   13  C   UNK N   1       4.320   2.158  -0.225  0.00  0.00     0.003 A 
ENDROOT
BRANCH   6  14
HETATM   14  N   UNK N   1       2.203  -0.920  -0.290  0.00  0.00    -0.308 N 
HETATM   15  C   UNK N   1       1.116  -1.548   0.219  0.00  0.00     0.326 C 
HETATM   16  N   UNK N   1       0.733  -2.744  -0.294  0.00  0.00    -0.294 N 
HETATM   17  O   UNK N   1       0.479  -1.048   1.127  0.00  0.00    -0.247 OA
HETATM   18  H   UNK N   1       1.376  -3.262  -0.830  0.00  0.00     0.172 HD
HETATM   19  H   UNK N   1       2.813  -1.466  -0.838  0.00  0.00     0.170 HD
BRANCH  16  20
HETATM   20  C   UNK N   1      -0.571  -3.269  -0.080  0.00  0.00     0.108 A 
HETATM   21  C   UNK N   1      -0.812  -4.634  -0.240  0.00  0.00     0.049 A 
HETATM   22  C   UNK N   1      -2.115  -5.118  -0.096  0.00  0.00     0.005 A 
HETATM   23  C   UNK N   1      -3.162  -4.235   0.178  0.00  0.00     0.017 A 
HETATM   24  C   UNK N   1      -2.888  -2.875   0.311  0.00  0.00     0.089 A 
HETATM   25  N   UNK N   1      -1.613  -2.425   0.181  0.00  0.00    -0.352 N 
ATOM     26  HN  UNK N   1      -1.429  -1.427   0.281  1.00  0.00     0.166 HD
ENDBRANCH  16  20
ENDBRANCH   6  14
TORSDOF 2
