MODEL 1
REMARK VINA RESULT:      -7.3      0.000      0.000
REMARK  2 active torsions:
REMARK  status: ('A' for Active; 'I' for Inactive)
REMARK    1  A    between atoms: C_6  and  N_10 
REMARK       I    between atoms: N_10  and  C_15 
REMARK       I    between atoms: C_15  and  N_16 
REMARK    2  A    between atoms: N_16  and  C_18 
ROOT
HETATM    1  C   UNK N   1      36.166  11.791  16.242  0.00  0.00     0.007 A 
HETATM    2  C   UNK N   1      36.508  10.443  15.607  0.00  0.00     0.124 A 
HETATM    3  C   UNK N   1      35.571  11.553  17.472  0.00  0.00     0.042 A 
HETATM    4  C   UNK N   1      35.442  10.127  17.619  0.00  0.00     0.255 A 
HETATM    5  C   UNK N   1      35.791  10.012  14.348  0.00  0.00     0.032 C 
HETATM    6  C   UNK N   1      36.323  13.130  15.777  0.00  0.00     0.045 A 
HETATM    7  N   UNK N   1      35.990   9.521  16.557  0.00  0.00    -0.339 N 
HETATM    8  C   UNK N   1      35.109  12.574  18.294  0.00  0.00     0.018 A 
HETATM    9  C   UNK N   1      35.850  14.166  16.603  0.00  0.00     0.030 A 
HETATM   10  C   UNK N   1      35.689   8.222  16.054  0.00  0.00     0.127 C 
HETATM   11  C   UNK N   1      35.655   8.478  14.536  0.00  0.00     0.022 C 
HETATM   12  O   UNK N   1      34.809   9.548  18.488  0.00  0.00    -0.267 OA
HETATM   13  C   UNK N   1      35.269  13.895  17.856  0.00  0.00     0.003 A 
ENDROOT
BRANCH   6  14
HETATM   14  N   UNK N   1      36.796  13.478  14.472  0.00  0.00    -0.308 N 
HETATM   15  C   UNK N   1      36.042  13.683  13.366  0.00  0.00     0.326 C 
HETATM   16  N   UNK N   1      36.581  14.323  12.298  0.00  0.00    -0.294 N 
HETATM   17  O   UNK N   1      34.887  13.304  13.323  0.00  0.00    -0.247 OA
HETATM   18  H   UNK N   1      37.561  14.394  12.228  0.00  0.00     0.172 HD
HETATM   19  H   UNK N   1      37.771  13.578  14.368  0.00  0.00     0.170 HD
BRANCH  16  20
HETATM   20  C   UNK N   1      35.772  14.895  11.279  0.00  0.00     0.108 A 
HETATM   21  C   UNK N   1      35.858  16.259  10.997  0.00  0.00     0.049 A 
HETATM   22  C   UNK N   1      35.002  16.814  10.042  0.00  0.00     0.005 A 
HETATM   23  C   UNK N   1      34.056  16.011   9.402  0.00  0.00     0.017 A 
HETATM   24  C   UNK N   1      33.983  14.657   9.723  0.00  0.00     0.089 A 
HETATM   25  N   UNK N   1      34.833  14.132  10.644  0.00  0.00    -0.352 N 
ATOM     26  HN  UNK N   1      34.767  13.140  10.868  1.00  0.00     0.166 HD
ENDBRANCH  16  20
ENDBRANCH   6  14
TORSDOF 2
ENDMDL
MODEL 2
REMARK VINA RESULT:      -7.2      1.517      3.257
REMARK  2 active torsions:
REMARK  status: ('A' for Active; 'I' for Inactive)
REMARK    1  A    between atoms: C_6  and  N_10 
REMARK       I    between atoms: N_10  and  C_15 
REMARK       I    between atoms: C_15  and  N_16 
REMARK    2  A    between atoms: N_16  and  C_18 
ROOT
HETATM    1  C   UNK N   1      36.407  12.058  15.523  0.00  0.00     0.007 A 
HETATM    2  C   UNK N   1      35.900  13.427  15.980  0.00  0.00     0.124 A 
HETATM    3  C   UNK N   1      36.104  11.132  16.511  0.00  0.00     0.042 A 
HETATM    4  C   UNK N   1      35.506  11.850  17.605  0.00  0.00     0.255 A 
HETATM    5  C   UNK N   1      36.895  14.524  16.281  0.00  0.00     0.032 C 
HETATM    6  C   UNK N   1      37.112  11.645  14.355  0.00  0.00     0.045 A 
HETATM    7  N   UNK N   1      35.390  13.143  17.276  0.00  0.00    -0.339 N 
HETATM    8  C   UNK N   1      36.462   9.792  16.420  0.00  0.00     0.018 A 
HETATM    9  C   UNK N   1      37.481  10.290  14.262  0.00  0.00     0.030 A 
HETATM   10  C   UNK N   1      35.310  14.256  18.164  0.00  0.00     0.127 C 
HETATM   11  C   UNK N   1      36.233  15.273  17.467  0.00  0.00     0.022 C 
HETATM   12  O   UNK N   1      35.271  11.401  18.717  0.00  0.00    -0.267 OA
HETATM   13  C   UNK N   1      37.142   9.369  15.271  0.00  0.00     0.003 A 
ENDROOT
BRANCH   6  14
HETATM   14  N   UNK N   1      37.591  12.539  13.346  0.00  0.00    -0.308 N 
HETATM   15  C   UNK N   1      36.911  12.966  12.254  0.00  0.00     0.326 C 
HETATM   16  N   UNK N   1      37.354  14.052  11.573  0.00  0.00    -0.294 N 
HETATM   17  O   UNK N   1      35.908  12.387  11.883  0.00  0.00    -0.247 OA
HETATM   18  H   UNK N   1      38.281  14.355  11.707  0.00  0.00     0.172 HD
HETATM   19  H   UNK N   1      38.509  12.880  13.456  0.00  0.00     0.170 HD
BRANCH  16  20
HETATM   20  C   UNK N   1      36.516  14.766  10.673  0.00  0.00     0.108 A 
HETATM   21  C   UNK N   1      35.926  15.968  11.068  0.00  0.00     0.049 A 
HETATM   22  C   UNK N   1      35.048  16.616  10.195  0.00  0.00     0.005 A 
HETATM   23  C   UNK N   1      34.749  16.047   8.955  0.00  0.00     0.017 A 
HETATM   24  C   UNK N   1      35.340  14.835   8.602  0.00  0.00     0.089 A 
HETATM   25  N   UNK N   1      36.201  14.227   9.458  0.00  0.00    -0.352 N 
ATOM     26  HN  UNK N   1      36.625  13.341   9.185  1.00  0.00     0.166 HD
ENDBRANCH  16  20
ENDBRANCH   6  14
TORSDOF 2
ENDMDL
MODEL 3
REMARK VINA RESULT:      -7.2      1.600      3.514
REMARK  2 active torsions:
REMARK  status: ('A' for Active; 'I' for Inactive)
REMARK    1  A    between atoms: C_6  and  N_10 
REMARK       I    between atoms: N_10  and  C_15 
REMARK       I    between atoms: C_15  and  N_16 
REMARK    2  A    between atoms: N_16  and  C_18 
ROOT
HETATM    1  C   UNK N   1      35.618  12.450  16.317  0.00  0.00     0.007 A 
HETATM    2  C   UNK N   1      35.777  13.970  16.292  0.00  0.00     0.124 A 
HETATM    3  C   UNK N   1      35.315  12.067  17.617  0.00  0.00     0.042 A 
HETATM    4  C   UNK N   1      35.353  13.251  18.433  0.00  0.00     0.255 A 
HETATM    5  C   UNK N   1      37.134  14.569  15.999  0.00  0.00     0.032 C 
HETATM    6  C   UNK N   1      35.759  11.460  15.301  0.00  0.00     0.045 A 
HETATM    7  N   UNK N   1      35.605  14.316  17.659  0.00  0.00    -0.339 N 
HETATM    8  C   UNK N   1      35.138  10.740  17.987  0.00  0.00     0.018 A 
HETATM    9  C   UNK N   1      35.588  10.114  15.674  0.00  0.00     0.030 A 
HETATM   10  C   UNK N   1      36.181  15.556  18.059  0.00  0.00     0.127 C 
HETATM   11  C   UNK N   1      37.154  15.833  16.898  0.00  0.00     0.022 C 
HETATM   12  O   UNK N   1      35.313  13.285  19.654  0.00  0.00    -0.267 OA
HETATM   13  C   UNK N   1      35.260   9.757  16.996  0.00  0.00     0.003 A 
ENDROOT
BRANCH   6  14
HETATM   14  N   UNK N   1      36.201  11.733  13.968  0.00  0.00    -0.308 N 
HETATM   15  C   UNK N   1      35.587  12.528  13.059  0.00  0.00     0.326 C 
HETATM   16  N   UNK N   1      36.277  12.957  11.972  0.00  0.00    -0.294 N 
HETATM   17  O   UNK N   1      34.428  12.864  13.210  0.00  0.00    -0.247 OA
HETATM   18  H   UNK N   1      37.104  12.489  11.715  0.00  0.00     0.172 HD
HETATM   19  H   UNK N   1      37.038  11.298  13.682  0.00  0.00     0.170 HD
BRANCH  16  20
HETATM   20  C   UNK N   1      35.838  14.063  11.194  0.00  0.00     0.108 A 
HETATM   21  C   UNK N   1      35.484  13.883   9.856  0.00  0.00     0.049 A 
HETATM   22  C   UNK N   1      35.125  14.995   9.090  0.00  0.00     0.005 A 
HETATM   23  C   UNK N   1      35.149  16.271   9.657  0.00  0.00     0.017 A 
HETATM   24  C   UNK N   1      35.527  16.417  10.990  0.00  0.00     0.089 A 
HETATM   25  N   UNK N   1      35.860  15.323  11.723  0.00  0.00    -0.352 N 
ATOM     26  HN  UNK N   1      36.135  15.446  12.697  1.00  0.00     0.166 HD
ENDBRANCH  16  20
ENDBRANCH   6  14
TORSDOF 2
ENDMDL
MODEL 4
REMARK VINA RESULT:      -7.1      1.657      2.139
REMARK  2 active torsions:
REMARK  status: ('A' for Active; 'I' for Inactive)
REMARK    1  A    between atoms: C_6  and  N_10 
REMARK       I    between atoms: N_10  and  C_15 
REMARK       I    between atoms: C_15  and  N_16 
REMARK    2  A    between atoms: N_16  and  C_18 
ROOT
HETATM    1  C   UNK N   1      35.834  11.321  16.990  0.00  0.00     0.007 A 
HETATM    2  C   UNK N   1      36.269  10.186  16.063  0.00  0.00     0.124 A 
HETATM    3  C   UNK N   1      35.987  10.893  18.301  0.00  0.00     0.042 A 
HETATM    4  C   UNK N   1      36.419   9.521  18.258  0.00  0.00     0.255 A 
HETATM    5  C   UNK N   1      35.241   9.510  15.184  0.00  0.00     0.032 C 
HETATM    6  C   UNK N   1      35.307  12.619  16.725  0.00  0.00     0.045 A 
HETATM    7  N   UNK N   1      36.582   9.148  16.981  0.00  0.00    -0.339 N 
HETATM    8  C   UNK N   1      35.647  11.681  19.393  0.00  0.00     0.018 A 
HETATM    9  C   UNK N   1      34.955  13.417  17.829  0.00  0.00     0.030 A 
HETATM   10  C   UNK N   1      36.532   7.824  16.456  0.00  0.00     0.127 C 
HETATM   11  C   UNK N   1      35.722   8.036  15.163  0.00  0.00     0.022 C 
HETATM   12  O   UNK N   1      36.488   8.758  19.209  0.00  0.00    -0.267 OA
HETATM   13  C   UNK N   1      35.142  12.964  19.149  0.00  0.00     0.003 A 
ENDROOT
BRANCH   6  14
HETATM   14  N   UNK N   1      34.982  13.104  15.418  0.00  0.00    -0.308 N 
HETATM   15  C   UNK N   1      35.853  13.550  14.481  0.00  0.00     0.326 C 
HETATM   16  N   UNK N   1      35.448  13.662  13.191  0.00  0.00    -0.294 N 
HETATM   17  O   UNK N   1      36.993  13.846  14.784  0.00  0.00    -0.247 OA
HETATM   18  H   UNK N   1      34.484  13.677  12.993  0.00  0.00     0.172 HD
HETATM   19  H   UNK N   1      34.028  13.115  15.176  0.00  0.00     0.170 HD
BRANCH  16  20
HETATM   20  C   UNK N   1      36.377  13.757  12.119  0.00  0.00     0.108 A 
HETATM   21  C   UNK N   1      36.178  14.688  11.099  0.00  0.00     0.049 A 
HETATM   22  C   UNK N   1      37.063  14.716  10.018  0.00  0.00     0.005 A 
HETATM   23  C   UNK N   1      38.115  13.800   9.953  0.00  0.00     0.017 A 
HETATM   24  C   UNK N   1      38.272  12.870  10.979  0.00  0.00     0.089 A 
HETATM   25  N   UNK N   1      37.410  12.868  12.029  0.00  0.00    -0.352 N 
ATOM     26  HN  UNK N   1      37.538  12.181  12.772  1.00  0.00     0.166 HD
ENDBRANCH  16  20
ENDBRANCH   6  14
TORSDOF 2
ENDMDL
MODEL 5
REMARK VINA RESULT:      -7.1      2.551      7.434
REMARK  2 active torsions:
REMARK  status: ('A' for Active; 'I' for Inactive)
REMARK    1  A    between atoms: C_6  and  N_10 
REMARK       I    between atoms: N_10  and  C_15 
REMARK       I    between atoms: C_15  and  N_16 
REMARK    2  A    between atoms: N_16  and  C_18 
ROOT
HETATM    1  C   UNK N   1      36.251  14.440  10.100  0.00  0.00     0.007 A 
HETATM    2  C   UNK N   1      37.067  13.152   9.979  0.00  0.00     0.124 A 
HETATM    3  C   UNK N   1      35.782  14.776   8.838  0.00  0.00     0.042 A 
HETATM    4  C   UNK N   1      36.322  13.819   7.909  0.00  0.00     0.255 A 
HETATM    5  C   UNK N   1      38.555  13.189  10.245  0.00  0.00     0.032 C 
HETATM    6  C   UNK N   1      35.962  15.284  11.212  0.00  0.00     0.045 A 
HETATM    7  N   UNK N   1      37.035  12.904   8.580  0.00  0.00    -0.339 N 
HETATM    8  C   UNK N   1      35.030  15.919   8.596  0.00  0.00     0.018 A 
HETATM    9  C   UNK N   1      35.206  16.445  10.970  0.00  0.00     0.030 A 
HETATM   10  C   UNK N   1      38.092  12.093   8.074  0.00  0.00     0.127 C 
HETATM   11  C   UNK N   1      39.112  12.160   9.227  0.00  0.00     0.022 C 
HETATM   12  O   UNK N   1      36.275  13.893   6.691  0.00  0.00    -0.267 OA
HETATM   13  C   UNK N   1      34.726  16.750   9.682  0.00  0.00     0.003 A 
ENDROOT
BRANCH   6  14
HETATM   14  N   UNK N   1      36.508  15.103  12.522  0.00  0.00    -0.308 N 
HETATM   15  C   UNK N   1      36.060  14.250  13.475  0.00  0.00     0.326 C 
HETATM   16  N   UNK N   1      36.859  13.944  14.528  0.00  0.00    -0.294 N 
HETATM   17  O   UNK N   1      34.952  13.755  13.393  0.00  0.00    -0.247 OA
HETATM   18  H   UNK N   1      37.626  14.527  14.731  0.00  0.00     0.172 HD
HETATM   19  H   UNK N   1      37.290  15.655  12.755  0.00  0.00     0.170 HD
BRANCH  16  20
HETATM   20  C   UNK N   1      36.620  12.805  15.345  0.00  0.00     0.108 A 
HETATM   21  C   UNK N   1      37.189  11.574  15.015  0.00  0.00     0.049 A 
HETATM   22  C   UNK N   1      36.882  10.452  15.789  0.00  0.00     0.005 A 
HETATM   23  C   UNK N   1      35.995  10.564  16.862  0.00  0.00     0.017 A 
HETATM   24  C   UNK N   1      35.430  11.805  17.150  0.00  0.00     0.089 A 
HETATM   25  N   UNK N   1      35.750  12.887  16.395  0.00  0.00    -0.352 N 
ATOM     26  HN  UNK N   1      35.328  13.788  16.619  1.00  0.00     0.166 HD
ENDBRANCH  16  20
ENDBRANCH   6  14
TORSDOF 2
ENDMDL
MODEL 6
REMARK VINA RESULT:      -7.0      6.467     10.869
REMARK  2 active torsions:
REMARK  status: ('A' for Active; 'I' for Inactive)
REMARK    1  A    between atoms: C_6  and  N_10 
REMARK       I    between atoms: N_10  and  C_15 
REMARK       I    between atoms: C_15  and  N_16 
REMARK    2  A    between atoms: N_16  and  C_18 
ROOT
HETATM    1  C   UNK N   1      30.554  17.209   6.657  0.00  0.00     0.007 A 
HETATM    2  C   UNK N   1      31.553  16.658   5.637  0.00  0.00     0.124 A 
HETATM    3  C   UNK N   1      29.319  17.324   6.034  0.00  0.00     0.042 A 
HETATM    4  C   UNK N   1      29.496  16.954   4.655  0.00  0.00     0.255 A 
HETATM    5  C   UNK N   1      32.695  17.532   5.172  0.00  0.00     0.032 C 
HETATM    6  C   UNK N   1      30.706  17.616   8.014  0.00  0.00     0.045 A 
HETATM    7  N   UNK N   1      30.765  16.571   4.458  0.00  0.00    -0.339 N 
HETATM    8  C   UNK N   1      28.197  17.828   6.680  0.00  0.00     0.018 A 
HETATM    9  C   UNK N   1      29.572  18.133   8.669  0.00  0.00     0.030 A 
HETATM   10  C   UNK N   1      31.489  16.581   3.231  0.00  0.00     0.127 C 
HETATM   11  C   UNK N   1      32.857  17.123   3.684  0.00  0.00     0.022 C 
HETATM   12  O   UNK N   1      28.677  17.101   3.760  0.00  0.00    -0.267 OA
HETATM   13  C   UNK N   1      28.327  18.219   8.019  0.00  0.00     0.003 A 
ENDROOT
BRANCH   6  14
HETATM   14  N   UNK N   1      31.958  17.667   8.704  0.00  0.00    -0.308 N 
HETATM   15  C   UNK N   1      32.762  16.618   9.001  0.00  0.00     0.326 C 
HETATM   16  N   UNK N   1      34.053  16.842   9.353  0.00  0.00    -0.294 N 
HETATM   17  O   UNK N   1      32.338  15.478   8.951  0.00  0.00    -0.247 OA
HETATM   18  H   UNK N   1      34.319  17.744   9.643  0.00  0.00     0.172 HD
HETATM   19  H   UNK N   1      32.268  18.556   8.993  0.00  0.00     0.170 HD
BRANCH  16  20
HETATM   20  C   UNK N   1      35.031  15.811   9.312  0.00  0.00     0.108 A 
HETATM   21  C   UNK N   1      35.913  15.639  10.380  0.00  0.00     0.049 A 
HETATM   22  C   UNK N   1      36.913  14.668  10.289  0.00  0.00     0.005 A 
HETATM   23  C   UNK N   1      37.038  13.900   9.128  0.00  0.00     0.017 A 
HETATM   24  C   UNK N   1      36.153  14.113   8.073  0.00  0.00     0.089 A 
HETATM   25  N   UNK N   1      35.178  15.052   8.186  0.00  0.00    -0.352 N 
ATOM     26  HN  UNK N   1      34.538  15.196   7.405  1.00  0.00     0.166 HD
ENDBRANCH  16  20
ENDBRANCH   6  14
TORSDOF 2
ENDMDL
MODEL 7
REMARK VINA RESULT:      -6.8      9.511     12.794
REMARK  2 active torsions:
REMARK  status: ('A' for Active; 'I' for Inactive)
REMARK    1  A    between atoms: C_6  and  N_10 
REMARK       I    between atoms: N_10  and  C_15 
REMARK       I    between atoms: C_15  and  N_16 
REMARK    2  A    between atoms: N_16  and  C_18 
ROOT
HETATM    1  C   UNK N   1      30.773  17.218   6.003  0.00  0.00     0.007 A 
HETATM    2  C   UNK N   1      29.691  17.087   7.077  0.00  0.00     0.124 A 
HETATM    3  C   UNK N   1      32.007  17.268   6.636  0.00  0.00     0.042 A 
HETATM    4  C   UNK N   1      31.765  17.258   8.054  0.00  0.00     0.255 A 
HETATM    5  C   UNK N   1      28.712  18.221   7.285  0.00  0.00     0.032 C 
HETATM    6  C   UNK N   1      30.699  17.324   4.584  0.00  0.00     0.045 A 
HETATM    7  N   UNK N   1      30.449  17.144   8.278  0.00  0.00    -0.339 N 
HETATM    8  C   UNK N   1      33.201  17.419   5.942  0.00  0.00     0.018 A 
HETATM    9  C   UNK N   1      31.906  17.483   3.878  0.00  0.00     0.030 A 
HETATM   10  C   UNK N   1      29.732  17.554   9.440  0.00  0.00     0.127 C 
HETATM   11  C   UNK N   1      28.477  18.195   8.818  0.00  0.00     0.022 C 
HETATM   12  O   UNK N   1      32.593  17.469   8.927  0.00  0.00    -0.267 OA
HETATM   13  C   UNK N   1      33.145  17.510   4.545  0.00  0.00     0.003 A 
ENDROOT
BRANCH   6  14
HETATM   14  N   UNK N   1      29.476  17.420   3.847  0.00  0.00    -0.308 N 
HETATM   15  C   UNK N   1      28.727  16.391   3.383  0.00  0.00     0.326 C 
HETATM   16  N   UNK N   1      27.445  16.615   3.001  0.00  0.00    -0.294 N 
HETATM   17  O   UNK N   1      29.193  15.269   3.308  0.00  0.00    -0.247 OA
HETATM   18  H   UNK N   1      27.156  17.537   2.815  0.00  0.00     0.172 HD
HETATM   19  H   UNK N   1      29.144  18.328   3.659  0.00  0.00     0.170 HD
BRANCH  16  20
HETATM   20  C   UNK N   1      26.507  15.555   2.865  0.00  0.00     0.108 A 
HETATM   21  C   UNK N   1      25.855  15.349   1.648  0.00  0.00     0.049 A 
HETATM   22  C   UNK N   1      24.884  14.348   1.556  0.00  0.00     0.005 A 
HETATM   23  C   UNK N   1      24.557  13.586   2.681  0.00  0.00     0.017 A 
HETATM   24  C   UNK N   1      25.214  13.834   3.885  0.00  0.00     0.089 A 
HETATM   25  N   UNK N   1      26.164  14.802   3.951  0.00  0.00    -0.352 N 
ATOM     26  HN  UNK N   1      26.636  14.971   4.840  1.00  0.00     0.166 HD
ENDBRANCH  16  20
ENDBRANCH   6  14
TORSDOF 2
ENDMDL
MODEL 8
REMARK VINA RESULT:      -6.7     14.738     17.870
REMARK  2 active torsions:
REMARK  status: ('A' for Active; 'I' for Inactive)
REMARK    1  A    between atoms: C_6  and  N_10 
REMARK       I    between atoms: N_10  and  C_15 
REMARK       I    between atoms: C_15  and  N_16 
REMARK    2  A    between atoms: N_16  and  C_18 
ROOT
HETATM    1  C   UNK N   1      23.218  18.103   4.020  0.00  0.00     0.007 A 
HETATM    2  C   UNK N   1      21.718  18.391   4.093  0.00  0.00     0.124 A 
HETATM    3  C   UNK N   1      23.853  19.236   3.530  0.00  0.00     0.042 A 
HETATM    4  C   UNK N   1      22.832  20.198   3.213  0.00  0.00     0.255 A 
HETATM    5  C   UNK N   1      20.772  17.631   3.191  0.00  0.00     0.032 C 
HETATM    6  C   UNK N   1      23.980  16.935   4.318  0.00  0.00     0.045 A 
HETATM    7  N   UNK N   1      21.635  19.701   3.551  0.00  0.00    -0.339 N 
HETATM    8  C   UNK N   1      25.224  19.292   3.311  0.00  0.00     0.018 A 
HETATM    9  C   UNK N   1      25.368  16.987   4.091  0.00  0.00     0.030 A 
HETATM   10  C   UNK N   1      20.366  20.066   3.013  0.00  0.00     0.127 C 
HETATM   11  C   UNK N   1      19.691  18.691   2.856  0.00  0.00     0.022 C 
HETATM   12  O   UNK N   1      22.993  21.241   2.598  0.00  0.00    -0.267 OA
HETATM   13  C   UNK N   1      25.988  18.157   3.614  0.00  0.00     0.003 A 
ENDROOT
BRANCH   6  14
HETATM   14  N   UNK N   1      23.411  15.678   4.695  0.00  0.00    -0.308 N 
HETATM   15  C   UNK N   1      23.381  15.143   5.940  0.00  0.00     0.326 C 
HETATM   16  N   UNK N   1      22.531  14.121   6.209  0.00  0.00    -0.294 N 
HETATM   17  O   UNK N   1      24.105  15.574   6.817  0.00  0.00    -0.247 OA
HETATM   18  H   UNK N   1      22.146  13.610   5.461  0.00  0.00     0.172 HD
HETATM   19  H   UNK N   1      22.998  15.146   3.976  0.00  0.00     0.170 HD
BRANCH  16  20
HETATM   20  C   UNK N   1      22.179  13.769   7.541  0.00  0.00     0.108 A 
HETATM   21  C   UNK N   1      22.443  12.485   8.019  0.00  0.00     0.049 A 
HETATM   22  C   UNK N   1      22.024  12.137   9.306  0.00  0.00     0.005 A 
HETATM   23  C   UNK N   1      21.326  13.061  10.087  0.00  0.00     0.017 A 
HETATM   24  C   UNK N   1      21.061  14.328   9.569  0.00  0.00     0.089 A 
HETATM   25  N   UNK N   1      21.488  14.652   8.321  0.00  0.00    -0.352 N 
ATOM     26  HN  UNK N   1      21.287  15.583   7.957  1.00  0.00     0.166 HD
ENDBRANCH  16  20
ENDBRANCH   6  14
TORSDOF 2
ENDMDL
MODEL 9
REMARK VINA RESULT:      -6.6      3.054      8.340
REMARK  2 active torsions:
REMARK  status: ('A' for Active; 'I' for Inactive)
REMARK    1  A    between atoms: C_6  and  N_10 
REMARK       I    between atoms: N_10  and  C_15 
REMARK       I    between atoms: C_15  and  N_16 
REMARK    2  A    between atoms: N_16  and  C_18 
ROOT
HETATM    1  C   UNK N   1      34.959  15.411   8.154  0.00  0.00     0.007 A 
HETATM    2  C   UNK N   1      35.520  13.988   8.107  0.00  0.00     0.124 A 
HETATM    3  C   UNK N   1      34.384  15.690   6.921  0.00  0.00     0.042 A 
HETATM    4  C   UNK N   1      34.619  14.555   6.070  0.00  0.00     0.255 A 
HETATM    5  C   UNK N   1      37.015  13.777   8.189  0.00  0.00     0.032 C 
HETATM    6  C   UNK N   1      34.975  16.408   9.172  0.00  0.00     0.045 A 
HETATM    7  N   UNK N   1      35.252  13.602   6.766  0.00  0.00    -0.339 N 
HETATM    8  C   UNK N   1      33.810  16.919   6.623  0.00  0.00     0.018 A 
HETATM    9  C   UNK N   1      34.401  17.657   8.870  0.00  0.00     0.030 A 
HETATM   10  C   UNK N   1      36.075  12.559   6.250  0.00  0.00     0.127 C 
HETATM   11  C   UNK N   1      37.242  12.559   7.256  0.00  0.00     0.022 C 
HETATM   12  O   UNK N   1      34.417  14.505   4.866  0.00  0.00    -0.267 OA
HETATM   13  C   UNK N   1      33.805  17.905   7.618  0.00  0.00     0.003 A 
ENDROOT
BRANCH   6  14
HETATM   14  N   UNK N   1      35.659  16.271  10.421  0.00  0.00    -0.308 N 
HETATM   15  C   UNK N   1      35.306  15.468  11.453  0.00  0.00     0.326 C 
HETATM   16  N   UNK N   1      36.211  15.190  12.425  0.00  0.00    -0.294 N 
HETATM   17  O   UNK N   1      34.188  14.991  11.514  0.00  0.00    -0.247 OA
HETATM   18  H   UNK N   1      37.004  15.766  12.518  0.00  0.00     0.172 HD
HETATM   19  H   UNK N   1      36.470  16.817  10.543  0.00  0.00     0.170 HD
BRANCH  16  20
HETATM   20  C   UNK N   1      36.046  14.091  13.311  0.00  0.00     0.108 A 
HETATM   21  C   UNK N   1      36.522  14.168  14.621  0.00  0.00     0.049 A 
HETATM   22  C   UNK N   1      36.415  13.051  15.453  0.00  0.00     0.005 A 
HETATM   23  C   UNK N   1      35.862  11.865  14.963  0.00  0.00     0.017 A 
HETATM   24  C   UNK N   1      35.416  11.817  13.643  0.00  0.00     0.089 A 
HETATM   25  N   UNK N   1      35.516  12.918  12.854  0.00  0.00    -0.352 N 
ATOM     26  HN  UNK N   1      35.185  12.866  11.890  1.00  0.00     0.166 HD
ENDBRANCH  16  20
ENDBRANCH   6  14
TORSDOF 2
ENDMDL
