MODEL 1
REMARK VINA RESULT:      -5.4      0.000      0.000
REMARK  6 active torsions:
REMARK  status: ('A' for Active; 'I' for Inactive)
REMARK    1  A    between atoms: C_4  and  C_8 
REMARK    2  A    between atoms: C_5  and  O_10 
REMARK    3  A    between atoms: C_6  and  C_9 
REMARK    4  A    between atoms: O_10  and  P_11 
REMARK    5  A    between atoms: P_11  and  O_12 
REMARK    6  A    between atoms: P_11  and  O_13 
ROOT
HETATM    1  C   UNK N   1      35.321  12.565  19.231  0.00  0.00     0.024 A 
HETATM    2  C   UNK N   1      35.286  11.181  19.262  0.00  0.00    -0.060 A 
HETATM    3  C   UNK N   1      35.214  10.469  18.075  0.00  0.00     0.024 A 
HETATM    4  C   UNK N   1      35.167  11.103  16.829  0.00  0.00     0.037 A 
HETATM    5  C   UNK N   1      35.212  12.552  16.780  0.00  0.00     0.107 A 
HETATM    6  C   UNK N   1      35.290  13.250  18.024  0.00  0.00     0.037 A 
HETATM    7  C   UNK N   1      35.313  10.465  20.562  0.00  0.00     0.048 C 
ENDROOT
BRANCH   5   8
HETATM    8  O   UNK N   1      35.197  13.342  15.669  0.00  0.00    -0.253 OA
BRANCH   8   9
HETATM    9  P   UNK N   1      36.213  13.716  14.327  0.00  0.00     0.396 P 
HETATM   10  O   UNK N   1      35.305  14.036  13.111  0.00  0.00    -0.631 OA
BRANCH   9  11
HETATM   11  O   UNK N   1      37.348  12.471  13.902  0.00  0.00    -0.307 OA
HETATM   12  H   UNK N   1      37.351  11.509  14.023  0.00  0.00     0.222 HD
ENDBRANCH   9  11
BRANCH   9  13
HETATM   13  O   UNK N   1      37.077  15.178  14.681  0.00  0.00    -0.307 OA
HETATM   14  H   UNK N   1      36.817  16.010  14.256  0.00  0.00     0.222 HD
ENDBRANCH   9  13
ENDBRANCH   8   9
ENDBRANCH   5   8
BRANCH   4  15
HETATM   15  C   UNK N   1      35.073  10.143  15.711  0.00  0.00     0.272 C 
HETATM   16  O   UNK N   1      35.870  10.055  14.806  0.00  0.00    -0.301 OA
ENDBRANCH   4  15
BRANCH   6  17
HETATM   17  C   UNK N   1      35.325  14.731  18.106  0.00  0.00     0.272 C 
HETATM   18  O   UNK N   1      36.366  15.364  18.115  0.00  0.00    -0.301 OA
ENDBRANCH   6  17
TORSDOF 6
ENDMDL
MODEL 2
REMARK VINA RESULT:      -5.4      0.412      3.137
REMARK  6 active torsions:
REMARK  status: ('A' for Active; 'I' for Inactive)
REMARK    1  A    between atoms: C_4  and  C_8 
REMARK    2  A    between atoms: C_5  and  O_10 
REMARK    3  A    between atoms: C_6  and  C_9 
REMARK    4  A    between atoms: O_10  and  P_11 
REMARK    5  A    between atoms: P_11  and  O_12 
REMARK    6  A    between atoms: P_11  and  O_13 
ROOT
HETATM    1  C   UNK N   1      35.136  10.392  18.194  0.00  0.00     0.024 A 
HETATM    2  C   UNK N   1      35.100  11.093  19.387  0.00  0.00    -0.060 A 
HETATM    3  C   UNK N   1      35.163  12.477  19.374  0.00  0.00     0.024 A 
HETATM    4  C   UNK N   1      35.270  13.205  18.184  0.00  0.00     0.037 A 
HETATM    5  C   UNK N   1      35.300  12.486  16.925  0.00  0.00     0.107 A 
HETATM    6  C   UNK N   1      35.229  11.061  16.980  0.00  0.00     0.037 A 
HETATM    7  C   UNK N   1      35.008  10.361  20.677  0.00  0.00     0.048 C 
ENDROOT
BRANCH   5   8
HETATM    8  O   UNK N   1      35.379  13.018  15.672  0.00  0.00    -0.253 OA
BRANCH   8   9
HETATM    9  P   UNK N   1      36.580  13.614  14.588  0.00  0.00     0.396 P 
HETATM   10  O   UNK N   1      35.857  14.364  13.437  0.00  0.00    -0.631 OA
BRANCH   9  11
HETATM   11  O   UNK N   1      37.636  12.403  13.929  0.00  0.00    -0.307 OA
HETATM   12  H   UNK N   1      38.042  12.283  13.058  0.00  0.00     0.222 HD
ENDBRANCH   9  11
BRANCH   9  13
HETATM   13  O   UNK N   1      37.528  14.807  15.418  0.00  0.00    -0.307 OA
HETATM   14  H   UNK N   1      37.089  15.538  15.882  0.00  0.00     0.222 HD
ENDBRANCH   9  13
ENDBRANCH   8   9
ENDBRANCH   5   8
BRANCH   4  15
HETATM   15  C   UNK N   1      35.341  14.661  18.420  0.00  0.00     0.272 C 
HETATM   16  O   UNK N   1      36.311  15.350  18.203  0.00  0.00    -0.301 OA
ENDBRANCH   4  15
BRANCH   6  17
HETATM   17  C   UNK N   1      35.266  10.213  15.763  0.00  0.00     0.272 C 
HETATM   18  O   UNK N   1      36.306   9.910  15.205  0.00  0.00    -0.301 OA
ENDBRANCH   6  17
TORSDOF 6
ENDMDL
MODEL 3
REMARK VINA RESULT:      -5.1      9.064     10.675
REMARK  6 active torsions:
REMARK  status: ('A' for Active; 'I' for Inactive)
REMARK    1  A    between atoms: C_4  and  C_8 
REMARK    2  A    between atoms: C_5  and  O_10 
REMARK    3  A    between atoms: C_6  and  C_9 
REMARK    4  A    between atoms: O_10  and  P_11 
REMARK    5  A    between atoms: P_11  and  O_12 
REMARK    6  A    between atoms: P_11  and  O_13 
ROOT
HETATM    1  C   UNK N   1      33.460  17.588   5.860  0.00  0.00     0.024 A 
HETATM    2  C   UNK N   1      33.227  16.527   5.003  0.00  0.00    -0.060 A 
HETATM    3  C   UNK N   1      33.179  15.235   5.504  0.00  0.00     0.024 A 
HETATM    4  C   UNK N   1      33.367  14.957   6.862  0.00  0.00     0.037 A 
HETATM    5  C   UNK N   1      33.603  16.059   7.774  0.00  0.00     0.107 A 
HETATM    6  C   UNK N   1      33.642  17.375   7.221  0.00  0.00     0.037 A 
HETATM    7  C   UNK N   1      33.042  16.772   3.549  0.00  0.00     0.048 C 
ENDROOT
BRANCH   5   8
HETATM    8  O   UNK N   1      33.787  15.989   9.123  0.00  0.00    -0.253 OA
BRANCH   8   9
HETATM    9  P   UNK N   1      35.061  15.693  10.247  0.00  0.00     0.396 P 
HETATM   10  O   UNK N   1      36.119  14.798   9.549  0.00  0.00    -0.631 OA
BRANCH   9  11
HETATM   11  O   UNK N   1      34.562  14.958  11.740  0.00  0.00    -0.307 OA
HETATM   12  H   UNK N   1      34.711  14.083  12.128  0.00  0.00     0.222 HD
ENDBRANCH   9  11
BRANCH   9  13
HETATM   13  O   UNK N   1      35.854  17.197  10.589  0.00  0.00    -0.307 OA
HETATM   14  H   UNK N   1      36.371  17.298  11.404  0.00  0.00     0.222 HD
ENDBRANCH   9  13
ENDBRANCH   8   9
ENDBRANCH   5   8
BRANCH   4  15
HETATM   15  C   UNK N   1      33.292  13.512   7.156  0.00  0.00     0.272 C 
HETATM   16  O   UNK N   1      32.654  13.023   8.059  0.00  0.00    -0.301 OA
ENDBRANCH   4  15
BRANCH   6  17
HETATM   17  C   UNK N   1      33.891  18.581   8.048  0.00  0.00     0.272 C 
HETATM   18  O   UNK N   1      35.013  18.993   8.287  0.00  0.00    -0.301 OA
ENDBRANCH   6  17
TORSDOF 6
ENDMDL
MODEL 4
REMARK VINA RESULT:      -5.1     18.696     20.199
REMARK  6 active torsions:
REMARK  status: ('A' for Active; 'I' for Inactive)
REMARK    1  A    between atoms: C_4  and  C_8 
REMARK    2  A    between atoms: C_5  and  O_10 
REMARK    3  A    between atoms: C_6  and  C_9 
REMARK    4  A    between atoms: O_10  and  P_11 
REMARK    5  A    between atoms: P_11  and  O_12 
REMARK    6  A    between atoms: P_11  and  O_13 
ROOT
HETATM    1  C   UNK N   1      23.914  20.583   2.914  0.00  0.00     0.024 A 
HETATM    2  C   UNK N   1      25.006  19.939   3.469  0.00  0.00    -0.060 A 
HETATM    3  C   UNK N   1      24.822  18.771   4.191  0.00  0.00     0.024 A 
HETATM    4  C   UNK N   1      23.556  18.212   4.392  0.00  0.00     0.037 A 
HETATM    5  C   UNK N   1      22.402  18.871   3.810  0.00  0.00     0.107 A 
HETATM    6  C   UNK N   1      22.632  20.069   3.070  0.00  0.00     0.037 A 
HETATM    7  C   UNK N   1      26.369  20.506   3.299  0.00  0.00     0.048 C 
ENDROOT
BRANCH   5   8
HETATM    8  O   UNK N   1      21.100  18.469   3.880  0.00  0.00    -0.253 OA
BRANCH   8   9
HETATM    9  P   UNK N   1      20.020  17.416   3.047  0.00  0.00     0.396 P 
HETATM   10  O   UNK N   1      20.840  16.212   2.510  0.00  0.00    -0.631 OA
BRANCH   9  11
HETATM   11  O   UNK N   1      19.138  18.154   1.745  0.00  0.00    -0.307 OA
HETATM   12  H   UNK N   1      18.222  18.457   1.655  0.00  0.00     0.222 HD
ENDBRANCH   9  11
BRANCH   9  13
HETATM   13  O   UNK N   1      18.897  16.758   4.194  0.00  0.00    -0.307 OA
HETATM   14  H   UNK N   1      18.661  15.818   4.158  0.00  0.00     0.222 HD
ENDBRANCH   9  13
ENDBRANCH   8   9
ENDBRANCH   5   8
BRANCH   4  15
HETATM   15  C   UNK N   1      23.606  16.982   5.207  0.00  0.00     0.272 C 
HETATM   16  O   UNK N   1      22.749  16.634   5.987  0.00  0.00    -0.301 OA
ENDBRANCH   4  15
BRANCH   6  17
HETATM   17  C   UNK N   1      21.533  20.842   2.441  0.00  0.00     0.272 C 
HETATM   18  O   UNK N   1      21.152  20.636   1.302  0.00  0.00    -0.301 OA
ENDBRANCH   6  17
TORSDOF 6
ENDMDL
MODEL 5
REMARK VINA RESULT:      -5.1     17.143     18.294
REMARK  6 active torsions:
REMARK  status: ('A' for Active; 'I' for Inactive)
REMARK    1  A    between atoms: C_4  and  C_8 
REMARK    2  A    between atoms: C_5  and  O_10 
REMARK    3  A    between atoms: C_6  and  C_9 
REMARK    4  A    between atoms: O_10  and  P_11 
REMARK    5  A    between atoms: P_11  and  O_12 
REMARK    6  A    between atoms: P_11  and  O_13 
ROOT
HETATM    1  C   UNK N   1      20.692  14.154   9.750  0.00  0.00     0.024 A 
HETATM    2  C   UNK N   1      21.363  12.960   9.550  0.00  0.00    -0.060 A 
HETATM    3  C   UNK N   1      21.627  12.528   8.260  0.00  0.00     0.024 A 
HETATM    4  C   UNK N   1      21.230  13.259   7.135  0.00  0.00     0.037 A 
HETATM    5  C   UNK N   1      20.535  14.517   7.329  0.00  0.00     0.107 A 
HETATM    6  C   UNK N   1      20.285  14.930   8.672  0.00  0.00     0.037 A 
HETATM    7  C   UNK N   1      21.785  12.139  10.714  0.00  0.00     0.048 C 
ENDROOT
BRANCH   5   8
HETATM    8  O   UNK N   1      20.092  15.372   6.364  0.00  0.00    -0.253 OA
BRANCH   8   9
HETATM    9  P   UNK N   1      18.740  15.552   5.309  0.00  0.00     0.396 P 
HETATM   10  O   UNK N   1      18.387  14.153   4.737  0.00  0.00    -0.631 OA
BRANCH   9  11
HETATM   11  O   UNK N   1      18.976  16.677   4.006  0.00  0.00    -0.307 OA
HETATM   12  H   UNK N   1      19.641  16.746   3.304  0.00  0.00     0.222 HD
ENDBRANCH   9  11
BRANCH   9  13
HETATM   13  O   UNK N   1      17.369  16.048   6.249  0.00  0.00    -0.307 OA
HETATM   14  H   UNK N   1      16.864  15.390   6.752  0.00  0.00     0.222 HD
ENDBRANCH   9  13
ENDBRANCH   8   9
ENDBRANCH   5   8
BRANCH   4  15
HETATM   15  C   UNK N   1      21.603  12.593   5.870  0.00  0.00     0.272 C 
HETATM   16  O   UNK N   1      22.260  11.580   5.790  0.00  0.00    -0.301 OA
ENDBRANCH   4  15
BRANCH   6  17
HETATM   17  C   UNK N   1      19.569  16.187   9.000  0.00  0.00     0.272 C 
HETATM   18  O   UNK N   1      18.354  16.253   9.066  0.00  0.00    -0.301 OA
ENDBRANCH   6  17
TORSDOF 6
ENDMDL
MODEL 6
REMARK VINA RESULT:      -5.1      1.815      3.725
REMARK  6 active torsions:
REMARK  status: ('A' for Active; 'I' for Inactive)
REMARK    1  A    between atoms: C_4  and  C_8 
REMARK    2  A    between atoms: C_5  and  O_10 
REMARK    3  A    between atoms: C_6  and  C_9 
REMARK    4  A    between atoms: O_10  and  P_11 
REMARK    5  A    between atoms: P_11  and  O_12 
REMARK    6  A    between atoms: P_11  and  O_13 
ROOT
HETATM    1  C   UNK N   1      34.499  10.167  15.959  0.00  0.00     0.024 A 
HETATM    2  C   UNK N   1      35.147  10.588  17.107  0.00  0.00    -0.060 A 
HETATM    3  C   UNK N   1      35.633  11.884  17.187  0.00  0.00     0.024 A 
HETATM    4  C   UNK N   1      35.498  12.795  16.134  0.00  0.00     0.037 A 
HETATM    5  C   UNK N   1      34.813  12.371  14.928  0.00  0.00     0.107 A 
HETATM    6  C   UNK N   1      34.324  11.031  14.885  0.00  0.00     0.037 A 
HETATM    7  C   UNK N   1      35.333   9.649  18.243  0.00  0.00     0.048 C 
ENDROOT
BRANCH   5   8
HETATM    8  O   UNK N   1      34.568  13.118  13.813  0.00  0.00    -0.253 OA
BRANCH   8   9
HETATM    9  P   UNK N   1      35.384  13.618  12.380  0.00  0.00     0.396 P 
HETATM   10  O   UNK N   1      34.554  14.754  11.726  0.00  0.00    -0.631 OA
BRANCH   9  11
HETATM   11  O   UNK N   1      35.666  12.354  11.221  0.00  0.00    -0.307 OA
HETATM   12  H   UNK N   1      36.076  11.478  11.285  0.00  0.00     0.222 HD
ENDBRANCH   9  11
BRANCH   9  13
HETATM   13  O   UNK N   1      36.902  14.328  12.829  0.00  0.00    -0.307 OA
HETATM   14  H   UNK N   1      37.732  13.933  12.520  0.00  0.00     0.222 HD
ENDBRANCH   9  13
ENDBRANCH   8   9
ENDBRANCH   5   8
BRANCH   4  15
HETATM   15  C   UNK N   1      36.108  14.104  16.441  0.00  0.00     0.272 C 
HETATM   16  O   UNK N   1      37.008  14.611  15.813  0.00  0.00    -0.301 OA
ENDBRANCH   4  15
BRANCH   6  17
HETATM   17  C   UNK N   1      33.622  10.476  13.702  0.00  0.00     0.272 C 
HETATM   18  O   UNK N   1      34.213  10.085  12.710  0.00  0.00    -0.301 OA
ENDBRANCH   6  17
TORSDOF 6
ENDMDL
MODEL 7
REMARK VINA RESULT:      -5.0     18.804     20.394
REMARK  6 active torsions:
REMARK  status: ('A' for Active; 'I' for Inactive)
REMARK    1  A    between atoms: C_4  and  C_8 
REMARK    2  A    between atoms: C_5  and  O_10 
REMARK    3  A    between atoms: C_6  and  C_9 
REMARK    4  A    between atoms: O_10  and  P_11 
REMARK    5  A    between atoms: P_11  and  O_12 
REMARK    6  A    between atoms: P_11  and  O_13 
ROOT
HETATM    1  C   UNK N   1      24.692  18.722   4.101  0.00  0.00     0.024 A 
HETATM    2  C   UNK N   1      24.836  19.908   3.402  0.00  0.00    -0.060 A 
HETATM    3  C   UNK N   1      23.715  20.548   2.897  0.00  0.00     0.024 A 
HETATM    4  C   UNK N   1      22.426  20.030   3.060  0.00  0.00     0.037 A 
HETATM    5  C   UNK N   1      22.259  18.792   3.797  0.00  0.00     0.107 A 
HETATM    6  C   UNK N   1      23.436  18.165   4.306  0.00  0.00     0.037 A 
HETATM    7  C   UNK N   1      26.187  20.485   3.186  0.00  0.00     0.048 C 
ENDROOT
BRANCH   5   8
HETATM    8  O   UNK N   1      21.089  18.148   4.075  0.00  0.00    -0.253 OA
BRANCH   8   9
HETATM    9  P   UNK N   1      19.800  17.374   3.232  0.00  0.00     0.396 P 
HETATM   10  O   UNK N   1      20.415  16.291   2.305  0.00  0.00    -0.631 OA
BRANCH   9  11
HETATM   11  O   UNK N   1      18.791  18.440   2.302  0.00  0.00    -0.307 OA
HETATM   12  H   UNK N   1      18.749  18.654   1.358  0.00  0.00     0.222 HD
ENDBRANCH   9  11
BRANCH   9  13
HETATM   13  O   UNK N   1      18.822  16.522   4.383  0.00  0.00    -0.307 OA
HETATM   14  H   UNK N   1      18.000  16.094   4.097  0.00  0.00     0.222 HD
ENDBRANCH   9  13
ENDBRANCH   8   9
ENDBRANCH   5   8
BRANCH   4  15
HETATM   15  C   UNK N   1      21.395  20.873   2.420  0.00  0.00     0.272 C 
HETATM   16  O   UNK N   1      21.214  20.956   1.228  0.00  0.00    -0.301 OA
ENDBRANCH   4  15
BRANCH   6  17
HETATM   17  C   UNK N   1      23.397  16.889   5.060  0.00  0.00     0.272 C 
HETATM   18  O   UNK N   1      23.419  15.800   4.513  0.00  0.00    -0.301 OA
ENDBRANCH   6  17
TORSDOF 6
ENDMDL
MODEL 8
REMARK VINA RESULT:      -5.0     16.063     17.363
REMARK  6 active torsions:
REMARK  status: ('A' for Active; 'I' for Inactive)
REMARK    1  A    between atoms: C_4  and  C_8 
REMARK    2  A    between atoms: C_5  and  O_10 
REMARK    3  A    between atoms: C_6  and  C_9 
REMARK    4  A    between atoms: O_10  and  P_11 
REMARK    5  A    between atoms: P_11  and  O_12 
REMARK    6  A    between atoms: P_11  and  O_13 
ROOT
HETATM    1  C   UNK N   1      22.470  13.566   8.535  0.00  0.00     0.024 A 
HETATM    2  C   UNK N   1      21.592  13.531   9.604  0.00  0.00    -0.060 A 
HETATM    3  C   UNK N   1      20.522  14.411   9.644  0.00  0.00     0.024 A 
HETATM    4  C   UNK N   1      20.295  15.352   8.634  0.00  0.00     0.037 A 
HETATM    5  C   UNK N   1      21.201  15.395   7.503  0.00  0.00     0.107 A 
HETATM    6  C   UNK N   1      22.289  14.470   7.496  0.00  0.00     0.037 A 
HETATM    7  C   UNK N   1      21.804  12.563  10.710  0.00  0.00     0.048 C 
ENDROOT
BRANCH   5   8
HETATM    8  O   UNK N   1      21.132  16.222   6.421  0.00  0.00    -0.253 OA
BRANCH   8   9
HETATM    9  P   UNK N   1      21.572  17.830   5.985  0.00  0.00     0.396 P 
HETATM   10  O   UNK N   1      20.845  18.185   4.660  0.00  0.00    -0.631 OA
BRANCH   9  11
HETATM   11  O   UNK N   1      23.279  18.098   5.808  0.00  0.00    -0.307 OA
HETATM   12  H   UNK N   1      23.892  18.741   6.196  0.00  0.00     0.222 HD
ENDBRANCH   9  11
BRANCH   9  13
HETATM   13  O   UNK N   1      20.947  18.917   7.184  0.00  0.00    -0.307 OA
HETATM   14  H   UNK N   1      21.067  18.720   8.126  0.00  0.00     0.222 HD
ENDBRANCH   9  13
ENDBRANCH   8   9
ENDBRANCH   5   8
BRANCH   4  15
HETATM   15  C   UNK N   1      19.109  16.191   8.902  0.00  0.00     0.272 C 
HETATM   16  O   UNK N   1      19.087  17.398   8.835  0.00  0.00    -0.301 OA
ENDBRANCH   4  15
BRANCH   6  17
HETATM   17  C   UNK N   1      23.292  14.427   6.404  0.00  0.00     0.272 C 
HETATM   18  O   UNK N   1      24.234  15.198   6.345  0.00  0.00    -0.301 OA
ENDBRANCH   6  17
TORSDOF 6
ENDMDL
MODEL 9
REMARK VINA RESULT:      -5.0      9.954     11.750
REMARK  6 active torsions:
REMARK  status: ('A' for Active; 'I' for Inactive)
REMARK    1  A    between atoms: C_4  and  C_8 
REMARK    2  A    between atoms: C_5  and  O_10 
REMARK    3  A    between atoms: C_6  and  C_9 
REMARK    4  A    between atoms: O_10  and  P_11 
REMARK    5  A    between atoms: P_11  and  O_12 
REMARK    6  A    between atoms: P_11  and  O_13 
ROOT
HETATM    1  C   UNK N   1      30.934  17.242   5.485  0.00  0.00     0.024 A 
HETATM    2  C   UNK N   1      29.624  17.408   5.900  0.00  0.00    -0.060 A 
HETATM    3  C   UNK N   1      29.344  17.554   7.250  0.00  0.00     0.024 A 
HETATM    4  C   UNK N   1      30.347  17.532   8.224  0.00  0.00     0.037 A 
HETATM    5  C   UNK N   1      31.726  17.367   7.804  0.00  0.00     0.107 A 
HETATM    6  C   UNK N   1      31.974  17.225   6.405  0.00  0.00     0.037 A 
HETATM    7  C   UNK N   1      28.523  17.417   4.903  0.00  0.00     0.048 C 
ENDROOT
BRANCH   5   8
HETATM    8  O   UNK N   1      32.833  17.342   8.598  0.00  0.00    -0.253 OA
BRANCH   8   9
HETATM    9  P   UNK N   1      33.745  16.205   9.520  0.00  0.00     0.396 P 
HETATM   10  O   UNK N   1      34.666  15.424   8.544  0.00  0.00    -0.631 OA
BRANCH   9  11
HETATM   11  O   UNK N   1      32.794  15.089  10.450  0.00  0.00    -0.307 OA
HETATM   12  H   UNK N   1      32.466  14.194  10.276  0.00  0.00     0.222 HD
ENDBRANCH   9  11
BRANCH   9  13
HETATM   13  O   UNK N   1      34.801  17.079  10.583  0.00  0.00    -0.307 OA
HETATM   14  H   UNK N   1      34.543  17.231  11.506  0.00  0.00     0.222 HD
ENDBRANCH   9  13
ENDBRANCH   8   9
ENDBRANCH   5   8
BRANCH   4  15
HETATM   15  C   UNK N   1      29.809  17.686   9.591  0.00  0.00     0.272 C 
HETATM   16  O   UNK N   1      29.613  18.745  10.141  0.00  0.00    -0.301 OA
ENDBRANCH   4  15
BRANCH   6  17
HETATM   17  C   UNK N   1      33.338  17.034   5.853  0.00  0.00     0.272 C 
HETATM   18  O   UNK N   1      34.214  17.874   5.959  0.00  0.00    -0.301 OA
ENDBRANCH   6  17
TORSDOF 6
ENDMDL
