REMARK  6 active torsions:
REMARK  status: ('A' for Active; 'I' for Inactive)
REMARK    1  A    between atoms: C_4  and  C_8 
REMARK    2  A    between atoms: C_5  and  O_10 
REMARK    3  A    between atoms: C_6  and  C_9 
REMARK    4  A    between atoms: O_10  and  P_11 
REMARK    5  A    between atoms: P_11  and  O_12 
REMARK    6  A    between atoms: P_11  and  O_13 
ROOT
HETATM    1  C   UNK N   1       2.972   0.578  -0.509  0.00  0.00     0.024 A 
HETATM    2  C   UNK N   1       3.050  -0.804  -0.522  0.00  0.00    -0.060 A 
HETATM    3  C   UNK N   1       1.897  -1.559  -0.377  0.00  0.00     0.024 A 
HETATM    4  C   UNK N   1       0.639  -0.971  -0.208  0.00  0.00     0.037 A 
HETATM    5  C   UNK N   1       0.540   0.476  -0.201  0.00  0.00     0.107 A 
HETATM    6  C   UNK N   1       1.749   1.219  -0.357  0.00  0.00     0.037 A 
HETATM    7  C   UNK N   1       4.367  -1.473  -0.678  0.00  0.00     0.048 C 
ENDROOT
BRANCH   5   8
HETATM    8  O   UNK N   1      -0.592   1.225  -0.070  0.00  0.00    -0.253 OA
BRANCH   8   9
HETATM    9  P   UNK N   1      -2.247   1.013   0.363  0.00  0.00     0.396 P 
HETATM   10  O   UNK N   1      -2.298   0.475   1.818  0.00  0.00    -0.631 OA
BRANCH   9  11
HETATM   11  O   UNK N   1      -3.147  -0.040  -0.685  0.00  0.00    -0.307 OA
HETATM   12  H   UNK N   1      -3.907   0.101  -1.270  0.00  0.00     0.222 HD
ENDBRANCH   9  11
BRANCH   9  13
HETATM   13  O   UNK N   1      -3.011   2.570   0.399  0.00  0.00    -0.307 OA
HETATM   14  H   UNK N   1      -2.470   3.375   0.420  0.00  0.00     0.222 HD
ENDBRANCH   9  13
ENDBRANCH   8   9
ENDBRANCH   5   8
BRANCH   4  15
HETATM   15  C   UNK N   1      -0.435  -1.973  -0.055  0.00  0.00     0.272 C 
HETATM   16  O   UNK N   1      -1.550  -1.735   0.348  0.00  0.00    -0.301 OA
ENDBRANCH   4  15
BRANCH   6  17
HETATM   17  C   UNK N   1       1.780   2.702  -0.350  0.00  0.00     0.272 C 
HETATM   18  O   UNK N   1       0.780   3.380  -0.190  0.00  0.00    -0.301 OA
ENDBRANCH   6  17
TORSDOF 6
