MODEL 1
REMARK VINA RESULT:      -6.0      0.000      0.000
REMARK  6 active torsions:
REMARK  status: ('A' for Active; 'I' for Inactive)
REMARK    1  A    between atoms: C_5  and  C_7 
REMARK    2  A    between atoms: C_7  and  P_14 
REMARK    3  A    between atoms: C_7  and  N_18 
REMARK    4  A    between atoms: C_8  and  C_19 
REMARK    5  A    between atoms: P_14  and  O_17 
REMARK    6  A    between atoms: N_18  and  C_19 
ROOT
HETATM    1  P   UNK N   1      28.736  17.905   9.185  0.00  0.00     0.263 P 
HETATM    2  O   UNK N   1      27.883  16.859   9.950  0.00  0.00    -0.652 OA
HETATM    3  O   UNK N   1      27.588  19.094   8.660  0.00  0.00    -0.328 OA
HETATM    4  H   UNK N   1      26.984  19.792   8.362  0.00  0.00     0.220 HD
ENDROOT
BRANCH   1   5
HETATM    5  C   UNK N   1      29.724  17.080   7.817  0.00  0.00     0.223 C 
BRANCH   5   6
HETATM    6  C   UNK N   1      31.200  17.043   8.153  0.00  0.00    -0.025 A 
HETATM    7  C   UNK N   1      31.770  15.854   8.646  0.00  0.00     0.010 A 
HETATM    8  C   UNK N   1      33.129  15.803   8.966  0.00  0.00     0.001 A 
HETATM    9  C   UNK N   1      33.935  16.931   8.792  0.00  0.00     0.000 A 
HETATM   10  C   UNK N   1      33.381  18.114   8.295  0.00  0.00     0.001 A 
HETATM   11  C   UNK N   1      32.022  18.166   7.977  0.00  0.00     0.010 A 
ENDBRANCH   5   6
BRANCH   5  12
HETATM   12  N   UNK N   1      29.458  17.703   6.508  0.00  0.00    -0.400 N 
HETATM   13  H   UNK N   1      29.307  18.703   6.378  0.00  0.00     0.154 HD
BRANCH  12  14
HETATM   14  C   UNK N   1      29.431  16.735   5.415  0.00  0.00     0.154 C 
BRANCH  14  15
HETATM   15  C   UNK N   1      30.819  16.497   4.933  0.00  0.00    -0.041 A 
HETATM   16  C   UNK N   1      31.364  15.210   4.992  0.00  0.00     0.009 A 
HETATM   17  C   UNK N   1      32.672  14.984   4.550  0.00  0.00     0.001 A 
HETATM   18  C   UNK N   1      33.433  16.043   4.045  0.00  0.00     0.000 A 
HETATM   19  C   UNK N   1      32.887  17.329   3.982  0.00  0.00     0.001 A 
HETATM   20  C   UNK N   1      31.581  17.556   4.427  0.00  0.00     0.009 A 
ENDBRANCH  14  15
ENDBRANCH  12  14
ENDBRANCH   5  12
ENDBRANCH   1   5
BRANCH   1  21
HETATM   21  O   UNK N   1      29.699  18.647  10.425  0.00  0.00    -0.328 OA
HETATM   22  H   UNK N   1      30.114  18.129  11.132  0.00  0.00     0.220 HD
ENDBRANCH   1  21
TORSDOF 6
ENDMDL
MODEL 2
REMARK VINA RESULT:      -5.9      2.331      3.840
REMARK  6 active torsions:
REMARK  status: ('A' for Active; 'I' for Inactive)
REMARK    1  A    between atoms: C_5  and  C_7 
REMARK    2  A    between atoms: C_7  and  P_14 
REMARK    3  A    between atoms: C_7  and  N_18 
REMARK    4  A    between atoms: C_8  and  C_19 
REMARK    5  A    between atoms: P_14  and  O_17 
REMARK    6  A    between atoms: N_18  and  C_19 
ROOT
HETATM    1  P   UNK N   1      29.228  17.579   9.661  0.00  0.00     0.263 P 
HETATM    2  O   UNK N   1      29.741  18.944  10.188  0.00  0.00    -0.652 OA
HETATM    3  O   UNK N   1      29.390  16.507  11.015  0.00  0.00    -0.328 OA
HETATM    4  H   UNK N   1      29.447  15.877  11.751  0.00  0.00     0.220 HD
ENDROOT
BRANCH   1   5
HETATM    5  C   UNK N   1      30.167  17.071   8.115  0.00  0.00     0.223 C 
BRANCH   5   6
HETATM    6  C   UNK N   1      31.649  16.935   8.395  0.00  0.00    -0.025 A 
HETATM    7  C   UNK N   1      32.150  15.722   8.903  0.00  0.00     0.010 A 
HETATM    8  C   UNK N   1      33.514  15.579   9.173  0.00  0.00     0.001 A 
HETATM    9  C   UNK N   1      34.392  16.639   8.933  0.00  0.00     0.000 A 
HETATM   10  C   UNK N   1      33.906  17.845   8.420  0.00  0.00     0.001 A 
HETATM   11  C   UNK N   1      32.543  17.988   8.153  0.00  0.00     0.010 A 
ENDBRANCH   5   6
BRANCH   5  12
HETATM   12  N   UNK N   1      29.886  17.981   6.990  0.00  0.00    -0.400 N 
HETATM   13  H   UNK N   1      30.388  18.854   6.830  0.00  0.00     0.154 HD
BRANCH  12  14
HETATM   14  C   UNK N   1      28.811  17.499   6.127  0.00  0.00     0.154 C 
BRANCH  14  15
HETATM   15  C   UNK N   1      28.042  18.660   5.602  0.00  0.00    -0.041 A 
HETATM   16  C   UNK N   1      27.720  19.723   6.453  0.00  0.00     0.009 A 
HETATM   17  C   UNK N   1      26.988  20.811   5.965  0.00  0.00     0.001 A 
HETATM   18  C   UNK N   1      26.582  20.838   4.627  0.00  0.00     0.000 A 
HETATM   19  C   UNK N   1      26.907  19.778   3.776  0.00  0.00     0.001 A 
HETATM   20  C   UNK N   1      27.636  18.689   4.263  0.00  0.00     0.009 A 
ENDBRANCH  14  15
ENDBRANCH  12  14
ENDBRANCH   5  12
ENDBRANCH   1   5
BRANCH   1  21
HETATM   21  O   UNK N   1      27.528  17.834   9.422  0.00  0.00    -0.328 OA
HETATM   22  H   UNK N   1      26.864  17.480  10.035  0.00  0.00     0.220 HD
ENDBRANCH   1  21
TORSDOF 6
ENDMDL
MODEL 3
REMARK VINA RESULT:      -5.8     14.542     16.380
REMARK  6 active torsions:
REMARK  status: ('A' for Active; 'I' for Inactive)
REMARK    1  A    between atoms: C_5  and  C_7 
REMARK    2  A    between atoms: C_7  and  P_14 
REMARK    3  A    between atoms: C_7  and  N_18 
REMARK    4  A    between atoms: C_8  and  C_19 
REMARK    5  A    between atoms: P_14  and  O_17 
REMARK    6  A    between atoms: N_18  and  C_19 
ROOT
HETATM    1  P   UNK N   1      25.711  22.826  -7.365  0.00  0.00     0.263 P 
HETATM    2  O   UNK N   1      24.876  22.025  -6.331  0.00  0.00    -0.652 OA
HETATM    3  O   UNK N   1      26.905  21.698  -7.920  0.00  0.00    -0.328 OA
HETATM    4  H   UNK N   1      27.579  21.095  -8.272  0.00  0.00     0.220 HD
ENDROOT
BRANCH   1   5
HETATM    5  C   UNK N   1      26.387  24.399  -6.591  0.00  0.00     0.223 C 
BRANCH   5   6
HETATM    6  C   UNK N   1      27.188  24.094  -5.343  0.00  0.00    -0.025 A 
HETATM    7  C   UNK N   1      28.505  23.614  -5.464  0.00  0.00     0.010 A 
HETATM    8  C   UNK N   1      29.258  23.322  -4.323  0.00  0.00     0.001 A 
HETATM    9  C   UNK N   1      28.710  23.513  -3.053  0.00  0.00     0.000 A 
HETATM   10  C   UNK N   1      27.406  23.998  -2.921  0.00  0.00     0.001 A 
HETATM   11  C   UNK N   1      26.653  24.287  -4.060  0.00  0.00     0.010 A 
ENDBRANCH   5   6
BRANCH   5  12
HETATM   12  N   UNK N   1      25.318  25.385  -6.350  0.00  0.00    -0.400 N 
HETATM   13  H   UNK N   1      24.473  25.183  -5.816  0.00  0.00     0.154 HD
BRANCH  12  14
HETATM   14  C   UNK N   1      25.597  26.683  -6.958  0.00  0.00     0.154 C 
BRANCH  14  15
HETATM   15  C   UNK N   1      26.111  27.615  -5.918  0.00  0.00    -0.041 A 
HETATM   16  C   UNK N   1      25.458  27.708  -4.685  0.00  0.00     0.009 A 
HETATM   17  C   UNK N   1      25.932  28.591  -3.708  0.00  0.00     0.001 A 
HETATM   18  C   UNK N   1      27.059  29.378  -3.964  0.00  0.00     0.000 A 
HETATM   19  C   UNK N   1      27.715  29.282  -5.195  0.00  0.00     0.001 A 
HETATM   20  C   UNK N   1      27.240  28.402  -6.173  0.00  0.00     0.009 A 
ENDBRANCH  14  15
ENDBRANCH  12  14
ENDBRANCH   5  12
ENDBRANCH   1   5
BRANCH   1  21
HETATM   21  O   UNK N   1      24.610  23.084  -8.682  0.00  0.00    -0.328 OA
HETATM   22  H   UNK N   1      23.665  23.248  -8.537  0.00  0.00     0.220 HD
ENDBRANCH   1  21
TORSDOF 6
ENDMDL
MODEL 4
REMARK VINA RESULT:      -5.6     14.758     16.615
REMARK  6 active torsions:
REMARK  status: ('A' for Active; 'I' for Inactive)
REMARK    1  A    between atoms: C_5  and  C_7 
REMARK    2  A    between atoms: C_7  and  P_14 
REMARK    3  A    between atoms: C_7  and  N_18 
REMARK    4  A    between atoms: C_8  and  C_19 
REMARK    5  A    between atoms: P_14  and  O_17 
REMARK    6  A    between atoms: N_18  and  C_19 
ROOT
HETATM    1  P   UNK N   1      25.685  22.641  -7.673  0.00  0.00     0.263 P 
HETATM    2  O   UNK N   1      24.798  22.948  -8.908  0.00  0.00    -0.652 OA
HETATM    3  O   UNK N   1      24.587  21.962  -6.515  0.00  0.00    -0.328 OA
HETATM    4  H   UNK N   1      24.012  21.561  -5.843  0.00  0.00     0.220 HD
ENDROOT
BRANCH   1   5
HETATM    5  C   UNK N   1      26.594  24.186  -7.111  0.00  0.00     0.223 C 
BRANCH   5   6
HETATM    6  C   UNK N   1      27.260  23.972  -5.768  0.00  0.00    -0.025 A 
HETATM    7  C   UNK N   1      26.521  24.176  -4.588  0.00  0.00     0.010 A 
HETATM    8  C   UNK N   1      27.120  23.987  -3.339  0.00  0.00     0.001 A 
HETATM    9  C   UNK N   1      28.456  23.588  -3.254  0.00  0.00     0.000 A 
HETATM   10  C   UNK N   1      29.195  23.373  -4.420  0.00  0.00     0.001 A 
HETATM   11  C   UNK N   1      28.598  23.564  -5.668  0.00  0.00     0.010 A 
ENDBRANCH   5   6
BRANCH   5  12
HETATM   12  N   UNK N   1      25.710  25.366  -7.122  0.00  0.00    -0.400 N 
HETATM   13  H   UNK N   1      24.717  25.331  -6.891  0.00  0.00     0.154 HD
BRANCH  12  14
HETATM   14  C   UNK N   1      26.407  26.592  -7.499  0.00  0.00     0.154 C 
BRANCH  14  15
HETATM   15  C   UNK N   1      26.435  27.522  -6.337  0.00  0.00    -0.041 A 
HETATM   16  C   UNK N   1      25.489  27.386  -5.316  0.00  0.00     0.009 A 
HETATM   17  C   UNK N   1      25.504  28.264  -4.227  0.00  0.00     0.001 A 
HETATM   18  C   UNK N   1      26.469  29.275  -4.157  0.00  0.00     0.000 A 
HETATM   19  C   UNK N   1      27.417  29.408  -5.175  0.00  0.00     0.001 A 
HETATM   20  C   UNK N   1      27.400  28.533  -6.265  0.00  0.00     0.009 A 
ENDBRANCH  14  15
ENDBRANCH  12  14
ENDBRANCH   5  12
ENDBRANCH   1   5
BRANCH   1  21
HETATM   21  O   UNK N   1      26.715  21.350  -8.207  0.00  0.00    -0.328 OA
HETATM   22  H   UNK N   1      27.515  21.096  -7.720  0.00  0.00     0.220 HD
ENDBRANCH   1  21
TORSDOF 6
ENDMDL
MODEL 5
REMARK VINA RESULT:      -5.5      3.101      4.941
REMARK  6 active torsions:
REMARK  status: ('A' for Active; 'I' for Inactive)
REMARK    1  A    between atoms: C_5  and  C_7 
REMARK    2  A    between atoms: C_7  and  P_14 
REMARK    3  A    between atoms: C_7  and  N_18 
REMARK    4  A    between atoms: C_8  and  C_19 
REMARK    5  A    between atoms: P_14  and  O_17 
REMARK    6  A    between atoms: N_18  and  C_19 
ROOT
HETATM    1  P   UNK N   1      34.138  17.107   8.475  0.00  0.00     0.263 P 
HETATM    2  O   UNK N   1      35.188  16.098   7.940  0.00  0.00    -0.652 OA
HETATM    3  O   UNK N   1      34.304  17.027  10.200  0.00  0.00    -0.328 OA
HETATM    4  H   UNK N   1      34.376  17.027  11.167  0.00  0.00     0.220 HD
ENDROOT
BRANCH   1   5
HETATM    5  C   UNK N   1      32.429  16.697   7.811  0.00  0.00     0.223 C 
BRANCH   5   6
HETATM    6  C   UNK N   1      32.460  16.489   6.312  0.00  0.00    -0.025 A 
HETATM    7  C   UNK N   1      32.099  15.237   5.779  0.00  0.00     0.010 A 
HETATM    8  C   UNK N   1      32.127  15.024   4.397  0.00  0.00     0.001 A 
HETATM    9  C   UNK N   1      32.506  16.055   3.535  0.00  0.00     0.000 A 
HETATM   10  C   UNK N   1      32.856  17.305   4.054  0.00  0.00     0.001 A 
HETATM   11  C   UNK N   1      32.832  17.517   5.434  0.00  0.00     0.010 A 
ENDBRANCH   5   6
BRANCH   5  12
HETATM   12  N   UNK N   1      31.434  17.706   8.221  0.00  0.00    -0.400 N 
HETATM   13  H   UNK N   1      31.672  18.666   8.469  0.00  0.00     0.154 HD
BRANCH  12  14
HETATM   14  C   UNK N   1      30.071  17.183   8.236  0.00  0.00     0.154 C 
BRANCH  14  15
HETATM   15  C   UNK N   1      29.220  17.996   7.326  0.00  0.00    -0.041 A 
HETATM   16  C   UNK N   1      28.456  19.047   7.844  0.00  0.00     0.009 A 
HETATM   17  C   UNK N   1      27.646  19.807   6.993  0.00  0.00     0.001 A 
HETATM   18  C   UNK N   1      27.605  19.521   5.625  0.00  0.00     0.000 A 
HETATM   19  C   UNK N   1      28.373  18.474   5.106  0.00  0.00     0.001 A 
HETATM   20  C   UNK N   1      29.179  17.711   5.956  0.00  0.00     0.009 A 
ENDBRANCH  14  15
ENDBRANCH  12  14
ENDBRANCH   5  12
ENDBRANCH   1   5
BRANCH   1  21
HETATM   21  O   UNK N   1      34.753  18.653   7.982  0.00  0.00    -0.328 OA
HETATM   22  H   UNK N   1      34.171  19.359   7.660  0.00  0.00     0.220 HD
ENDBRANCH   1  21
TORSDOF 6
ENDMDL
MODEL 6
REMARK VINA RESULT:      -5.5     12.720     14.773
REMARK  6 active torsions:
REMARK  status: ('A' for Active; 'I' for Inactive)
REMARK    1  A    between atoms: C_5  and  C_7 
REMARK    2  A    between atoms: C_7  and  P_14 
REMARK    3  A    between atoms: C_7  and  N_18 
REMARK    4  A    between atoms: C_8  and  C_19 
REMARK    5  A    between atoms: P_14  and  O_17 
REMARK    6  A    between atoms: N_18  and  C_19 
ROOT
HETATM    1  P   UNK N   1      30.745  23.614  -3.264  0.00  0.00     0.263 P 
HETATM    2  O   UNK N   1      30.885  23.023  -1.836  0.00  0.00    -0.652 OA
HETATM    3  O   UNK N   1      30.731  25.331  -3.019  0.00  0.00    -0.328 OA
HETATM    4  H   UNK N   1      30.737  26.297  -2.930  0.00  0.00     0.220 HD
ENDROOT
BRANCH   1   5
HETATM    5  C   UNK N   1      29.231  22.911  -4.125  0.00  0.00     0.223 C 
BRANCH   5   6
HETATM    6  C   UNK N   1      29.625  21.965  -5.240  0.00  0.00    -0.025 A 
HETATM    7  C   UNK N   1      30.565  20.948  -4.986  0.00  0.00     0.010 A 
HETATM    8  C   UNK N   1      30.945  20.068  -6.004  0.00  0.00     0.001 A 
HETATM    9  C   UNK N   1      30.388  20.188  -7.279  0.00  0.00     0.000 A 
HETATM   10  C   UNK N   1      29.447  21.188  -7.539  0.00  0.00     0.001 A 
HETATM   11  C   UNK N   1      29.069  22.068  -6.523  0.00  0.00     0.010 A 
ENDBRANCH   5   6
BRANCH   5  12
HETATM   12  N   UNK N   1      28.326  23.980  -4.585  0.00  0.00    -0.400 N 
HETATM   13  H   UNK N   1      28.352  24.377  -5.524  0.00  0.00     0.154 HD
BRANCH  12  14
HETATM   14  C   UNK N   1      27.389  24.412  -3.552  0.00  0.00     0.154 C 
BRANCH  14  15
HETATM   15  C   UNK N   1      26.551  25.523  -4.079  0.00  0.00    -0.041 A 
HETATM   16  C   UNK N   1      26.428  26.708  -3.347  0.00  0.00     0.009 A 
HETATM   17  C   UNK N   1      25.632  27.751  -3.834  0.00  0.00     0.001 A 
HETATM   18  C   UNK N   1      24.963  27.610  -5.055  0.00  0.00     0.000 A 
HETATM   19  C   UNK N   1      25.090  26.427  -5.789  0.00  0.00     0.001 A 
HETATM   20  C   UNK N   1      25.883  25.383  -5.301  0.00  0.00     0.009 A 
ENDBRANCH  14  15
ENDBRANCH  12  14
ENDBRANCH   5  12
ENDBRANCH   1   5
BRANCH   1  21
HETATM   21  O   UNK N   1      32.256  23.227  -4.027  0.00  0.00    -0.328 OA
HETATM   22  H   UNK N   1      32.436  23.455  -4.953  0.00  0.00     0.220 HD
ENDBRANCH   1  21
TORSDOF 6
ENDMDL
MODEL 7
REMARK VINA RESULT:      -5.5     13.142     15.072
REMARK  6 active torsions:
REMARK  status: ('A' for Active; 'I' for Inactive)
REMARK    1  A    between atoms: C_5  and  C_7 
REMARK    2  A    between atoms: C_7  and  P_14 
REMARK    3  A    between atoms: C_7  and  N_18 
REMARK    4  A    between atoms: C_8  and  C_19 
REMARK    5  A    between atoms: P_14  and  O_17 
REMARK    6  A    between atoms: N_18  and  C_19 
ROOT
HETATM    1  P   UNK N   1      30.365  22.878  -3.202  0.00  0.00     0.263 P 
HETATM    2  O   UNK N   1      30.148  21.359  -3.435  0.00  0.00    -0.652 OA
HETATM    3  O   UNK N   1      30.450  23.040  -1.478  0.00  0.00    -0.328 OA
HETATM    4  H   UNK N   1      30.522  23.174  -0.519  0.00  0.00     0.220 HD
ENDROOT
BRANCH   1   5
HETATM    5  C   UNK N   1      29.010  23.875  -4.038  0.00  0.00     0.223 C 
BRANCH   5   6
HETATM    6  C   UNK N   1      29.543  25.192  -4.561  0.00  0.00    -0.025 A 
HETATM    7  C   UNK N   1      29.419  25.496  -5.930  0.00  0.00     0.010 A 
HETATM    8  C   UNK N   1      29.910  26.705  -6.432  0.00  0.00     0.001 A 
HETATM    9  C   UNK N   1      30.520  27.624  -5.576  0.00  0.00     0.000 A 
HETATM   10  C   UNK N   1      30.639  27.337  -4.213  0.00  0.00     0.001 A 
HETATM   11  C   UNK N   1      30.152  26.128  -3.712  0.00  0.00     0.010 A 
ENDBRANCH   5   6
BRANCH   5  12
HETATM   12  N   UNK N   1      27.843  24.048  -3.154  0.00  0.00    -0.400 N 
HETATM   13  H   UNK N   1      27.913  24.170  -2.144  0.00  0.00     0.154 HD
BRANCH  12  14
HETATM   14  C   UNK N   1      26.575  24.025  -3.878  0.00  0.00     0.154 C 
BRANCH  14  15
HETATM   15  C   UNK N   1      26.165  25.419  -4.200  0.00  0.00    -0.041 A 
HETATM   16  C   UNK N   1      26.376  26.438  -3.265  0.00  0.00     0.009 A 
HETATM   17  C   UNK N   1      25.982  27.748  -3.560  0.00  0.00     0.001 A 
HETATM   18  C   UNK N   1      25.383  28.039  -4.789  0.00  0.00     0.000 A 
HETATM   19  C   UNK N   1      25.176  27.022  -5.725  0.00  0.00     0.001 A 
HETATM   20  C   UNK N   1      25.566  25.712  -5.430  0.00  0.00     0.009 A 
ENDBRANCH  14  15
ENDBRANCH  12  14
ENDBRANCH   5  12
ENDBRANCH   1   5
BRANCH   1  21
HETATM   21  O   UNK N   1      31.962  23.172  -3.815  0.00  0.00    -0.328 OA
HETATM   22  H   UNK N   1      32.122  23.386  -4.748  0.00  0.00     0.220 HD
ENDBRANCH   1  21
TORSDOF 6
ENDMDL
MODEL 8
REMARK VINA RESULT:      -5.4     13.371     15.351
REMARK  6 active torsions:
REMARK  status: ('A' for Active; 'I' for Inactive)
REMARK    1  A    between atoms: C_5  and  C_7 
REMARK    2  A    between atoms: C_7  and  P_14 
REMARK    3  A    between atoms: C_7  and  N_18 
REMARK    4  A    between atoms: C_8  and  C_19 
REMARK    5  A    between atoms: P_14  and  O_17 
REMARK    6  A    between atoms: N_18  and  C_19 
ROOT
HETATM    1  P   UNK N   1      30.273  23.288  -3.176  0.00  0.00     0.263 P 
HETATM    2  O   UNK N   1      31.720  23.519  -3.688  0.00  0.00    -0.652 OA
HETATM    3  O   UNK N   1      29.855  21.713  -3.768  0.00  0.00    -0.328 OA
HETATM    4  H   UNK N   1      29.585  20.828  -4.064  0.00  0.00     0.220 HD
ENDROOT
BRANCH   1   5
HETATM    5  C   UNK N   1      29.145  24.683  -3.733  0.00  0.00     0.223 C 
BRANCH   5   6
HETATM    6  C   UNK N   1      28.104  24.186  -4.715  0.00  0.00    -0.025 A 
HETATM    7  C   UNK N   1      26.750  24.154  -4.332  0.00  0.00     0.010 A 
HETATM    8  C   UNK N   1      25.775  23.694  -5.222  0.00  0.00     0.001 A 
HETATM    9  C   UNK N   1      26.138  23.270  -6.502  0.00  0.00     0.000 A 
HETATM   10  C   UNK N   1      27.479  23.307  -6.896  0.00  0.00     0.001 A 
HETATM   11  C   UNK N   1      28.453  23.763  -6.006  0.00  0.00     0.010 A 
ENDBRANCH   5   6
BRANCH   5  12
HETATM   12  N   UNK N   1      29.916  25.825  -4.258  0.00  0.00    -0.400 N 
HETATM   13  H   UNK N   1      30.688  25.730  -4.917  0.00  0.00     0.154 HD
BRANCH  12  14
HETATM   14  C   UNK N   1      29.458  27.107  -3.731  0.00  0.00     0.154 C 
BRANCH  14  15
HETATM   15  C   UNK N   1      28.082  27.381  -4.228  0.00  0.00    -0.041 A 
HETATM   16  C   UNK N   1      27.036  27.557  -3.317  0.00  0.00     0.009 A 
HETATM   17  C   UNK N   1      25.740  27.804  -3.780  0.00  0.00     0.001 A 
HETATM   18  C   UNK N   1      25.490  27.881  -5.154  0.00  0.00     0.000 A 
HETATM   19  C   UNK N   1      26.536  27.710  -6.065  0.00  0.00     0.001 A 
HETATM   20  C   UNK N   1      27.832  27.459  -5.603  0.00  0.00     0.009 A 
ENDBRANCH  14  15
ENDBRANCH  12  14
ENDBRANCH   5  12
ENDBRANCH   1   5
BRANCH   1  21
HETATM   21  O   UNK N   1      30.454  23.148  -1.456  0.00  0.00    -0.328 OA
HETATM   22  H   UNK N   1      31.141  22.591  -1.055  0.00  0.00     0.220 HD
ENDBRANCH   1  21
TORSDOF 6
ENDMDL
MODEL 9
REMARK VINA RESULT:      -5.3      3.800      4.978
REMARK  6 active torsions:
REMARK  status: ('A' for Active; 'I' for Inactive)
REMARK    1  A    between atoms: C_5  and  C_7 
REMARK    2  A    between atoms: C_7  and  P_14 
REMARK    3  A    between atoms: C_7  and  N_18 
REMARK    4  A    between atoms: C_8  and  C_19 
REMARK    5  A    between atoms: P_14  and  O_17 
REMARK    6  A    between atoms: N_18  and  C_19 
ROOT
HETATM    1  P   UNK N   1      30.817  14.452   5.075  0.00  0.00     0.263 P 
HETATM    2  O   UNK N   1      31.455  13.904   6.380  0.00  0.00    -0.652 OA
HETATM    3  O   UNK N   1      31.878  13.905   3.817  0.00  0.00    -0.328 OA
HETATM    4  H   UNK N   1      32.433  13.605   3.080  0.00  0.00     0.220 HD
ENDROOT
BRANCH   1   5
HETATM    5  C   UNK N   1      30.587  16.313   5.183  0.00  0.00     0.223 C 
BRANCH   5   6
HETATM    6  C   UNK N   1      31.544  16.926   6.184  0.00  0.00    -0.025 A 
HETATM    7  C   UNK N   1      31.075  17.285   7.461  0.00  0.00     0.010 A 
HETATM    8  C   UNK N   1      31.943  17.857   8.397  0.00  0.00     0.001 A 
HETATM    9  C   UNK N   1      33.285  18.068   8.072  0.00  0.00     0.000 A 
HETATM   10  C   UNK N   1      33.763  17.706   6.810  0.00  0.00     0.001 A 
HETATM   11  C   UNK N   1      32.896  17.138   5.874  0.00  0.00     0.010 A 
ENDBRANCH   5   6
BRANCH   5  12
HETATM   12  N   UNK N   1      29.183  16.669   5.454  0.00  0.00    -0.400 N 
HETATM   13  H   UNK N   1      28.686  16.401   6.303  0.00  0.00     0.154 HD
BRANCH  12  14
HETATM   14  C   UNK N   1      28.577  17.445   4.375  0.00  0.00     0.154 C 
BRANCH  14  15
HETATM   15  C   UNK N   1      27.995  18.696   4.934  0.00  0.00    -0.041 A 
HETATM   16  C   UNK N   1      28.081  18.949   6.307  0.00  0.00     0.009 A 
HETATM   17  C   UNK N   1      27.525  20.118   6.837  0.00  0.00     0.001 A 
HETATM   18  C   UNK N   1      26.889  21.036   5.995  0.00  0.00     0.000 A 
HETATM   19  C   UNK N   1      26.808  20.785   4.622  0.00  0.00     0.001 A 
HETATM   20  C   UNK N   1      27.359  19.615   4.092  0.00  0.00     0.009 A 
ENDBRANCH  14  15
ENDBRANCH  12  14
ENDBRANCH   5  12
ENDBRANCH   1   5
BRANCH   1  21
HETATM   21  O   UNK N   1      29.343  13.549   4.919  0.00  0.00    -0.328 OA
HETATM   22  H   UNK N   1      28.748  13.664   4.161  0.00  0.00     0.220 HD
ENDBRANCH   1  21
TORSDOF 6
ENDMDL
