REMARK  4 active torsions:
REMARK  status: ('A' for Active; 'I' for Inactive)
REMARK    1  A    between atoms: C_6  and  O_22 
REMARK    2  A    between atoms: C_9  and  C_13 
REMARK    3  A    between atoms: C_13  and  O_14 
REMARK    4  A    between atoms: O_14  and  C_15 
ROOT
HETATM    1  C   UNK N   1       3.441  -2.322   0.005  0.00  0.00     0.098 A 
HETATM    2  C   UNK N   1       2.215  -3.173   0.005  0.00  0.00     0.202 A 
HETATM    3  C   UNK N   1       0.905  -2.496   0.001  0.00  0.00     0.100 A 
HETATM    4  C   UNK N   1       0.833  -1.139  -0.004  0.00  0.00     0.058 A 
HETATM    5  C   UNK N   1       2.034  -0.291  -0.005  0.00  0.00     0.218 A 
HETATM    6  C   UNK N   1       3.377  -0.967   0.000  0.00  0.00     0.123 A 
HETATM    7  N   UNK N   1      -0.338  -3.028   0.001  0.00  0.00    -0.350 N 
HETATM    8  C   UNK N   1      -1.208  -1.985  -0.003  0.00  0.00     0.017 A 
HETATM    9  C   UNK N   1      -0.497  -0.787  -0.006  0.00  0.00     0.005 A 
HETATM   10  O   UNK N   1       1.929   0.926  -0.009  0.00  0.00    -0.284 OA
HETATM   11  O   UNK N   1       2.305  -4.389   0.009  0.00  0.00    -0.286 OA
HETATM   12  C   UNK N   1      -0.678  -4.443   0.006  0.00  0.00     0.156 C 
HETATM   13  C   UNK N   1      -2.694  -2.131  -0.004  0.00  0.00     0.069 C 
ENDROOT
BRANCH   9  14
HETATM   14  C   UNK N   1      -0.913   0.646  -0.011  0.00  0.00     0.217 C 
BRANCH  14  15
HETATM   15  O   UNK N   1      -2.257   0.933  -0.005  0.00  0.00    -0.347 OA
BRANCH  15  16
HETATM   16  C   UNK N   1      -2.647   2.236  -0.001  0.00  0.00     0.069 A 
HETATM   17  C   UNK N   1      -4.007   2.561   0.003  0.00  0.00     0.037 A 
HETATM   18  C   UNK N   1      -4.409   3.903   0.008  0.00  0.00     0.003 A 
HETATM   19  C   UNK N   1      -3.455   4.927   0.008  0.00  0.00     0.000 A 
HETATM   20  C   UNK N   1      -2.096   4.614   0.004  0.00  0.00     0.003 A 
HETATM   21  C   UNK N   1      -1.694   3.280  -0.001  0.00  0.00     0.037 A 
ENDBRANCH  15  16
ENDBRANCH  14  15
ENDBRANCH   9  14
BRANCH   6  22
HETATM   22  O   UNK N   1       4.544  -0.267   0.000  0.00  0.00    -0.352 OA
HETATM   23  C   UNK N   1       4.632   1.106  -0.003  0.00  0.00     0.210 C 
ENDBRANCH   6  22
TORSDOF 4
