MODEL 1
REMARK VINA RESULT:      -6.8      0.000      0.000
REMARK  4 active torsions:
REMARK  status: ('A' for Active; 'I' for Inactive)
REMARK    1  A    between atoms: C_6  and  O_22 
REMARK    2  A    between atoms: C_9  and  C_13 
REMARK    3  A    between atoms: C_13  and  O_14 
REMARK    4  A    between atoms: O_14  and  C_15 
ROOT
HETATM    1  C   UNK N   1      22.414  17.796   5.330  0.00  0.00     0.098 A 
HETATM    2  C   UNK N   1      21.473  17.955   6.477  0.00  0.00     0.202 A 
HETATM    3  C   UNK N   1      21.081  16.743   7.221  0.00  0.00     0.100 A 
HETATM    4  C   UNK N   1      21.570  15.528   6.861  0.00  0.00     0.058 A 
HETATM    5  C   UNK N   1      22.498  15.360   5.733  0.00  0.00     0.218 A 
HETATM    6  C   UNK N   1      22.907  16.586   4.965  0.00  0.00     0.123 A 
HETATM    7  N   UNK N   1      20.254  16.616   8.283  0.00  0.00    -0.350 N 
HETATM    8  C   UNK N   1      20.222  15.295   8.596  0.00  0.00     0.017 A 
HETATM    9  C   UNK N   1      21.041  14.590   7.717  0.00  0.00     0.005 A 
HETATM   10  O   UNK N   1      22.916  14.250   5.439  0.00  0.00    -0.284 OA
HETATM   11  O   UNK N   1      21.048  19.056   6.781  0.00  0.00    -0.286 OA
HETATM   12  C   UNK N   1      19.536  17.687   8.959  0.00  0.00     0.156 C 
HETATM   13  C   UNK N   1      19.423  14.717   9.717  0.00  0.00     0.069 C 
ENDROOT
BRANCH   9  14
HETATM   14  C   UNK N   1      21.387  13.144   7.583  0.00  0.00     0.217 C 
BRANCH  14  15
HETATM   15  O   UNK N   1      21.205  12.328   8.673  0.00  0.00    -0.347 OA
BRANCH  15  16
HETATM   16  C   UNK N   1      22.199  12.241   9.597  0.00  0.00     0.069 A 
HETATM   17  C   UNK N   1      23.538  12.277   9.193  0.00  0.00     0.037 A 
HETATM   18  C   UNK N   1      24.562  12.188  10.145  0.00  0.00     0.003 A 
HETATM   19  C   UNK N   1      24.255  12.061  11.505  0.00  0.00     0.000 A 
HETATM   20  C   UNK N   1      22.924  12.023  11.918  0.00  0.00     0.003 A 
HETATM   21  C   UNK N   1      21.903  12.112  10.974  0.00  0.00     0.037 A 
ENDBRANCH  15  16
ENDBRANCH  14  15
ENDBRANCH   9  14
BRANCH   6  22
HETATM   22  O   UNK N   1      23.760  16.530   3.906  0.00  0.00    -0.352 OA
HETATM   23  C   UNK N   1      24.860  17.341   3.745  0.00  0.00     0.210 C 
ENDBRANCH   6  22
TORSDOF 4
ENDMDL
MODEL 2
REMARK VINA RESULT:      -6.7     16.915     18.663
REMARK  4 active torsions:
REMARK  status: ('A' for Active; 'I' for Inactive)
REMARK    1  A    between atoms: C_6  and  O_22 
REMARK    2  A    between atoms: C_9  and  C_13 
REMARK    3  A    between atoms: C_13  and  O_14 
REMARK    4  A    between atoms: O_14  and  C_15 
ROOT
HETATM    1  C   UNK N   1      27.519  21.176  -8.789  0.00  0.00     0.098 A 
HETATM    2  C   UNK N   1      28.478  21.552  -7.709  0.00  0.00     0.202 A 
HETATM    3  C   UNK N   1      28.028  22.522  -6.694  0.00  0.00     0.100 A 
HETATM    4  C   UNK N   1      26.776  23.048  -6.753  0.00  0.00     0.058 A 
HETATM    5  C   UNK N   1      25.823  22.684  -7.812  0.00  0.00     0.218 A 
HETATM    6  C   UNK N   1      26.268  21.696  -8.854  0.00  0.00     0.123 A 
HETATM    7  N   UNK N   1      28.693  23.022  -5.628  0.00  0.00    -0.350 N 
HETATM    8  C   UNK N   1      27.843  23.880  -5.006  0.00  0.00     0.017 A 
HETATM    9  C   UNK N   1      26.632  23.913  -5.694  0.00  0.00     0.005 A 
HETATM   10  O   UNK N   1      24.707  23.178  -7.832  0.00  0.00    -0.284 OA
HETATM   11  O   UNK N   1      29.596  21.066  -7.677  0.00  0.00    -0.286 OA
HETATM   12  C   UNK N   1      30.056  22.706  -5.227  0.00  0.00     0.156 C 
HETATM   13  C   UNK N   1      28.183  24.654  -3.775  0.00  0.00     0.069 C 
ENDROOT
BRANCH   9  14
HETATM   14  C   UNK N   1      25.357  24.658  -5.478  0.00  0.00     0.217 C 
BRANCH  14  15
HETATM   15  O   UNK N   1      25.152  25.817  -6.187  0.00  0.00    -0.347 OA
BRANCH  15  16
HETATM   16  C   UNK N   1      25.780  26.952  -5.778  0.00  0.00     0.069 A 
HETATM   17  C   UNK N   1      25.401  27.572  -4.583  0.00  0.00     0.037 A 
HETATM   18  C   UNK N   1      26.048  28.741  -4.161  0.00  0.00     0.003 A 
HETATM   19  C   UNK N   1      27.076  29.297  -4.931  0.00  0.00     0.000 A 
HETATM   20  C   UNK N   1      27.461  28.688  -6.124  0.00  0.00     0.003 A 
HETATM   21  C   UNK N   1      26.820  27.525  -6.546  0.00  0.00     0.037 A 
ENDBRANCH  15  16
ENDBRANCH  14  15
ENDBRANCH   9  14
BRANCH   6  22
HETATM   22  O   UNK N   1      25.458  21.299  -9.873  0.00  0.00    -0.352 OA
HETATM   23  C   UNK N   1      25.892  20.979 -11.138  0.00  0.00     0.210 C 
ENDBRANCH   6  22
TORSDOF 4
ENDMDL
MODEL 3
REMARK VINA RESULT:      -6.6     16.291     18.927
REMARK  4 active torsions:
REMARK  status: ('A' for Active; 'I' for Inactive)
REMARK    1  A    between atoms: C_6  and  O_22 
REMARK    2  A    between atoms: C_9  and  C_13 
REMARK    3  A    between atoms: C_13  and  O_14 
REMARK    4  A    between atoms: O_14  and  C_15 
ROOT
HETATM    1  C   UNK N   1      28.349  30.106  -4.138  0.00  0.00     0.098 A 
HETATM    2  C   UNK N   1      28.607  29.676  -5.544  0.00  0.00     0.202 A 
HETATM    3  C   UNK N   1      27.756  28.612  -6.107  0.00  0.00     0.100 A 
HETATM    4  C   UNK N   1      26.771  28.051  -5.358  0.00  0.00     0.058 A 
HETATM    5  C   UNK N   1      26.507  28.468  -3.973  0.00  0.00     0.218 A 
HETATM    6  C   UNK N   1      27.367  29.551  -3.384  0.00  0.00     0.123 A 
HETATM    7  N   UNK N   1      27.783  28.049  -7.337  0.00  0.00    -0.350 N 
HETATM    8  C   UNK N   1      26.796  27.116  -7.360  0.00  0.00     0.017 A 
HETATM    9  C   UNK N   1      26.145  27.098  -6.128  0.00  0.00     0.005 A 
HETATM   10  O   UNK N   1      25.612  27.940  -3.330  0.00  0.00    -0.284 OA
HETATM   11  O   UNK N   1      29.497  30.194  -6.197  0.00  0.00    -0.286 OA
HETATM   12  C   UNK N   1      28.694  28.378  -8.423  0.00  0.00     0.156 C 
HETATM   13  C   UNK N   1      26.481  26.256  -8.539  0.00  0.00     0.069 C 
ENDROOT
BRANCH   9  14
HETATM   14  C   UNK N   1      25.009  26.296  -5.587  0.00  0.00     0.217 C 
BRANCH  14  15
HETATM   15  O   UNK N   1      25.165  24.934  -5.484  0.00  0.00    -0.347 OA
BRANCH  15  16
HETATM   16  C   UNK N   1      26.349  24.444  -5.027  0.00  0.00     0.069 A 
HETATM   17  C   UNK N   1      26.684  24.568  -3.675  0.00  0.00     0.037 A 
HETATM   18  C   UNK N   1      27.902  24.063  -3.204  0.00  0.00     0.003 A 
HETATM   19  C   UNK N   1      28.793  23.432  -4.080  0.00  0.00     0.000 A 
HETATM   20  C   UNK N   1      28.469  23.304  -5.431  0.00  0.00     0.003 A 
HETATM   21  C   UNK N   1      27.257  23.805  -5.902  0.00  0.00     0.037 A 
ENDBRANCH  15  16
ENDBRANCH  14  15
ENDBRANCH   9  14
BRANCH   6  22
HETATM   22  O   UNK N   1      27.200  30.002  -2.112  0.00  0.00    -0.352 OA
HETATM   23  C   UNK N   1      28.190  30.036  -1.157  0.00  0.00     0.210 C 
ENDBRANCH   6  22
TORSDOF 4
ENDMDL
MODEL 4
REMARK VINA RESULT:      -6.6     13.957     16.098
REMARK  4 active torsions:
REMARK  status: ('A' for Active; 'I' for Inactive)
REMARK    1  A    between atoms: C_6  and  O_22 
REMARK    2  A    between atoms: C_9  and  C_13 
REMARK    3  A    between atoms: C_13  and  O_14 
REMARK    4  A    between atoms: O_14  and  C_15 
ROOT
HETATM    1  C   UNK N   1      36.730  14.124   9.792  0.00  0.00     0.098 A 
HETATM    2  C   UNK N   1      37.139  12.721  10.096  0.00  0.00     0.202 A 
HETATM    3  C   UNK N   1      37.158  12.298  11.508  0.00  0.00     0.100 A 
HETATM    4  C   UNK N   1      36.810  13.169  12.491  0.00  0.00     0.058 A 
HETATM    5  C   UNK N   1      36.404  14.553  12.204  0.00  0.00     0.218 A 
HETATM    6  C   UNK N   1      36.381  14.999  10.768  0.00  0.00     0.123 A 
HETATM    7  N   UNK N   1      37.487  11.100  12.043  0.00  0.00    -0.350 N 
HETATM    8  C   UNK N   1      37.343  11.222  13.388  0.00  0.00     0.017 A 
HETATM    9  C   UNK N   1      36.919  12.512  13.695  0.00  0.00     0.005 A 
HETATM   10  O   UNK N   1      36.098  15.307  13.115  0.00  0.00    -0.284 OA
HETATM   11  O   UNK N   1      37.447  11.958   9.196  0.00  0.00    -0.286 OA
HETATM   12  C   UNK N   1      37.913   9.912  11.318  0.00  0.00     0.156 C 
HETATM   13  C   UNK N   1      37.607  10.122  14.363  0.00  0.00     0.069 C 
ENDROOT
BRANCH   9  14
HETATM   14  C   UNK N   1      36.603  13.204  14.979  0.00  0.00     0.217 C 
BRANCH  14  15
HETATM   15  O   UNK N   1      35.393  12.945  15.577  0.00  0.00    -0.347 OA
BRANCH  15  16
HETATM   16  C   UNK N   1      35.376  12.567  16.883  0.00  0.00     0.069 A 
HETATM   17  C   UNK N   1      35.596  11.230  17.229  0.00  0.00     0.037 A 
HETATM   18  C   UNK N   1      35.580  10.840  18.574  0.00  0.00     0.003 A 
HETATM   19  C   UNK N   1      35.343  11.783  19.581  0.00  0.00     0.000 A 
HETATM   20  C   UNK N   1      35.124  13.119  19.247  0.00  0.00     0.003 A 
HETATM   21  C   UNK N   1      35.139  13.509  17.910  0.00  0.00     0.037 A 
ENDBRANCH  15  16
ENDBRANCH  14  15
ENDBRANCH   9  14
BRANCH   6  22
HETATM   22  O   UNK N   1      36.020  16.260  10.404  0.00  0.00    -0.352 OA
HETATM   23  C   UNK N   1      34.869  16.577   9.720  0.00  0.00     0.210 C 
ENDBRANCH   6  22
TORSDOF 4
ENDMDL
MODEL 5
REMARK VINA RESULT:      -6.6      2.276      6.990
REMARK  4 active torsions:
REMARK  status: ('A' for Active; 'I' for Inactive)
REMARK    1  A    between atoms: C_6  and  O_22 
REMARK    2  A    between atoms: C_9  and  C_13 
REMARK    3  A    between atoms: C_13  and  O_14 
REMARK    4  A    between atoms: O_14  and  C_15 
ROOT
HETATM    1  C   UNK N   1      19.866  15.307   9.040  0.00  0.00     0.098 A 
HETATM    2  C   UNK N   1      20.787  14.227   8.576  0.00  0.00     0.202 A 
HETATM    3  C   UNK N   1      21.787  14.568   7.548  0.00  0.00     0.100 A 
HETATM    4  C   UNK N   1      21.857  15.831   7.049  0.00  0.00     0.058 A 
HETATM    5  C   UNK N   1      20.956  16.902   7.500  0.00  0.00     0.218 A 
HETATM    6  C   UNK N   1      19.930  16.569   8.547  0.00  0.00     0.123 A 
HETATM    7  N   UNK N   1      22.724  13.786   6.966  0.00  0.00    -0.350 N 
HETATM    8  C   UNK N   1      23.395  14.571   6.084  0.00  0.00     0.017 A 
HETATM    9  C   UNK N   1      22.869  15.861   6.118  0.00  0.00     0.005 A 
HETATM   10  O   UNK N   1      21.049  18.024   7.027  0.00  0.00    -0.284 OA
HETATM   11  O   UNK N   1      20.705  13.102   9.039  0.00  0.00    -0.286 OA
HETATM   12  C   UNK N   1      22.965  12.375   7.232  0.00  0.00     0.156 C 
HETATM   13  C   UNK N   1      24.519  14.097   5.224  0.00  0.00     0.069 C 
ENDROOT
BRANCH   9  14
HETATM   14  C   UNK N   1      23.200  17.116   5.383  0.00  0.00     0.217 C 
BRANCH  14  15
HETATM   15  O   UNK N   1      22.950  17.165   4.032  0.00  0.00    -0.347 OA
BRANCH  15  16
HETATM   16  C   UNK N   1      21.878  17.876   3.592  0.00  0.00     0.069 A 
HETATM   17  C   UNK N   1      21.812  19.255   3.814  0.00  0.00     0.037 A 
HETATM   18  C   UNK N   1      20.708  19.988   3.359  0.00  0.00     0.003 A 
HETATM   19  C   UNK N   1      19.664  19.348   2.681  0.00  0.00     0.000 A 
HETATM   20  C   UNK N   1      19.720  17.973   2.455  0.00  0.00     0.003 A 
HETATM   21  C   UNK N   1      20.816  17.242   2.906  0.00  0.00     0.037 A 
ENDBRANCH  15  16
ENDBRANCH  14  15
ENDBRANCH   9  14
BRANCH   6  22
HETATM   22  O   UNK N   1      19.053  17.492   9.025  0.00  0.00    -0.352 OA
HETATM   23  C   UNK N   1      17.724  17.247   9.285  0.00  0.00     0.210 C 
ENDBRANCH   6  22
TORSDOF 4
ENDMDL
MODEL 6
REMARK VINA RESULT:      -6.4      8.674     11.451
REMARK  4 active torsions:
REMARK  status: ('A' for Active; 'I' for Inactive)
REMARK    1  A    between atoms: C_6  and  O_22 
REMARK    2  A    between atoms: C_9  and  C_13 
REMARK    3  A    between atoms: C_13  and  O_14 
REMARK    4  A    between atoms: O_14  and  C_15 
ROOT
HETATM    1  C   UNK N   1      31.893  17.553   8.584  0.00  0.00     0.098 A 
HETATM    2  C   UNK N   1      30.648  17.243   7.821  0.00  0.00     0.202 A 
HETATM    3  C   UNK N   1      30.757  17.084   6.359  0.00  0.00     0.100 A 
HETATM    4  C   UNK N   1      31.960  17.217   5.741  0.00  0.00     0.058 A 
HETATM    5  C   UNK N   1      33.192  17.521   6.482  0.00  0.00     0.218 A 
HETATM    6  C   UNK N   1      33.097  17.687   7.974  0.00  0.00     0.123 A 
HETATM    7  N   UNK N   1      29.795  16.807   5.450  0.00  0.00    -0.350 N 
HETATM    8  C   UNK N   1      30.405  16.766   4.237  0.00  0.00     0.017 A 
HETATM    9  C   UNK N   1      31.765  17.021   4.393  0.00  0.00     0.005 A 
HETATM   10  O   UNK N   1      34.255  17.634   5.891  0.00  0.00    -0.284 OA
HETATM   11  O   UNK N   1      29.580  17.128   8.398  0.00  0.00    -0.286 OA
HETATM   12  C   UNK N   1      28.380  16.595   5.719  0.00  0.00     0.156 C 
HETATM   13  C   UNK N   1      29.699  16.488   2.951  0.00  0.00     0.069 C 
ENDROOT
BRANCH   9  14
HETATM   14  C   UNK N   1      32.904  17.102   3.432  0.00  0.00     0.217 C 
BRANCH  14  15
HETATM   15  O   UNK N   1      33.108  16.047   2.575  0.00  0.00    -0.347 OA
BRANCH  15  16
HETATM   16  C   UNK N   1      33.267  14.801   3.098  0.00  0.00     0.069 A 
HETATM   17  C   UNK N   1      32.377  13.779   2.756  0.00  0.00     0.037 A 
HETATM   18  C   UNK N   1      32.540  12.495   3.294  0.00  0.00     0.003 A 
HETATM   19  C   UNK N   1      33.593  12.227   4.176  0.00  0.00     0.000 A 
HETATM   20  C   UNK N   1      34.487  13.240   4.524  0.00  0.00     0.003 A 
HETATM   21  C   UNK N   1      34.326  14.517   3.990  0.00  0.00     0.037 A 
ENDBRANCH  15  16
ENDBRANCH  14  15
ENDBRANCH   9  14
BRANCH   6  22
HETATM   22  O   UNK N   1      34.182  17.970   8.745  0.00  0.00    -0.352 OA
HETATM   23  C   UNK N   1      34.835  17.057   9.541  0.00  0.00     0.210 C 
ENDBRANCH   6  22
TORSDOF 4
ENDMDL
MODEL 7
REMARK VINA RESULT:      -6.4     15.589     18.564
REMARK  4 active torsions:
REMARK  status: ('A' for Active; 'I' for Inactive)
REMARK    1  A    between atoms: C_6  and  O_22 
REMARK    2  A    between atoms: C_9  and  C_13 
REMARK    3  A    between atoms: C_13  and  O_14 
REMARK    4  A    between atoms: O_14  and  C_15 
ROOT
HETATM    1  C   UNK N   1      30.035  22.202  -5.052  0.00  0.00     0.098 A 
HETATM    2  C   UNK N   1      29.360  21.783  -6.315  0.00  0.00     0.202 A 
HETATM    3  C   UNK N   1      28.119  22.481  -6.700  0.00  0.00     0.100 A 
HETATM    4  C   UNK N   1      27.619  23.474  -5.919  0.00  0.00     0.058 A 
HETATM    5  C   UNK N   1      28.276  23.896  -4.673  0.00  0.00     0.218 A 
HETATM    6  C   UNK N   1      29.541  23.193  -4.267  0.00  0.00     0.123 A 
HETATM    7  N   UNK N   1      27.327  22.294  -7.779  0.00  0.00    -0.350 N 
HETATM    8  C   UNK N   1      26.308  23.186  -7.674  0.00  0.00     0.017 A 
HETATM    9  C   UNK N   1      26.469  23.939  -6.513  0.00  0.00     0.005 A 
HETATM   10  O   UNK N   1      27.796  24.793  -3.996  0.00  0.00    -0.284 OA
HETATM   11  O   UNK N   1      29.828  20.889  -7.000  0.00  0.00    -0.286 OA
HETATM   12  C   UNK N   1      27.525  21.324  -8.846  0.00  0.00     0.156 C 
HETATM   13  C   UNK N   1      25.200  23.317  -8.665  0.00  0.00     0.069 C 
ENDROOT
BRANCH   9  14
HETATM   14  C   UNK N   1      25.676  25.042  -5.894  0.00  0.00     0.217 C 
BRANCH  14  15
HETATM   15  O   UNK N   1      25.627  26.252  -6.544  0.00  0.00    -0.347 OA
BRANCH  15  16
HETATM   16  C   UNK N   1      26.113  27.353  -5.911  0.00  0.00     0.069 A 
HETATM   17  C   UNK N   1      25.545  27.778  -4.706  0.00  0.00     0.037 A 
HETATM   18  C   UNK N   1      26.045  28.912  -4.054  0.00  0.00     0.003 A 
HETATM   19  C   UNK N   1      27.116  29.628  -4.602  0.00  0.00     0.000 A 
HETATM   20  C   UNK N   1      27.691  29.213  -5.803  0.00  0.00     0.003 A 
HETATM   21  C   UNK N   1      27.194  28.086  -6.453  0.00  0.00     0.037 A 
ENDBRANCH  15  16
ENDBRANCH  14  15
ENDBRANCH   9  14
BRANCH   6  22
HETATM   22  O   UNK N   1      30.220  23.513  -3.131  0.00  0.00    -0.352 OA
HETATM   23  C   UNK N   1      29.951  22.991  -1.887  0.00  0.00     0.210 C 
ENDBRANCH   6  22
TORSDOF 4
ENDMDL
MODEL 8
REMARK VINA RESULT:      -6.2      2.489      6.299
REMARK  4 active torsions:
REMARK  status: ('A' for Active; 'I' for Inactive)
REMARK    1  A    between atoms: C_6  and  O_22 
REMARK    2  A    between atoms: C_9  and  C_13 
REMARK    3  A    between atoms: C_13  and  O_14 
REMARK    4  A    between atoms: O_14  and  C_15 
ROOT
HETATM    1  C   UNK N   1      21.257  12.867  10.562  0.00  0.00     0.098 A 
HETATM    2  C   UNK N   1      20.726  13.815   9.539  0.00  0.00     0.202 A 
HETATM    3  C   UNK N   1      21.646  14.280   8.485  0.00  0.00     0.100 A 
HETATM    4  C   UNK N   1      22.934  13.848   8.459  0.00  0.00     0.058 A 
HETATM    5  C   UNK N   1      23.468  12.914   9.461  0.00  0.00     0.218 A 
HETATM    6  C   UNK N   1      22.542  12.432  10.542  0.00  0.00     0.123 A 
HETATM    7  N   UNK N   1      21.418  15.127   7.457  0.00  0.00    -0.350 N 
HETATM    8  C   UNK N   1      22.586  15.231   6.771  0.00  0.00     0.017 A 
HETATM    9  C   UNK N   1      23.554  14.437   7.381  0.00  0.00     0.005 A 
HETATM   10  O   UNK N   1      24.632  12.549   9.404  0.00  0.00    -0.284 OA
HETATM   11  O   UNK N   1      19.566  14.188   9.584  0.00  0.00    -0.286 OA
HETATM   12  C   UNK N   1      20.165  15.799   7.145  0.00  0.00     0.156 C 
HETATM   13  C   UNK N   1      22.773  16.075   5.554  0.00  0.00     0.069 C 
ENDROOT
BRANCH   9  14
HETATM   14  C   UNK N   1      24.989  14.163   7.076  0.00  0.00     0.217 C 
BRANCH  14  15
HETATM   15  O   UNK N   1      25.918  15.121   7.404  0.00  0.00    -0.347 OA
BRANCH  15  16
HETATM   16  C   UNK N   1      26.563  15.777   6.402  0.00  0.00     0.069 A 
HETATM   17  C   UNK N   1      26.352  15.405   5.071  0.00  0.00     0.037 A 
HETATM   18  C   UNK N   1      27.015  16.081   4.039  0.00  0.00     0.003 A 
HETATM   19  C   UNK N   1      27.893  17.131   4.331  0.00  0.00     0.000 A 
HETATM   20  C   UNK N   1      28.111  17.510   5.655  0.00  0.00     0.003 A 
HETATM   21  C   UNK N   1      27.452  16.839   6.683  0.00  0.00     0.037 A 
ENDBRANCH  15  16
ENDBRANCH  14  15
ENDBRANCH   9  14
BRANCH   6  22
HETATM   22  O   UNK N   1      22.944  11.567  11.513  0.00  0.00    -0.352 OA
HETATM   23  C   UNK N   1      23.312  11.938  12.786  0.00  0.00     0.210 C 
ENDBRANCH   6  22
TORSDOF 4
ENDMDL
MODEL 9
REMARK VINA RESULT:      -6.1     16.744     18.037
REMARK  4 active torsions:
REMARK  status: ('A' for Active; 'I' for Inactive)
REMARK    1  A    between atoms: C_6  and  O_22 
REMARK    2  A    between atoms: C_9  and  C_13 
REMARK    3  A    between atoms: C_13  and  O_14 
REMARK    4  A    between atoms: O_14  and  C_15 
ROOT
HETATM    1  C   UNK N   1      31.299  19.930  -5.957  0.00  0.00     0.098 A 
HETATM    2  C   UNK N   1      30.284  20.046  -7.044  0.00  0.00     0.202 A 
HETATM    3  C   UNK N   1      29.311  21.151  -6.965  0.00  0.00     0.100 A 
HETATM    4  C   UNK N   1      29.351  22.029  -5.929  0.00  0.00     0.058 A 
HETATM    5  C   UNK N   1      30.348  21.925  -4.853  0.00  0.00     0.218 A 
HETATM    6  C   UNK N   1      31.346  20.803  -4.919  0.00  0.00     0.123 A 
HETATM    7  N   UNK N   1      28.305  21.473  -7.809  0.00  0.00    -0.350 N 
HETATM    8  C   UNK N   1      27.700  22.574  -7.292  0.00  0.00     0.017 A 
HETATM    9  C   UNK N   1      28.339  22.943  -6.110  0.00  0.00     0.005 A 
HETATM   10  O   UNK N   1      30.352  22.733  -3.937  0.00  0.00    -0.284 OA
HETATM   11  O   UNK N   1      30.268  19.246  -7.965  0.00  0.00    -0.286 OA
HETATM   12  C   UNK N   1      27.939  20.775  -9.032  0.00  0.00     0.156 C 
HETATM   13  C   UNK N   1      26.531  23.261  -7.917  0.00  0.00     0.069 C 
ENDROOT
BRANCH   9  14
HETATM   14  C   UNK N   1      28.116  24.048  -5.133  0.00  0.00     0.217 C 
BRANCH  14  15
HETATM   15  O   UNK N   1      26.864  24.188  -4.584  0.00  0.00    -0.347 OA
BRANCH  15  16
HETATM   16  C   UNK N   1      26.295  25.424  -4.563  0.00  0.00     0.069 A 
HETATM   17  C   UNK N   1      25.462  25.830  -5.610  0.00  0.00     0.037 A 
HETATM   18  C   UNK N   1      24.875  27.102  -5.588  0.00  0.00     0.003 A 
HETATM   19  C   UNK N   1      25.117  27.974  -4.521  0.00  0.00     0.000 A 
HETATM   20  C   UNK N   1      25.946  27.579  -3.472  0.00  0.00     0.003 A 
HETATM   21  C   UNK N   1      26.531  26.314  -3.492  0.00  0.00     0.037 A 
ENDBRANCH  15  16
ENDBRANCH  14  15
ENDBRANCH   9  14
BRANCH   6  22
HETATM   22  O   UNK N   1      32.304  20.624  -3.970  0.00  0.00    -0.352 OA
HETATM   23  C   UNK N   1      33.505  19.987  -4.182  0.00  0.00     0.210 C 
ENDBRANCH   6  22
TORSDOF 4
ENDMDL
