MODEL 1
REMARK VINA RESULT:      -4.9      0.000      0.000
REMARK  3 active torsions:
REMARK  status: ('A' for Active; 'I' for Inactive)
REMARK    1  A    between atoms: O_1  and  C_2 
REMARK    2  A    between atoms: C_2  and  C_4 
REMARK    3  A    between atoms: C_7  and  O_8 
ROOT
HETATM    1  C   UNK N   1      34.508  17.089   9.177  0.00  0.00     0.037 A 
HETATM    2  C   UNK N   1      35.341  17.010  10.303  0.00  0.00     0.021 A 
HETATM    3  C   UNK N   1      35.220  15.941  11.192  0.00  0.00     0.037 A 
HETATM    4  C   UNK N   1      34.266  14.947  10.961  0.00  0.00     0.065 A 
HETATM    5  C   UNK N   1      33.433  15.021   9.841  0.00  0.00     0.037 A 
HETATM    6  C   UNK N   1      33.553  16.089   8.951  0.00  0.00     0.021 A 
ENDROOT
BRANCH   1   7
HETATM    7  C   UNK N   1      34.634  18.214   8.239  0.00  0.00     0.176 C 
HETATM    8  O   UNK N   1      34.085  18.175   7.151  0.00  0.00    -0.646 OA
BRANCH   7   9
HETATM    9  O   UNK N   1      35.359  19.299   8.578  0.00  0.00    -0.773 OA
HETATM   10  H   UNK N   1      35.802  19.327   9.403  0.00  0.00     0.167 HD
ENDBRANCH   7   9
ENDBRANCH   1   7
BRANCH   4  11
HETATM   11  O   UNK N   1      34.149  13.920  11.816  0.00  0.00    -0.361 OA
HETATM   12  H   UNK N   1      34.711  13.175  11.731  0.00  0.00     0.217 HD
ENDBRANCH   4  11
TORSDOF 3
ENDMDL
MODEL 2
REMARK VINA RESULT:      -4.9     11.757     12.916
REMARK  3 active torsions:
REMARK  status: ('A' for Active; 'I' for Inactive)
REMARK    1  A    between atoms: O_1  and  C_2 
REMARK    2  A    between atoms: C_2  and  C_4 
REMARK    3  A    between atoms: C_7  and  O_8 
ROOT
HETATM    1  C   UNK N   1      21.743  13.159   9.808  0.00  0.00     0.037 A 
HETATM    2  C   UNK N   1      22.973  13.429   9.191  0.00  0.00     0.021 A 
HETATM    3  C   UNK N   1      24.161  12.973   9.766  0.00  0.00     0.037 A 
HETATM    4  C   UNK N   1      24.125  12.247  10.959  0.00  0.00     0.065 A 
HETATM    5  C   UNK N   1      22.901  11.976  11.578  0.00  0.00     0.037 A 
HETATM    6  C   UNK N   1      21.713  12.430  11.004  0.00  0.00     0.021 A 
ENDROOT
BRANCH   1   7
HETATM    7  C   UNK N   1      20.490  13.638   9.205  0.00  0.00     0.176 C 
HETATM    8  O   UNK N   1      19.555  13.977   9.910  0.00  0.00    -0.646 OA
BRANCH   7   9
HETATM    9  O   UNK N   1      20.369  13.704   7.864  0.00  0.00    -0.773 OA
HETATM   10  H   UNK N   1      20.401  14.535   7.430  0.00  0.00     0.167 HD
ENDBRANCH   7   9
ENDBRANCH   1   7
BRANCH   4  11
HETATM   11  O   UNK N   1      25.266  11.810  11.510  0.00  0.00    -0.361 OA
HETATM   12  H   UNK N   1      25.486  12.055  12.388  0.00  0.00     0.217 HD
ENDBRANCH   4  11
TORSDOF 3
ENDMDL
MODEL 3
REMARK VINA RESULT:      -4.7     11.738     13.191
REMARK  3 active torsions:
REMARK  status: ('A' for Active; 'I' for Inactive)
REMARK    1  A    between atoms: O_1  and  C_2 
REMARK    2  A    between atoms: C_2  and  C_4 
REMARK    3  A    between atoms: C_7  and  O_8 
ROOT
HETATM    1  C   UNK N   1      22.918  12.225  10.592  0.00  0.00     0.037 A 
HETATM    2  C   UNK N   1      23.367  11.631   9.404  0.00  0.00     0.021 A 
HETATM    3  C   UNK N   1      22.644  11.793   8.221  0.00  0.00     0.037 A 
HETATM    4  C   UNK N   1      21.469  12.549   8.221  0.00  0.00     0.065 A 
HETATM    5  C   UNK N   1      21.016  13.143   9.403  0.00  0.00     0.037 A 
HETATM    6  C   UNK N   1      21.739  12.981  10.586  0.00  0.00     0.021 A 
ENDROOT
BRANCH   1   7
HETATM    7  C   UNK N   1      23.679  12.055  11.840  0.00  0.00     0.176 C 
HETATM    8  O   UNK N   1      23.104  11.791  12.882  0.00  0.00    -0.646 OA
BRANCH   7   9
HETATM    9  O   UNK N   1      25.020  12.191  11.836  0.00  0.00    -0.773 OA
HETATM   10  H   UNK N   1      25.456  12.557  12.581  0.00  0.00     0.167 HD
ENDBRANCH   7   9
ENDBRANCH   1   7
BRANCH   4  11
HETATM   11  O   UNK N   1      20.774  12.705   7.084  0.00  0.00    -0.361 OA
HETATM   12  H   UNK N   1      20.883  12.095   6.382  0.00  0.00     0.217 HD
ENDBRANCH   4  11
TORSDOF 3
ENDMDL
MODEL 4
REMARK VINA RESULT:      -4.7      2.691      4.452
REMARK  3 active torsions:
REMARK  status: ('A' for Active; 'I' for Inactive)
REMARK    1  A    between atoms: O_1  and  C_2 
REMARK    2  A    between atoms: C_2  and  C_4 
REMARK    3  A    between atoms: C_7  and  O_8 
ROOT
HETATM    1  C   UNK N   1      33.515  17.807   7.689  0.00  0.00     0.037 A 
HETATM    2  C   UNK N   1      32.210  17.666   8.181  0.00  0.00     0.021 A 
HETATM    3  C   UNK N   1      31.170  17.306   7.321  0.00  0.00     0.037 A 
HETATM    4  C   UNK N   1      31.432  17.085   5.966  0.00  0.00     0.065 A 
HETATM    5  C   UNK N   1      32.731  17.225   5.471  0.00  0.00     0.037 A 
HETATM    6  C   UNK N   1      33.771  17.584   6.330  0.00  0.00     0.021 A 
ENDROOT
BRANCH   1   7
HETATM    7  C   UNK N   1      34.612  18.186   8.593  0.00  0.00     0.176 C 
HETATM    8  O   UNK N   1      35.261  19.197   8.386  0.00  0.00    -0.646 OA
BRANCH   7   9
HETATM    9  O   UNK N   1      34.905  17.414   9.659  0.00  0.00    -0.773 OA
HETATM   10  H   UNK N   1      34.239  17.207  10.285  0.00  0.00     0.167 HD
ENDBRANCH   7   9
ENDBRANCH   1   7
BRANCH   4  11
HETATM   11  O   UNK N   1      30.433  16.740   5.141  0.00  0.00    -0.361 OA
HETATM   12  H   UNK N   1      30.525  16.865   4.216  0.00  0.00     0.217 HD
ENDBRANCH   4  11
TORSDOF 3
ENDMDL
MODEL 5
REMARK VINA RESULT:      -4.6     18.386     19.527
REMARK  3 active torsions:
REMARK  status: ('A' for Active; 'I' for Inactive)
REMARK    1  A    between atoms: O_1  and  C_2 
REMARK    2  A    between atoms: C_2  and  C_4 
REMARK    3  A    between atoms: C_7  and  O_8 
ROOT
HETATM    1  C   UNK N   1      26.128  27.610  -3.966  0.00  0.00     0.037 A 
HETATM    2  C   UNK N   1      26.602  26.390  -3.463  0.00  0.00     0.021 A 
HETATM    3  C   UNK N   1      26.298  25.195  -4.118  0.00  0.00     0.037 A 
HETATM    4  C   UNK N   1      25.519  25.214  -5.278  0.00  0.00     0.065 A 
HETATM    5  C   UNK N   1      25.044  26.428  -5.784  0.00  0.00     0.037 A 
HETATM    6  C   UNK N   1      25.348  27.623  -5.130  0.00  0.00     0.021 A 
ENDROOT
BRANCH   1   7
HETATM    7  C   UNK N   1      26.447  28.870  -3.278  0.00  0.00     0.176 C 
HETATM    8  O   UNK N   1      27.167  28.871  -2.294  0.00  0.00    -0.646 OA
BRANCH   7   9
HETATM    9  O   UNK N   1      25.942  30.034  -3.734  0.00  0.00    -0.773 OA
HETATM   10  H   UNK N   1      25.072  30.291  -3.502  0.00  0.00     0.167 HD
ENDBRANCH   7   9
ENDBRANCH   1   7
BRANCH   4  11
HETATM   11  O   UNK N   1      25.227  24.066  -5.907  0.00  0.00    -0.361 OA
HETATM   12  H   UNK N   1      25.847  23.686  -6.498  0.00  0.00     0.217 HD
ENDBRANCH   4  11
TORSDOF 3
ENDMDL
MODEL 6
REMARK VINA RESULT:      -4.6      6.845      8.753
REMARK  3 active torsions:
REMARK  status: ('A' for Active; 'I' for Inactive)
REMARK    1  A    between atoms: O_1  and  C_2 
REMARK    2  A    between atoms: C_2  and  C_4 
REMARK    3  A    between atoms: C_7  and  O_8 
ROOT
HETATM    1  C   UNK N   1      35.606  12.849  16.520  0.00  0.00     0.037 A 
HETATM    2  C   UNK N   1      35.750  11.493  16.845  0.00  0.00     0.021 A 
HETATM    3  C   UNK N   1      35.591  11.066  18.165  0.00  0.00     0.037 A 
HETATM    4  C   UNK N   1      35.287  11.993  19.165  0.00  0.00     0.065 A 
HETATM    5  C   UNK N   1      35.142  13.346  18.846  0.00  0.00     0.037 A 
HETATM    6  C   UNK N   1      35.301  13.774  17.527  0.00  0.00     0.021 A 
ENDROOT
BRANCH   1   7
HETATM    7  C   UNK N   1      35.773  13.301  15.130  0.00  0.00     0.176 C 
HETATM    8  O   UNK N   1      34.816  13.348  14.377  0.00  0.00    -0.646 OA
BRANCH   7   9
HETATM    9  O   UNK N   1      36.991  13.666  14.681  0.00  0.00    -0.773 OA
HETATM   10  H   UNK N   1      37.067  14.243  13.947  0.00  0.00     0.167 HD
ENDBRANCH   7   9
ENDBRANCH   1   7
BRANCH   4  11
HETATM   11  O   UNK N   1      35.134  11.583  20.432  0.00  0.00    -0.361 OA
HETATM   12  H   UNK N   1      35.670  11.946  21.110  0.00  0.00     0.217 HD
ENDBRANCH   4  11
TORSDOF 3
ENDMDL
MODEL 7
REMARK VINA RESULT:      -4.6     18.241     19.531
REMARK  3 active torsions:
REMARK  status: ('A' for Active; 'I' for Inactive)
REMARK    1  A    between atoms: O_1  and  C_2 
REMARK    2  A    between atoms: C_2  and  C_4 
REMARK    3  A    between atoms: C_7  and  O_8 
ROOT
HETATM    1  C   UNK N   1      25.985  25.069  -5.196  0.00  0.00     0.037 A 
HETATM    2  C   UNK N   1      25.265  26.081  -5.847  0.00  0.00     0.021 A 
HETATM    3  C   UNK N   1      25.091  27.324  -5.235  0.00  0.00     0.037 A 
HETATM    4  C   UNK N   1      25.637  27.561  -3.971  0.00  0.00     0.065 A 
HETATM    5  C   UNK N   1      26.356  26.556  -3.318  0.00  0.00     0.037 A 
HETATM    6  C   UNK N   1      26.530  25.312  -3.929  0.00  0.00     0.021 A 
ENDROOT
BRANCH   1   7
HETATM    7  C   UNK N   1      26.169  23.759  -5.839  0.00  0.00     0.176 C 
HETATM    8  O   UNK N   1      27.284  23.279  -5.953  0.00  0.00    -0.646 OA
BRANCH   7   9
HETATM    9  O   UNK N   1      25.102  23.081  -6.306  0.00  0.00    -0.773 OA
HETATM   10  H   UNK N   1      24.918  23.070  -7.225  0.00  0.00     0.167 HD
ENDBRANCH   7   9
ENDBRANCH   1   7
BRANCH   4  11
HETATM   11  O   UNK N   1      25.470  28.755  -3.384  0.00  0.00    -0.361 OA
HETATM   12  H   UNK N   1      24.617  29.023  -3.102  0.00  0.00     0.217 HD
ENDBRANCH   4  11
TORSDOF 3
ENDMDL
MODEL 8
REMARK VINA RESULT:      -4.5      7.097      8.973
REMARK  3 active torsions:
REMARK  status: ('A' for Active; 'I' for Inactive)
REMARK    1  A    between atoms: O_1  and  C_2 
REMARK    2  A    between atoms: C_2  and  C_4 
REMARK    3  A    between atoms: C_7  and  O_8 
ROOT
HETATM    1  C   UNK N   1      34.754  12.094  16.376  0.00  0.00     0.037 A 
HETATM    2  C   UNK N   1      34.780  13.390  16.908  0.00  0.00     0.021 A 
HETATM    3  C   UNK N   1      35.128  13.593  18.245  0.00  0.00     0.037 A 
HETATM    4  C   UNK N   1      35.450  12.501  19.055  0.00  0.00     0.065 A 
HETATM    5  C   UNK N   1      35.426  11.207  18.529  0.00  0.00     0.037 A 
HETATM    6  C   UNK N   1      35.078  11.003  17.192  0.00  0.00     0.021 A 
ENDROOT
BRANCH   1   7
HETATM    7  C   UNK N   1      34.388  11.877  14.967  0.00  0.00     0.176 C 
HETATM    8  O   UNK N   1      34.561  12.758  14.142  0.00  0.00    -0.646 OA
BRANCH   7   9
HETATM    9  O   UNK N   1      33.858  10.700  14.581  0.00  0.00    -0.773 OA
HETATM   10  H   UNK N   1      32.963  10.502  14.776  0.00  0.00     0.167 HD
ENDBRANCH   7   9
ENDBRANCH   1   7
BRANCH   4  11
HETATM   11  O   UNK N   1      35.784  12.697  20.339  0.00  0.00    -0.361 OA
HETATM   12  H   UNK N   1      36.279  12.046  20.798  0.00  0.00     0.217 HD
ENDBRANCH   4  11
TORSDOF 3
ENDMDL
MODEL 9
REMARK VINA RESULT:      -4.3      7.890      9.303
REMARK  3 active torsions:
REMARK  status: ('A' for Active; 'I' for Inactive)
REMARK    1  A    between atoms: O_1  and  C_2 
REMARK    2  A    between atoms: C_2  and  C_4 
REMARK    3  A    between atoms: C_7  and  O_8 
ROOT
HETATM    1  C   UNK N   1      35.072  12.571  17.683  0.00  0.00     0.037 A 
HETATM    2  C   UNK N   1      35.282  11.196  17.865  0.00  0.00     0.021 A 
HETATM    3  C   UNK N   1      35.115  10.313  16.797  0.00  0.00     0.037 A 
HETATM    4  C   UNK N   1      34.737  10.800  15.543  0.00  0.00     0.065 A 
HETATM    5  C   UNK N   1      34.526  12.169  15.356  0.00  0.00     0.037 A 
HETATM    6  C   UNK N   1      34.693  13.053  16.423  0.00  0.00     0.021 A 
ENDROOT
BRANCH   1   7
HETATM    7  C   UNK N   1      35.247  13.503  18.807  0.00  0.00     0.176 C 
HETATM    8  O   UNK N   1      35.382  14.698  18.602  0.00  0.00    -0.646 OA
BRANCH   7   9
HETATM    9  O   UNK N   1      35.260  13.040  20.073  0.00  0.00    -0.773 OA
HETATM   10  H   UNK N   1      35.995  13.212  20.628  0.00  0.00     0.167 HD
ENDBRANCH   7   9
ENDBRANCH   1   7
BRANCH   4  11
HETATM   11  O   UNK N   1      34.577   9.951  14.517  0.00  0.00    -0.361 OA
HETATM   12  H   UNK N   1      35.247   9.328  14.315  0.00  0.00     0.217 HD
ENDBRANCH   4  11
TORSDOF 3
ENDMDL
