REMARK  3 active torsions:
REMARK  status: ('A' for Active; 'I' for Inactive)
REMARK    1  A    between atoms: O_1  and  C_2 
REMARK    2  A    between atoms: C_2  and  C_4 
REMARK    3  A    between atoms: C_7  and  O_8 
ROOT
HETATM    1  C   UNK N   1       0.680   1.629   0.000  0.00  0.00     0.037 A 
HETATM    2  C   UNK N   1       1.896   0.931   0.000  0.00  0.00     0.021 A 
HETATM    3  C   UNK N   1       1.904  -0.465  -0.000  0.00  0.00     0.037 A 
HETATM    4  C   UNK N   1       0.697  -1.169  -0.000  0.00  0.00     0.065 A 
HETATM    5  C   UNK N   1      -0.518  -0.478   0.000  0.00  0.00     0.037 A 
HETATM    6  C   UNK N   1      -0.527   0.918   0.000  0.00  0.00     0.021 A 
ENDROOT
BRANCH   1   7
HETATM    7  C   UNK N   1       0.669   3.100   0.000  0.00  0.00     0.176 C 
HETATM    8  O   UNK N   1       1.716   3.725  -0.000  0.00  0.00    -0.646 OA
BRANCH   7   9
HETATM    9  O   UNK N   1      -0.503   3.766  -0.000  0.00  0.00    -0.773 OA
HETATM   10  H   UNK N   1      -0.510   4.703  -0.000  0.00  0.00     0.167 HD
ENDBRANCH   7   9
ENDBRANCH   1   7
BRANCH   4  11
HETATM   11  O   UNK N   1       0.705  -2.510  -0.000  0.00  0.00    -0.361 OA
HETATM   12  H   UNK N   1      -0.104  -2.983  -0.000  0.00  0.00     0.217 HD
ENDBRANCH   4  11
TORSDOF 3
