REMARK  5 active torsions:
REMARK  status: ('A' for Active; 'I' for Inactive)
REMARK    1  A    between atoms: O_1  and  C_2 
REMARK    2  A    between atoms: C_4  and  O_5 
REMARK    3  A    between atoms: C_6  and  C_7 
REMARK    4  A    between atoms: C_10  and  C_11 
REMARK    5  A    between atoms: C_16  and  C_17 
ROOT
HETATM    1  C   UNK N   1       0.918  -1.535   0.164  0.00  0.00     0.075 A 
HETATM    2  N   UNK N   1       2.043  -2.265   0.306  0.00  0.00    -0.299 N 
ATOM      3  HN  UNK N   1       2.994  -1.895   0.291  1.00  0.00     0.187 HD
HETATM    4  N   UNK N   1       1.719  -3.536   0.470  0.00  0.00    -0.310 N 
HETATM    5  C   UNK N   1       0.378  -3.663   0.419  0.00  0.00     0.123 A 
HETATM    6  C   UNK N   1      -0.168  -2.413   0.204  0.00  0.00     0.038 A 
HETATM    7  H   UNK N   1       2.356  -4.274   0.606  0.00  0.00     0.186 HD
ENDROOT
BRANCH   1   8
HETATM    8  C   UNK N   1       0.977  -0.051   0.029  0.00  0.00     0.027 A 
HETATM    9  C   UNK N   1      -0.054   0.825   0.452  0.00  0.00     0.081 A 
HETATM   10  C   UNK N   1       0.086   2.205   0.289  0.00  0.00     0.074 A 
HETATM   11  C   UNK N   1       1.252   2.743  -0.249  0.00  0.00     0.074 A 
HETATM   12  C   UNK N   1       2.309   1.897  -0.604  0.00  0.00    -0.024 A 
HETATM   13  C   UNK N   1       2.164   0.511  -0.466  0.00  0.00     0.026 A 
BRANCH   9  14
HETATM   14  O   UNK N   1      -1.145   0.374   1.087  0.00  0.00    -0.360 OA
HETATM   15  H   UNK N   1      -1.799   0.876   1.530  0.00  0.00     0.217 HD
ENDBRANCH   9  14
BRANCH  11  16
HETATM   16  O   UNK N   1       1.362   4.075  -0.393  0.00  0.00    -0.360 OA
HETATM   17  H   UNK N   1       2.205   4.473  -0.493  0.00  0.00     0.217 HD
ENDBRANCH  11  16
BRANCH  12  18
HETATM   18  C   UNK N   1       3.590   2.465  -1.122  0.00  0.00     0.037 C 
HETATM   19  C   UNK N   1       4.710   2.227  -0.123  0.00  0.00     0.010 C 
ENDBRANCH  12  18
ENDBRANCH   1   8
BRANCH   6  20
HETATM   20  C   UNK N   1      -1.612  -2.195  -0.024  0.00  0.00     0.062 A 
HETATM   21  C   UNK N   1      -2.616  -3.072   0.316  0.00  0.00     0.119 A 
HETATM   22  N   UNK N   1      -3.783  -2.540  -0.091  0.00  0.00    -0.360 N 
HETATM   23  C   UNK N   1      -3.469  -1.372  -0.690  0.00  0.00     0.180 A 
HETATM   24  H   UNK N   1      -4.682  -2.924   0.024  0.00  0.00     0.166 HD
HETATM   25  N   UNK N   1      -2.142  -1.144  -0.671  0.00  0.00    -0.350 N 
ATOM     26  HN  UNK N   1      -1.645  -0.345  -1.065  1.00  0.00     0.166 HD
ENDBRANCH   6  20
TORSDOF 5
