MODEL 1
REMARK VINA RESULT:      -6.5      0.000      0.000
REMARK  5 active torsions:
REMARK  status: ('A' for Active; 'I' for Inactive)
REMARK    1  A    between atoms: O_1  and  C_2 
REMARK    2  A    between atoms: C_4  and  O_5 
REMARK    3  A    between atoms: C_6  and  C_7 
REMARK    4  A    between atoms: C_10  and  C_11 
REMARK    5  A    between atoms: C_16  and  C_17 
ROOT
HETATM    1  C   UNK N   1      29.338  16.918   4.132  0.00  0.00     0.075 A 
HETATM    2  N   UNK N   1      29.086  15.952   3.225  0.00  0.00    -0.299 N 
ATOM      3  HN  UNK N   1      29.781  15.322   2.824  1.00  0.00     0.187 HD
HETATM    4  N   UNK N   1      27.795  15.950   2.940  0.00  0.00    -0.310 N 
HETATM    5  C   UNK N   1      27.184  16.926   3.640  0.00  0.00     0.123 A 
HETATM    6  C   UNK N   1      28.137  17.580   4.396  0.00  0.00     0.038 A 
HETATM    7  H   UNK N   1      27.350  15.334   2.314  0.00  0.00     0.186 HD
ENDROOT
BRANCH   1   8
HETATM    8  C   UNK N   1      30.708  17.108   4.691  0.00  0.00     0.027 A 
HETATM    9  C   UNK N   1      31.868  17.298   3.899  0.00  0.00     0.081 A 
HETATM   10  C   UNK N   1      33.113  17.471   4.507  0.00  0.00     0.074 A 
HETATM   11  C   UNK N   1      33.229  17.503   5.894  0.00  0.00     0.074 A 
HETATM   12  C   UNK N   1      32.084  17.390   6.690  0.00  0.00    -0.024 A 
HETATM   13  C   UNK N   1      30.836  17.192   6.086  0.00  0.00     0.026 A 
BRANCH   9  14
HETATM   14  O   UNK N   1      31.800  17.399   2.564  0.00  0.00    -0.360 OA
HETATM   15  H   UNK N   1      31.529  16.744   1.952  0.00  0.00     0.217 HD
ENDBRANCH   9  14
BRANCH  11  16
HETATM   16  O   UNK N   1      34.439  17.673   6.454  0.00  0.00    -0.360 OA
HETATM   17  H   UNK N   1      34.665  17.218   7.242  0.00  0.00     0.217 HD
ENDBRANCH  11  16
BRANCH  12  18
HETATM   18  C   UNK N   1      32.185  17.487   8.177  0.00  0.00     0.037 C 
HETATM   19  C   UNK N   1      30.923  18.112   8.748  0.00  0.00     0.010 C 
ENDBRANCH  12  18
ENDBRANCH   1   8
BRANCH   6  20
HETATM   20  C   UNK N   1      27.839  18.785   5.199  0.00  0.00     0.062 A 
HETATM   21  C   UNK N   1      27.923  20.083   4.752  0.00  0.00     0.119 A 
HETATM   22  N   UNK N   1      27.618  20.894   5.782  0.00  0.00    -0.360 N 
HETATM   23  C   UNK N   1      27.382  20.083   6.835  0.00  0.00     0.180 A 
HETATM   24  H   UNK N   1      27.576  21.877   5.771  0.00  0.00     0.166 HD
HETATM   25  N   UNK N   1      27.522  18.785   6.504  0.00  0.00    -0.350 N 
ATOM     26  HN  UNK N   1      27.413  17.975   7.114  1.00  0.00     0.166 HD
ENDBRANCH   6  20
TORSDOF 5
ENDMDL
MODEL 2
REMARK VINA RESULT:      -6.5      7.772     10.124
REMARK  5 active torsions:
REMARK  status: ('A' for Active; 'I' for Inactive)
REMARK    1  A    between atoms: O_1  and  C_2 
REMARK    2  A    between atoms: C_4  and  O_5 
REMARK    3  A    between atoms: C_6  and  C_7 
REMARK    4  A    between atoms: C_10  and  C_11 
REMARK    5  A    between atoms: C_16  and  C_17 
ROOT
HETATM    1  C   UNK N   1      19.986  16.421   3.287  0.00  0.00     0.075 A 
HETATM    2  N   UNK N   1      19.515  15.709   2.243  0.00  0.00    -0.299 N 
ATOM      3  HN  UNK N   1      19.424  16.052   1.286  1.00  0.00     0.187 HD
HETATM    4  N   UNK N   1      19.191  14.495   2.655  0.00  0.00    -0.310 N 
HETATM    5  C   UNK N   1      19.425  14.398   3.979  0.00  0.00     0.123 A 
HETATM    6  C   UNK N   1      19.913  15.611   4.423  0.00  0.00     0.038 A 
HETATM    7  H   UNK N   1      18.832  13.777   2.086  0.00  0.00     0.186 HD
ENDROOT
BRANCH   1   8
HETATM    8  C   UNK N   1      20.493  17.811   3.103  0.00  0.00     0.027 A 
HETATM    9  C   UNK N   1      19.690  18.897   2.672  0.00  0.00     0.081 A 
HETATM   10  C   UNK N   1      20.247  20.169   2.529  0.00  0.00     0.074 A 
HETATM   11  C   UNK N   1      21.583  20.400   2.845  0.00  0.00     0.074 A 
HETATM   12  C   UNK N   1      22.371  19.355   3.341  0.00  0.00    -0.024 A 
HETATM   13  C   UNK N   1      21.824  18.072   3.464  0.00  0.00     0.026 A 
BRANCH   9  14
HETATM   14  O   UNK N   1      18.371  18.762   2.470  0.00  0.00    -0.360 OA
HETATM   15  H   UNK N   1      17.931  18.569   1.667  0.00  0.00     0.217 HD
ENDBRANCH   9  14
BRANCH  11  16
HETATM   16  O   UNK N   1      22.095  21.635   2.700  0.00  0.00    -0.360 OA
HETATM   17  H   UNK N   1      23.015  21.754   2.563  0.00  0.00     0.217 HD
ENDBRANCH  11  16
BRANCH  12  18
HETATM   18  C   UNK N   1      23.788  19.603   3.746  0.00  0.00     0.037 C 
HETATM   19  C   UNK N   1      24.231  18.566   4.764  0.00  0.00     0.010 C 
ENDBRANCH  12  18
ENDBRANCH   1   8
BRANCH   6  20
HETATM   20  C   UNK N   1      20.168  15.901   5.850  0.00  0.00     0.062 A 
HETATM   21  C   UNK N   1      21.388  15.805   6.479  0.00  0.00     0.119 A 
HETATM   22  N   UNK N   1      21.206  16.105   7.778  0.00  0.00    -0.360 N 
HETATM   23  C   UNK N   1      19.887  16.349   7.921  0.00  0.00     0.180 A 
HETATM   24  H   UNK N   1      21.894  16.139   8.481  0.00  0.00     0.166 HD
HETATM   25  N   UNK N   1      19.227  16.220   6.754  0.00  0.00    -0.350 N 
ATOM     26  HN  UNK N   1      18.227  16.337   6.591  1.00  0.00     0.166 HD
ENDBRANCH   6  20
TORSDOF 5
ENDMDL
MODEL 3
REMARK VINA RESULT:      -6.2     10.495     12.064
REMARK  5 active torsions:
REMARK  status: ('A' for Active; 'I' for Inactive)
REMARK    1  A    between atoms: O_1  and  C_2 
REMARK    2  A    between atoms: C_4  and  O_5 
REMARK    3  A    between atoms: C_6  and  C_7 
REMARK    4  A    between atoms: C_10  and  C_11 
REMARK    5  A    between atoms: C_16  and  C_17 
ROOT
HETATM    1  C   UNK N   1      27.115  24.351  -5.110  0.00  0.00     0.075 A 
HETATM    2  N   UNK N   1      26.557  23.654  -6.120  0.00  0.00    -0.299 N 
ATOM      3  HN  UNK N   1      26.849  22.726  -6.430  1.00  0.00     0.187 HD
HETATM    4  N   UNK N   1      25.570  24.360  -6.643  0.00  0.00    -0.310 N 
HETATM    5  C   UNK N   1      25.477  25.540  -5.998  0.00  0.00     0.123 A 
HETATM    6  C   UNK N   1      26.459  25.582  -5.027  0.00  0.00     0.038 A 
HETATM    7  H   UNK N   1      24.994  24.072  -7.387  0.00  0.00     0.186 HD
ENDROOT
BRANCH   1   8
HETATM    8  C   UNK N   1      28.215  23.768  -4.289  0.00  0.00     0.027 A 
HETATM    9  C   UNK N   1      28.162  23.623  -2.880  0.00  0.00     0.081 A 
HETATM   10  C   UNK N   1      29.239  23.063  -2.190  0.00  0.00     0.074 A 
HETATM   11  C   UNK N   1      30.360  22.600  -2.876  0.00  0.00     0.074 A 
HETATM   12  C   UNK N   1      30.397  22.668  -4.273  0.00  0.00    -0.024 A 
HETATM   13  C   UNK N   1      29.331  23.252  -4.968  0.00  0.00     0.026 A 
BRANCH   9  14
HETATM   14  O   UNK N   1      27.063  23.938  -2.181  0.00  0.00    -0.360 OA
HETATM   15  H   UNK N   1      26.991  24.080  -1.259  0.00  0.00     0.217 HD
ENDBRANCH   9  14
BRANCH  11  16
HETATM   16  O   UNK N   1      31.382  22.063  -2.188  0.00  0.00    -0.360 OA
HETATM   17  H   UNK N   1      32.023  22.614  -1.783  0.00  0.00     0.217 HD
ENDBRANCH  11  16
BRANCH  12  18
HETATM   18  C   UNK N   1      31.564  22.117  -5.025  0.00  0.00     0.037 C 
HETATM   19  C   UNK N   1      31.251  20.717  -5.525  0.00  0.00     0.010 C 
ENDBRANCH  12  18
ENDBRANCH   1   8
BRANCH   6  20
HETATM   20  C   UNK N   1      26.726  26.781  -4.205  0.00  0.00     0.062 A 
HETATM   21  C   UNK N   1      25.775  27.525  -3.545  0.00  0.00     0.119 A 
HETATM   22  N   UNK N   1      26.401  28.555  -2.947  0.00  0.00    -0.360 N 
HETATM   23  C   UNK N   1      27.705  28.436  -3.272  0.00  0.00     0.180 A 
HETATM   24  H   UNK N   1      25.991  29.253  -2.387  0.00  0.00     0.166 HD
HETATM   25  N   UNK N   1      27.927  27.361  -4.053  0.00  0.00    -0.350 N 
ATOM     26  HN  UNK N   1      28.817  27.054  -4.446  1.00  0.00     0.166 HD
ENDBRANCH   6  20
TORSDOF 5
ENDMDL
MODEL 4
REMARK VINA RESULT:      -6.0      8.782     10.743
REMARK  5 active torsions:
REMARK  status: ('A' for Active; 'I' for Inactive)
REMARK    1  A    between atoms: O_1  and  C_2 
REMARK    2  A    between atoms: C_4  and  O_5 
REMARK    3  A    between atoms: C_6  and  C_7 
REMARK    4  A    between atoms: C_10  and  C_11 
REMARK    5  A    between atoms: C_16  and  C_17 
ROOT
HETATM    1  C   UNK N   1      21.999  12.598   7.525  0.00  0.00     0.075 A 
HETATM    2  N   UNK N   1      21.736  11.947   6.373  0.00  0.00    -0.299 N 
ATOM      3  HN  UNK N   1      21.120  12.283   5.633  1.00  0.00     0.187 HD
HETATM    4  N   UNK N   1      22.405  10.808   6.355  0.00  0.00    -0.310 N 
HETATM    5  C   UNK N   1      23.103  10.683   7.502  0.00  0.00     0.123 A 
HETATM    6  C   UNK N   1      22.854  11.794   8.284  0.00  0.00     0.038 A 
HETATM    7  H   UNK N   1      22.395  10.152   5.621  0.00  0.00     0.186 HD
ENDROOT
BRANCH   1   8
HETATM    8  C   UNK N   1      21.430  13.950   7.791  0.00  0.00     0.027 A 
HETATM    9  C   UNK N   1      20.570  14.249   8.878  0.00  0.00     0.081 A 
HETATM   10  C   UNK N   1      20.084  15.547   9.053  0.00  0.00     0.074 A 
HETATM   11  C   UNK N   1      20.469  16.572   8.193  0.00  0.00     0.074 A 
HETATM   12  C   UNK N   1      21.375  16.310   7.159  0.00  0.00    -0.024 A 
HETATM   13  C   UNK N   1      21.845  15.005   6.964  0.00  0.00     0.026 A 
BRANCH   9  14
HETATM   14  O   UNK N   1      20.264  13.332   9.806  0.00  0.00    -0.360 OA
HETATM   15  H   UNK N   1      20.824  12.975  10.466  0.00  0.00     0.217 HD
ENDBRANCH   9  14
BRANCH  11  16
HETATM   16  O   UNK N   1      19.988  17.813   8.386  0.00  0.00    -0.360 OA
HETATM   17  H   UNK N   1      19.988  18.435   7.684  0.00  0.00     0.217 HD
ENDBRANCH  11  16
BRANCH  12  18
HETATM   18  C   UNK N   1      21.846  17.414   6.269  0.00  0.00     0.037 C 
HETATM   19  C   UNK N   1      23.090  16.981   5.512  0.00  0.00     0.010 C 
ENDBRANCH  12  18
ENDBRANCH   1   8
BRANCH   6  20
HETATM   20  C   UNK N   1      23.363  11.935   9.664  0.00  0.00     0.062 A 
HETATM   21  C   UNK N   1      24.632  12.340  10.010  0.00  0.00     0.119 A 
HETATM   22  N   UNK N   1      24.725  12.301  11.352  0.00  0.00    -0.360 N 
HETATM   23  C   UNK N   1      23.531  11.851  11.793  0.00  0.00     0.180 A 
HETATM   24  H   UNK N   1      25.504  12.548  11.899  0.00  0.00     0.166 HD
HETATM   25  N   UNK N   1      22.683  11.610  10.775  0.00  0.00    -0.350 N 
ATOM     26  HN  UNK N   1      21.729  11.254  10.835  1.00  0.00     0.166 HD
ENDBRANCH   6  20
TORSDOF 5
ENDMDL
MODEL 5
REMARK VINA RESULT:      -6.0      2.416      4.460
REMARK  5 active torsions:
REMARK  status: ('A' for Active; 'I' for Inactive)
REMARK    1  A    between atoms: O_1  and  C_2 
REMARK    2  A    between atoms: C_4  and  O_5 
REMARK    3  A    between atoms: C_6  and  C_7 
REMARK    4  A    between atoms: C_10  and  C_11 
REMARK    5  A    between atoms: C_16  and  C_17 
ROOT
HETATM    1  C   UNK N   1      27.553  18.673   6.521  0.00  0.00     0.075 A 
HETATM    2  N   UNK N   1      26.970  19.834   6.885  0.00  0.00    -0.299 N 
ATOM      3  HN  UNK N   1      27.178  20.359   7.735  1.00  0.00     0.187 HD
HETATM    4  N   UNK N   1      26.087  20.184   5.966  0.00  0.00    -0.310 N 
HETATM    5  C   UNK N   1      26.063  19.251   4.994  0.00  0.00     0.123 A 
HETATM    6  C   UNK N   1      26.967  18.260   5.321  0.00  0.00     0.038 A 
HETATM    7  H   UNK N   1      25.533  20.998   5.988  0.00  0.00     0.186 HD
ENDROOT
BRANCH   1   8
HETATM    8  C   UNK N   1      28.643  18.070   7.341  0.00  0.00     0.027 A 
HETATM    9  C   UNK N   1      28.571  17.890   8.745  0.00  0.00     0.081 A 
HETATM   10  C   UNK N   1      29.640  17.313   9.434  0.00  0.00     0.074 A 
HETATM   11  C   UNK N   1      30.770  16.870   8.752  0.00  0.00     0.074 A 
HETATM   12  C   UNK N   1      30.826  16.974   7.358  0.00  0.00    -0.024 A 
HETATM   13  C   UNK N   1      29.768  17.574   6.664  0.00  0.00     0.026 A 
BRANCH   9  14
HETATM   14  O   UNK N   1      27.462  18.185   9.437  0.00  0.00    -0.360 OA
HETATM   15  H   UNK N   1      26.846  18.869   9.269  0.00  0.00     0.217 HD
ENDBRANCH   9  14
BRANCH  11  16
HETATM   16  O   UNK N   1      31.784  16.316   9.440  0.00  0.00    -0.360 OA
HETATM   17  H   UNK N   1      32.598  16.773   9.534  0.00  0.00     0.217 HD
ENDBRANCH  11  16
BRANCH  12  18
HETATM   18  C   UNK N   1      32.004  16.444   6.607  0.00  0.00     0.037 C 
HETATM   19  C   UNK N   1      33.022  17.549   6.382  0.00  0.00     0.010 C 
ENDBRANCH  12  18
ENDBRANCH   1   8
BRANCH   6  20
HETATM   20  C   UNK N   1      27.118  17.017   4.536  0.00  0.00     0.062 A 
HETATM   21  C   UNK N   1      26.610  15.786   4.883  0.00  0.00     0.119 A 
HETATM   22  N   UNK N   1      26.993  14.903   3.943  0.00  0.00    -0.360 N 
HETATM   23  C   UNK N   1      27.742  15.600   3.063  0.00  0.00     0.180 A 
HETATM   24  H   UNK N   1      26.773  13.944   3.905  0.00  0.00     0.166 HD
HETATM   25  N   UNK N   1      27.842  16.896   3.412  0.00  0.00    -0.350 N 
ATOM     26  HN  UNK N   1      28.359  17.630   2.927  1.00  0.00     0.166 HD
ENDBRANCH   6  20
TORSDOF 5
ENDMDL
MODEL 6
REMARK VINA RESULT:      -6.0      2.089      4.129
REMARK  5 active torsions:
REMARK  status: ('A' for Active; 'I' for Inactive)
REMARK    1  A    between atoms: O_1  and  C_2 
REMARK    2  A    between atoms: C_4  and  O_5 
REMARK    3  A    between atoms: C_6  and  C_7 
REMARK    4  A    between atoms: C_10  and  C_11 
REMARK    5  A    between atoms: C_16  and  C_17 
ROOT
HETATM    1  C   UNK N   1      30.261  17.708   8.150  0.00  0.00     0.075 A 
HETATM    2  N   UNK N   1      30.067  17.947   9.463  0.00  0.00    -0.299 N 
ATOM      3  HN  UNK N   1      30.751  17.782  10.202  1.00  0.00     0.187 HD
HETATM    4  N   UNK N   1      28.850  18.431   9.642  0.00  0.00    -0.310 N 
HETATM    5  C   UNK N   1      28.220  18.500   8.452  0.00  0.00     0.123 A 
HETATM    6  C   UNK N   1      29.079  18.028   7.479  0.00  0.00     0.038 A 
HETATM    7  H   UNK N   1      28.463  18.698  10.507  0.00  0.00     0.186 HD
ENDROOT
BRANCH   1   8
HETATM    8  C   UNK N   1      31.576  17.218   7.645  0.00  0.00     0.027 A 
HETATM    9  C   UNK N   1      32.471  16.424   8.405  0.00  0.00     0.081 A 
HETATM   10  C   UNK N   1      33.683  16.007   7.851  0.00  0.00     0.074 A 
HETATM   11  C   UNK N   1      34.011  16.325   6.535  0.00  0.00     0.074 A 
HETATM   12  C   UNK N   1      33.106  17.045   5.748  0.00  0.00    -0.024 A 
HETATM   13  C   UNK N   1      31.901  17.488   6.306  0.00  0.00     0.026 A 
BRANCH   9  14
HETATM   14  O   UNK N   1      32.156  15.985   9.631  0.00  0.00    -0.360 OA
HETATM   15  H   UNK N   1      32.737  15.672  10.295  0.00  0.00     0.217 HD
ENDBRANCH   9  14
BRANCH  11  16
HETATM   16  O   UNK N   1      35.183  15.908   6.026  0.00  0.00    -0.360 OA
HETATM   17  H   UNK N   1      35.928  15.791   6.583  0.00  0.00     0.217 HD
ENDBRANCH  11  16
BRANCH  12  18
HETATM   18  C   UNK N   1      33.417  17.338   4.316  0.00  0.00     0.037 C 
HETATM   19  C   UNK N   1      32.153  17.246   3.477  0.00  0.00     0.010 C 
ENDBRANCH  12  18
ENDBRANCH   1   8
BRANCH   6  20
HETATM   20  C   UNK N   1      28.675  17.850   6.068  0.00  0.00     0.062 A 
HETATM   21  C   UNK N   1      28.507  18.862   5.151  0.00  0.00     0.119 A 
HETATM   22  N   UNK N   1      28.095  18.307   3.996  0.00  0.00    -0.360 N 
HETATM   23  C   UNK N   1      27.995  16.982   4.237  0.00  0.00     0.180 A 
HETATM   24  H   UNK N   1      27.905  18.771   3.150  0.00  0.00     0.166 HD
HETATM   25  N   UNK N   1      28.335  16.679   5.504  0.00  0.00    -0.350 N 
ATOM     26  HN  UNK N   1      28.333  15.758   5.943  1.00  0.00     0.166 HD
ENDBRANCH   6  20
TORSDOF 5
ENDMDL
MODEL 7
REMARK VINA RESULT:      -6.0     14.657     17.186
REMARK  5 active torsions:
REMARK  status: ('A' for Active; 'I' for Inactive)
REMARK    1  A    between atoms: O_1  and  C_2 
REMARK    2  A    between atoms: C_4  and  O_5 
REMARK    3  A    between atoms: C_6  and  C_7 
REMARK    4  A    between atoms: C_10  and  C_11 
REMARK    5  A    between atoms: C_16  and  C_17 
ROOT
HETATM    1  C   UNK N   1      35.604  10.554  20.636  0.00  0.00     0.075 A 
HETATM    2  N   UNK N   1      36.677  10.706  21.439  0.00  0.00    -0.299 N 
ATOM      3  HN  UNK N   1      37.487  11.293  21.238  1.00  0.00     0.187 HD
HETATM    4  N   UNK N   1      36.512   9.976  22.529  0.00  0.00    -0.310 N 
HETATM    5  C   UNK N   1      35.338   9.319  22.450  0.00  0.00     0.123 A 
HETATM    6  C   UNK N   1      34.739   9.644  21.249  0.00  0.00     0.038 A 
HETATM    7  H   UNK N   1      37.147   9.920  23.279  0.00  0.00     0.186 HD
ENDROOT
BRANCH   1   8
HETATM    8  C   UNK N   1      35.485  11.316  19.360  0.00  0.00     0.027 A 
HETATM    9  C   UNK N   1      35.146  12.690  19.286  0.00  0.00     0.081 A 
HETATM   10  C   UNK N   1      35.058  13.326  18.046  0.00  0.00     0.074 A 
HETATM   11  C   UNK N   1      35.344  12.636  16.871  0.00  0.00     0.074 A 
HETATM   12  C   UNK N   1      35.751  11.298  16.931  0.00  0.00    -0.024 A 
HETATM   13  C   UNK N   1      35.816  10.649  18.170  0.00  0.00     0.026 A 
BRANCH   9  14
HETATM   14  O   UNK N   1      34.980  13.435  20.388  0.00  0.00    -0.360 OA
HETATM   15  H   UNK N   1      35.619  13.647  21.038  0.00  0.00     0.217 HD
ENDBRANCH   9  14
BRANCH  11  16
HETATM   16  O   UNK N   1      35.254  13.273  15.690  0.00  0.00    -0.360 OA
HETATM   17  H   UNK N   1      34.506  13.148  15.140  0.00  0.00     0.217 HD
ENDBRANCH  11  16
BRANCH  12  18
HETATM   18  C   UNK N   1      36.122  10.565  15.684  0.00  0.00     0.037 C 
HETATM   19  C   UNK N   1      34.915   9.826  15.132  0.00  0.00     0.010 C 
ENDBRANCH  12  18
ENDBRANCH   1   8
BRANCH   6  20
HETATM   20  C   UNK N   1      33.489   9.011  20.777  0.00  0.00     0.062 A 
HETATM   21  C   UNK N   1      33.405   8.017  19.830  0.00  0.00     0.119 A 
HETATM   22  N   UNK N   1      32.102   7.738  19.641  0.00  0.00    -0.360 N 
HETATM   23  C   UNK N   1      31.422   8.577  20.449  0.00  0.00     0.180 A 
HETATM   24  H   UNK N   1      31.723   7.060  19.036  0.00  0.00     0.166 HD
HETATM   25  N   UNK N   1      32.251   9.376  21.148  0.00  0.00    -0.350 N 
ATOM     26  HN  UNK N   1      31.993  10.104  21.815  1.00  0.00     0.166 HD
ENDBRANCH   6  20
TORSDOF 5
ENDMDL
MODEL 8
REMARK VINA RESULT:      -6.0      2.907      5.353
REMARK  5 active torsions:
REMARK  status: ('A' for Active; 'I' for Inactive)
REMARK    1  A    between atoms: O_1  and  C_2 
REMARK    2  A    between atoms: C_4  and  O_5 
REMARK    3  A    between atoms: C_6  and  C_7 
REMARK    4  A    between atoms: C_10  and  C_11 
REMARK    5  A    between atoms: C_16  and  C_17 
ROOT
HETATM    1  C   UNK N   1      30.789  17.356   4.530  0.00  0.00     0.075 A 
HETATM    2  N   UNK N   1      31.265  17.363   3.268  0.00  0.00    -0.299 N 
ATOM      3  HN  UNK N   1      30.698  17.442   2.423  1.00  0.00     0.187 HD
HETATM    4  N   UNK N   1      32.582  17.254   3.299  0.00  0.00    -0.310 N 
HETATM    5  C   UNK N   1      32.990  17.153   4.580  0.00  0.00     0.123 A 
HETATM    6  C   UNK N   1      31.875  17.193   5.394  0.00  0.00     0.038 A 
HETATM    7  H   UNK N   1      33.172  17.245   2.511  0.00  0.00     0.186 HD
ENDROOT
BRANCH   1   8
HETATM    8  C   UNK N   1      29.334  17.533   4.804  0.00  0.00     0.027 A 
HETATM    9  C   UNK N   1      28.487  16.504   5.286  0.00  0.00     0.081 A 
HETATM   10  C   UNK N   1      27.134  16.758   5.518  0.00  0.00     0.074 A 
HETATM   11  C   UNK N   1      26.606  18.032   5.321  0.00  0.00     0.074 A 
HETATM   12  C   UNK N   1      27.444  19.077   4.915  0.00  0.00    -0.024 A 
HETATM   13  C   UNK N   1      28.796  18.821   4.657  0.00  0.00     0.026 A 
BRANCH   9  14
HETATM   14  O   UNK N   1      28.964  15.293   5.610  0.00  0.00    -0.360 OA
HETATM   15  H   UNK N   1      29.294  14.634   5.033  0.00  0.00     0.217 HD
ENDBRANCH   9  14
BRANCH  11  16
HETATM   16  O   UNK N   1      25.300  18.251   5.553  0.00  0.00    -0.360 OA
HETATM   17  H   UNK N   1      24.850  18.944   5.110  0.00  0.00     0.217 HD
ENDBRANCH  11  16
BRANCH  12  18
HETATM   18  C   UNK N   1      26.905  20.462   4.762  0.00  0.00     0.037 C 
HETATM   19  C   UNK N   1      27.231  21.289   5.994  0.00  0.00     0.010 C 
ENDBRANCH  12  18
ENDBRANCH   1   8
BRANCH   6  20
HETATM   20  C   UNK N   1      31.941  16.989   6.856  0.00  0.00     0.062 A 
HETATM   21  C   UNK N   1      32.677  17.748   7.737  0.00  0.00     0.119 A 
HETATM   22  N   UNK N   1      32.513  17.227   8.966  0.00  0.00    -0.360 N 
HETATM   23  C   UNK N   1      31.709  16.154   8.810  0.00  0.00     0.180 A 
HETATM   24  H   UNK N   1      32.901  17.559   9.808  0.00  0.00     0.166 HD
HETATM   25  N   UNK N   1      31.354  15.981   7.523  0.00  0.00    -0.350 N 
ATOM     26  HN  UNK N   1      30.766  15.243   7.136  1.00  0.00     0.166 HD
ENDBRANCH   6  20
TORSDOF 5
ENDMDL
MODEL 9
REMARK VINA RESULT:      -5.8     12.332     14.271
REMARK  5 active torsions:
REMARK  status: ('A' for Active; 'I' for Inactive)
REMARK    1  A    between atoms: O_1  and  C_2 
REMARK    2  A    between atoms: C_4  and  O_5 
REMARK    3  A    between atoms: C_6  and  C_7 
REMARK    4  A    between atoms: C_10  and  C_11 
REMARK    5  A    between atoms: C_16  and  C_17 
ROOT
HETATM    1  C   UNK N   1      28.262  24.311  -5.228  0.00  0.00     0.075 A 
HETATM    2  N   UNK N   1      29.482  23.943  -4.786  0.00  0.00    -0.299 N 
ATOM      3  HN  UNK N   1      30.052  24.466  -4.120  1.00  0.00     0.187 HD
HETATM    4  N   UNK N   1      29.822  22.797  -5.351  0.00  0.00    -0.310 N 
HETATM    5  C   UNK N   1      28.840  22.405  -6.186  0.00  0.00     0.123 A 
HETATM    6  C   UNK N   1      27.837  23.354  -6.153  0.00  0.00     0.038 A 
HETATM    7  H   UNK N   1      30.661  22.308  -5.189  0.00  0.00     0.186 HD
ENDROOT
BRANCH   1   8
HETATM    8  C   UNK N   1      27.594  25.538  -4.706  0.00  0.00     0.027 A 
HETATM    9  C   UNK N   1      26.786  25.565  -3.542  0.00  0.00     0.081 A 
HETATM   10  C   UNK N   1      26.199  26.761  -3.122  0.00  0.00     0.074 A 
HETATM   11  C   UNK N   1      26.431  27.948  -3.813  0.00  0.00     0.074 A 
HETATM   12  C   UNK N   1      27.284  27.952  -4.922  0.00  0.00    -0.024 A 
HETATM   13  C   UNK N   1      27.855  26.751  -5.361  0.00  0.00     0.026 A 
BRANCH   9  14
HETATM   14  O   UNK N   1      26.627  24.481  -2.769  0.00  0.00    -0.360 OA
HETATM   15  H   UNK N   1      27.229  24.129  -2.145  0.00  0.00     0.217 HD
ENDBRANCH   9  14
BRANCH  11  16
HETATM   16  O   UNK N   1      25.855  29.085  -3.387  0.00  0.00    -0.360 OA
HETATM   17  H   UNK N   1      25.011  29.339  -3.707  0.00  0.00     0.217 HD
ENDBRANCH  11  16
BRANCH  12  18
HETATM   18  C   UNK N   1      27.593  29.229  -5.633  0.00  0.00     0.037 C 
HETATM   19  C   UNK N   1      28.193  28.936  -6.998  0.00  0.00     0.010 C 
ENDBRANCH  12  18
ENDBRANCH   1   8
BRANCH   6  20
HETATM   20  C   UNK N   1      26.655  23.305  -7.038  0.00  0.00     0.062 A 
HETATM   21  C   UNK N   1      25.596  22.436  -6.911  0.00  0.00     0.119 A 
HETATM   22  N   UNK N   1      24.745  22.672  -7.926  0.00  0.00    -0.360 N 
HETATM   23  C   UNK N   1      25.308  23.653  -8.661  0.00  0.00     0.180 A 
HETATM   24  H   UNK N   1      23.887  22.221  -8.097  0.00  0.00     0.166 HD
HETATM   25  N   UNK N   1      26.486  24.050  -8.143  0.00  0.00    -0.350 N 
ATOM     26  HN  UNK N   1      27.116  24.763  -8.511  1.00  0.00     0.166 HD
ENDBRANCH   6  20
TORSDOF 5
ENDMDL
