MODEL 1
REMARK VINA RESULT:      -8.9      0.000      0.000
REMARK  5 active torsions:
REMARK  status: ('A' for Active; 'I' for Inactive)
REMARK       I    between atoms: N_1  and  C_2 
REMARK    1  A    between atoms: C_5  and  O_6 
REMARK    2  A    between atoms: N_10  and  C_16 
REMARK    3  A    between atoms: C_20  and  C_22 
REMARK       I    between atoms: C_22  and  N_24 
REMARK    4  A    between atoms: N_24  and  C_25 
REMARK    5  A    between atoms: C_25  and  C_26 
ROOT
HETATM    1  C   UNK N   1      35.333  14.892  10.251  0.00  0.00     0.075 A 
HETATM    2  C   UNK N   1      35.498  14.013   9.172  0.00  0.00     0.033 A 
HETATM    3  C   UNK N   1      35.325  14.468   7.863  0.00  0.00     0.003 A 
HETATM    4  C   UNK N   1      34.968  15.798   7.627  0.00  0.00     0.017 A 
HETATM    5  C   UNK N   1      34.821  16.699   8.695  0.00  0.00     0.034 A 
HETATM    6  C   UNK N   1      35.007  16.231  10.005  0.00  0.00     0.050 A 
ENDROOT
BRANCH   1   7
HETATM    7  N   UNK N   1      35.461  14.410  11.596  0.00  0.00    -0.195 N 
HETATM    8  N   UNK N   1      36.281  14.941  12.502  0.00  0.00    -0.272 N 
HETATM    9  C   UNK N   1      36.116  14.207  13.611  0.00  0.00     0.147 A 
ATOM     10  HN  UNK N   1      36.905  15.739  12.376  1.00  0.00     0.189 HD
HETATM   11  C   UNK N   1      36.702  14.302  14.858  0.00  0.00     0.187 A 
HETATM   12  C   UNK N   1      35.204  13.249  13.358  0.00  0.00     0.170 A 
HETATM   13  N   UNK N   1      36.317  13.401  15.812  0.00  0.00    -0.168 N 
HETATM   14  C   UNK N   1      35.380  12.431  15.534  0.00  0.00     0.679 A 
ATOM     15  HN  UNK N   1      36.731  13.447  16.742  1.00  0.00     0.186 HD
HETATM   16  N   UNK N   1      34.997  11.521  16.539  0.00  0.00    -0.234 N 
HETATM   17  N   UNK N   1      34.813  12.348  14.287  0.00  0.00    -0.173 N 
HETATM   18  H   UNK N   1      35.343  11.625  17.455  0.00  0.00     0.174 HD
HETATM   19  H   UNK N   1      34.384  10.782  16.326  0.00  0.00     0.174 HD
ATOM     20  HN  UNK N   1      34.119  11.632  14.070  1.00  0.00     0.186 HD
HETATM   21  N   UNK N   1      34.788  13.367  12.089  0.00  0.00    -0.261 N 
ATOM     22  HN  UNK N   1      34.105  12.786  11.604  1.00  0.00     0.191 HD
BRANCH  11  23
HETATM   23  O   UNK N   1      37.616  15.248  15.133  0.00  0.00    -0.344 OA
HETATM   24  H   UNK N   1      37.460  15.868  15.818  0.00  0.00     0.219 HD
ENDBRANCH  11  23
ENDBRANCH   1   7
BRANCH   5  25
HETATM   25  C   UNK N   1      34.400  18.105   8.416  0.00  0.00     0.252 C 
HETATM   26  O   UNK N   1      35.237  18.991   8.494  0.00  0.00    -0.268 OA
HETATM   27  N   UNK N   1      33.119  18.452   8.104  0.00  0.00    -0.353 N 
HETATM   28  H   UNK N   1      32.954  19.366   7.777  0.00  0.00     0.163 HD
BRANCH  27  29
HETATM   29  C   UNK N   1      31.989  17.559   8.223  0.00  0.00     0.161 C 
BRANCH  29  30
HETATM   30  C   UNK N   1      31.321  17.258   6.924  0.00  0.00    -0.037 A 
HETATM   31  C   UNK N   1      32.042  17.263   5.723  0.00  0.00     0.032 A 
HETATM   32  C   UNK N   1      31.372  17.102   4.503  0.00  0.00     0.036 A 
HETATM   33 Cl   UNK N   1      32.268  17.116   3.000  0.00  0.00    -0.084 Cl
HETATM   34  C   UNK N   1      29.980  16.964   4.483  0.00  0.00     0.047 A 
HETATM   35  C   UNK N   1      29.260  16.970   5.681  0.00  0.00     0.036 A 
HETATM   36 Cl   UNK N   1      27.514  16.849   5.655  0.00  0.00    -0.084 Cl
HETATM   37  C   UNK N   1      29.930  17.119   6.898  0.00  0.00     0.032 A 
ENDBRANCH  29  30
ENDBRANCH  27  29
ENDBRANCH   5  25
TORSDOF 5
ENDMDL
MODEL 2
REMARK VINA RESULT:      -8.8      0.254      1.697
REMARK  5 active torsions:
REMARK  status: ('A' for Active; 'I' for Inactive)
REMARK       I    between atoms: N_1  and  C_2 
REMARK    1  A    between atoms: C_5  and  O_6 
REMARK    2  A    between atoms: N_10  and  C_16 
REMARK    3  A    between atoms: C_20  and  C_22 
REMARK       I    between atoms: C_22  and  N_24 
REMARK    4  A    between atoms: N_24  and  C_25 
REMARK    5  A    between atoms: C_25  and  C_26 
ROOT
HETATM    1  C   UNK N   1      35.348  14.890  10.250  0.00  0.00     0.075 A 
HETATM    2  C   UNK N   1      35.542  14.013   9.175  0.00  0.00     0.033 A 
HETATM    3  C   UNK N   1      35.375  14.462   7.864  0.00  0.00     0.003 A 
HETATM    4  C   UNK N   1      34.995  15.784   7.620  0.00  0.00     0.017 A 
HETATM    5  C   UNK N   1      34.820  16.685   8.685  0.00  0.00     0.034 A 
HETATM    6  C   UNK N   1      34.999  16.223   9.998  0.00  0.00     0.050 A 
ENDROOT
BRANCH   1   7
HETATM    7  N   UNK N   1      35.469  14.414  11.597  0.00  0.00    -0.195 N 
HETATM    8  N   UNK N   1      36.289  14.946  12.503  0.00  0.00    -0.272 N 
HETATM    9  C   UNK N   1      36.117  14.217  13.616  0.00  0.00     0.147 A 
ATOM     10  HN  UNK N   1      36.916  15.740  12.377  1.00  0.00     0.189 HD
HETATM   11  C   UNK N   1      36.699  14.314  14.864  0.00  0.00     0.187 A 
HETATM   12  C   UNK N   1      35.202  13.262  13.363  0.00  0.00     0.170 A 
HETATM   13  N   UNK N   1      36.308  13.419  15.820  0.00  0.00    -0.168 N 
HETATM   14  C   UNK N   1      35.367  12.452  15.544  0.00  0.00     0.679 A 
ATOM     15  HN  UNK N   1      36.719  13.467  16.752  1.00  0.00     0.186 HD
HETATM   16  N   UNK N   1      34.977  11.548  16.552  0.00  0.00    -0.234 N 
HETATM   17  N   UNK N   1      34.804  12.366  14.296  0.00  0.00    -0.173 N 
HETATM   18  H   UNK N   1      35.321  11.654  17.468  0.00  0.00     0.174 HD
HETATM   19  H   UNK N   1      34.361  10.811  16.340  0.00  0.00     0.174 HD
ATOM     20  HN  UNK N   1      34.108  11.652  14.079  1.00  0.00     0.186 HD
HETATM   21  N   UNK N   1      34.790  13.376  12.092  0.00  0.00    -0.261 N 
ATOM     22  HN  UNK N   1      34.106  12.796  11.609  1.00  0.00     0.191 HD
BRANCH  11  23
HETATM   23  O   UNK N   1      37.616  15.258  15.138  0.00  0.00    -0.344 OA
HETATM   24  H   UNK N   1      37.375  16.164  15.135  0.00  0.00     0.219 HD
ENDBRANCH  11  23
ENDBRANCH   1   7
BRANCH   5  25
HETATM   25  C   UNK N   1      34.375  18.082   8.398  0.00  0.00     0.252 C 
HETATM   26  O   UNK N   1      35.196  18.983   8.478  0.00  0.00    -0.268 OA
HETATM   27  N   UNK N   1      33.090  18.405   8.075  0.00  0.00    -0.353 N 
HETATM   28  H   UNK N   1      32.911  19.315   7.744  0.00  0.00     0.163 HD
BRANCH  27  29
HETATM   29  C   UNK N   1      31.976  17.492   8.190  0.00  0.00     0.161 C 
BRANCH  29  30
HETATM   30  C   UNK N   1      31.275  17.233   6.899  0.00  0.00    -0.037 A 
HETATM   31  C   UNK N   1      29.956  16.762   6.875  0.00  0.00     0.032 A 
HETATM   32  C   UNK N   1      29.361  16.407   5.658  0.00  0.00     0.036 A 
HETATM   33 Cl   UNK N   1      27.716  15.810   5.626  0.00  0.00    -0.084 Cl
HETATM   34  C   UNK N   1      30.093  16.497   4.470  0.00  0.00     0.047 A 
HETATM   35  C   UNK N   1      31.412  16.957   4.495  0.00  0.00     0.036 A 
HETATM   36 Cl   UNK N   1      32.347  17.022   3.016  0.00  0.00    -0.084 Cl
HETATM   37  C   UNK N   1      32.002  17.322   5.708  0.00  0.00     0.032 A 
ENDBRANCH  29  30
ENDBRANCH  27  29
ENDBRANCH   5  25
TORSDOF 5
ENDMDL
MODEL 3
REMARK VINA RESULT:      -8.5      7.421     12.746
REMARK  5 active torsions:
REMARK  status: ('A' for Active; 'I' for Inactive)
REMARK       I    between atoms: N_1  and  C_2 
REMARK    1  A    between atoms: C_5  and  O_6 
REMARK    2  A    between atoms: N_10  and  C_16 
REMARK    3  A    between atoms: C_20  and  C_22 
REMARK       I    between atoms: C_22  and  N_24 
REMARK    4  A    between atoms: N_24  and  C_25 
REMARK    5  A    between atoms: C_25  and  C_26 
ROOT
HETATM    1  C   UNK N   1      26.065  18.925   4.063  0.00  0.00     0.075 A 
HETATM    2  C   UNK N   1      26.655  20.008   4.727  0.00  0.00     0.033 A 
HETATM    3  C   UNK N   1      28.024  19.999   5.005  0.00  0.00     0.003 A 
HETATM    4  C   UNK N   1      28.805  18.901   4.638  0.00  0.00     0.017 A 
HETATM    5  C   UNK N   1      28.234  17.816   3.950  0.00  0.00     0.034 A 
HETATM    6  C   UNK N   1      26.859  17.842   3.669  0.00  0.00     0.050 A 
ENDROOT
BRANCH   1   7
HETATM    7  N   UNK N   1      24.650  18.913   3.824  0.00  0.00    -0.195 N 
HETATM    8  N   UNK N   1      23.950  19.983   3.450  0.00  0.00    -0.272 N 
HETATM    9  C   UNK N   1      22.680  19.564   3.348  0.00  0.00     0.147 A 
ATOM     10  HN  UNK N   1      24.305  20.924   3.279  1.00  0.00     0.189 HD
HETATM   11  C   UNK N   1      21.528  20.237   2.993  0.00  0.00     0.187 A 
HETATM   12  C   UNK N   1      22.636  18.255   3.661  0.00  0.00     0.170 A 
HETATM   13  N   UNK N   1      20.360  19.527   2.966  0.00  0.00    -0.168 N 
HETATM   14  C   UNK N   1      20.336  18.188   3.286  0.00  0.00     0.679 A 
ATOM     15  HN  UNK N   1      19.492  19.996   2.707  1.00  0.00     0.186 HD
HETATM   16  N   UNK N   1      19.118  17.481   3.242  0.00  0.00    -0.234 N 
HETATM   17  N   UNK N   1      21.490  17.537   3.643  0.00  0.00    -0.173 N 
HETATM   18  H   UNK N   1      18.302  17.924   2.913  0.00  0.00     0.174 HD
HETATM   19  H   UNK N   1      19.082  16.544   3.540  0.00  0.00     0.174 HD
ATOM     20  HN  UNK N   1      21.483  16.545   3.884  1.00  0.00     0.186 HD
HETATM   21  N   UNK N   1      23.873  17.837   3.966  0.00  0.00    -0.261 N 
ATOM     22  HN  UNK N   1      24.158  16.899   4.246  1.00  0.00     0.191 HD
BRANCH  11  23
HETATM   23  O   UNK N   1      21.548  21.543   2.678  0.00  0.00    -0.344 OA
HETATM   24  H   UNK N   1      21.992  21.835   1.907  0.00  0.00     0.219 HD
ENDBRANCH  11  23
ENDBRANCH   1   7
BRANCH   5  25
HETATM   25  C   UNK N   1      29.085  16.637   3.605  0.00  0.00     0.252 C 
HETATM   26  O   UNK N   1      29.342  16.428   2.429  0.00  0.00    -0.268 OA
HETATM   27  N   UNK N   1      29.567  15.767   4.537  0.00  0.00    -0.353 N 
HETATM   28  H   UNK N   1      30.248  15.115   4.252  0.00  0.00     0.163 HD
BRANCH  27  29
HETATM   29  C   UNK N   1      29.140  15.744   5.917  0.00  0.00     0.161 C 
BRANCH  29  30
HETATM   30  C   UNK N   1      30.055  16.476   6.841  0.00  0.00    -0.037 A 
HETATM   31  C   UNK N   1      29.553  17.197   7.932  0.00  0.00     0.032 A 
HETATM   32  C   UNK N   1      30.415  17.977   8.712  0.00  0.00     0.036 A 
HETATM   33 Cl   UNK N   1      29.790  18.887  10.071  0.00  0.00    -0.084 Cl
HETATM   34  C   UNK N   1      31.773  18.057   8.386  0.00  0.00     0.047 A 
HETATM   35  C   UNK N   1      32.271  17.346   7.292  0.00  0.00     0.036 A 
HETATM   36 Cl   UNK N   1      33.960  17.485   6.850  0.00  0.00    -0.084 Cl
HETATM   37  C   UNK N   1      31.413  16.558   6.520  0.00  0.00     0.032 A 
ENDBRANCH  29  30
ENDBRANCH  27  29
ENDBRANCH   5  25
TORSDOF 5
ENDMDL
MODEL 4
REMARK VINA RESULT:      -8.5      7.239      9.843
REMARK  5 active torsions:
REMARK  status: ('A' for Active; 'I' for Inactive)
REMARK       I    between atoms: N_1  and  C_2 
REMARK    1  A    between atoms: C_5  and  O_6 
REMARK    2  A    between atoms: N_10  and  C_16 
REMARK    3  A    between atoms: C_20  and  C_22 
REMARK       I    between atoms: C_22  and  N_24 
REMARK    4  A    between atoms: N_24  and  C_25 
REMARK    5  A    between atoms: C_25  and  C_26 
ROOT
HETATM    1  C   UNK N   1      25.750  14.312   6.958  0.00  0.00     0.075 A 
HETATM    2  C   UNK N   1      26.072  13.561   5.820  0.00  0.00     0.033 A 
HETATM    3  C   UNK N   1      26.883  14.108   4.824  0.00  0.00     0.003 A 
HETATM    4  C   UNK N   1      27.360  15.415   4.950  0.00  0.00     0.017 A 
HETATM    5  C   UNK N   1      27.067  16.175   6.095  0.00  0.00     0.034 A 
HETATM    6  C   UNK N   1      26.258  15.610   7.093  0.00  0.00     0.050 A 
ENDROOT
BRANCH   1   7
HETATM    7  N   UNK N   1      24.875  13.767   7.955  0.00  0.00    -0.195 N 
HETATM    8  N   UNK N   1      23.575  13.544   7.763  0.00  0.00    -0.272 N 
HETATM    9  C   UNK N   1      23.120  13.050   8.924  0.00  0.00     0.147 A 
ATOM     10  HN  UNK N   1      23.040  13.713   6.911  1.00  0.00     0.189 HD
HETATM   11  C   UNK N   1      21.857  12.637   9.301  0.00  0.00     0.187 A 
HETATM   12  C   UNK N   1      24.147  12.986   9.792  0.00  0.00     0.170 A 
HETATM   13  N   UNK N   1      21.698  12.161  10.573  0.00  0.00    -0.168 N 
HETATM   14  C   UNK N   1      22.762  12.099  11.446  0.00  0.00     0.679 A 
ATOM     15  HN  UNK N   1      20.778  11.847  10.880  1.00  0.00     0.186 HD
HETATM   16  N   UNK N   1      22.569  11.596  12.748  0.00  0.00    -0.234 N 
HETATM   17  N   UNK N   1      24.008  12.520  11.055  0.00  0.00    -0.173 N 
HETATM   18  H   UNK N   1      21.695  11.222  13.007  0.00  0.00     0.174 HD
HETATM   19  H   UNK N   1      23.307  11.618  13.398  0.00  0.00     0.174 HD
ATOM     20  HN  UNK N   1      24.802  12.481  11.694  1.00  0.00     0.186 HD
HETATM   21  N   UNK N   1      25.256  13.439   9.192  0.00  0.00    -0.261 N 
ATOM     22  HN  UNK N   1      26.190  13.516   9.593  1.00  0.00     0.191 HD
BRANCH  11  23
HETATM   23  O   UNK N   1      20.818  12.694   8.452  0.00  0.00    -0.344 OA
HETATM   24  H   UNK N   1      20.161  12.026   8.465  0.00  0.00     0.219 HD
ENDBRANCH  11  23
ENDBRANCH   1   7
BRANCH   5  25
HETATM   25  C   UNK N   1      27.557  17.584   6.185  0.00  0.00     0.252 C 
HETATM   26  O   UNK N   1      26.961  18.450   5.562  0.00  0.00    -0.268 OA
HETATM   27  N   UNK N   1      28.653  17.947   6.910  0.00  0.00    -0.353 N 
HETATM   28  H   UNK N   1      28.816  18.908   7.052  0.00  0.00     0.163 HD
BRANCH  27  29
HETATM   29  C   UNK N   1      29.589  17.008   7.483  0.00  0.00     0.161 C 
BRANCH  29  30
HETATM   30  C   UNK N   1      30.971  17.127   6.935  0.00  0.00    -0.037 A 
HETATM   31  C   UNK N   1      32.035  17.548   7.744  0.00  0.00     0.032 A 
HETATM   32  C   UNK N   1      33.297  17.774   7.180  0.00  0.00     0.036 A 
HETATM   33 Cl   UNK N   1      34.626  18.308   8.186  0.00  0.00    -0.084 Cl
HETATM   34  C   UNK N   1      33.489  17.604   5.805  0.00  0.00     0.047 A 
HETATM   35  C   UNK N   1      32.425  17.195   4.996  0.00  0.00     0.036 A 
HETATM   36 Cl   UNK N   1      32.649  17.033   3.268  0.00  0.00    -0.084 Cl
HETATM   37  C   UNK N   1      31.168  16.959   5.561  0.00  0.00     0.032 A 
ENDBRANCH  29  30
ENDBRANCH  27  29
ENDBRANCH   5  25
TORSDOF 5
ENDMDL
MODEL 5
REMARK VINA RESULT:      -8.4      2.671      3.805
REMARK  5 active torsions:
REMARK  status: ('A' for Active; 'I' for Inactive)
REMARK       I    between atoms: N_1  and  C_2 
REMARK    1  A    between atoms: C_5  and  O_6 
REMARK    2  A    between atoms: N_10  and  C_16 
REMARK    3  A    between atoms: C_20  and  C_22 
REMARK       I    between atoms: C_22  and  N_24 
REMARK    4  A    between atoms: N_24  and  C_25 
REMARK    5  A    between atoms: C_25  and  C_26 
ROOT
HETATM    1  C   UNK N   1      33.914  16.227   9.181  0.00  0.00     0.075 A 
HETATM    2  C   UNK N   1      34.467  17.451   8.781  0.00  0.00     0.033 A 
HETATM    3  C   UNK N   1      33.974  18.108   7.652  0.00  0.00     0.003 A 
HETATM    4  C   UNK N   1      32.940  17.536   6.906  0.00  0.00     0.017 A 
HETATM    5  C   UNK N   1      32.358  16.322   7.305  0.00  0.00     0.034 A 
HETATM    6  C   UNK N   1      32.856  15.676   8.448  0.00  0.00     0.050 A 
ENDROOT
BRANCH   1   7
HETATM    7  N   UNK N   1      34.456  15.528  10.310  0.00  0.00    -0.195 N 
HETATM    8  N   UNK N   1      34.154  14.268  10.621  0.00  0.00    -0.272 N 
HETATM    9  C   UNK N   1      34.847  13.996  11.736  0.00  0.00     0.147 A 
ATOM     10  HN  UNK N   1      33.526  13.642  10.116  1.00  0.00     0.189 HD
HETATM   11  C   UNK N   1      34.925  12.848  12.499  0.00  0.00     0.187 A 
HETATM   12  C   UNK N   1      35.551  15.092  12.079  0.00  0.00     0.170 A 
HETATM   13  N   UNK N   1      35.741  12.868  13.596  0.00  0.00    -0.168 N 
HETATM   14  C   UNK N   1      36.456  13.997  13.928  0.00  0.00     0.679 A 
ATOM     15  HN  UNK N   1      35.820  12.034  14.178  1.00  0.00     0.186 HD
HETATM   16  N   UNK N   1      37.294  13.985  15.060  0.00  0.00    -0.234 N 
HETATM   17  N   UNK N   1      36.361  15.131  13.161  0.00  0.00    -0.173 N 
HETATM   18  H   UNK N   1      37.425  13.151  15.568  0.00  0.00     0.174 HD
HETATM   19  H   UNK N   1      37.750  14.810  15.343  0.00  0.00     0.174 HD
ATOM     20  HN  UNK N   1      36.885  15.974  13.400  1.00  0.00     0.186 HD
HETATM   21  N   UNK N   1      35.308  16.064  11.188  0.00  0.00    -0.261 N 
ATOM     22  HN  UNK N   1      35.692  17.008  11.182  1.00  0.00     0.191 HD
BRANCH  11  23
HETATM   23  O   UNK N   1      34.230  11.744  12.177  0.00  0.00    -0.344 OA
HETATM   24  H   UNK N   1      34.678  10.968  11.902  0.00  0.00     0.219 HD
ENDBRANCH  11  23
ENDBRANCH   1   7
BRANCH   5  25
HETATM   25  C   UNK N   1      31.281  15.713   6.467  0.00  0.00     0.252 C 
HETATM   26  O   UNK N   1      31.587  14.847   5.662  0.00  0.00    -0.268 OA
HETATM   27  N   UNK N   1      29.974  16.097   6.538  0.00  0.00    -0.353 N 
HETATM   28  H   UNK N   1      29.304  15.542   6.076  0.00  0.00     0.163 HD
BRANCH  27  29
HETATM   29  C   UNK N   1      29.514  17.267   7.249  0.00  0.00     0.161 C 
BRANCH  29  30
HETATM   30  C   UNK N   1      28.523  18.082   6.489  0.00  0.00    -0.037 A 
HETATM   31  C   UNK N   1      28.096  19.328   6.965  0.00  0.00     0.032 A 
HETATM   32  C   UNK N   1      27.074  20.019   6.302  0.00  0.00     0.036 A 
HETATM   33 Cl   UNK N   1      26.533  21.572   6.899  0.00  0.00    -0.084 Cl
HETATM   34  C   UNK N   1      26.461  19.452   5.180  0.00  0.00     0.047 A 
HETATM   35  C   UNK N   1      26.879  18.203   4.712  0.00  0.00     0.036 A 
HETATM   36 Cl   UNK N   1      26.079  17.467   3.339  0.00  0.00    -0.084 Cl
HETATM   37  C   UNK N   1      27.907  17.519   5.367  0.00  0.00     0.032 A 
ENDBRANCH  29  30
ENDBRANCH  27  29
ENDBRANCH   5  25
TORSDOF 5
ENDMDL
MODEL 6
REMARK VINA RESULT:      -8.2      4.627      9.626
REMARK  5 active torsions:
REMARK  status: ('A' for Active; 'I' for Inactive)
REMARK       I    between atoms: N_1  and  C_2 
REMARK    1  A    between atoms: C_5  and  O_6 
REMARK    2  A    between atoms: N_10  and  C_16 
REMARK    3  A    between atoms: C_20  and  C_22 
REMARK       I    between atoms: C_22  and  N_24 
REMARK    4  A    between atoms: N_24  and  C_25 
REMARK    5  A    between atoms: C_25  and  C_26 
ROOT
HETATM    1  C   UNK N   1      31.855  17.041   5.880  0.00  0.00     0.075 A 
HETATM    2  C   UNK N   1      32.620  16.286   4.981  0.00  0.00     0.033 A 
HETATM    3  C   UNK N   1      33.976  16.065   5.226  0.00  0.00     0.003 A 
HETATM    4  C   UNK N   1      34.581  16.613   6.360  0.00  0.00     0.017 A 
HETATM    5  C   UNK N   1      33.825  17.353   7.286  0.00  0.00     0.034 A 
HETATM    6  C   UNK N   1      32.460  17.560   7.032  0.00  0.00     0.050 A 
ENDROOT
BRANCH   1   7
HETATM    7  N   UNK N   1      30.475  17.310   5.601  0.00  0.00    -0.195 N 
HETATM    8  N   UNK N   1      29.465  16.881   6.358  0.00  0.00    -0.272 N 
HETATM    9  C   UNK N   1      28.352  17.326   5.757  0.00  0.00     0.147 A 
ATOM     10  HN  UNK N   1      29.527  16.329   7.213  1.00  0.00     0.189 HD
HETATM   11  C   UNK N   1      27.020  17.187   6.096  0.00  0.00     0.187 A 
HETATM   12  C   UNK N   1      28.706  18.012   4.654  0.00  0.00     0.170 A 
HETATM   13  N   UNK N   1      26.092  17.772   5.281  0.00  0.00    -0.168 N 
HETATM   14  C   UNK N   1      26.475  18.473   4.159  0.00  0.00     0.679 A 
ATOM     15  HN  UNK N   1      25.101  17.688   5.506  1.00  0.00     0.186 HD
HETATM   16  N   UNK N   1      25.496  19.072   3.342  0.00  0.00    -0.234 N 
HETATM   17  N   UNK N   1      27.802  18.595   3.834  0.00  0.00    -0.173 N 
HETATM   18  H   UNK N   1      24.549  19.052   3.612  0.00  0.00     0.174 HD
HETATM   19  H   UNK N   1      25.758  19.511   2.501  0.00  0.00     0.174 HD
ATOM     20  HN  UNK N   1      28.097  19.110   3.004  1.00  0.00     0.186 HD
HETATM   21  N   UNK N   1      30.042  18.005   4.546  0.00  0.00    -0.261 N 
ATOM     22  HN  UNK N   1      30.607  18.436   3.814  1.00  0.00     0.191 HD
BRANCH  11  23
HETATM   23  O   UNK N   1      26.643  16.505   7.191  0.00  0.00    -0.344 OA
HETATM   24  H   UNK N   1      27.221  16.437   7.926  0.00  0.00     0.219 HD
ENDBRANCH  11  23
ENDBRANCH   1   7
BRANCH   5  25
HETATM   25  C   UNK N   1      34.505  17.961   8.469  0.00  0.00     0.252 C 
HETATM   26  O   UNK N   1      35.034  19.054   8.340  0.00  0.00    -0.268 OA
HETATM   27  N   UNK N   1      34.585  17.343   9.682  0.00  0.00    -0.353 N 
HETATM   28  H   UNK N   1      34.903  17.871  10.450  0.00  0.00     0.163 HD
BRANCH  27  29
HETATM   29  C   UNK N   1      34.231  15.960   9.908  0.00  0.00     0.161 C 
BRANCH  29  30
HETATM   30  C   UNK N   1      35.359  15.127  10.416  0.00  0.00    -0.037 A 
HETATM   31  C   UNK N   1      36.246  14.497   9.533  0.00  0.00     0.032 A 
HETATM   32  C   UNK N   1      37.220  13.619  10.025  0.00  0.00     0.036 A 
HETATM   33 Cl   UNK N   1      38.323  12.823   8.924  0.00  0.00    -0.084 Cl
HETATM   34  C   UNK N   1      37.290  13.352  11.396  0.00  0.00     0.047 A 
HETATM   35  C   UNK N   1      36.399  13.972  12.276  0.00  0.00     0.036 A 
HETATM   36 Cl   UNK N   1      36.451  13.599  13.986  0.00  0.00    -0.084 Cl
HETATM   37  C   UNK N   1      35.435  14.857  11.785  0.00  0.00     0.032 A 
ENDBRANCH  29  30
ENDBRANCH  27  29
ENDBRANCH   5  25
TORSDOF 5
ENDMDL
MODEL 7
REMARK VINA RESULT:      -8.2      4.950     10.016
REMARK  5 active torsions:
REMARK  status: ('A' for Active; 'I' for Inactive)
REMARK       I    between atoms: N_1  and  C_2 
REMARK    1  A    between atoms: C_5  and  O_6 
REMARK    2  A    between atoms: N_10  and  C_16 
REMARK    3  A    between atoms: C_20  and  C_22 
REMARK       I    between atoms: C_22  and  N_24 
REMARK    4  A    between atoms: N_24  and  C_25 
REMARK    5  A    between atoms: C_25  and  C_26 
ROOT
HETATM    1  C   UNK N   1      35.603  13.957  11.825  0.00  0.00     0.075 A 
HETATM    2  C   UNK N   1      36.227  12.772  11.413  0.00  0.00     0.033 A 
HETATM    3  C   UNK N   1      36.965  12.013  12.323  0.00  0.00     0.003 A 
HETATM    4  C   UNK N   1      37.101  12.445  13.645  0.00  0.00     0.017 A 
HETATM    5  C   UNK N   1      36.464  13.618  14.082  0.00  0.00     0.034 A 
HETATM    6  C   UNK N   1      35.716  14.366  13.159  0.00  0.00     0.050 A 
ENDROOT
BRANCH   1   7
HETATM    7  N   UNK N   1      34.888  14.761  10.877  0.00  0.00    -0.195 N 
HETATM    8  N   UNK N   1      35.310  15.947  10.439  0.00  0.00    -0.272 N 
HETATM    9  C   UNK N   1      34.366  16.372   9.587  0.00  0.00     0.147 A 
ATOM     10  HN  UNK N   1      36.171  16.429  10.698  1.00  0.00     0.189 HD
HETATM   11  C   UNK N   1      34.275  17.528   8.836  0.00  0.00     0.187 A 
HETATM   12  C   UNK N   1      33.395  15.441   9.527  0.00  0.00     0.170 A 
HETATM   13  N   UNK N   1      33.178  17.681   8.036  0.00  0.00    -0.168 N 
HETATM   14  C   UNK N   1      32.196  16.716   7.985  0.00  0.00     0.679 A 
ATOM     15  HN  UNK N   1      33.083  18.523   7.469  1.00  0.00     0.186 HD
HETATM   16  N   UNK N   1      31.081  16.898   7.144  0.00  0.00    -0.234 N 
HETATM   17  N   UNK N   1      32.301  15.577   8.743  0.00  0.00    -0.173 N 
HETATM   18  H   UNK N   1      31.039  17.675   6.542  0.00  0.00     0.174 HD
HETATM   19  H   UNK N   1      30.343  16.247   7.159  0.00  0.00     0.174 HD
ATOM     20  HN  UNK N   1      31.579  14.856   8.714  1.00  0.00     0.186 HD
HETATM   21  N   UNK N   1      33.714  14.424  10.339  0.00  0.00    -0.261 N 
ATOM     22  HN  UNK N   1      33.175  13.575  10.509  1.00  0.00     0.191 HD
BRANCH  11  23
HETATM   23  O   UNK N   1      35.231  18.471   8.883  0.00  0.00    -0.344 OA
HETATM   24  H   UNK N   1      36.050  18.333   8.449  0.00  0.00     0.219 HD
ENDBRANCH  11  23
ENDBRANCH   1   7
BRANCH   5  25
HETATM   25  C   UNK N   1      36.658  14.077  15.491  0.00  0.00     0.252 C 
HETATM   26  O   UNK N   1      37.625  14.779  15.747  0.00  0.00    -0.268 OA
HETATM   27  N   UNK N   1      35.823  13.729  16.511  0.00  0.00    -0.353 N 
HETATM   28  H   UNK N   1      35.923  14.199  17.371  0.00  0.00     0.163 HD
BRANCH  27  29
HETATM   29  C   UNK N   1      34.800  12.714  16.406  0.00  0.00     0.161 C 
BRANCH  29  30
HETATM   30  C   UNK N   1      35.233  11.373  16.894  0.00  0.00    -0.037 A 
HETATM   31  C   UNK N   1      35.803  11.216  18.164  0.00  0.00     0.032 A 
HETATM   32  C   UNK N   1      36.315   9.972  18.553  0.00  0.00     0.036 A 
HETATM   33 Cl   UNK N   1      37.036   9.774  20.136  0.00  0.00    -0.084 Cl
HETATM   34  C   UNK N   1      36.283   8.893  17.663  0.00  0.00     0.047 A 
HETATM   35  C   UNK N   1      35.724   9.053  16.392  0.00  0.00     0.036 A 
HETATM   36 Cl   UNK N   1      35.729   7.719  15.258  0.00  0.00    -0.084 Cl
HETATM   37  C   UNK N   1      35.202  10.291  16.009  0.00  0.00     0.032 A 
ENDBRANCH  29  30
ENDBRANCH  27  29
ENDBRANCH   5  25
TORSDOF 5
ENDMDL
MODEL 8
REMARK VINA RESULT:      -8.2      3.333      4.714
REMARK  5 active torsions:
REMARK  status: ('A' for Active; 'I' for Inactive)
REMARK       I    between atoms: N_1  and  C_2 
REMARK    1  A    between atoms: C_5  and  O_6 
REMARK    2  A    between atoms: N_10  and  C_16 
REMARK    3  A    between atoms: C_20  and  C_22 
REMARK       I    between atoms: C_22  and  N_24 
REMARK    4  A    between atoms: N_24  and  C_25 
REMARK    5  A    between atoms: C_25  and  C_26 
ROOT
HETATM    1  C   UNK N   1      33.177  16.194   7.202  0.00  0.00     0.075 A 
HETATM    2  C   UNK N   1      33.939  16.996   6.342  0.00  0.00     0.033 A 
HETATM    3  C   UNK N   1      33.365  17.528   5.186  0.00  0.00     0.003 A 
HETATM    4  C   UNK N   1      32.033  17.244   4.872  0.00  0.00     0.017 A 
HETATM    5  C   UNK N   1      31.247  16.462   5.735  0.00  0.00     0.034 A 
HETATM    6  C   UNK N   1      31.834  15.941   6.899  0.00  0.00     0.050 A 
ENDROOT
BRANCH   1   7
HETATM    7  N   UNK N   1      33.783  15.607   8.362  0.00  0.00    -0.195 N 
HETATM    8  N   UNK N   1      34.902  16.059   8.926  0.00  0.00    -0.272 N 
HETATM    9  C   UNK N   1      35.139  15.241   9.962  0.00  0.00     0.147 A 
ATOM     10  HN  UNK N   1      35.462  16.859   8.631  1.00  0.00     0.189 HD
HETATM   11  C   UNK N   1      36.154  15.233  10.899  0.00  0.00     0.187 A 
HETATM   12  C   UNK N   1      34.164  14.313  10.004  0.00  0.00     0.170 A 
HETATM   13  N   UNK N   1      36.122  14.262  11.861  0.00  0.00    -0.168 N 
HETATM   14  C   UNK N   1      35.114  13.324  11.890  0.00  0.00     0.679 A 
ATOM     15  HN  UNK N   1      36.857  14.232  12.568  1.00  0.00     0.186 HD
HETATM   16  N   UNK N   1      35.104  12.341  12.899  0.00  0.00    -0.234 N 
HETATM   17  N   UNK N   1      34.118  13.344  10.947  0.00  0.00    -0.173 N 
HETATM   18  H   UNK N   1      35.772  12.369  13.622  0.00  0.00     0.174 HD
HETATM   19  H   UNK N   1      34.429  11.626  12.882  0.00  0.00     0.174 HD
ATOM     20  HN  UNK N   1      33.368  12.652  10.958  1.00  0.00     0.186 HD
HETATM   21  N   UNK N   1      33.306  14.534   8.998  0.00  0.00    -0.261 N 
ATOM     22  HN  UNK N   1      32.471  13.998   8.768  1.00  0.00     0.191 HD
BRANCH  11  23
HETATM   23  O   UNK N   1      37.138  16.148  10.874  0.00  0.00    -0.344 OA
HETATM   24  H   UNK N   1      37.065  16.931  11.383  0.00  0.00     0.219 HD
ENDBRANCH  11  23
ENDBRANCH   1   7
BRANCH   5  25
HETATM   25  C   UNK N   1      29.838  16.142   5.356  0.00  0.00     0.252 C 
HETATM   26  O   UNK N   1      29.640  15.259   4.535  0.00  0.00    -0.268 OA
HETATM   27  N   UNK N   1      28.760  16.805   5.863  0.00  0.00    -0.353 N 
HETATM   28  H   UNK N   1      27.865  16.433   5.691  0.00  0.00     0.163 HD
BRANCH  27  29
HETATM   29  C   UNK N   1      28.852  18.022   6.637  0.00  0.00     0.161 C 
BRANCH  29  30
HETATM   30  C   UNK N   1      27.851  19.058   6.250  0.00  0.00    -0.037 A 
HETATM   31  C   UNK N   1      27.564  19.318   4.904  0.00  0.00     0.032 A 
HETATM   32  C   UNK N   1      26.716  20.378   4.561  0.00  0.00     0.036 A 
HETATM   33 Cl   UNK N   1      26.362  20.711   2.879  0.00  0.00    -0.084 Cl
HETATM   34  C   UNK N   1      26.178  21.194   5.561  0.00  0.00     0.047 A 
HETATM   35  C   UNK N   1      26.473  20.942   6.903  0.00  0.00     0.036 A 
HETATM   36 Cl   UNK N   1      25.842  21.993   8.153  0.00  0.00    -0.084 Cl
HETATM   37  C   UNK N   1      27.310  19.876   7.246  0.00  0.00     0.032 A 
ENDBRANCH  29  30
ENDBRANCH  27  29
ENDBRANCH   5  25
TORSDOF 5
ENDMDL
MODEL 9
REMARK VINA RESULT:      -8.1      2.463      3.313
REMARK  5 active torsions:
REMARK  status: ('A' for Active; 'I' for Inactive)
REMARK       I    between atoms: N_1  and  C_2 
REMARK    1  A    between atoms: C_5  and  O_6 
REMARK    2  A    between atoms: N_10  and  C_16 
REMARK    3  A    between atoms: C_20  and  C_22 
REMARK       I    between atoms: C_22  and  N_24 
REMARK    4  A    between atoms: N_24  and  C_25 
REMARK    5  A    between atoms: C_25  and  C_26 
ROOT
HETATM    1  C   UNK N   1      34.467  15.947   8.837  0.00  0.00     0.075 A 
HETATM    2  C   UNK N   1      34.555  17.325   9.072  0.00  0.00     0.033 A 
HETATM    3  C   UNK N   1      34.147  18.232   8.092  0.00  0.00     0.003 A 
HETATM    4  C   UNK N   1      33.667  17.767   6.865  0.00  0.00     0.017 A 
HETATM    5  C   UNK N   1      33.549  16.389   6.620  0.00  0.00     0.034 A 
HETATM    6  C   UNK N   1      33.954  15.488   7.618  0.00  0.00     0.050 A 
ENDROOT
BRANCH   1   7
HETATM    7  N   UNK N   1      34.935  15.018   9.824  0.00  0.00    -0.195 N 
HETATM    8  N   UNK N   1      36.213  14.670   9.972  0.00  0.00    -0.272 N 
HETATM    9  C   UNK N   1      36.231  13.784  10.978  0.00  0.00     0.147 A 
ATOM     10  HN  UNK N   1      37.010  15.008   9.432  1.00  0.00     0.189 HD
HETATM   11  C   UNK N   1      37.275  13.097  11.565  0.00  0.00     0.187 A 
HETATM   12  C   UNK N   1      34.970  13.613  11.418  0.00  0.00     0.170 A 
HETATM   13  N   UNK N   1      36.980  12.254  12.599  0.00  0.00    -0.168 N 
HETATM   14  C   UNK N   1      35.684  12.094  13.037  0.00  0.00     0.679 A 
ATOM     15  HN  UNK N   1      37.731  11.734  13.053  1.00  0.00     0.186 HD
HETATM   16  N   UNK N   1      35.412  11.224  14.111  0.00  0.00    -0.234 N 
HETATM   17  N   UNK N   1      34.658  12.781  12.438  0.00  0.00    -0.173 N 
HETATM   18  H   UNK N   1      36.152  10.790  14.593  0.00  0.00     0.174 HD
HETATM   19  H   UNK N   1      34.482  11.051  14.379  0.00  0.00     0.174 HD
ATOM     20  HN  UNK N   1      33.694  12.668  12.753  1.00  0.00     0.186 HD
HETATM   21  N   UNK N   1      34.146  14.383  10.694  0.00  0.00    -0.261 N 
ATOM     22  HN  UNK N   1      33.134  14.467  10.788  1.00  0.00     0.191 HD
BRANCH  11  23
HETATM   23  O   UNK N   1      38.542  13.252  11.141  0.00  0.00    -0.344 OA
HETATM   24  H   UNK N   1      39.252  12.898  11.640  0.00  0.00     0.219 HD
ENDBRANCH  11  23
ENDBRANCH   1   7
BRANCH   5  25
HETATM   25  C   UNK N   1      33.069  15.919   5.286  0.00  0.00     0.252 C 
HETATM   26  O   UNK N   1      33.752  16.161   4.302  0.00  0.00    -0.268 OA
HETATM   27  N   UNK N   1      31.893  15.253   5.107  0.00  0.00    -0.353 N 
HETATM   28  H   UNK N   1      31.725  14.838   4.231  0.00  0.00     0.163 HD
BRANCH  27  29
HETATM   29  C   UNK N   1      30.877  15.123   6.127  0.00  0.00     0.161 C 
BRANCH  29  30
HETATM   30  C   UNK N   1      30.179  16.401   6.447  0.00  0.00    -0.037 A 
HETATM   31  C   UNK N   1      30.139  16.894   7.758  0.00  0.00     0.032 A 
HETATM   32  C   UNK N   1      29.374  18.027   8.058  0.00  0.00     0.036 A 
HETATM   33 Cl   UNK N   1      29.315  18.640   9.696  0.00  0.00    -0.084 Cl
HETATM   34  C   UNK N   1      28.627  18.652   7.054  0.00  0.00     0.047 A 
HETATM   35  C   UNK N   1      28.658  18.154   5.748  0.00  0.00     0.036 A 
HETATM   36 Cl   UNK N   1      27.685  18.903   4.500  0.00  0.00    -0.084 Cl
HETATM   37  C   UNK N   1      29.432  17.030   5.447  0.00  0.00     0.032 A 
ENDBRANCH  29  30
ENDBRANCH  27  29
ENDBRANCH   5  25
TORSDOF 5
ENDMDL
