REMARK  5 active torsions:
REMARK  status: ('A' for Active; 'I' for Inactive)
REMARK       I    between atoms: N_1  and  C_2 
REMARK    1  A    between atoms: C_5  and  O_6 
REMARK    2  A    between atoms: N_10  and  C_16 
REMARK    3  A    between atoms: C_20  and  C_22 
REMARK       I    between atoms: C_22  and  N_24 
REMARK    4  A    between atoms: N_24  and  C_25 
REMARK    5  A    between atoms: C_25  and  C_26 
ROOT
HETATM    1  C   UNK N   1      -0.509  -2.254  -0.046  0.00  0.00     0.075 A 
HETATM    2  C   UNK N   1      -0.979  -3.572   0.023  0.00  0.00     0.033 A 
HETATM    3  C   UNK N   1      -2.351  -3.827   0.062  0.00  0.00     0.003 A 
HETATM    4  C   UNK N   1      -3.260  -2.766   0.052  0.00  0.00     0.017 A 
HETATM    5  C   UNK N   1      -2.808  -1.439  -0.041  0.00  0.00     0.034 A 
HETATM    6  C   UNK N   1      -1.426  -1.197  -0.089  0.00  0.00     0.050 A 
ENDROOT
BRANCH   1   7
HETATM    7  N   UNK N   1       0.901  -1.992  -0.034  0.00  0.00    -0.195 N 
HETATM    8  N   UNK N   1       1.833  -2.940   0.059  0.00  0.00    -0.272 N 
HETATM    9  C   UNK N   1       3.007  -2.292   0.050  0.00  0.00     0.147 A 
ATOM     10  HN  UNK N   1       1.684  -3.947   0.124  1.00  0.00     0.189 HD
HETATM   11  C   UNK N   1       4.304  -2.762   0.117  0.00  0.00     0.187 A 
HETATM   12  C   UNK N   1       2.765  -0.971  -0.047  0.00  0.00     0.170 A 
HETATM   13  N   UNK N   1       5.316  -1.844   0.074  0.00  0.00    -0.168 N 
HETATM   14  C   UNK N   1       5.048  -0.497  -0.029  0.00  0.00     0.679 A 
ATOM     15  HN  UNK N   1       6.284  -2.161   0.120  1.00  0.00     0.186 HD
HETATM   16  N   UNK N   1       6.112   0.425  -0.079  0.00  0.00    -0.234 N 
HETATM   17  N   UNK N   1       3.753  -0.048  -0.088  0.00  0.00    -0.173 N 
HETATM   18  H   UNK N   1       7.042   0.103  -0.115  0.00  0.00     0.174 HD
HETATM   19  H   UNK N   1       5.926   1.391  -0.079  0.00  0.00     0.174 HD
ATOM     20  HN  UNK N   1       3.543   0.948  -0.162  1.00  0.00     0.186 HD
HETATM   21  N   UNK N   1       1.440  -0.772  -0.097  0.00  0.00    -0.261 N 
ATOM     22  HN  UNK N   1       0.950   0.119  -0.168  1.00  0.00     0.191 HD
BRANCH  11  23
HETATM   23  O   UNK N   1       4.569  -4.076   0.216  0.00  0.00    -0.344 OA
HETATM   24  H   UNK N   1       3.868  -4.694   0.286  0.00  0.00     0.219 HD
ENDBRANCH  11  23
ENDBRANCH   1   7
BRANCH   5  25
HETATM   25  C   UNK N   1      -3.800  -0.322  -0.010  0.00  0.00     0.252 C 
HETATM   26  O   UNK N   1      -4.937  -0.562   0.367  0.00  0.00    -0.268 OA
HETATM   27  N   UNK N   1      -3.505   0.949  -0.406  0.00  0.00    -0.353 N 
HETATM   28  H   UNK N   1      -4.157   1.659  -0.205  0.00  0.00     0.163 HD
BRANCH  27  29
HETATM   29  C   UNK N   1      -2.294   1.316  -1.103  0.00  0.00     0.161 C 
BRANCH  29  30
HETATM   30  C   UNK N   1      -1.597   2.497  -0.516  0.00  0.00    -0.037 A 
HETATM   31  C   UNK N   1      -2.275   3.705  -0.306  0.00  0.00     0.032 A 
HETATM   32  C   UNK N   1      -1.573   4.836   0.128  0.00  0.00     0.036 A 
HETATM   33 Cl   UNK N   1      -2.415   6.349   0.383  0.00  0.00    -0.084 Cl
HETATM   34  C   UNK N   1      -0.190   4.767   0.326  0.00  0.00     0.047 A 
HETATM   35  C   UNK N   1       0.488   3.565   0.106  0.00  0.00     0.036 A 
HETATM   36 Cl   UNK N   1       2.226   3.489   0.303  0.00  0.00    -0.084 Cl
HETATM   37  C   UNK N   1      -0.215   2.433  -0.316  0.00  0.00     0.032 A 
ENDBRANCH  29  30
ENDBRANCH  27  29
ENDBRANCH   5  25
TORSDOF 5
