REMARK  5 active torsions:
REMARK  status: ('A' for Active; 'I' for Inactive)
REMARK    1  A    between atoms: P_1  and  O_2 
REMARK    2  A    between atoms: P_1  and  O_4 
REMARK    3  A    between atoms: P_1  and  O_5 
REMARK    4  A    between atoms: O_2  and  C_6 
REMARK    5  A    between atoms: C_9  and  N_12 
ROOT
HETATM    1  C   UNK N   1       0.677  -0.054   0.009  0.00  0.00     0.081 A 
HETATM    2  C   UNK N   1       0.772  -1.412  -0.313  0.00  0.00     0.040 A 
HETATM    3  C   UNK N   1      -0.366  -2.225  -0.301  0.00  0.00     0.039 A 
HETATM    4  C   UNK N   1      -1.620  -1.685   0.018  0.00  0.00     0.103 A 
HETATM    5  C   UNK N   1      -1.718  -0.321   0.336  0.00  0.00     0.039 A 
HETATM    6  C   UNK N   1      -0.577   0.485   0.343  0.00  0.00     0.040 A 
ENDROOT
BRANCH   1   7
HETATM    7  O   UNK N   1       1.807   0.705  -0.000  0.00  0.00    -0.255 OA
BRANCH   7   8
HETATM    8  P   UNK N   1       1.960   2.317   0.622  0.00  0.00     0.396 P 
HETATM    9  O   UNK N   1       2.708   3.282  -0.334  0.00  0.00    -0.631 OA
BRANCH   8  10
HETATM   10  O   UNK N   1       0.920   2.550  -0.751  0.00  0.00    -0.307 OA
HETATM   11  H   UNK N   1       0.742   3.117  -1.517  0.00  0.00     0.222 HD
ENDBRANCH   8  10
BRANCH   8  12
HETATM   12  O   UNK N   1       3.537   1.652   0.329  0.00  0.00    -0.307 OA
HETATM   13  H   UNK N   1       3.656   0.703   0.166  0.00  0.00     0.222 HD
ENDBRANCH   8  12
ENDBRANCH   7   8
ENDBRANCH   1   7
BRANCH   4  14
HETATM   14  N   UNK N   1      -2.779  -2.510   0.020  0.00  0.00    -0.116 N 
HETATM   15  O   UNK N   1      -2.672  -3.801  -0.218  0.00  0.00    -0.532 OA
HETATM   16  O   UNK N   1      -3.854  -2.041   0.239  0.00  0.00    -0.532 OA
ENDBRANCH   4  14
TORSDOF 5
