MODEL 1
REMARK VINA RESULT:      -5.5      0.000      0.000
REMARK  5 active torsions:
REMARK  status: ('A' for Active; 'I' for Inactive)
REMARK    1  A    between atoms: P_1  and  O_2 
REMARK    2  A    between atoms: P_1  and  O_4 
REMARK    3  A    between atoms: P_1  and  O_5 
REMARK    4  A    between atoms: O_2  and  C_6 
REMARK    5  A    between atoms: C_9  and  N_12 
ROOT
HETATM    1  C   UNK N   1      34.369  15.050  11.039  0.00  0.00     0.081 A 
HETATM    2  C   UNK N   1      35.307  16.066  11.249  0.00  0.00     0.040 A 
HETATM    3  C   UNK N   1      35.457  17.097  10.316  0.00  0.00     0.039 A 
HETATM    4  C   UNK N   1      34.656  17.133   9.165  0.00  0.00     0.103 A 
HETATM    5  C   UNK N   1      33.710  16.117   8.956  0.00  0.00     0.039 A 
HETATM    6  C   UNK N   1      33.576  15.077   9.879  0.00  0.00     0.040 A 
ENDROOT
BRANCH   1   7
HETATM    7  O   UNK N   1      34.259  14.055  11.962  0.00  0.00    -0.255 OA
BRANCH   7   8
HETATM    8  P   UNK N   1      35.441  12.829  12.289  0.00  0.00     0.396 P 
HETATM    9  O   UNK N   1      34.905  11.668  13.167  0.00  0.00    -0.631 OA
BRANCH   8  10
HETATM   10  O   UNK N   1      34.283  11.973  11.315  0.00  0.00    -0.307 OA
HETATM   11  H   UNK N   1      33.879  11.921  10.436  0.00  0.00     0.222 HD
ENDBRANCH   8  10
BRANCH   8  12
HETATM   12  O   UNK N   1      34.882  13.513  13.783  0.00  0.00    -0.307 OA
HETATM   13  H   UNK N   1      34.020  13.265  14.154  0.00  0.00     0.222 HD
ENDBRANCH   8  12
ENDBRANCH   7   8
ENDBRANCH   1   7
BRANCH   4  14
HETATM   14  N   UNK N   1      34.802  18.187   8.221  0.00  0.00    -0.116 N 
HETATM   15  O   UNK N   1      35.344  19.331   8.585  0.00  0.00    -0.532 OA
HETATM   16  O   UNK N   1      34.437  18.043   7.094  0.00  0.00    -0.532 OA
ENDBRANCH   4  14
TORSDOF 5
ENDMDL
MODEL 2
REMARK VINA RESULT:      -5.4     13.314     14.581
REMARK  5 active torsions:
REMARK  status: ('A' for Active; 'I' for Inactive)
REMARK    1  A    between atoms: P_1  and  O_2 
REMARK    2  A    between atoms: P_1  and  O_4 
REMARK    3  A    between atoms: P_1  and  O_5 
REMARK    4  A    between atoms: O_2  and  C_6 
REMARK    5  A    between atoms: C_9  and  N_12 
ROOT
HETATM    1  C   UNK N   1      20.880  13.629   9.346  0.00  0.00     0.081 A 
HETATM    2  C   UNK N   1      20.389  12.962  10.474  0.00  0.00     0.040 A 
HETATM    3  C   UNK N   1      21.270  12.388  11.397  0.00  0.00     0.039 A 
HETATM    4  C   UNK N   1      22.656  12.489  11.212  0.00  0.00     0.103 A 
HETATM    5  C   UNK N   1      23.150  13.163  10.084  0.00  0.00     0.039 A 
HETATM    6  C   UNK N   1      22.269  13.718   9.152  0.00  0.00     0.040 A 
ENDROOT
BRANCH   1   7
HETATM    7  O   UNK N   1      19.994  14.164   8.461  0.00  0.00    -0.255 OA
BRANCH   7   8
HETATM    8  P   UNK N   1      20.083  15.747   7.758  0.00  0.00     0.396 P 
HETATM    9  O   UNK N   1      18.805  16.152   6.979  0.00  0.00    -0.631 OA
BRANCH   8  10
HETATM   10  O   UNK N   1      18.828  15.942   8.944  0.00  0.00    -0.307 OA
HETATM   11  H   UNK N   1      17.879  15.831   9.113  0.00  0.00     0.222 HD
ENDBRANCH   8  10
BRANCH   8  12
HETATM   12  O   UNK N   1      19.830  14.567   6.510  0.00  0.00    -0.307 OA
HETATM   13  H   UNK N   1      20.523  13.929   6.278  0.00  0.00     0.222 HD
ENDBRANCH   8  12
ENDBRANCH   7   8
ENDBRANCH   1   7
BRANCH   4  14
HETATM   14  N   UNK N   1      23.551  11.914  12.157  0.00  0.00    -0.116 N 
HETATM   15  O   UNK N   1      23.104  11.501  13.325  0.00  0.00    -0.532 OA
HETATM   16  O   UNK N   1      24.710  11.801  11.899  0.00  0.00    -0.532 OA
ENDBRANCH   4  14
TORSDOF 5
ENDMDL
MODEL 3
REMARK VINA RESULT:      -5.2      4.749      6.953
REMARK  5 active torsions:
REMARK  status: ('A' for Active; 'I' for Inactive)
REMARK    1  A    between atoms: P_1  and  O_2 
REMARK    2  A    between atoms: P_1  and  O_4 
REMARK    3  A    between atoms: P_1  and  O_5 
REMARK    4  A    between atoms: O_2  and  C_6 
REMARK    5  A    between atoms: C_9  and  N_12 
ROOT
HETATM    1  C   UNK N   1      31.465  17.137   6.276  0.00  0.00     0.081 A 
HETATM    2  C   UNK N   1      32.755  17.168   5.735  0.00  0.00     0.040 A 
HETATM    3  C   UNK N   1      33.845  17.550   6.522  0.00  0.00     0.039 A 
HETATM    4  C   UNK N   1      33.663  17.891   7.870  0.00  0.00     0.103 A 
HETATM    5  C   UNK N   1      32.370  17.855   8.416  0.00  0.00     0.039 A 
HETATM    6  C   UNK N   1      31.279  17.493   7.623  0.00  0.00     0.040 A 
ENDROOT
BRANCH   1   7
HETATM    7  O   UNK N   1      30.425  16.773   5.477  0.00  0.00    -0.255 OA
BRANCH   7   8
HETATM    8  P   UNK N   1      28.884  17.565   5.383  0.00  0.00     0.396 P 
HETATM    9  O   UNK N   1      27.912  16.909   4.368  0.00  0.00    -0.631 OA
BRANCH   8  10
HETATM   10  O   UNK N   1      28.460  16.013   6.042  0.00  0.00    -0.307 OA
HETATM   11  H   UNK N   1      28.097  15.140   5.830  0.00  0.00     0.222 HD
ENDBRANCH   8  10
BRANCH   8  12
HETATM   12  O   UNK N   1      29.651  17.591   3.825  0.00  0.00    -0.307 OA
HETATM   13  H   UNK N   1      30.554  17.928   3.719  0.00  0.00     0.222 HD
ENDBRANCH   8  12
ENDBRANCH   7   8
ENDBRANCH   1   7
BRANCH   4  14
HETATM   14  N   UNK N   1      34.774  18.270   8.673  0.00  0.00    -0.116 N 
HETATM   15  O   UNK N   1      35.203  17.469   9.627  0.00  0.00    -0.532 OA
HETATM   16  O   UNK N   1      35.326  19.311   8.489  0.00  0.00    -0.532 OA
ENDBRANCH   4  14
TORSDOF 5
ENDMDL
MODEL 4
REMARK VINA RESULT:      -5.1     12.240     14.415
REMARK  5 active torsions:
REMARK  status: ('A' for Active; 'I' for Inactive)
REMARK    1  A    between atoms: P_1  and  O_2 
REMARK    2  A    between atoms: P_1  and  O_4 
REMARK    3  A    between atoms: P_1  and  O_5 
REMARK    4  A    between atoms: O_2  and  C_6 
REMARK    5  A    between atoms: C_9  and  N_12 
ROOT
HETATM    1  C   UNK N   1      23.760  20.359   3.068  0.00  0.00     0.081 A 
HETATM    2  C   UNK N   1      23.695  19.172   3.805  0.00  0.00     0.040 A 
HETATM    3  C   UNK N   1      24.866  18.522   4.207  0.00  0.00     0.039 A 
HETATM    4  C   UNK N   1      26.121  19.061   3.890  0.00  0.00     0.103 A 
HETATM    5  C   UNK N   1      26.188  20.256   3.155  0.00  0.00     0.039 A 
HETATM    6  C   UNK N   1      25.017  20.893   2.737  0.00  0.00     0.040 A 
ENDROOT
BRANCH   1   7
HETATM    7  O   UNK N   1      22.600  20.958   2.681  0.00  0.00    -0.255 OA
BRANCH   7   8
HETATM    8  P   UNK N   1      21.173  20.152   2.112  0.00  0.00     0.396 P 
HETATM    9  O   UNK N   1      20.166  21.097   1.409  0.00  0.00    -0.631 OA
BRANCH   8  10
HETATM   10  O   UNK N   1      21.927  20.655   0.629  0.00  0.00    -0.307 OA
HETATM   11  H   UNK N   1      21.856  21.260  -0.125  0.00  0.00     0.222 HD
ENDBRANCH   8  10
BRANCH   8  12
HETATM   12  O   UNK N   1      20.731  21.390   3.247  0.00  0.00    -0.307 OA
HETATM   13  H   UNK N   1      19.839  21.771   3.247  0.00  0.00     0.222 HD
ENDBRANCH   8  12
ENDBRANCH   7   8
ENDBRANCH   1   7
BRANCH   4  14
HETATM   14  N   UNK N   1      27.312  18.405   4.308  0.00  0.00    -0.116 N 
HETATM   15  O   UNK N   1      28.177  19.033   5.079  0.00  0.00    -0.532 OA
HETATM   16  O   UNK N   1      27.536  17.284   3.967  0.00  0.00    -0.532 OA
ENDBRANCH   4  14
TORSDOF 5
ENDMDL
MODEL 5
REMARK VINA RESULT:      -5.1     17.213     19.818
REMARK  5 active torsions:
REMARK  status: ('A' for Active; 'I' for Inactive)
REMARK    1  A    between atoms: P_1  and  O_2 
REMARK    2  A    between atoms: P_1  and  O_4 
REMARK    3  A    between atoms: P_1  and  O_5 
REMARK    4  A    between atoms: O_2  and  C_6 
REMARK    5  A    between atoms: C_9  and  N_12 
ROOT
HETATM    1  C   UNK N   1      26.621  23.702  -5.718  0.00  0.00     0.081 A 
HETATM    2  C   UNK N   1      26.357  24.208  -4.441  0.00  0.00     0.040 A 
HETATM    3  C   UNK N   1      27.370  24.272  -3.480  0.00  0.00     0.039 A 
HETATM    4  C   UNK N   1      28.669  23.845  -3.790  0.00  0.00     0.103 A 
HETATM    5  C   UNK N   1      28.938  23.342  -5.073  0.00  0.00     0.039 A 
HETATM    6  C   UNK N   1      27.919  23.260  -6.025  0.00  0.00     0.040 A 
ENDROOT
BRANCH   1   7
HETATM    7  O   UNK N   1      25.608  23.643  -6.625  0.00  0.00    -0.255 OA
BRANCH   7   8
HETATM    8  P   UNK N   1      25.437  22.469  -7.891  0.00  0.00     0.396 P 
HETATM    9  O   UNK N   1      23.962  22.166  -8.261  0.00  0.00    -0.631 OA
BRANCH   8  10
HETATM   10  O   UNK N   1      24.814  23.909  -8.639  0.00  0.00    -0.307 OA
HETATM   11  H   UNK N   1      24.713  24.868  -8.539  0.00  0.00     0.222 HD
ENDBRANCH   8  10
BRANCH   8  12
HETATM   12  O   UNK N   1      24.640  21.901  -6.457  0.00  0.00    -0.307 OA
HETATM   13  H   UNK N   1      23.672  21.851  -6.410  0.00  0.00     0.222 HD
ENDBRANCH   8  12
ENDBRANCH   7   8
ENDBRANCH   1   7
BRANCH   4  14
HETATM   14  N   UNK N   1      29.703  23.920  -2.815  0.00  0.00    -0.116 N 
HETATM   15  O   UNK N   1      29.668  23.141  -1.753  0.00  0.00    -0.532 OA
HETATM   16  O   UNK N   1      30.608  24.685  -2.951  0.00  0.00    -0.532 OA
ENDBRANCH   4  14
TORSDOF 5
ENDMDL
MODEL 6
REMARK VINA RESULT:      -5.1      8.495      9.794
REMARK  5 active torsions:
REMARK  status: ('A' for Active; 'I' for Inactive)
REMARK    1  A    between atoms: P_1  and  O_2 
REMARK    2  A    between atoms: P_1  and  O_4 
REMARK    3  A    between atoms: P_1  and  O_5 
REMARK    4  A    between atoms: O_2  and  C_6 
REMARK    5  A    between atoms: C_9  and  N_12 
ROOT
HETATM    1  C   UNK N   1      27.782  19.483   6.717  0.00  0.00     0.081 A 
HETATM    2  C   UNK N   1      27.573  18.532   5.712  0.00  0.00     0.040 A 
HETATM    3  C   UNK N   1      26.764  18.830   4.611  0.00  0.00     0.039 A 
HETATM    4  C   UNK N   1      26.165  20.092   4.492  0.00  0.00     0.103 A 
HETATM    5  C   UNK N   1      26.378  21.049   5.497  0.00  0.00     0.039 A 
HETATM    6  C   UNK N   1      27.170  20.743   6.606  0.00  0.00     0.040 A 
ENDROOT
BRANCH   1   7
HETATM    7  O   UNK N   1      28.565  19.154   7.781  0.00  0.00    -0.255 OA
BRANCH   7   8
HETATM    8  P   UNK N   1      28.723  17.577   8.484  0.00  0.00     0.396 P 
HETATM    9  O   UNK N   1      29.145  17.603   9.976  0.00  0.00    -0.631 OA
BRANCH   8  10
HETATM   10  O   UNK N   1      27.377  18.238   9.363  0.00  0.00    -0.307 OA
HETATM   11  H   UNK N   1      27.120  18.726  10.160  0.00  0.00     0.222 HD
ENDBRANCH   8  10
BRANCH   8  12
HETATM   12  O   UNK N   1      30.239  18.418   8.589  0.00  0.00    -0.307 OA
HETATM   13  H   UNK N   1      30.723  18.675   7.789  0.00  0.00     0.222 HD
ENDBRANCH   8  12
ENDBRANCH   7   8
ENDBRANCH   1   7
BRANCH   4  14
HETATM   14  N   UNK N   1      25.350  20.398   3.367  0.00  0.00    -0.116 N 
HETATM   15  O   UNK N   1      24.056  20.154   3.401  0.00  0.00    -0.532 OA
HETATM   16  O   UNK N   1      25.830  20.880   2.386  0.00  0.00    -0.532 OA
ENDBRANCH   4  14
TORSDOF 5
ENDMDL
MODEL 7
REMARK VINA RESULT:      -5.1     16.711     18.232
REMARK  5 active torsions:
REMARK  status: ('A' for Active; 'I' for Inactive)
REMARK    1  A    between atoms: P_1  and  O_2 
REMARK    2  A    between atoms: P_1  and  O_4 
REMARK    3  A    between atoms: P_1  and  O_5 
REMARK    4  A    between atoms: O_2  and  C_6 
REMARK    5  A    between atoms: C_9  and  N_12 
ROOT
HETATM    1  C   UNK N   1      29.381  24.738  -3.667  0.00  0.00     0.081 A 
HETATM    2  C   UNK N   1      28.124  24.141  -3.528  0.00  0.00     0.040 A 
HETATM    3  C   UNK N   1      26.959  24.906  -3.644  0.00  0.00     0.039 A 
HETATM    4  C   UNK N   1      27.036  26.279  -3.918  0.00  0.00     0.103 A 
HETATM    5  C   UNK N   1      28.297  26.879  -4.063  0.00  0.00     0.039 A 
HETATM    6  C   UNK N   1      29.460  26.117  -3.927  0.00  0.00     0.040 A 
ENDROOT
BRANCH   1   7
HETATM    7  O   UNK N   1      30.494  23.966  -3.535  0.00  0.00    -0.255 OA
BRANCH   7   8
HETATM    8  P   UNK N   1      30.534  22.310  -3.020  0.00  0.00     0.396 P 
HETATM    9  O   UNK N   1      31.852  21.914  -2.306  0.00  0.00    -0.631 OA
BRANCH   8  10
HETATM   10  O   UNK N   1      30.547  23.166  -1.507  0.00  0.00    -0.307 OA
HETATM   11  H   UNK N   1      30.162  23.910  -1.020  0.00  0.00     0.222 HD
ENDBRANCH   8  10
BRANCH   8  12
HETATM   12  O   UNK N   1      31.842  22.610  -4.122  0.00  0.00    -0.307 OA
HETATM   13  H   UNK N   1      32.636  22.053  -4.118  0.00  0.00     0.222 HD
ENDBRANCH   8  12
ENDBRANCH   7   8
ENDBRANCH   1   7
BRANCH   4  14
HETATM   14  N   UNK N   1      25.851  27.055  -4.046  0.00  0.00    -0.116 N 
HETATM   15  O   UNK N   1      25.450  27.819  -3.051  0.00  0.00    -0.532 OA
HETATM   16  O   UNK N   1      25.213  27.022  -5.054  0.00  0.00    -0.532 OA
ENDBRANCH   4  14
TORSDOF 5
ENDMDL
MODEL 8
REMARK VINA RESULT:      -5.0      6.484      8.807
REMARK  5 active torsions:
REMARK  status: ('A' for Active; 'I' for Inactive)
REMARK    1  A    between atoms: P_1  and  O_2 
REMARK    2  A    between atoms: P_1  and  O_4 
REMARK    3  A    between atoms: P_1  and  O_5 
REMARK    4  A    between atoms: O_2  and  C_6 
REMARK    5  A    between atoms: C_9  and  N_12 
ROOT
HETATM    1  C   UNK N   1      35.141  12.839  15.904  0.00  0.00     0.081 A 
HETATM    2  C   UNK N   1      35.110  13.590  17.084  0.00  0.00     0.040 A 
HETATM    3  C   UNK N   1      35.183  12.957  18.329  0.00  0.00     0.039 A 
HETATM    4  C   UNK N   1      35.305  11.563  18.410  0.00  0.00     0.103 A 
HETATM    5  C   UNK N   1      35.342  10.808  17.227  0.00  0.00     0.039 A 
HETATM    6  C   UNK N   1      35.249  11.440  15.985  0.00  0.00     0.040 A 
ENDROOT
BRANCH   1   7
HETATM    7  O   UNK N   1      35.054  13.486  14.710  0.00  0.00    -0.255 OA
BRANCH   7   8
HETATM    8  P   UNK N   1      36.094  13.249  13.341  0.00  0.00     0.396 P 
HETATM    9  O   UNK N   1      36.068  14.426  12.332  0.00  0.00    -0.631 OA
BRANCH   8  10
HETATM   10  O   UNK N   1      36.843  14.597  14.142  0.00  0.00    -0.307 OA
HETATM   11  H   UNK N   1      37.225  14.903  14.979  0.00  0.00     0.222 HD
ENDBRANCH   8  10
BRANCH   8  12
HETATM   12  O   UNK N   1      34.455  13.447  12.803  0.00  0.00    -0.307 OA
HETATM   13  H   UNK N   1      33.774  13.803  13.395  0.00  0.00     0.222 HD
ENDBRANCH   8  12
ENDBRANCH   7   8
ENDBRANCH   1   7
BRANCH   4  14
HETATM   14  N   UNK N   1      35.390  10.921  19.677  0.00  0.00    -0.116 N 
HETATM   15  O   UNK N   1      36.445  11.107  20.443  0.00  0.00    -0.532 OA
HETATM   16  O   UNK N   1      34.508  10.212  20.055  0.00  0.00    -0.532 OA
ENDBRANCH   4  14
TORSDOF 5
ENDMDL
MODEL 9
REMARK VINA RESULT:      -4.9     19.825     21.419
REMARK  5 active torsions:
REMARK  status: ('A' for Active; 'I' for Inactive)
REMARK    1  A    between atoms: P_1  and  O_2 
REMARK    2  A    between atoms: P_1  and  O_4 
REMARK    3  A    between atoms: P_1  and  O_5 
REMARK    4  A    between atoms: O_2  and  C_6 
REMARK    5  A    between atoms: C_9  and  N_12 
ROOT
HETATM    1  C   UNK N   1      25.948  24.803  -6.620  0.00  0.00     0.081 A 
HETATM    2  C   UNK N   1      25.599  26.149  -6.773  0.00  0.00     0.040 A 
HETATM    3  C   UNK N   1      25.578  27.007  -5.668  0.00  0.00     0.039 A 
HETATM    4  C   UNK N   1      25.924  26.532  -4.395  0.00  0.00     0.103 A 
HETATM    5  C   UNK N   1      26.281  25.183  -4.241  0.00  0.00     0.039 A 
HETATM    6  C   UNK N   1      26.281  24.323  -5.342  0.00  0.00     0.040 A 
ENDROOT
BRANCH   1   7
HETATM    7  O   UNK N   1      25.945  23.993  -7.714  0.00  0.00    -0.255 OA
BRANCH   7   8
HETATM    8  P   UNK N   1      25.574  22.299  -7.730  0.00  0.00     0.396 P 
HETATM    9  O   UNK N   1      25.374  21.722  -9.156  0.00  0.00    -0.631 OA
BRANCH   8  10
HETATM   10  O   UNK N   1      27.132  22.341  -8.499  0.00  0.00    -0.307 OA
HETATM   11  H   UNK N   1      28.032  21.980  -8.476  0.00  0.00     0.222 HD
ENDBRANCH   8  10
BRANCH   8  12
HETATM   12  O   UNK N   1      24.285  23.187  -8.483  0.00  0.00    -0.307 OA
HETATM   13  H   UNK N   1      23.607  23.631  -7.950  0.00  0.00     0.222 HD
ENDBRANCH   8  12
ENDBRANCH   7   8
ENDBRANCH   1   7
BRANCH   4  14
HETATM   14  N   UNK N   1      25.913  27.407  -3.274  0.00  0.00    -0.116 N 
HETATM   15  O   UNK N   1      25.792  28.707  -3.450  0.00  0.00    -0.532 OA
HETATM   16  O   UNK N   1      26.011  26.972  -2.167  0.00  0.00    -0.532 OA
ENDBRANCH   4  14
TORSDOF 5
ENDMDL
