MODEL 1
REMARK VINA RESULT:      -5.3      0.000      0.000
REMARK  8 active torsions:
REMARK  status: ('A' for Active; 'I' for Inactive)
REMARK    1  A    between atoms: C_9  and  O_1 
REMARK    2  A    between atoms: C_10  and  O_2 
REMARK    3  A    between atoms: C_11  and  O_3 
REMARK    4  A    between atoms: O_7  and  N_8 
REMARK       I    between atoms: N_8  and  C_12 
REMARK    5  A    between atoms: C_9  and  C_10 
REMARK    6  A    between atoms: C_9  and  C_11 
REMARK    7  A    between atoms: C_10  and  C_12 
REMARK    8  A    between atoms: C_11  and  C_13 
ROOT
HETATM    1  C   UNK N   1      34.146  15.880   9.120  0.00  0.00     0.195 C 
ENDROOT
BRANCH   1   2
HETATM    2  O   UNK N   1      35.350  15.734   8.424  0.00  0.00    -0.389 OA
HETATM    3  H   UNK N   1      35.377  15.750   7.455  0.00  0.00     0.210 HD
ENDBRANCH   1   2
BRANCH   1   4
HETATM    4  C   UNK N   1      34.334  15.411  10.582  0.00  0.00     0.243 C 
BRANCH   4   5
HETATM    5  O   UNK N   1      33.121  14.930  11.083  0.00  0.00    -0.383 OA
HETATM    6  H   UNK N   1      32.562  14.318  10.580  0.00  0.00     0.210 HD
ENDBRANCH   4   5
BRANCH   4   7
HETATM    7  C   UNK N   1      35.466  14.408  10.805  0.00  0.00     0.272 C 
HETATM    8  O   UNK N   1      35.216  13.215  10.799  0.00  0.00    -0.268 OA
HETATM    9  N   UNK N   1      36.764  14.793  10.921  0.00  0.00    -0.235 N 
HETATM   10  H   UNK N   1      37.451  14.102  11.064  0.00  0.00     0.197 HD
BRANCH   9  11
HETATM   11  O   UNK N   1      37.147  16.074  10.851  0.00  0.00    -0.287 OA
HETATM   12  H   UNK N   1      37.855  16.343  10.245  0.00  0.00     0.244 HD
ENDBRANCH   9  11
ENDBRANCH   4   7
ENDBRANCH   1   4
BRANCH   1  13
HETATM   13  C   UNK N   1      33.733  17.366   9.080  0.00  0.00     0.250 C 
BRANCH  13  14
HETATM   14  O   UNK N   1      32.368  17.489   8.803  0.00  0.00    -0.382 OA
HETATM   15  H   UNK N   1      31.988  17.173   7.970  0.00  0.00     0.210 HD
ENDBRANCH  13  14
BRANCH  13  16
HETATM   16  C   UNK N   1      34.522  18.188   8.089  0.00  0.00     0.205 C 
HETATM   17  O   UNK N   1      34.376  17.983   6.766  0.00  0.00    -0.646 OA
HETATM   18  O   UNK N   1      35.259  19.078   8.480  0.00  0.00    -0.646 OA
ENDBRANCH  13  16
ENDBRANCH   1  13
TORSDOF 8
ENDMDL
MODEL 2
REMARK VINA RESULT:      -5.2      2.227      3.566
REMARK  8 active torsions:
REMARK  status: ('A' for Active; 'I' for Inactive)
REMARK    1  A    between atoms: C_9  and  O_1 
REMARK    2  A    between atoms: C_10  and  O_2 
REMARK    3  A    between atoms: C_11  and  O_3 
REMARK    4  A    between atoms: O_7  and  N_8 
REMARK       I    between atoms: N_8  and  C_12 
REMARK    5  A    between atoms: C_9  and  C_10 
REMARK    6  A    between atoms: C_9  and  C_11 
REMARK    7  A    between atoms: C_10  and  C_12 
REMARK    8  A    between atoms: C_11  and  C_13 
ROOT
HETATM    1  C   UNK N   1      35.022  15.154  11.793  0.00  0.00     0.195 C 
ENDROOT
BRANCH   1   2
HETATM    2  O   UNK N   1      33.741  14.728  11.432  0.00  0.00    -0.389 OA
HETATM    3  H   UNK N   1      33.491  14.609  10.502  0.00  0.00     0.210 HD
ENDBRANCH   1   2
BRANCH   1   4
HETATM    4  C   UNK N   1      35.802  13.974  12.420  0.00  0.00     0.243 C 
BRANCH   4   5
HETATM    5  O   UNK N   1      36.831  14.464  13.229  0.00  0.00    -0.383 OA
HETATM    6  H   UNK N   1      37.725  14.090  13.208  0.00  0.00     0.210 HD
ENDBRANCH   4   5
BRANCH   4   7
HETATM    7  C   UNK N   1      34.947  12.949  13.164  0.00  0.00     0.272 C 
HETATM    8  O   UNK N   1      34.760  13.084  14.361  0.00  0.00    -0.268 OA
HETATM    9  N   UNK N   1      34.309  11.934  12.524  0.00  0.00    -0.235 N 
HETATM   10  H   UNK N   1      33.771  11.303  13.055  0.00  0.00     0.197 HD
BRANCH   9  11
HETATM   11  O   UNK N   1      34.381  11.757  11.198  0.00  0.00    -0.287 OA
HETATM   12  H   UNK N   1      35.111  11.249  10.810  0.00  0.00     0.244 HD
ENDBRANCH   9  11
ENDBRANCH   4   7
ENDBRANCH   1   4
BRANCH   1  13
HETATM   13  C   UNK N   1      35.743  15.667  10.530  0.00  0.00     0.250 C 
BRANCH  13  14
HETATM   14  O   UNK N   1      37.049  16.064  10.835  0.00  0.00    -0.382 OA
HETATM   15  H   UNK N   1      37.561  15.630  11.534  0.00  0.00     0.210 HD
ENDBRANCH  13  14
BRANCH  13  16
HETATM   16  C   UNK N   1      35.023  16.800   9.839  0.00  0.00     0.205 C 
HETATM   17  O   UNK N   1      33.836  16.585   9.238  0.00  0.00    -0.646 OA
HETATM   18  O   UNK N   1      35.486  17.928   9.865  0.00  0.00    -0.646 OA
ENDBRANCH  13  16
ENDBRANCH   1  13
TORSDOF 8
ENDMDL
MODEL 3
REMARK VINA RESULT:      -5.2      1.374      1.806
REMARK  8 active torsions:
REMARK  status: ('A' for Active; 'I' for Inactive)
REMARK    1  A    between atoms: C_9  and  O_1 
REMARK    2  A    between atoms: C_10  and  O_2 
REMARK    3  A    between atoms: C_11  and  O_3 
REMARK    4  A    between atoms: O_7  and  N_8 
REMARK       I    between atoms: N_8  and  C_12 
REMARK    5  A    between atoms: C_9  and  C_10 
REMARK    6  A    between atoms: C_9  and  C_11 
REMARK    7  A    between atoms: C_10  and  C_12 
REMARK    8  A    between atoms: C_11  and  C_13 
ROOT
HETATM    1  C   UNK N   1      34.089  15.728   8.868  0.00  0.00     0.195 C 
ENDROOT
BRANCH   1   2
HETATM    2  O   UNK N   1      35.338  15.600   8.253  0.00  0.00    -0.389 OA
HETATM    3  H   UNK N   1      36.005  16.301   8.313  0.00  0.00     0.210 HD
ENDBRANCH   1   2
BRANCH   1   4
HETATM    4  C   UNK N   1      34.108  15.008  10.236  0.00  0.00     0.243 C 
BRANCH   4   5
HETATM    5  O   UNK N   1      32.872  15.162  10.869  0.00  0.00    -0.383 OA
HETATM    6  H   UNK N   1      32.678  14.756  11.728  0.00  0.00     0.210 HD
ENDBRANCH   4   5
BRANCH   4   7
HETATM    7  C   UNK N   1      34.535  13.540  10.194  0.00  0.00     0.272 C 
HETATM    8  O   UNK N   1      34.862  13.044   9.131  0.00  0.00    -0.268 OA
HETATM    9  N   UNK N   1      34.650  12.786  11.319  0.00  0.00    -0.235 N 
HETATM   10  H   UNK N   1      34.928  11.845  11.231  0.00  0.00     0.197 HD
BRANCH   9  11
HETATM   11  O   UNK N   1      34.398  13.268  12.542  0.00  0.00    -0.287 OA
HETATM   12  H   UNK N   1      33.485  13.415  12.835  0.00  0.00     0.244 HD
ENDBRANCH   9  11
ENDBRANCH   4   7
ENDBRANCH   1   4
BRANCH   1  13
HETATM   13  C   UNK N   1      33.785  17.230   9.053  0.00  0.00     0.250 C 
BRANCH  13  14
HETATM   14  O   UNK N   1      32.410  17.467   8.971  0.00  0.00    -0.382 OA
HETATM   15  H   UNK N   1      32.011  18.271   9.337  0.00  0.00     0.210 HD
ENDBRANCH  13  14
BRANCH  13  16
HETATM   16  C   UNK N   1      34.508  18.120   8.070  0.00  0.00     0.205 C 
HETATM   17  O   UNK N   1      35.265  19.144   8.509  0.00  0.00    -0.646 OA
HETATM   18  O   UNK N   1      34.452  17.885   6.874  0.00  0.00    -0.646 OA
ENDBRANCH  13  16
ENDBRANCH   1  13
TORSDOF 8
ENDMDL
MODEL 4
REMARK VINA RESULT:      -5.1      2.000      4.985
REMARK  8 active torsions:
REMARK  status: ('A' for Active; 'I' for Inactive)
REMARK    1  A    between atoms: C_9  and  O_1 
REMARK    2  A    between atoms: C_10  and  O_2 
REMARK    3  A    between atoms: C_11  and  O_3 
REMARK    4  A    between atoms: O_7  and  N_8 
REMARK       I    between atoms: N_8  and  C_12 
REMARK    5  A    between atoms: C_9  and  C_10 
REMARK    6  A    between atoms: C_9  and  C_11 
REMARK    7  A    between atoms: C_10  and  C_12 
REMARK    8  A    between atoms: C_11  and  C_13 
ROOT
HETATM    1  C   UNK N   1      34.734  15.075  10.888  0.00  0.00     0.195 C 
ENDROOT
BRANCH   1   2
HETATM    2  O   UNK N   1      33.395  14.904  11.250  0.00  0.00    -0.389 OA
HETATM    3  H   UNK N   1      33.092  14.098  11.697  0.00  0.00     0.210 HD
ENDBRANCH   1   2
BRANCH   1   4
HETATM    4  C   UNK N   1      34.985  16.556  10.518  0.00  0.00     0.243 C 
BRANCH   4   5
HETATM    5  O   UNK N   1      36.356  16.825  10.552  0.00  0.00    -0.383 OA
HETATM    6  H   UNK N   1      36.715  17.699  10.333  0.00  0.00     0.210 HD
ENDBRANCH   4   5
BRANCH   4   7
HETATM    7  C   UNK N   1      34.359  17.014   9.201  0.00  0.00     0.272 C 
HETATM    8  O   UNK N   1      33.454  16.361   8.712  0.00  0.00    -0.268 OA
HETATM    9  N   UNK N   1      34.713  18.177   8.595  0.00  0.00    -0.235 N 
HETATM   10  H   UNK N   1      34.276  18.421   7.747  0.00  0.00     0.197 HD
BRANCH   9  11
HETATM   11  O   UNK N   1      35.634  19.006   9.103  0.00  0.00    -0.287 OA
HETATM   12  H   UNK N   1      36.193  19.538   8.516  0.00  0.00     0.244 HD
ENDBRANCH   9  11
ENDBRANCH   4   7
ENDBRANCH   1   4
BRANCH   1  13
HETATM   13  C   UNK N   1      35.622  14.659  12.079  0.00  0.00     0.250 C 
BRANCH  13  14
HETATM   14  O   UNK N   1      36.930  14.407  11.654  0.00  0.00    -0.382 OA
HETATM   15  H   UNK N   1      37.211  14.586  10.744  0.00  0.00     0.210 HD
ENDBRANCH  13  14
BRANCH  13  16
HETATM   16  C   UNK N   1      35.100  13.460  12.834  0.00  0.00     0.205 C 
HETATM   17  O   UNK N   1      34.852  12.304  12.188  0.00  0.00    -0.646 OA
HETATM   18  O   UNK N   1      34.949  13.514  14.044  0.00  0.00    -0.646 OA
ENDBRANCH  13  16
ENDBRANCH   1  13
TORSDOF 8
ENDMDL
MODEL 5
REMARK VINA RESULT:      -5.1      2.271      5.149
REMARK  8 active torsions:
REMARK  status: ('A' for Active; 'I' for Inactive)
REMARK    1  A    between atoms: C_9  and  O_1 
REMARK    2  A    between atoms: C_10  and  O_2 
REMARK    3  A    between atoms: C_11  and  O_3 
REMARK    4  A    between atoms: O_7  and  N_8 
REMARK       I    between atoms: N_8  and  C_12 
REMARK    5  A    between atoms: C_9  and  C_10 
REMARK    6  A    between atoms: C_9  and  C_11 
REMARK    7  A    between atoms: C_10  and  C_12 
REMARK    8  A    between atoms: C_11  and  C_13 
ROOT
HETATM    1  C   UNK N   1      36.005  15.502  11.539  0.00  0.00     0.195 C 
ENDROOT
BRANCH   1   2
HETATM    2  O   UNK N   1      37.131  15.921  10.825  0.00  0.00    -0.389 OA
HETATM    3  H   UNK N   1      37.937  15.383  10.791  0.00  0.00     0.210 HD
ENDBRANCH   1   2
BRANCH   1   4
HETATM    4  C   UNK N   1      34.777  15.470  10.599  0.00  0.00     0.243 C 
BRANCH   4   5
HETATM    5  O   UNK N   1      33.664  14.989  11.293  0.00  0.00    -0.383 OA
HETATM    6  H   UNK N   1      33.157  15.545  11.904  0.00  0.00     0.210 HD
ENDBRANCH   4   5
BRANCH   4   7
HETATM    7  C   UNK N   1      34.465  16.788   9.890  0.00  0.00     0.272 C 
HETATM    8  O   UNK N   1      35.330  17.642   9.810  0.00  0.00    -0.268 OA
HETATM    9  N   UNK N   1      33.280  17.011   9.262  0.00  0.00    -0.235 N 
HETATM   10  H   UNK N   1      33.135  17.880   8.822  0.00  0.00     0.197 HD
BRANCH   9  11
HETATM   11  O   UNK N   1      32.302  16.098   9.219  0.00  0.00    -0.287 OA
HETATM   12  H   UNK N   1      32.179  15.547   8.430  0.00  0.00     0.244 HD
ENDBRANCH   9  11
ENDBRANCH   4   7
ENDBRANCH   1   4
BRANCH   1  13
HETATM   13  C   UNK N   1      36.282  14.097  12.112  0.00  0.00     0.250 C 
BRANCH  13  14
HETATM   14  O   UNK N   1      35.665  13.116  11.330  0.00  0.00    -0.382 OA
HETATM   15  H   UNK N   1      34.793  13.259  10.932  0.00  0.00     0.210 HD
ENDBRANCH  13  14
BRANCH  13  16
HETATM   16  C   UNK N   1      35.856  13.934  13.551  0.00  0.00     0.205 C 
HETATM   17  O   UNK N   1      36.657  14.353  14.550  0.00  0.00    -0.646 OA
HETATM   18  O   UNK N   1      34.759  13.469  13.817  0.00  0.00    -0.646 OA
ENDBRANCH  13  16
ENDBRANCH   1  13
TORSDOF 8
ENDMDL
MODEL 6
REMARK VINA RESULT:      -5.0      1.841      2.910
REMARK  8 active torsions:
REMARK  status: ('A' for Active; 'I' for Inactive)
REMARK    1  A    between atoms: C_9  and  O_1 
REMARK    2  A    between atoms: C_10  and  O_2 
REMARK    3  A    between atoms: C_11  and  O_3 
REMARK    4  A    between atoms: O_7  and  N_8 
REMARK       I    between atoms: N_8  and  C_12 
REMARK    5  A    between atoms: C_9  and  C_10 
REMARK    6  A    between atoms: C_9  and  C_11 
REMARK    7  A    between atoms: C_10  and  C_12 
REMARK    8  A    between atoms: C_11  and  C_13 
ROOT
HETATM    1  C   UNK N   1      34.547  15.102  11.398  0.00  0.00     0.195 C 
ENDROOT
BRANCH   1   2
HETATM    2  O   UNK N   1      33.213  15.162  10.983  0.00  0.00    -0.389 OA
HETATM    3  H   UNK N   1      32.851  14.521  10.352  0.00  0.00     0.210 HD
ENDBRANCH   1   2
BRANCH   1   4
HETATM    4  C   UNK N   1      34.899  13.650  11.800  0.00  0.00     0.243 C 
BRANCH   4   5
HETATM    5  O   UNK N   1      35.479  12.987  10.716  0.00  0.00    -0.383 OA
HETATM    6  H   UNK N   1      36.346  13.239  10.361  0.00  0.00     0.210 HD
ENDBRANCH   4   5
BRANCH   4   7
HETATM    7  C   UNK N   1      35.754  13.513  13.061  0.00  0.00     0.272 C 
HETATM    8  O   UNK N   1      35.207  13.410  14.145  0.00  0.00    -0.268 OA
HETATM    9  N   UNK N   1      37.108  13.411  13.011  0.00  0.00    -0.235 N 
HETATM   10  H   UNK N   1      37.607  13.325  13.856  0.00  0.00     0.197 HD
BRANCH   9  11
HETATM   11  O   UNK N   1      37.793  13.424  11.860  0.00  0.00    -0.287 OA
HETATM   12  H   UNK N   1      38.154  14.254  11.513  0.00  0.00     0.244 HD
ENDBRANCH   9  11
ENDBRANCH   4   7
ENDBRANCH   1   4
BRANCH   1  13
HETATM   13  C   UNK N   1      35.444  15.572  10.234  0.00  0.00     0.250 C 
BRANCH  13  14
HETATM   14  O   UNK N   1      36.765  15.733  10.665  0.00  0.00    -0.382 OA
HETATM   15  H   UNK N   1      37.499  15.801  10.036  0.00  0.00     0.210 HD
ENDBRANCH  13  14
BRANCH  13  16
HETATM   16  C   UNK N   1      34.970  16.847   9.580  0.00  0.00     0.205 C 
HETATM   17  O   UNK N   1      33.942  16.824   8.710  0.00  0.00    -0.646 OA
HETATM   18  O   UNK N   1      35.482  17.915   9.875  0.00  0.00    -0.646 OA
ENDBRANCH  13  16
ENDBRANCH   1  13
TORSDOF 8
ENDMDL
MODEL 7
REMARK VINA RESULT:      -4.9     12.969     14.890
REMARK  8 active torsions:
REMARK  status: ('A' for Active; 'I' for Inactive)
REMARK    1  A    between atoms: C_9  and  O_1 
REMARK    2  A    between atoms: C_10  and  O_2 
REMARK    3  A    between atoms: C_11  and  O_3 
REMARK    4  A    between atoms: O_7  and  N_8 
REMARK       I    between atoms: N_8  and  C_12 
REMARK    5  A    between atoms: C_9  and  C_10 
REMARK    6  A    between atoms: C_9  and  C_11 
REMARK    7  A    between atoms: C_10  and  C_12 
REMARK    8  A    between atoms: C_11  and  C_13 
ROOT
HETATM    1  C   UNK N   1      22.721  19.480   3.264  0.00  0.00     0.195 C 
ENDROOT
BRANCH   1   2
HETATM    2  O   UNK N   1      22.724  18.811   4.492  0.00  0.00    -0.389 OA
HETATM    3  H   UNK N   1      22.155  19.096   5.223  0.00  0.00     0.210 HD
ENDBRANCH   1   2
BRANCH   1   4
HETATM    4  C   UNK N   1      21.420  20.305   3.127  0.00  0.00     0.243 C 
BRANCH   4   5
HETATM    5  O   UNK N   1      21.733  21.643   2.873  0.00  0.00    -0.383 OA
HETATM    6  H   UNK N   1      21.775  22.305   3.579  0.00  0.00     0.210 HD
ENDBRANCH   4   5
BRANCH   4   7
HETATM    7  C   UNK N   1      20.410  19.766   2.113  0.00  0.00     0.272 C 
HETATM    8  O   UNK N   1      19.437  19.148   2.510  0.00  0.00    -0.268 OA
HETATM    9  N   UNK N   1      20.507  20.027   0.783  0.00  0.00    -0.235 N 
HETATM   10  H   UNK N   1      19.828  19.652   0.177  0.00  0.00     0.197 HD
BRANCH   9  11
HETATM   11  O   UNK N   1      21.491  20.771   0.262  0.00  0.00    -0.287 OA
HETATM   12  H   UNK N   1      21.888  21.491   0.778  0.00  0.00     0.244 HD
ENDBRANCH   9  11
ENDBRANCH   4   7
ENDBRANCH   1   4
BRANCH   1  13
HETATM   13  C   UNK N   1      23.954  20.404   3.206  0.00  0.00     0.250 C 
BRANCH  13  14
HETATM   14  O   UNK N   1      24.212  20.798   1.889  0.00  0.00    -0.382 OA
HETATM   15  H   UNK N   1      23.624  20.550   1.160  0.00  0.00     0.210 HD
ENDBRANCH  13  14
BRANCH  13  16
HETATM   16  C   UNK N   1      25.200  19.791   3.800  0.00  0.00     0.205 C 
HETATM   17  O   UNK N   1      25.931  20.475   4.701  0.00  0.00    -0.646 OA
HETATM   18  O   UNK N   1      25.522  18.652   3.506  0.00  0.00    -0.646 OA
ENDBRANCH  13  16
ENDBRANCH   1  13
TORSDOF 8
ENDMDL
MODEL 8
REMARK VINA RESULT:      -4.8      1.394      2.476
REMARK  8 active torsions:
REMARK  status: ('A' for Active; 'I' for Inactive)
REMARK    1  A    between atoms: C_9  and  O_1 
REMARK    2  A    between atoms: C_10  and  O_2 
REMARK    3  A    between atoms: C_11  and  O_3 
REMARK    4  A    between atoms: O_7  and  N_8 
REMARK       I    between atoms: N_8  and  C_12 
REMARK    5  A    between atoms: C_9  and  C_10 
REMARK    6  A    between atoms: C_9  and  C_11 
REMARK    7  A    between atoms: C_10  and  C_12 
REMARK    8  A    between atoms: C_11  and  C_13 
ROOT
HETATM    1  C   UNK N   1      34.737  15.461  10.898  0.00  0.00     0.195 C 
ENDROOT
BRANCH   1   2
HETATM    2  O   UNK N   1      33.966  14.474  11.518  0.00  0.00    -0.389 OA
HETATM    3  H   UNK N   1      34.327  13.926  12.233  0.00  0.00     0.210 HD
ENDBRANCH   1   2
BRANCH   1   4
HETATM    4  C   UNK N   1      36.196  14.967  10.757  0.00  0.00     0.243 C 
BRANCH   4   5
HETATM    5  O   UNK N   1      37.077  16.033  10.954  0.00  0.00    -0.383 OA
HETATM    6  H   UNK N   1      38.003  15.896  11.207  0.00  0.00     0.210 HD
ENDBRANCH   4   5
BRANCH   4   7
HETATM    7  C   UNK N   1      36.565  13.768  11.631  0.00  0.00     0.272 C 
HETATM    8  O   UNK N   1      36.703  12.673  11.115  0.00  0.00    -0.268 OA
HETATM    9  N   UNK N   1      36.835  13.893  12.957  0.00  0.00    -0.235 N 
HETATM   10  H   UNK N   1      37.067  13.085  13.471  0.00  0.00     0.197 HD
BRANCH   9  11
HETATM   11  O   UNK N   1      36.798  15.070  13.595  0.00  0.00    -0.287 OA
HETATM   12  H   UNK N   1      37.135  15.872  13.166  0.00  0.00     0.244 HD
ENDBRANCH   9  11
ENDBRANCH   4   7
ENDBRANCH   1   4
BRANCH   1  13
HETATM   13  C   UNK N   1      34.131  15.757   9.510  0.00  0.00     0.250 C 
BRANCH  13  14
HETATM   14  O   UNK N   1      34.752  14.981   8.527  0.00  0.00    -0.382 OA
HETATM   15  H   UNK N   1      34.274  14.685   7.737  0.00  0.00     0.210 HD
ENDBRANCH  13  14
BRANCH  13  16
HETATM   16  C   UNK N   1      34.198  17.214   9.118  0.00  0.00     0.205 C 
HETATM   17  O   UNK N   1      33.163  17.795   8.482  0.00  0.00    -0.646 OA
HETATM   18  O   UNK N   1      35.170  17.886   9.421  0.00  0.00    -0.646 OA
ENDBRANCH  13  16
ENDBRANCH   1  13
TORSDOF 8
ENDMDL
MODEL 9
REMARK VINA RESULT:      -4.8      2.632      4.506
REMARK  8 active torsions:
REMARK  status: ('A' for Active; 'I' for Inactive)
REMARK    1  A    between atoms: C_9  and  O_1 
REMARK    2  A    between atoms: C_10  and  O_2 
REMARK    3  A    between atoms: C_11  and  O_3 
REMARK    4  A    between atoms: O_7  and  N_8 
REMARK       I    between atoms: N_8  and  C_12 
REMARK    5  A    between atoms: C_9  and  C_10 
REMARK    6  A    between atoms: C_9  and  C_11 
REMARK    7  A    between atoms: C_10  and  C_12 
REMARK    8  A    between atoms: C_11  and  C_13 
ROOT
HETATM    1  C   UNK N   1      32.312  17.728   7.612  0.00  0.00     0.195 C 
ENDROOT
BRANCH   1   2
HETATM    2  O   UNK N   1      31.917  17.657   8.951  0.00  0.00    -0.389 OA
HETATM    3  H   UNK N   1      31.168  18.176   9.285  0.00  0.00     0.210 HD
ENDBRANCH   1   2
BRANCH   1   4
HETATM    4  C   UNK N   1      33.830  17.450   7.505  0.00  0.00     0.243 C 
BRANCH   4   5
HETATM    5  O   UNK N   1      34.299  17.863   6.256  0.00  0.00    -0.383 OA
HETATM    6  H   UNK N   1      33.699  18.135   5.544  0.00  0.00     0.210 HD
ENDBRANCH   4   5
BRANCH   4   7
HETATM    7  C   UNK N   1      34.680  18.024   8.639  0.00  0.00     0.272 C 
HETATM    8  O   UNK N   1      35.235  19.098   8.483  0.00  0.00    -0.268 OA
HETATM    9  N   UNK N   1      34.769  17.424   9.855  0.00  0.00    -0.235 N 
HETATM   10  H   UNK N   1      35.332  17.840  10.548  0.00  0.00     0.197 HD
BRANCH   9  11
HETATM   11  O   UNK N   1      34.123  16.289  10.150  0.00  0.00    -0.287 OA
HETATM   12  H   UNK N   1      33.155  16.249  10.104  0.00  0.00     0.244 HD
ENDBRANCH   9  11
ENDBRANCH   4   7
ENDBRANCH   1   4
BRANCH   1  13
HETATM   13  C   UNK N   1      31.514  16.680   6.808  0.00  0.00     0.250 C 
BRANCH  13  14
HETATM   14  O   UNK N   1      31.966  16.626   5.486  0.00  0.00    -0.382 OA
HETATM   15  H   UNK N   1      31.387  16.341   4.763  0.00  0.00     0.210 HD
ENDBRANCH  13  14
BRANCH  13  16
HETATM   16  C   UNK N   1      30.023  16.915   6.820  0.00  0.00     0.205 C 
HETATM   17  O   UNK N   1      29.194  16.058   6.194  0.00  0.00    -0.646 OA
HETATM   18  O   UNK N   1      29.555  17.856   7.441  0.00  0.00    -0.646 OA
ENDBRANCH  13  16
ENDBRANCH   1  13
TORSDOF 8
ENDMDL
