MODEL 1
REMARK VINA RESULT:      -5.5      0.000      0.000
REMARK  6 active torsions:
REMARK  status: ('A' for Active; 'I' for Inactive)
REMARK    1  A    between atoms: C_1  and  C_7 
REMARK    2  A    between atoms: C_7  and  C_8 
REMARK    3  A    between atoms: C_8  and  C_9 
REMARK    4  A    between atoms: C_9  and  C_10 
REMARK    5  A    between atoms: C_10  and  C_11 
REMARK    6  A    between atoms: C_11  and  O_12 
ROOT
HETATM    1  C   UNK N   1      21.228  13.566   8.726  0.00  0.00     0.038 C 
ENDROOT
BRANCH   1   2
HETATM    2  C   UNK N   1      22.256  13.027   9.683  0.00  0.00    -0.058 A 
HETATM    3  C   UNK N   1      23.609  13.120   9.339  0.00  0.00     0.007 A 
HETATM    4  C   UNK N   1      24.592  12.612  10.194  0.00  0.00     0.001 A 
HETATM    5  C   UNK N   1      24.227  12.013  11.402  0.00  0.00     0.000 A 
HETATM    6  C   UNK N   1      22.879  11.922  11.758  0.00  0.00     0.001 A 
HETATM    7  C   UNK N   1      21.895  12.422  10.899  0.00  0.00     0.007 A 
ENDBRANCH   1   2
BRANCH   1   8
HETATM    8  C   UNK N   1      20.292  14.617   9.319  0.00  0.00     0.005 C 
BRANCH   8   9
HETATM    9  C   UNK N   1      20.558  15.989   8.726  0.00  0.00     0.011 C 
BRANCH   9  10
HETATM   10  C   UNK N   1      19.360  16.908   8.937  0.00  0.00     0.110 C 
BRANCH  10  11
HETATM   11  C   UNK N   1      19.715  18.368   8.967  0.00  0.00     0.139 C 
HETATM   12  O   UNK N   1      20.449  18.854   8.118  0.00  0.00    -0.650 OA
BRANCH  11  13
HETATM   13  O   UNK N   1      19.229  19.147   9.949  0.00  0.00    -0.776 OA
HETATM   14  H   UNK N   1      19.610  19.162  10.805  0.00  0.00     0.167 HD
ENDBRANCH  11  13
ENDBRANCH  10  11
ENDBRANCH   9  10
ENDBRANCH   8   9
ENDBRANCH   1   8
TORSDOF 6
ENDMDL
MODEL 2
REMARK VINA RESULT:      -5.4     17.207     18.976
REMARK  6 active torsions:
REMARK  status: ('A' for Active; 'I' for Inactive)
REMARK    1  A    between atoms: C_1  and  C_7 
REMARK    2  A    between atoms: C_7  and  C_8 
REMARK    3  A    between atoms: C_8  and  C_9 
REMARK    4  A    between atoms: C_9  and  C_10 
REMARK    5  A    between atoms: C_10  and  C_11 
REMARK    6  A    between atoms: C_11  and  O_12 
ROOT
HETATM    1  C   UNK N   1      27.257  24.271  -3.684  0.00  0.00     0.038 C 
ENDROOT
BRANCH   1   2
HETATM    2  C   UNK N   1      26.462  25.478  -4.104  0.00  0.00    -0.058 A 
HETATM    3  C   UNK N   1      25.752  25.429  -5.309  0.00  0.00     0.007 A 
HETATM    4  C   UNK N   1      25.017  26.537  -5.741  0.00  0.00     0.001 A 
HETATM    5  C   UNK N   1      24.983  27.700  -4.967  0.00  0.00     0.000 A 
HETATM    6  C   UNK N   1      25.683  27.755  -3.759  0.00  0.00     0.001 A 
HETATM    7  C   UNK N   1      26.425  26.650  -3.330  0.00  0.00     0.007 A 
ENDBRANCH   1   2
BRANCH   1   8
HETATM    8  C   UNK N   1      28.216  23.737  -4.746  0.00  0.00     0.005 C 
BRANCH   8   9
HETATM    9  C   UNK N   1      29.656  23.802  -4.270  0.00  0.00     0.011 C 
BRANCH   9  10
HETATM   10  C   UNK N   1      30.123  22.434  -3.783  0.00  0.00     0.110 C 
BRANCH  10  11
HETATM   11  C   UNK N   1      30.859  22.477  -2.474  0.00  0.00     0.139 C 
HETATM   12  O   UNK N   1      31.952  21.942  -2.348  0.00  0.00    -0.650 OA
BRANCH  11  13
HETATM   13  O   UNK N   1      30.301  23.102  -1.422  0.00  0.00    -0.776 OA
HETATM   14  H   UNK N   1      29.986  23.982  -1.477  0.00  0.00     0.167 HD
ENDBRANCH  11  13
ENDBRANCH  10  11
ENDBRANCH   9  10
ENDBRANCH   8   9
ENDBRANCH   1   8
TORSDOF 6
ENDMDL
MODEL 3
REMARK VINA RESULT:      -5.4      0.397      1.400
REMARK  6 active torsions:
REMARK  status: ('A' for Active; 'I' for Inactive)
REMARK    1  A    between atoms: C_1  and  C_7 
REMARK    2  A    between atoms: C_7  and  C_8 
REMARK    3  A    between atoms: C_8  and  C_9 
REMARK    4  A    between atoms: C_9  and  C_10 
REMARK    5  A    between atoms: C_10  and  C_11 
REMARK    6  A    between atoms: C_11  and  O_12 
ROOT
HETATM    1  C   UNK N   1      21.332  13.621   8.752  0.00  0.00     0.038 C 
ENDROOT
BRANCH   1   2
HETATM    2  C   UNK N   1      22.399  13.053   9.648  0.00  0.00    -0.058 A 
HETATM    3  C   UNK N   1      22.015  12.447  10.849  0.00  0.00     0.007 A 
HETATM    4  C   UNK N   1      22.980  11.925  11.716  0.00  0.00     0.001 A 
HETATM    5  C   UNK N   1      24.335  12.003  11.384  0.00  0.00     0.000 A 
HETATM    6  C   UNK N   1      24.727  12.600  10.184  0.00  0.00     0.001 A 
HETATM    7  C   UNK N   1      23.763  13.129   9.320  0.00  0.00     0.007 A 
ENDBRANCH   1   2
BRANCH   1   8
HETATM    8  C   UNK N   1      20.459  14.695   9.398  0.00  0.00     0.005 C 
BRANCH   8   9
HETATM    9  C   UNK N   1      20.345  15.919   8.508  0.00  0.00     0.011 C 
BRANCH   9  10
HETATM   10  C   UNK N   1      19.055  16.678   8.800  0.00  0.00     0.110 C 
BRANCH  10  11
HETATM   11  C   UNK N   1      19.272  18.114   9.187  0.00  0.00     0.139 C 
HETATM   12  O   UNK N   1      20.219  18.749   8.743  0.00  0.00    -0.650 OA
BRANCH  11  13
HETATM   13  O   UNK N   1      18.421  18.704  10.045  0.00  0.00    -0.776 OA
HETATM   14  H   UNK N   1      17.523  18.444  10.111  0.00  0.00     0.167 HD
ENDBRANCH  11  13
ENDBRANCH  10  11
ENDBRANCH   9  10
ENDBRANCH   8   9
ENDBRANCH   1   8
TORSDOF 6
ENDMDL
MODEL 4
REMARK VINA RESULT:      -5.3      9.823     11.634
REMARK  6 active torsions:
REMARK  status: ('A' for Active; 'I' for Inactive)
REMARK    1  A    between atoms: C_1  and  C_7 
REMARK    2  A    between atoms: C_7  and  C_8 
REMARK    3  A    between atoms: C_8  and  C_9 
REMARK    4  A    between atoms: C_9  and  C_10 
REMARK    5  A    between atoms: C_10  and  C_11 
REMARK    6  A    between atoms: C_11  and  O_12 
ROOT
HETATM    1  C   UNK N   1      29.282  17.326   7.863  0.00  0.00     0.038 C 
ENDROOT
BRANCH   1   2
HETATM    2  C   UNK N   1      28.705  18.322   6.894  0.00  0.00    -0.058 A 
HETATM    3  C   UNK N   1      28.050  19.450   7.401  0.00  0.00     0.007 A 
HETATM    4  C   UNK N   1      27.484  20.387   6.531  0.00  0.00     0.001 A 
HETATM    5  C   UNK N   1      27.576  20.205   5.149  0.00  0.00     0.000 A 
HETATM    6  C   UNK N   1      28.235  19.087   4.634  0.00  0.00     0.001 A 
HETATM    7  C   UNK N   1      28.794  18.144   5.503  0.00  0.00     0.007 A 
ENDBRANCH   1   2
BRANCH   1   8
HETATM    8  C   UNK N   1      30.544  17.793   8.585  0.00  0.00     0.005 C 
BRANCH   8   9
HETATM    9  C   UNK N   1      31.784  17.541   7.745  0.00  0.00     0.011 C 
BRANCH   9  10
HETATM   10  C   UNK N   1      33.046  17.713   8.584  0.00  0.00     0.110 C 
BRANCH  10  11
HETATM   11  C   UNK N   1      34.208  18.281   7.819  0.00  0.00     0.139 C 
HETATM   12  O   UNK N   1      34.986  19.065   8.345  0.00  0.00    -0.650 OA
BRANCH  11  13
HETATM   13  O   UNK N   1      34.386  17.932   6.532  0.00  0.00    -0.776 OA
HETATM   14  H   UNK N   1      34.115  18.485   5.826  0.00  0.00     0.167 HD
ENDBRANCH  11  13
ENDBRANCH  10  11
ENDBRANCH   9  10
ENDBRANCH   8   9
ENDBRANCH   1   8
TORSDOF 6
ENDMDL
MODEL 5
REMARK VINA RESULT:      -5.3     10.017     11.833
REMARK  6 active torsions:
REMARK  status: ('A' for Active; 'I' for Inactive)
REMARK    1  A    between atoms: C_1  and  C_7 
REMARK    2  A    between atoms: C_7  and  C_8 
REMARK    3  A    between atoms: C_8  and  C_9 
REMARK    4  A    between atoms: C_9  and  C_10 
REMARK    5  A    between atoms: C_10  and  C_11 
REMARK    6  A    between atoms: C_11  and  O_12 
ROOT
HETATM    1  C   UNK N   1      31.637  16.353   6.898  0.00  0.00     0.038 C 
ENDROOT
BRANCH   1   2
HETATM    2  C   UNK N   1      30.548  17.151   7.562  0.00  0.00    -0.058 A 
HETATM    3  C   UNK N   1      30.843  17.834   8.747  0.00  0.00     0.007 A 
HETATM    4  C   UNK N   1      29.852  18.571   9.402  0.00  0.00     0.001 A 
HETATM    5  C   UNK N   1      28.560  18.633   8.873  0.00  0.00     0.000 A 
HETATM    6  C   UNK N   1      28.258  17.961   7.687  0.00  0.00     0.001 A 
HETATM    7  C   UNK N   1      29.247  17.218   7.035  0.00  0.00     0.007 A 
ENDBRANCH   1   2
BRANCH   1   8
HETATM    8  C   UNK N   1      32.303  17.044   5.711  0.00  0.00     0.005 C 
BRANCH   8   9
HETATM    9  C   UNK N   1      33.632  17.661   6.109  0.00  0.00     0.011 C 
BRANCH   9  10
HETATM   10  C   UNK N   1      34.210  16.951   7.330  0.00  0.00     0.110 C 
BRANCH  10  11
HETATM   11  C   UNK N   1      34.528  17.875   8.472  0.00  0.00     0.139 C 
HETATM   12  O   UNK N   1      34.968  18.999   8.269  0.00  0.00    -0.650 OA
BRANCH  11  13
HETATM   13  O   UNK N   1      34.339  17.455   9.735  0.00  0.00    -0.776 OA
HETATM   14  H   UNK N   1      33.574  17.684  10.225  0.00  0.00     0.167 HD
ENDBRANCH  11  13
ENDBRANCH  10  11
ENDBRANCH   9  10
ENDBRANCH   8   9
ENDBRANCH   1   8
TORSDOF 6
ENDMDL
MODEL 6
REMARK VINA RESULT:      -5.3     13.640     15.298
REMARK  6 active torsions:
REMARK  status: ('A' for Active; 'I' for Inactive)
REMARK    1  A    between atoms: C_1  and  C_7 
REMARK    2  A    between atoms: C_7  and  C_8 
REMARK    3  A    between atoms: C_8  and  C_9 
REMARK    4  A    between atoms: C_9  and  C_10 
REMARK    5  A    between atoms: C_10  and  C_11 
REMARK    6  A    between atoms: C_11  and  O_12 
ROOT
HETATM    1  C   UNK N   1      35.215  13.004  15.309  0.00  0.00     0.038 C 
ENDROOT
BRANCH   1   2
HETATM    2  C   UNK N   1      35.258  12.621  16.764  0.00  0.00    -0.058 A 
HETATM    3  C   UNK N   1      35.108  13.625  17.727  0.00  0.00     0.007 A 
HETATM    4  C   UNK N   1      35.161  13.310  19.089  0.00  0.00     0.001 A 
HETATM    5  C   UNK N   1      35.360  11.988  19.494  0.00  0.00     0.000 A 
HETATM    6  C   UNK N   1      35.504  10.979  18.540  0.00  0.00     0.001 A 
HETATM    7  C   UNK N   1      35.458  11.294  17.178  0.00  0.00     0.007 A 
ENDBRANCH   1   2
BRANCH   1   8
HETATM    8  C   UNK N   1      36.537  13.517  14.744  0.00  0.00     0.005 C 
BRANCH   8   9
HETATM    9  C   UNK N   1      36.307  14.585  13.689  0.00  0.00     0.011 C 
BRANCH   9  10
HETATM   10  C   UNK N   1      35.568  14.003  12.489  0.00  0.00     0.110 C 
BRANCH  10  11
HETATM   11  C   UNK N   1      34.858  15.036  11.658  0.00  0.00     0.139 C 
HETATM   12  O   UNK N   1      35.426  16.061  11.307  0.00  0.00    -0.650 OA
BRANCH  11  13
HETATM   13  O   UNK N   1      33.576  14.834  11.306  0.00  0.00    -0.776 OA
HETATM   14  H   UNK N   1      33.261  15.027  10.446  0.00  0.00     0.167 HD
ENDBRANCH  11  13
ENDBRANCH  10  11
ENDBRANCH   9  10
ENDBRANCH   8   9
ENDBRANCH   1   8
TORSDOF 6
ENDMDL
MODEL 7
REMARK VINA RESULT:      -5.3     13.820     15.374
REMARK  6 active torsions:
REMARK  status: ('A' for Active; 'I' for Inactive)
REMARK    1  A    between atoms: C_1  and  C_7 
REMARK    2  A    between atoms: C_7  and  C_8 
REMARK    3  A    between atoms: C_8  and  C_9 
REMARK    4  A    between atoms: C_9  and  C_10 
REMARK    5  A    between atoms: C_10  and  C_11 
REMARK    6  A    between atoms: C_11  and  O_12 
ROOT
HETATM    1  C   UNK N   1      34.867  10.532  15.684  0.00  0.00     0.038 C 
ENDROOT
BRANCH   1   2
HETATM    2  C   UNK N   1      35.039  11.333  16.946  0.00  0.00    -0.058 A 
HETATM    3  C   UNK N   1      35.254  10.652  18.150  0.00  0.00     0.007 A 
HETATM    4  C   UNK N   1      35.398  11.361  19.346  0.00  0.00     0.001 A 
HETATM    5  C   UNK N   1      35.335  12.757  19.344  0.00  0.00     0.000 A 
HETATM    6  C   UNK N   1      35.128  13.446  18.147  0.00  0.00     0.001 A 
HETATM    7  C   UNK N   1      34.976  12.737  16.951  0.00  0.00     0.007 A 
ENDBRANCH   1   2
BRANCH   1   8
HETATM    8  C   UNK N   1      33.764  11.034  14.754  0.00  0.00     0.005 C 
BRANCH   8   9
HETATM    9  C   UNK N   1      34.076  10.708  13.304  0.00  0.00     0.011 C 
BRANCH   9  10
HETATM   10  C   UNK N   1      35.325  11.452  12.843  0.00  0.00     0.110 C 
BRANCH  10  11
HETATM   11  C   UNK N   1      35.203  12.948  12.929  0.00  0.00     0.139 C 
HETATM   12  O   UNK N   1      35.932  13.598  13.666  0.00  0.00    -0.650 OA
BRANCH  11  13
HETATM   13  O   UNK N   1      34.269  13.579  12.196  0.00  0.00    -0.776 OA
HETATM   14  H   UNK N   1      33.392  13.257  12.125  0.00  0.00     0.167 HD
ENDBRANCH  11  13
ENDBRANCH  10  11
ENDBRANCH   9  10
ENDBRANCH   8   9
ENDBRANCH   1   8
TORSDOF 6
ENDMDL
MODEL 8
REMARK VINA RESULT:      -5.2     18.436     19.545
REMARK  6 active torsions:
REMARK  status: ('A' for Active; 'I' for Inactive)
REMARK    1  A    between atoms: C_1  and  C_7 
REMARK    2  A    between atoms: C_7  and  C_8 
REMARK    3  A    between atoms: C_8  and  C_9 
REMARK    4  A    between atoms: C_9  and  C_10 
REMARK    5  A    between atoms: C_10  and  C_11 
REMARK    6  A    between atoms: C_11  and  O_12 
ROOT
HETATM    1  C   UNK N   1      26.163  23.842  -5.112  0.00  0.00     0.038 C 
ENDROOT
BRANCH   1   2
HETATM    2  C   UNK N   1      25.927  25.302  -4.834  0.00  0.00    -0.058 A 
HETATM    3  C   UNK N   1      26.446  25.855  -3.658  0.00  0.00     0.007 A 
HETATM    4  C   UNK N   1      26.230  27.203  -3.356  0.00  0.00     0.001 A 
HETATM    5  C   UNK N   1      25.499  28.008  -4.234  0.00  0.00     0.000 A 
HETATM    6  C   UNK N   1      24.984  27.467  -5.414  0.00  0.00     0.001 A 
HETATM    7  C   UNK N   1      25.192  26.117  -5.712  0.00  0.00     0.007 A 
ENDBRANCH   1   2
BRANCH   1   8
HETATM    8  C   UNK N   1      27.416  23.543  -5.932  0.00  0.00     0.005 C 
BRANCH   8   9
HETATM    9  C   UNK N   1      27.109  22.595  -7.079  0.00  0.00     0.011 C 
BRANCH   9  10
HETATM   10  C   UNK N   1      25.783  22.962  -7.739  0.00  0.00     0.110 C 
BRANCH  10  11
HETATM   11  C   UNK N   1      24.854  21.795  -7.916  0.00  0.00     0.139 C 
HETATM   12  O   UNK N   1      25.281  20.649  -7.949  0.00  0.00    -0.650 OA
BRANCH  11  13
HETATM   13  O   UNK N   1      23.534  22.015  -8.055  0.00  0.00    -0.776 OA
HETATM   14  H   UNK N   1      23.104  22.734  -7.635  0.00  0.00     0.167 HD
ENDBRANCH  11  13
ENDBRANCH  10  11
ENDBRANCH   9  10
ENDBRANCH   8   9
ENDBRANCH   1   8
TORSDOF 6
ENDMDL
MODEL 9
REMARK VINA RESULT:      -5.0      1.507      2.069
REMARK  6 active torsions:
REMARK  status: ('A' for Active; 'I' for Inactive)
REMARK    1  A    between atoms: C_1  and  C_7 
REMARK    2  A    between atoms: C_7  and  C_8 
REMARK    3  A    between atoms: C_8  and  C_9 
REMARK    4  A    between atoms: C_9  and  C_10 
REMARK    5  A    between atoms: C_10  and  C_11 
REMARK    6  A    between atoms: C_11  and  O_12 
ROOT
HETATM    1  C   UNK N   1      20.304  14.290   9.356  0.00  0.00     0.038 C 
ENDROOT
BRANCH   1   2
HETATM    2  C   UNK N   1      21.438  13.485   9.930  0.00  0.00    -0.058 A 
HETATM    3  C   UNK N   1      22.718  13.644   9.387  0.00  0.00     0.007 A 
HETATM    4  C   UNK N   1      23.792  12.900   9.881  0.00  0.00     0.001 A 
HETATM    5  C   UNK N   1      23.595  11.995  10.927  0.00  0.00     0.000 A 
HETATM    6  C   UNK N   1      22.323  11.834  11.481  0.00  0.00     0.001 A 
HETATM    7  C   UNK N   1      21.246  12.573  10.982  0.00  0.00     0.007 A 
ENDBRANCH   1   2
BRANCH   1   8
HETATM    8  C   UNK N   1      20.687  15.692   8.889  0.00  0.00     0.005 C 
BRANCH   8   9
HETATM    9  C   UNK N   1      20.425  15.868   7.404  0.00  0.00     0.011 C 
BRANCH   9  10
HETATM   10  C   UNK N   1      21.561  16.645   6.746  0.00  0.00     0.110 C 
BRANCH  10  11
HETATM   11  C   UNK N   1      21.226  18.083   6.465  0.00  0.00     0.139 C 
HETATM   12  O   UNK N   1      20.861  18.831   7.361  0.00  0.00    -0.650 OA
BRANCH  11  13
HETATM   13  O   UNK N   1      21.318  18.550   5.207  0.00  0.00    -0.776 OA
HETATM   14  H   UNK N   1      21.514  17.989   4.483  0.00  0.00     0.167 HD
ENDBRANCH  11  13
ENDBRANCH  10  11
ENDBRANCH   9  10
ENDBRANCH   8   9
ENDBRANCH   1   8
TORSDOF 6
ENDMDL
