MODEL 1
REMARK VINA RESULT:      -6.7      0.000      0.000
REMARK  8 active torsions:
REMARK  status: ('A' for Active; 'I' for Inactive)
REMARK    1  A    between atoms: C_2  and  C_3 
REMARK    2  A    between atoms: C_3  and  C_4 
REMARK    3  A    between atoms: C_7  and  C_3 
REMARK    4  A    between atoms: C_8  and  N_9 
REMARK    5  A    between atoms: N_9  and  S_10 
REMARK       I    between atoms: N_16  and  C_17 
REMARK    6  A    between atoms: C_17  and  C_19 
REMARK    7  A    between atoms: C_20  and  C_21 
REMARK    8  A    between atoms: C_21  and  N_22 
ROOT
HETATM    1  C   UNK N   1      30.838  16.323   7.524  0.00  0.00     0.121 C 
HETATM    2  C   UNK N   1      31.655  17.482   8.156  0.00  0.00     0.118 C 
HETATM    3  C   UNK N   1      30.609  18.260   8.938  0.00  0.00     0.048 C 
HETATM    4  C   UNK N   1      29.453  18.268   7.974  0.00  0.00     0.129 C 
HETATM    5  N   UNK N   1      29.685  17.152   7.089  0.00  0.00    -0.341 N 
HETATM    6  C   UNK N   1      29.208  17.220   5.797  0.00  0.00     0.243 C 
HETATM    7  O   UNK N   1      29.230  16.269   5.056  0.00  0.00    -0.268 OA
ENDROOT
BRANCH   1   8
HETATM    8  C   UNK N   1      31.668  15.528   6.421  0.00  0.00     0.075 C 
BRANCH   8   9
HETATM    9  C   UNK N   1      32.300  14.253   6.917  0.00  0.00     0.238 C 
HETATM   10  O   UNK N   1      32.339  13.968   8.102  0.00  0.00    -0.306 OA
ENDBRANCH   8   9
BRANCH   8  11
HETATM   11  C   UNK N   1      32.851  16.283   5.760  0.00  0.00    -0.010 C 
HETATM   12  C   UNK N   1      32.458  17.301   4.699  0.00  0.00     0.010 C 
HETATM   13  C   UNK N   1      34.062  15.469   5.350  0.00  0.00     0.010 C 
ENDBRANCH   8  11
ENDBRANCH   1   8
BRANCH   6  14
HETATM   14  C   UNK N   1      28.883  18.545   5.198  0.00  0.00     0.072 C 
HETATM   15  C   UNK N   1      27.687  19.014   4.853  0.00  0.00     0.008 C 
BRANCH  15  16
HETATM   16  C   UNK N   1      26.469  18.149   4.842  0.00  0.00     0.300 C 
BRANCH  16  17
HETATM   17  N   UNK N   1      25.203  18.903   4.822  0.00  0.00     0.091 N 
HETATM   18  C   UNK N   1      25.470  20.262   4.324  0.00  0.00     0.272 C 
HETATM   19  C   UNK N   1      24.914  20.499   2.921  0.00  0.00     0.030 C 
HETATM   20  C   UNK N   1      23.401  20.275   2.889  0.00  0.00     0.003 C 
HETATM   21  C   UNK N   1      22.933  19.175   3.846  0.00  0.00     0.030 C 
HETATM   22  C   UNK N   1      24.068  18.212   4.168  0.00  0.00     0.272 C 
ENDBRANCH  16  17
ENDBRANCH  15  16
ENDBRANCH   6  14
BRANCH   2  23
HETATM   23  N   UNK N   1      32.877  17.139   8.909  0.00  0.00    -0.313 N 
HETATM   24  H   UNK N   1      32.832  16.642   9.799  0.00  0.00     0.172 HD
BRANCH  23  25
HETATM   25  S   UNK N   1      34.437  17.631   8.197  0.00  0.00     0.223 S 
HETATM   26  O   UNK N   1      35.267  18.283   9.314  0.00  0.00    -0.206 OA
HETATM   27  O   UNK N   1      33.731  18.984   8.368  0.00  0.00    -0.206 OA
HETATM   28  C   UNK N   1      34.788  16.665   9.707  0.00  0.00     0.185 C 
ENDBRANCH  23  25
ENDBRANCH   2  23
TORSDOF 8
ENDMDL
MODEL 2
REMARK VINA RESULT:      -6.2      2.036      2.669
REMARK  8 active torsions:
REMARK  status: ('A' for Active; 'I' for Inactive)
REMARK    1  A    between atoms: C_2  and  C_3 
REMARK    2  A    between atoms: C_3  and  C_4 
REMARK    3  A    between atoms: C_7  and  C_3 
REMARK    4  A    between atoms: C_8  and  N_9 
REMARK    5  A    between atoms: N_9  and  S_10 
REMARK       I    between atoms: N_16  and  C_17 
REMARK    6  A    between atoms: C_17  and  C_19 
REMARK    7  A    between atoms: C_20  and  C_21 
REMARK    8  A    between atoms: C_21  and  N_22 
ROOT
HETATM    1  C   UNK N   1      31.888  14.960   7.623  0.00  0.00     0.121 C 
HETATM    2  C   UNK N   1      32.506  16.092   8.488  0.00  0.00     0.118 C 
HETATM    3  C   UNK N   1      31.303  16.950   8.849  0.00  0.00     0.048 C 
HETATM    4  C   UNK N   1      30.556  16.991   7.543  0.00  0.00     0.129 C 
HETATM    5  N   UNK N   1      31.012  15.837   6.805  0.00  0.00    -0.341 N 
HETATM    6  C   UNK N   1      31.017  15.891   5.428  0.00  0.00     0.243 C 
HETATM    7  O   UNK N   1      31.236  14.917   4.751  0.00  0.00    -0.268 OA
ENDROOT
BRANCH   1   8
HETATM    8  C   UNK N   1      32.998  14.087   6.886  0.00  0.00     0.075 C 
BRANCH   8   9
HETATM    9  C   UNK N   1      33.348  12.802   7.592  0.00  0.00     0.238 C 
HETATM   10  O   UNK N   1      32.938  12.545   8.710  0.00  0.00    -0.306 OA
ENDBRANCH   8   9
BRANCH   8  11
HETATM   11  C   UNK N   1      34.377  14.760   6.658  0.00  0.00    -0.010 C 
HETATM   12  C   UNK N   1      34.468  15.649   5.426  0.00  0.00     0.010 C 
HETATM   13  C   UNK N   1      35.614  13.903   6.839  0.00  0.00     0.010 C 
ENDBRANCH   8  11
ENDBRANCH   1   8
BRANCH   6  14
HETATM   14  C   UNK N   1      31.004  17.212   4.739  0.00  0.00     0.072 C 
HETATM   15  C   UNK N   1      29.947  17.904   4.319  0.00  0.00     0.008 C 
BRANCH  15  16
HETATM   16  C   UNK N   1      28.572  17.321   4.311  0.00  0.00     0.300 C 
BRANCH  16  17
HETATM   17  N   UNK N   1      27.516  18.285   4.668  0.00  0.00     0.091 N 
HETATM   18  C   UNK N   1      27.325  18.260   6.127  0.00  0.00     0.272 C 
HETATM   19  C   UNK N   1      27.846  19.521   6.815  0.00  0.00     0.030 C 
HETATM   20  C   UNK N   1      27.146  20.768   6.270  0.00  0.00     0.003 C 
HETATM   21  C   UNK N   1      26.788  20.659   4.785  0.00  0.00     0.030 C 
HETATM   22  C   UNK N   1      27.672  19.637   4.084  0.00  0.00     0.272 C 
ENDBRANCH  16  17
ENDBRANCH  15  16
ENDBRANCH   6  14
BRANCH   2  23
HETATM   23  N   UNK N   1      33.366  15.706   9.623  0.00  0.00    -0.313 N 
HETATM   24  H   UNK N   1      33.016  15.121  10.382  0.00  0.00     0.172 HD
BRANCH  23  25
HETATM   25  S   UNK N   1      35.046  16.308   9.612  0.00  0.00     0.223 S 
HETATM   26  O   UNK N   1      35.276  17.056  10.933  0.00  0.00    -0.206 OA
HETATM   27  O   UNK N   1      34.249  17.601   9.385  0.00  0.00    -0.206 OA
HETATM   28  C   UNK N   1      34.778  15.415  11.183  0.00  0.00     0.185 C 
ENDBRANCH  23  25
ENDBRANCH   2  23
TORSDOF 8
ENDMDL
MODEL 3
REMARK VINA RESULT:      -6.2      6.350      9.202
REMARK  8 active torsions:
REMARK  status: ('A' for Active; 'I' for Inactive)
REMARK    1  A    between atoms: C_2  and  C_3 
REMARK    2  A    between atoms: C_3  and  C_4 
REMARK    3  A    between atoms: C_7  and  C_3 
REMARK    4  A    between atoms: C_8  and  N_9 
REMARK    5  A    between atoms: N_9  and  S_10 
REMARK       I    between atoms: N_16  and  C_17 
REMARK    6  A    between atoms: C_17  and  C_19 
REMARK    7  A    between atoms: C_20  and  C_21 
REMARK    8  A    between atoms: C_21  and  N_22 
ROOT
HETATM    1  C   UNK N   1      22.806  13.949   6.471  0.00  0.00     0.121 C 
HETATM    2  C   UNK N   1      22.071  15.058   7.272  0.00  0.00     0.118 C 
HETATM    3  C   UNK N   1      22.166  16.269   6.358  0.00  0.00     0.048 C 
HETATM    4  C   UNK N   1      23.586  16.170   5.868  0.00  0.00     0.129 C 
HETATM    5  N   UNK N   1      23.957  14.787   6.047  0.00  0.00    -0.341 N 
HETATM    6  C   UNK N   1      25.281  14.480   6.278  0.00  0.00     0.243 C 
HETATM    7  O   UNK N   1      25.683  13.343   6.282  0.00  0.00    -0.268 OA
ENDROOT
BRANCH   1   8
HETATM    8  C   UNK N   1      23.088  12.652   7.352  0.00  0.00     0.075 C 
BRANCH   8   9
HETATM    9  C   UNK N   1      22.025  11.588   7.249  0.00  0.00     0.238 C 
HETATM   10  O   UNK N   1      20.905  11.829   6.834  0.00  0.00    -0.306 OA
ENDBRANCH   8   9
BRANCH   8  11
HETATM   11  C   UNK N   1      23.237  12.866   8.881  0.00  0.00    -0.010 C 
HETATM   12  C   UNK N   1      24.652  13.162   9.358  0.00  0.00     0.010 C 
HETATM   13  C   UNK N   1      22.514  11.900   9.798  0.00  0.00     0.010 C 
ENDBRANCH   8  11
ENDBRANCH   1   8
BRANCH   6  14
HETATM   14  C   UNK N   1      26.206  15.533   6.782  0.00  0.00     0.072 C 
HETATM   15  C   UNK N   1      26.967  16.362   6.070  0.00  0.00     0.008 C 
BRANCH  15  16
HETATM   16  C   UNK N   1      27.145  16.203   4.596  0.00  0.00     0.300 C 
BRANCH  16  17
HETATM   17  N   UNK N   1      27.181  17.480   3.860  0.00  0.00     0.091 N 
HETATM   18  C   UNK N   1      25.848  17.738   3.294  0.00  0.00     0.272 C 
HETATM   19  C   UNK N   1      25.115  18.878   3.999  0.00  0.00     0.030 C 
HETATM   20  C   UNK N   1      25.921  20.177   3.917  0.00  0.00     0.003 C 
HETATM   21  C   UNK N   1      27.435  19.951   3.950  0.00  0.00     0.030 C 
HETATM   22  C   UNK N   1      27.774  18.617   4.601  0.00  0.00     0.272 C 
ENDBRANCH  16  17
ENDBRANCH  15  16
ENDBRANCH   6  14
BRANCH   2  23
HETATM   23  N   UNK N   1      20.720  14.762   7.787  0.00  0.00    -0.313 N 
HETATM   24  H   UNK N   1      20.247  13.886   7.567  0.00  0.00     0.172 HD
BRANCH  23  25
HETATM   25  S   UNK N   1      19.949  16.004   8.809  0.00  0.00     0.223 S 
HETATM   26  O   UNK N   1      18.617  15.427   9.310  0.00  0.00    -0.206 OA
HETATM   27  O   UNK N   1      19.083  16.062   7.542  0.00  0.00    -0.206 OA
HETATM   28  C   UNK N   1      19.970  14.437   9.747  0.00  0.00     0.185 C 
ENDBRANCH  23  25
ENDBRANCH   2  23
TORSDOF 8
ENDMDL
MODEL 4
REMARK VINA RESULT:      -6.1      8.949     13.828
REMARK  8 active torsions:
REMARK  status: ('A' for Active; 'I' for Inactive)
REMARK    1  A    between atoms: C_2  and  C_3 
REMARK    2  A    between atoms: C_3  and  C_4 
REMARK    3  A    between atoms: C_7  and  C_3 
REMARK    4  A    between atoms: C_8  and  N_9 
REMARK    5  A    between atoms: N_9  and  S_10 
REMARK       I    between atoms: N_16  and  C_17 
REMARK    6  A    between atoms: C_17  and  C_19 
REMARK    7  A    between atoms: C_20  and  C_21 
REMARK    8  A    between atoms: C_21  and  N_22 
ROOT
HETATM    1  C   UNK N   1      36.805  12.212  13.859  0.00  0.00     0.121 C 
HETATM    2  C   UNK N   1      36.050  13.492  13.407  0.00  0.00     0.118 C 
HETATM    3  C   UNK N   1      36.658  14.579  14.279  0.00  0.00     0.048 C 
HETATM    4  C   UNK N   1      36.736  13.890  15.615  0.00  0.00     0.129 C 
HETATM    5  N   UNK N   1      36.721  12.478  15.318  0.00  0.00    -0.341 N 
HETATM    6  C   UNK N   1      36.187  11.610  16.246  0.00  0.00     0.243 C 
HETATM    7  O   UNK N   1      36.283  10.413  16.132  0.00  0.00    -0.268 OA
ENDROOT
BRANCH   1   8
HETATM    8  C   UNK N   1      36.138  10.883  13.284  0.00  0.00     0.075 C 
BRANCH   8   9
HETATM    9  C   UNK N   1      36.772  10.369  12.017  0.00  0.00     0.238 C 
HETATM   10  O   UNK N   1      37.508  11.059  11.334  0.00  0.00    -0.306 OA
ENDBRANCH   8   9
BRANCH   8  11
HETATM   11  C   UNK N   1      34.630  10.956  12.930  0.00  0.00    -0.010 C 
HETATM   12  C   UNK N   1      33.679  10.709  14.092  0.00  0.00     0.010 C 
HETATM   13  C   UNK N   1      34.174  10.265  11.660  0.00  0.00     0.010 C 
ENDBRANCH   8  11
ENDBRANCH   1   8
BRANCH   6  14
HETATM   14  C   UNK N   1      35.255  12.125  17.287  0.00  0.00     0.072 C 
HETATM   15  C   UNK N   1      35.224  11.815  18.582  0.00  0.00     0.008 C 
BRANCH  15  16
HETATM   16  C   UNK N   1      36.042  10.702  19.149  0.00  0.00     0.300 C 
BRANCH  16  17
HETATM   17  N   UNK N   1      35.242   9.568  19.646  0.00  0.00     0.091 N 
HETATM   18  C   UNK N   1      35.001   9.753  21.085  0.00  0.00     0.272 C 
HETATM   19  C   UNK N   1      33.550  10.113  21.402  0.00  0.00     0.030 C 
HETATM   20  C   UNK N   1      32.597   9.025  20.901  0.00  0.00     0.003 C 
HETATM   21  C   UNK N   1      33.075   8.350  19.613  0.00  0.00     0.030 C 
HETATM   22  C   UNK N   1      34.035   9.252  18.848  0.00  0.00     0.272 C 
ENDBRANCH  16  17
ENDBRANCH  15  16
ENDBRANCH   6  14
BRANCH   2  23
HETATM   23  N   UNK N   1      36.003  13.796  11.963  0.00  0.00    -0.313 N 
HETATM   24  H   UNK N   1      36.774  13.552  11.342  0.00  0.00     0.172 HD
BRANCH  23  25
HETATM   25  S   UNK N   1      34.539  14.612  11.351  0.00  0.00     0.223 S 
HETATM   26  O   UNK N   1      34.845  15.100   9.927  0.00  0.00    -0.206 OA
HETATM   27  O   UNK N   1      35.471  15.803  11.619  0.00  0.00    -0.206 OA
HETATM   28  C   UNK N   1      35.068  13.391  10.101  0.00  0.00     0.185 C 
ENDBRANCH  23  25
ENDBRANCH   2  23
TORSDOF 8
ENDMDL
MODEL 5
REMARK VINA RESULT:      -6.0     12.284     15.875
REMARK  8 active torsions:
REMARK  status: ('A' for Active; 'I' for Inactive)
REMARK    1  A    between atoms: C_2  and  C_3 
REMARK    2  A    between atoms: C_3  and  C_4 
REMARK    3  A    between atoms: C_7  and  C_3 
REMARK    4  A    between atoms: C_8  and  N_9 
REMARK    5  A    between atoms: N_9  and  S_10 
REMARK       I    between atoms: N_16  and  C_17 
REMARK    6  A    between atoms: C_17  and  C_19 
REMARK    7  A    between atoms: C_20  and  C_21 
REMARK    8  A    between atoms: C_21  and  N_22 
ROOT
HETATM    1  C   UNK N   1      27.296  24.352  -5.420  0.00  0.00     0.121 C 
HETATM    2  C   UNK N   1      27.290  24.171  -6.963  0.00  0.00     0.118 C 
HETATM    3  C   UNK N   1      27.710  22.721  -7.144  0.00  0.00     0.048 C 
HETATM    4  C   UNK N   1      28.818  22.597  -6.132  0.00  0.00     0.129 C 
HETATM    5  N   UNK N   1      28.585  23.654  -5.178  0.00  0.00    -0.341 N 
HETATM    6  C   UNK N   1      29.663  24.200  -4.516  0.00  0.00     0.243 C 
HETATM    7  O   UNK N   1      29.527  24.972  -3.599  0.00  0.00    -0.268 OA
ENDROOT
BRANCH   1   8
HETATM    8  C   UNK N   1      27.163  25.881  -4.991  0.00  0.00     0.075 C 
BRANCH   8   9
HETATM    9  C   UNK N   1      26.474  26.096  -3.668  0.00  0.00     0.238 C 
HETATM   10  O   UNK N   1      26.373  25.209  -2.837  0.00  0.00    -0.306 OA
ENDBRANCH   8   9
BRANCH   8  11
HETATM   11  C   UNK N   1      26.386  26.812  -5.957  0.00  0.00    -0.010 C 
HETATM   12  C   UNK N   1      27.183  27.986  -6.507  0.00  0.00     0.010 C 
HETATM   13  C   UNK N   1      24.976  27.210  -5.566  0.00  0.00     0.010 C 
ENDBRANCH   8  11
ENDBRANCH   1   8
BRANCH   6  14
HETATM   14  C   UNK N   1      31.033  24.047  -5.081  0.00  0.00     0.072 C 
HETATM   15  C   UNK N   1      31.992  23.213  -4.686  0.00  0.00     0.008 C 
BRANCH  15  16
HETATM   16  C   UNK N   1      31.877  22.414  -3.429  0.00  0.00     0.300 C 
BRANCH  16  17
HETATM   17  N   UNK N   1      32.412  21.045  -3.544  0.00  0.00     0.091 N 
HETATM   18  C   UNK N   1      31.684  20.340  -4.609  0.00  0.00     0.272 C 
HETATM   19  C   UNK N   1      32.534  20.111  -5.858  0.00  0.00     0.030 C 
HETATM   20  C   UNK N   1      33.786  19.295  -5.524  0.00  0.00     0.003 C 
HETATM   21  C   UNK N   1      34.336  19.581  -4.124  0.00  0.00     0.030 C 
HETATM   22  C   UNK N   1      33.888  20.951  -3.630  0.00  0.00     0.272 C 
ENDBRANCH  16  17
ENDBRANCH  15  16
ENDBRANCH   6  14
BRANCH   2  23
HETATM   23  N   UNK N   1      26.077  24.571  -7.703  0.00  0.00    -0.313 N 
HETATM   24  H   UNK N   1      25.402  25.224  -7.306  0.00  0.00     0.172 HD
BRANCH  23  25
HETATM   25  S   UNK N   1      25.843  23.862  -9.323  0.00  0.00     0.223 S 
HETATM   26  O   UNK N   1      24.674  24.606  -9.986  0.00  0.00    -0.206 OA
HETATM   27  O   UNK N   1      24.635  23.299  -8.559  0.00  0.00    -0.206 OA
HETATM   28  C   UNK N   1      25.952  25.675  -9.512  0.00  0.00     0.185 C 
ENDBRANCH  23  25
ENDBRANCH   2  23
TORSDOF 8
ENDMDL
MODEL 6
REMARK VINA RESULT:      -6.0      6.813     10.901
REMARK  8 active torsions:
REMARK  status: ('A' for Active; 'I' for Inactive)
REMARK    1  A    between atoms: C_2  and  C_3 
REMARK    2  A    between atoms: C_3  and  C_4 
REMARK    3  A    between atoms: C_7  and  C_3 
REMARK    4  A    between atoms: C_8  and  N_9 
REMARK    5  A    between atoms: N_9  and  S_10 
REMARK       I    between atoms: N_16  and  C_17 
REMARK    6  A    between atoms: C_17  and  C_19 
REMARK    7  A    between atoms: C_20  and  C_21 
REMARK    8  A    between atoms: C_21  and  N_22 
ROOT
HETATM    1  C   UNK N   1      36.477  13.543  10.349  0.00  0.00     0.121 C 
HETATM    2  C   UNK N   1      35.294  14.524  10.125  0.00  0.00     0.118 C 
HETATM    3  C   UNK N   1      34.912  14.936  11.538  0.00  0.00     0.048 C 
HETATM    4  C   UNK N   1      34.990  13.622  12.269  0.00  0.00     0.129 C 
HETATM    5  N   UNK N   1      35.857  12.790  11.469  0.00  0.00    -0.341 N 
HETATM    6  C   UNK N   1      35.673  11.425  11.493  0.00  0.00     0.243 C 
HETATM    7  O   UNK N   1      36.454  10.665  10.975  0.00  0.00    -0.268 OA
ENDROOT
BRANCH   1   8
HETATM    8  C   UNK N   1      36.867  12.754   9.021  0.00  0.00     0.075 C 
BRANCH   8   9
HETATM    9  C   UNK N   1      38.107  13.267   8.335  0.00  0.00     0.238 C 
HETATM   10  O   UNK N   1      38.825  14.112   8.840  0.00  0.00    -0.306 OA
ENDBRANCH   8   9
BRANCH   8  11
HETATM   11  C   UNK N   1      35.810  12.732   7.886  0.00  0.00    -0.010 C 
HETATM   12  C   UNK N   1      34.895  11.516   7.876  0.00  0.00     0.010 C 
HETATM   13  C   UNK N   1      36.269  13.115   6.493  0.00  0.00     0.010 C 
ENDBRANCH   8  11
ENDBRANCH   1   8
BRANCH   6  14
HETATM   14  C   UNK N   1      34.369  10.863  11.941  0.00  0.00     0.072 C 
HETATM   15  C   UNK N   1      34.098  10.236  13.084  0.00  0.00     0.008 C 
BRANCH  15  16
HETATM   16  C   UNK N   1      35.174   9.822  14.034  0.00  0.00     0.300 C 
BRANCH  16  17
HETATM   17  N   UNK N   1      35.306  10.706  15.205  0.00  0.00     0.091 N 
HETATM   18  C   UNK N   1      36.717  11.098  15.347  0.00  0.00     0.272 C 
HETATM   19  C   UNK N   1      36.964  12.563  14.991  0.00  0.00     0.030 C 
HETATM   20  C   UNK N   1      36.127  13.488  15.878  0.00  0.00     0.003 C 
HETATM   21  C   UNK N   1      34.770  12.893  16.260  0.00  0.00     0.030 C 
HETATM   22  C   UNK N   1      34.339  11.827  15.261  0.00  0.00     0.272 C 
ENDBRANCH  16  17
ENDBRANCH  15  16
ENDBRANCH   6  14
BRANCH   2  23
HETATM   23  N   UNK N   1      35.486  15.638   9.176  0.00  0.00    -0.313 N 
HETATM   24  H   UNK N   1      36.294  15.675   8.555  0.00  0.00     0.172 HD
BRANCH  23  25
HETATM   25  S   UNK N   1      34.245  16.919   9.164  0.00  0.00     0.223 S 
HETATM   26  O   UNK N   1      34.662  17.954   8.108  0.00  0.00    -0.206 OA
HETATM   27  O   UNK N   1      35.416  17.627   9.861  0.00  0.00    -0.206 OA
HETATM   28  C   UNK N   1      34.498  16.363   7.442  0.00  0.00     0.185 C 
ENDBRANCH  23  25
ENDBRANCH   2  23
TORSDOF 8
ENDMDL
MODEL 7
REMARK VINA RESULT:      -6.0      5.799     10.845
REMARK  8 active torsions:
REMARK  status: ('A' for Active; 'I' for Inactive)
REMARK    1  A    between atoms: C_2  and  C_3 
REMARK    2  A    between atoms: C_3  and  C_4 
REMARK    3  A    between atoms: C_7  and  C_3 
REMARK    4  A    between atoms: C_8  and  N_9 
REMARK    5  A    between atoms: N_9  and  S_10 
REMARK       I    between atoms: N_16  and  C_17 
REMARK    6  A    between atoms: C_17  and  C_19 
REMARK    7  A    between atoms: C_20  and  C_21 
REMARK    8  A    between atoms: C_21  and  N_22 
ROOT
HETATM    1  C   UNK N   1      36.277  14.815   9.045  0.00  0.00     0.121 C 
HETATM    2  C   UNK N   1      34.980  15.637   8.811  0.00  0.00     0.118 C 
HETATM    3  C   UNK N   1      34.999  16.647   9.947  0.00  0.00     0.048 C 
HETATM    4  C   UNK N   1      35.440  15.793  11.106  0.00  0.00     0.129 C 
HETATM    5  N   UNK N   1      36.112  14.661  10.514  0.00  0.00    -0.341 N 
HETATM    6  C   UNK N   1      36.096  13.456  11.182  0.00  0.00     0.243 C 
HETATM    7  O   UNK N   1      36.764  12.517  10.824  0.00  0.00    -0.268 OA
ENDROOT
BRANCH   1   8
HETATM    8  C   UNK N   1      36.333  13.504   8.142  0.00  0.00     0.075 C 
BRANCH   8   9
HETATM    9  C   UNK N   1      37.237  13.616   6.940  0.00  0.00     0.238 C 
HETATM   10  O   UNK N   1      38.382  13.198   6.950  0.00  0.00    -0.306 OA
ENDBRANCH   8   9
BRANCH   8  11
HETATM   11  C   UNK N   1      34.991  13.014   7.538  0.00  0.00    -0.010 C 
HETATM   12  C   UNK N   1      34.219  12.022   8.395  0.00  0.00     0.010 C 
HETATM   13  C   UNK N   1      34.979  12.634   6.071  0.00  0.00     0.010 C 
ENDBRANCH   8  11
ENDBRANCH   1   8
BRANCH   6  14
HETATM   14  C   UNK N   1      35.059  13.200  12.220  0.00  0.00     0.072 C 
HETATM   15  C   UNK N   1      35.148  13.403  13.532  0.00  0.00     0.008 C 
BRANCH  15  16
HETATM   16  C   UNK N   1      36.441  13.752  14.193  0.00  0.00     0.300 C 
BRANCH  16  17
HETATM   17  N   UNK N   1      36.695  13.001  15.436  0.00  0.00     0.091 N 
HETATM   18  C   UNK N   1      36.173  13.775  16.572  0.00  0.00     0.272 C 
HETATM   19  C   UNK N   1      34.919  13.154  17.187  0.00  0.00     0.030 C 
HETATM   20  C   UNK N   1      35.199  11.731  17.675  0.00  0.00     0.003 C 
HETATM   21  C   UNK N   1      36.217  10.984  16.808  0.00  0.00     0.030 C 
HETATM   22  C   UNK N   1      36.282  11.579  15.408  0.00  0.00     0.272 C 
ENDBRANCH  16  17
ENDBRANCH  15  16
ENDBRANCH   6  14
BRANCH   2  23
HETATM   23  N   UNK N   1      34.753  16.206   7.468  0.00  0.00    -0.313 N 
HETATM   24  H   UNK N   1      35.306  15.910   6.664  0.00  0.00     0.172 HD
BRANCH  23  25
HETATM   25  S   UNK N   1      33.468  17.433   7.312  0.00  0.00     0.223 S 
HETATM   26  O   UNK N   1      33.469  17.917   5.854  0.00  0.00    -0.206 OA
HETATM   27  O   UNK N   1      34.734  18.300   7.268  0.00  0.00    -0.206 OA
HETATM   28  C   UNK N   1      33.238  16.205   5.980  0.00  0.00     0.185 C 
ENDBRANCH  23  25
ENDBRANCH   2  23
TORSDOF 8
ENDMDL
MODEL 8
REMARK VINA RESULT:      -6.0     12.099     15.325
REMARK  8 active torsions:
REMARK  status: ('A' for Active; 'I' for Inactive)
REMARK    1  A    between atoms: C_2  and  C_3 
REMARK    2  A    between atoms: C_3  and  C_4 
REMARK    3  A    between atoms: C_7  and  C_3 
REMARK    4  A    between atoms: C_8  and  N_9 
REMARK    5  A    between atoms: N_9  and  S_10 
REMARK       I    between atoms: N_16  and  C_17 
REMARK    6  A    between atoms: C_17  and  C_19 
REMARK    7  A    between atoms: C_20  and  C_21 
REMARK    8  A    between atoms: C_21  and  N_22 
ROOT
HETATM    1  C   UNK N   1      28.980  26.551  -5.354  0.00  0.00     0.121 C 
HETATM    2  C   UNK N   1      28.944  27.404  -4.056  0.00  0.00     0.118 C 
HETATM    3  C   UNK N   1      30.354  27.259  -3.507  0.00  0.00     0.048 C 
HETATM    4  C   UNK N   1      30.618  25.793  -3.728  0.00  0.00     0.129 C 
HETATM    5  N   UNK N   1      29.705  25.393  -4.771  0.00  0.00    -0.341 N 
HETATM    6  C   UNK N   1      29.256  24.090  -4.796  0.00  0.00     0.243 C 
HETATM    7  O   UNK N   1      28.620  23.651  -5.722  0.00  0.00    -0.268 OA
ENDROOT
BRANCH   1   8
HETATM    8  C   UNK N   1      27.526  26.315  -5.963  0.00  0.00     0.075 C 
BRANCH   8   9
HETATM    9  C   UNK N   1      27.139  27.294  -7.042  0.00  0.00     0.238 C 
HETATM   10  O   UNK N   1      27.806  28.283  -7.291  0.00  0.00    -0.306 OA
ENDBRANCH   8   9
BRANCH   8  11
HETATM   11  C   UNK N   1      26.335  26.383  -4.971  0.00  0.00    -0.010 C 
HETATM   12  C   UNK N   1      25.979  25.066  -4.297  0.00  0.00     0.010 C 
HETATM   13  C   UNK N   1      25.105  27.155  -5.404  0.00  0.00     0.010 C 
ENDBRANCH   8  11
ENDBRANCH   1   8
BRANCH   6  14
HETATM   14  C   UNK N   1      29.328  23.260  -3.562  0.00  0.00     0.072 C 
HETATM   15  C   UNK N   1      29.941  22.089  -3.399  0.00  0.00     0.008 C 
BRANCH  15  16
HETATM   16  C   UNK N   1      30.501  21.322  -4.552  0.00  0.00     0.300 C 
BRANCH  16  17
HETATM   17  N   UNK N   1      31.936  21.567  -4.787  0.00  0.00     0.091 N 
HETATM   18  C   UNK N   1      32.560  21.977  -3.520  0.00  0.00     0.272 C 
HETATM   19  C   UNK N   1      33.475  20.903  -2.934  0.00  0.00     0.030 C 
HETATM   20  C   UNK N   1      34.594  20.545  -3.916  0.00  0.00     0.003 C 
HETATM   21  C   UNK N   1      34.159  20.628  -5.382  0.00  0.00     0.030 C 
HETATM   22  C   UNK N   1      32.648  20.490  -5.513  0.00  0.00     0.272 C 
ENDBRANCH  16  17
ENDBRANCH  15  16
ENDBRANCH   6  14
BRANCH   2  23
HETATM   23  N   UNK N   1      28.445  28.790  -4.150  0.00  0.00    -0.313 N 
HETATM   24  H   UNK N   1      28.789  29.432  -4.863  0.00  0.00     0.172 HD
BRANCH  23  25
HETATM   25  S   UNK N   1      27.214  29.292  -2.961  0.00  0.00     0.223 S 
HETATM   26  O   UNK N   1      27.266  30.825  -2.865  0.00  0.00    -0.206 OA
HETATM   27  O   UNK N   1      28.515  29.516  -2.176  0.00  0.00    -0.206 OA
HETATM   28  C   UNK N   1      26.964  30.275  -4.480  0.00  0.00     0.185 C 
ENDBRANCH  23  25
ENDBRANCH   2  23
TORSDOF 8
ENDMDL
MODEL 9
REMARK VINA RESULT:      -5.9     11.883     15.236
REMARK  8 active torsions:
REMARK  status: ('A' for Active; 'I' for Inactive)
REMARK    1  A    between atoms: C_2  and  C_3 
REMARK    2  A    between atoms: C_3  and  C_4 
REMARK    3  A    between atoms: C_7  and  C_3 
REMARK    4  A    between atoms: C_8  and  N_9 
REMARK    5  A    between atoms: N_9  and  S_10 
REMARK       I    between atoms: N_16  and  C_17 
REMARK    6  A    between atoms: C_17  and  C_19 
REMARK    7  A    between atoms: C_20  and  C_21 
REMARK    8  A    between atoms: C_21  and  N_22 
ROOT
HETATM    1  C   UNK N   1      29.095  26.629  -5.575  0.00  0.00     0.121 C 
HETATM    2  C   UNK N   1      28.952  25.119  -5.241  0.00  0.00     0.118 C 
HETATM    3  C   UNK N   1      29.935  24.457  -6.193  0.00  0.00     0.048 C 
HETATM    4  C   UNK N   1      29.688  25.222  -7.466  0.00  0.00     0.129 C 
HETATM    5  N   UNK N   1      29.095  26.471  -7.052  0.00  0.00    -0.341 N 
HETATM    6  C   UNK N   1      28.227  27.110  -7.911  0.00  0.00     0.243 C 
HETATM    7  O   UNK N   1      27.819  28.225  -7.697  0.00  0.00    -0.268 OA
ENDROOT
BRANCH   1   8
HETATM    8  C   UNK N   1      27.952  27.509  -4.900  0.00  0.00     0.075 C 
BRANCH   8   9
HETATM    9  C   UNK N   1      28.334  28.111  -3.572  0.00  0.00     0.238 C 
HETATM   10  O   UNK N   1      29.481  28.427  -3.309  0.00  0.00    -0.306 OA
ENDBRANCH   8   9
BRANCH   8  11
HETATM   11  C   UNK N   1      26.608  26.795  -4.599  0.00  0.00    -0.010 C 
HETATM   12  C   UNK N   1      25.416  27.292  -5.403  0.00  0.00     0.010 C 
HETATM   13  C   UNK N   1      26.255  26.549  -3.145  0.00  0.00     0.010 C 
ENDBRANCH   8  11
ENDBRANCH   1   8
BRANCH   6  14
HETATM   14  C   UNK N   1      27.567  26.340  -9.003  0.00  0.00     0.072 C 
HETATM   15  C   UNK N   1      26.635  25.397  -8.890  0.00  0.00     0.008 C 
BRANCH  15  16
HETATM   16  C   UNK N   1      26.248  24.820  -7.568  0.00  0.00     0.300 C 
BRANCH  16  17
HETATM   17  N   UNK N   1      26.640  23.410  -7.396  0.00  0.00     0.091 N 
HETATM   18  C   UNK N   1      25.575  22.708  -6.664  0.00  0.00     0.272 C 
HETATM   19  C   UNK N   1      24.790  21.737  -7.544  0.00  0.00     0.030 C 
HETATM   20  C   UNK N   1      25.717  20.682  -8.153  0.00  0.00     0.003 C 
HETATM   21  C   UNK N   1      27.118  21.216  -8.464  0.00  0.00     0.030 C 
HETATM   22  C   UNK N   1      27.101  22.730  -8.629  0.00  0.00     0.272 C 
ENDBRANCH  16  17
ENDBRANCH  15  16
ENDBRANCH   6  14
BRANCH   2  23
HETATM   23  N   UNK N   1      29.071  24.707  -3.828  0.00  0.00    -0.313 N 
HETATM   24  H   UNK N   1      28.384  24.993  -3.131  0.00  0.00     0.172 HD
BRANCH  23  25
HETATM   25  S   UNK N   1      30.470  23.689  -3.393  0.00  0.00     0.223 S 
HETATM   26  O   UNK N   1      30.480  23.552  -1.863  0.00  0.00    -0.206 OA
HETATM   27  O   UNK N   1      30.948  25.081  -2.953  0.00  0.00    -0.206 OA
HETATM   28  C   UNK N   1      28.994  23.003  -2.564  0.00  0.00     0.185 C 
ENDBRANCH  23  25
ENDBRANCH   2  23
TORSDOF 8
ENDMDL
