MODEL 1
REMARK VINA RESULT:      -5.9      0.000      0.000
REMARK  4 active torsions:
REMARK  status: ('A' for Active; 'I' for Inactive)
REMARK    1  A    between atoms: C_2  and  O_3 
REMARK    2  A    between atoms: C_2  and  C_6 
REMARK    3  A    between atoms: O_3  and  C_4 
REMARK    4  A    between atoms: N_13  and  C_14 
ROOT
HETATM    1  C   UNK N   1      27.476  26.543  -3.888  0.00  0.00     0.087 A 
HETATM    2  C   UNK N   1      27.601  25.165  -3.844  0.00  0.00     0.049 A 
HETATM    3  C   UNK N   1      26.446  24.226  -3.793  0.00  0.00     0.071 C 
HETATM    4  C   UNK N   1      28.762  27.011  -4.066  0.00  0.00     0.041 A 
HETATM    5  C   UNK N   1      29.191  28.431  -4.208  0.00  0.00     0.071 C 
HETATM    6  N   UNK N   1      29.610  25.970  -4.121  0.00  0.00    -0.297 N 
ATOM      7  HN  UNK N   1      30.618  26.032  -4.260  1.00  0.00     0.187 HD
HETATM    8  N   UNK N   1      28.919  24.845  -3.966  0.00  0.00    -0.258 N 
ENDROOT
BRANCH   8   9
HETATM    9  C   UNK N   1      29.588  23.557  -4.020  0.00  0.00     0.078 A 
HETATM   10  C   UNK N   1      29.498  22.627  -5.104  0.00  0.00     0.062 A 
HETATM   11 Cl   UNK N   1      28.446  22.798  -6.497  0.00  0.00    -0.082 Cl
HETATM   12  C   UNK N   1      30.199  21.417  -5.034  0.00  0.00     0.026 A 
HETATM   13  C   UNK N   1      30.980  21.101  -3.925  0.00  0.00     0.002 A 
HETATM   14  C   UNK N   1      31.041  21.976  -2.849  0.00  0.00     0.002 A 
HETATM   15  C   UNK N   1      30.348  23.186  -2.896  0.00  0.00     0.033 A 
ENDBRANCH   8   9
BRANCH   1  16
HETATM   16  C   UNK N   1      26.236  27.346  -3.792  0.00  0.00     0.297 C 
HETATM   17  O   UNK N   1      25.760  27.610  -2.697  0.00  0.00    -0.259 OA
BRANCH  16  18
HETATM   18  O   UNK N   1      25.656  27.814  -4.923  0.00  0.00    -0.318 OA
BRANCH  18  19
HETATM   19  C   UNK N   1      24.804  27.054  -5.688  0.00  0.00     0.174 C 
HETATM   20  C   UNK N   1      25.560  26.513  -6.882  0.00  0.00     0.034 C 
ENDBRANCH  18  19
ENDBRANCH  16  18
ENDBRANCH   1  16
TORSDOF 4
ENDMDL
MODEL 2
REMARK VINA RESULT:      -5.8     11.566     13.692
REMARK  4 active torsions:
REMARK  status: ('A' for Active; 'I' for Inactive)
REMARK    1  A    between atoms: C_2  and  O_3 
REMARK    2  A    between atoms: C_2  and  C_6 
REMARK    3  A    between atoms: O_3  and  C_4 
REMARK    4  A    between atoms: N_13  and  C_14 
ROOT
HETATM    1  C   UNK N   1      30.529  17.177   6.275  0.00  0.00     0.087 A 
HETATM    2  C   UNK N   1      29.200  17.554   6.350  0.00  0.00     0.049 A 
HETATM    3  C   UNK N   1      28.386  17.489   7.596  0.00  0.00     0.071 C 
HETATM    4  C   UNK N   1      30.925  17.524   5.000  0.00  0.00     0.041 A 
HETATM    5  C   UNK N   1      32.281  17.362   4.403  0.00  0.00     0.071 C 
HETATM    6  N   UNK N   1      29.888  18.075   4.347  0.00  0.00    -0.297 N 
ATOM      7  HN  UNK N   1      29.909  18.433   3.392  1.00  0.00     0.187 HD
HETATM    8  N   UNK N   1      28.828  18.079   5.150  0.00  0.00    -0.258 N 
ENDROOT
BRANCH   8   9
HETATM    9  C   UNK N   1      27.571  18.655   4.707  0.00  0.00     0.078 A 
HETATM   10  C   UNK N   1      27.081  19.947   5.077  0.00  0.00     0.062 A 
HETATM   11 Cl   UNK N   1      27.830  21.012   6.253  0.00  0.00    -0.082 Cl
HETATM   12  C   UNK N   1      25.851  20.388   4.576  0.00  0.00     0.026 A 
HETATM   13  C   UNK N   1      25.093  19.588   3.724  0.00  0.00     0.002 A 
HETATM   14  C   UNK N   1      25.538  18.314   3.392  0.00  0.00     0.002 A 
HETATM   15  C   UNK N   1      26.759  17.854   3.883  0.00  0.00     0.033 A 
ENDBRANCH   8   9
BRANCH   1  16
HETATM   16  C   UNK N   1      31.360  16.559   7.333  0.00  0.00     0.297 C 
HETATM   17  O   UNK N   1      31.546  15.351   7.339  0.00  0.00    -0.259 OA
BRANCH  16  18
HETATM   18  O   UNK N   1      31.939  17.347   8.271  0.00  0.00    -0.318 OA
BRANCH  18  19
HETATM   19  C   UNK N   1      33.256  17.215   8.642  0.00  0.00     0.174 C 
HETATM   20  C   UNK N   1      34.074  18.280   7.944  0.00  0.00     0.034 C 
ENDBRANCH  18  19
ENDBRANCH  16  18
ENDBRANCH   1  16
TORSDOF 4
ENDMDL
MODEL 3
REMARK VINA RESULT:      -5.8     11.135     13.579
REMARK  4 active torsions:
REMARK  status: ('A' for Active; 'I' for Inactive)
REMARK    1  A    between atoms: C_2  and  O_3 
REMARK    2  A    between atoms: C_2  and  C_6 
REMARK    3  A    between atoms: O_3  and  C_4 
REMARK    4  A    between atoms: N_13  and  C_14 
ROOT
HETATM    1  C   UNK N   1      30.690  17.134   6.232  0.00  0.00     0.087 A 
HETATM    2  C   UNK N   1      29.346  17.462   6.196  0.00  0.00     0.049 A 
HETATM    3  C   UNK N   1      28.445  17.409   7.381  0.00  0.00     0.071 C 
HETATM    4  C   UNK N   1      31.166  17.453   4.976  0.00  0.00     0.041 A 
HETATM    5  C   UNK N   1      32.568  17.322   4.486  0.00  0.00     0.071 C 
HETATM    6  N   UNK N   1      30.161  17.941   4.230  0.00  0.00    -0.297 N 
ATOM      7  HN  UNK N   1      30.240  18.267   3.267  1.00  0.00     0.187 HD
HETATM    8  N   UNK N   1      29.046  17.932   4.953  0.00  0.00    -0.258 N 
ENDROOT
BRANCH   8   9
HETATM    9  C   UNK N   1      27.805  18.444   4.399  0.00  0.00     0.078 A 
HETATM   10  C   UNK N   1      26.718  17.639   3.932  0.00  0.00     0.062 A 
HETATM   11 Cl   UNK N   1      26.740  15.890   3.800  0.00  0.00    -0.082 Cl
HETATM   12  C   UNK N   1      25.570  18.258   3.424  0.00  0.00     0.026 A 
HETATM   13  C   UNK N   1      25.470  19.646   3.360  0.00  0.00     0.002 A 
HETATM   14  C   UNK N   1      26.536  20.437   3.770  0.00  0.00     0.002 A 
HETATM   15  C   UNK N   1      27.689  19.841   4.278  0.00  0.00     0.033 A 
ENDBRANCH   8   9
BRANCH   1  16
HETATM   16  C   UNK N   1      31.462  16.584   7.369  0.00  0.00     0.297 C 
HETATM   17  O   UNK N   1      31.614  15.376   7.480  0.00  0.00    -0.259 OA
BRANCH  16  18
HETATM   18  O   UNK N   1      32.024  17.432   8.264  0.00  0.00    -0.318 OA
BRANCH  18  19
HETATM   19  C   UNK N   1      33.312  17.283   8.719  0.00  0.00     0.174 C 
HETATM   20  C   UNK N   1      34.213  18.246   7.977  0.00  0.00     0.034 C 
ENDBRANCH  18  19
ENDBRANCH  16  18
ENDBRANCH   1  16
TORSDOF 4
ENDMDL
MODEL 4
REMARK VINA RESULT:      -5.8     10.437     11.738
REMARK  4 active torsions:
REMARK  status: ('A' for Active; 'I' for Inactive)
REMARK    1  A    between atoms: C_2  and  O_3 
REMARK    2  A    between atoms: C_2  and  C_6 
REMARK    3  A    between atoms: O_3  and  C_4 
REMARK    4  A    between atoms: N_13  and  C_14 
ROOT
HETATM    1  C   UNK N   1      22.160  19.135   4.012  0.00  0.00     0.087 A 
HETATM    2  C   UNK N   1      23.460  19.485   3.689  0.00  0.00     0.049 A 
HETATM    3  C   UNK N   1      23.815  20.526   2.684  0.00  0.00     0.071 C 
HETATM    4  C   UNK N   1      22.283  18.252   5.066  0.00  0.00     0.041 A 
HETATM    5  C   UNK N   1      21.179  17.589   5.817  0.00  0.00     0.071 C 
HETATM    6  N   UNK N   1      23.584  18.081   5.354  0.00  0.00    -0.297 N 
ATOM      7  HN  UNK N   1      23.956  17.492   6.098  1.00  0.00     0.187 HD
HETATM    8  N   UNK N   1      24.310  18.809   4.510  0.00  0.00    -0.258 N 
ENDROOT
BRANCH   8   9
HETATM    9  C   UNK N   1      25.757  18.838   4.620  0.00  0.00     0.078 A 
HETATM   10  C   UNK N   1      26.651  17.926   3.975  0.00  0.00     0.062 A 
HETATM   11 Cl   UNK N   1      26.162  16.513   3.056  0.00  0.00    -0.082 Cl
HETATM   12  C   UNK N   1      28.031  18.066   4.158  0.00  0.00     0.026 A 
HETATM   13  C   UNK N   1      28.551  19.077   4.964  0.00  0.00     0.002 A 
HETATM   14  C   UNK N   1      27.692  19.942   5.630  0.00  0.00     0.002 A 
HETATM   15  C   UNK N   1      26.313  19.818   5.463  0.00  0.00     0.033 A 
ENDBRANCH   8   9
BRANCH   1  16
HETATM   16  C   UNK N   1      20.907  19.615   3.388  0.00  0.00     0.297 C 
HETATM   17  O   UNK N   1      20.298  20.555   3.878  0.00  0.00    -0.259 OA
BRANCH  16  18
HETATM   18  O   UNK N   1      20.461  19.026   2.252  0.00  0.00    -0.318 OA
BRANCH  18  19
HETATM   19  C   UNK N   1      19.965  17.744   2.226  0.00  0.00     0.174 C 
HETATM   20  C   UNK N   1      20.092  17.193   0.823  0.00  0.00     0.034 C 
ENDBRANCH  18  19
ENDBRANCH  16  18
ENDBRANCH   1  16
TORSDOF 4
ENDMDL
MODEL 5
REMARK VINA RESULT:      -5.8     11.681     14.051
REMARK  4 active torsions:
REMARK  status: ('A' for Active; 'I' for Inactive)
REMARK    1  A    between atoms: C_2  and  O_3 
REMARK    2  A    between atoms: C_2  and  C_6 
REMARK    3  A    between atoms: O_3  and  C_4 
REMARK    4  A    between atoms: N_13  and  C_14 
ROOT
HETATM    1  C   UNK N   1      29.872  17.478   7.445  0.00  0.00     0.087 A 
HETATM    2  C   UNK N   1      29.380  17.796   6.191  0.00  0.00     0.049 A 
HETATM    3  C   UNK N   1      30.106  17.524   4.919  0.00  0.00     0.071 C 
HETATM    4  C   UNK N   1      28.841  17.768   8.315  0.00  0.00     0.041 A 
HETATM    5  C   UNK N   1      28.832  17.582   9.793  0.00  0.00     0.071 C 
HETATM    6  N   UNK N   1      27.791  18.236   7.619  0.00  0.00    -0.297 N 
ATOM      7  HN  UNK N   1      26.893  18.514   8.014  1.00  0.00     0.187 HD
HETATM    8  N   UNK N   1      28.114  18.278   6.330  0.00  0.00    -0.258 N 
ENDROOT
BRANCH   8   9
HETATM    9  C   UNK N   1      27.144  18.715   5.342  0.00  0.00     0.078 A 
HETATM   10  C   UNK N   1      26.789  20.076   5.082  0.00  0.00     0.062 A 
HETATM   11 Cl   UNK N   1      27.342  21.459   6.010  0.00  0.00    -0.082 Cl
HETATM   12  C   UNK N   1      25.840  20.365   4.095  0.00  0.00     0.026 A 
HETATM   13  C   UNK N   1      25.231  19.349   3.363  0.00  0.00     0.002 A 
HETATM   14  C   UNK N   1      25.535  18.021   3.635  0.00  0.00     0.002 A 
HETATM   15  C   UNK N   1      26.477  17.711   4.616  0.00  0.00     0.033 A 
ENDBRANCH   8   9
BRANCH   1  16
HETATM   16  C   UNK N   1      31.203  16.926   7.786  0.00  0.00     0.297 C 
HETATM   17  O   UNK N   1      31.389  15.717   7.765  0.00  0.00    -0.259 OA
BRANCH  16  18
HETATM   18  O   UNK N   1      32.217  17.771   8.089  0.00  0.00    -0.318 OA
BRANCH  18  19
HETATM   19  C   UNK N   1      33.354  17.870   7.323  0.00  0.00     0.174 C 
HETATM   20  C   UNK N   1      34.491  18.370   8.188  0.00  0.00     0.034 C 
ENDBRANCH  18  19
ENDBRANCH  16  18
ENDBRANCH   1  16
TORSDOF 4
ENDMDL
MODEL 6
REMARK VINA RESULT:      -5.7     20.433     23.102
REMARK  4 active torsions:
REMARK  status: ('A' for Active; 'I' for Inactive)
REMARK    1  A    between atoms: C_2  and  O_3 
REMARK    2  A    between atoms: C_2  and  C_6 
REMARK    3  A    between atoms: O_3  and  C_4 
REMARK    4  A    between atoms: N_13  and  C_14 
ROOT
HETATM    1  C   UNK N   1      36.013  13.510  15.151  0.00  0.00     0.087 A 
HETATM    2  C   UNK N   1      35.597  13.237  13.860  0.00  0.00     0.049 A 
HETATM    3  C   UNK N   1      34.661  12.133  13.504  0.00  0.00     0.071 C 
HETATM    4  C   UNK N   1      36.746  14.675  15.049  0.00  0.00     0.041 A 
HETATM    5  C   UNK N   1      37.402  15.425  16.156  0.00  0.00     0.071 C 
HETATM    6  N   UNK N   1      36.769  15.074  13.765  0.00  0.00    -0.297 N 
ATOM      7  HN  UNK N   1      37.228  15.913  13.413  1.00  0.00     0.187 HD
HETATM    8  N   UNK N   1      36.091  14.197  13.031  0.00  0.00    -0.258 N 
ENDROOT
BRANCH   8   9
HETATM    9  C   UNK N   1      35.926  14.405  11.604  0.00  0.00     0.078 A 
HETATM   10  C   UNK N   1      36.781  13.870  10.589  0.00  0.00     0.062 A 
HETATM   11 Cl   UNK N   1      38.272  12.993  10.884  0.00  0.00    -0.082 Cl
HETATM   12  C   UNK N   1      36.508  14.141   9.243  0.00  0.00     0.026 A 
HETATM   13  C   UNK N   1      35.420  14.927   8.874  0.00  0.00     0.002 A 
HETATM   14  C   UNK N   1      34.608  15.488   9.852  0.00  0.00     0.002 A 
HETATM   15  C   UNK N   1      34.863  15.233  11.199  0.00  0.00     0.033 A 
ENDBRANCH   8   9
BRANCH   1  16
HETATM   16  C   UNK N   1      35.722  12.741  16.382  0.00  0.00     0.297 C 
HETATM   17  O   UNK N   1      34.915  13.168  17.195  0.00  0.00    -0.259 OA
BRANCH  16  18
HETATM   18  O   UNK N   1      36.332  11.548  16.582  0.00  0.00    -0.318 OA
BRANCH  18  19
HETATM   19  C   UNK N   1      35.755  10.531  17.305  0.00  0.00     0.174 C 
HETATM   20  C   UNK N   1      34.857   9.724  16.393  0.00  0.00     0.034 C 
ENDBRANCH  18  19
ENDBRANCH  16  18
ENDBRANCH   1  16
TORSDOF 4
ENDMDL
MODEL 7
REMARK VINA RESULT:      -5.6     20.315     23.021
REMARK  4 active torsions:
REMARK  status: ('A' for Active; 'I' for Inactive)
REMARK    1  A    between atoms: C_2  and  O_3 
REMARK    2  A    between atoms: C_2  and  C_6 
REMARK    3  A    between atoms: O_3  and  C_4 
REMARK    4  A    between atoms: N_13  and  C_14 
ROOT
HETATM    1  C   UNK N   1      35.108  12.634  14.867  0.00  0.00     0.087 A 
HETATM    2  C   UNK N   1      35.595  13.562  13.963  0.00  0.00     0.049 A 
HETATM    3  C   UNK N   1      36.575  14.628  14.313  0.00  0.00     0.071 C 
HETATM    4  C   UNK N   1      34.352  11.763  14.109  0.00  0.00     0.041 A 
HETATM    5  C   UNK N   1      33.622  10.555  14.587  0.00  0.00     0.071 C 
HETATM    6  N   UNK N   1      34.384  12.151  12.822  0.00  0.00    -0.297 N 
ATOM      7  HN  UNK N   1      33.922  11.677  12.047  1.00  0.00     0.187 HD
HETATM    8  N   UNK N   1      35.119  13.254  12.725  0.00  0.00    -0.258 N 
ENDROOT
BRANCH   8   9
HETATM    9  C   UNK N   1      35.351  13.872  11.432  0.00  0.00     0.078 A 
HETATM   10  C   UNK N   1      36.529  13.704  10.637  0.00  0.00     0.062 A 
HETATM   11 Cl   UNK N   1      37.973  12.845  11.143  0.00  0.00    -0.082 Cl
HETATM   12  C   UNK N   1      36.627  14.353   9.402  0.00  0.00     0.026 A 
HETATM   13  C   UNK N   1      35.597  15.166   8.933  0.00  0.00     0.002 A 
HETATM   14  C   UNK N   1      34.467  15.372   9.714  0.00  0.00     0.002 A 
HETATM   15  C   UNK N   1      34.350  14.736  10.950  0.00  0.00     0.033 A 
ENDBRANCH   8   9
BRANCH   1  16
HETATM   16  C   UNK N   1      35.355  12.568  16.325  0.00  0.00     0.297 C 
HETATM   17  O   UNK N   1      36.160  11.764  16.774  0.00  0.00    -0.259 OA
BRANCH  16  18
HETATM   18  O   UNK N   1      34.708  13.426  17.150  0.00  0.00    -0.318 OA
BRANCH  18  19
HETATM   19  C   UNK N   1      35.284  13.938  18.288  0.00  0.00     0.174 C 
HETATM   20  C   UNK N   1      36.044  15.198  17.934  0.00  0.00     0.034 C 
ENDBRANCH  18  19
ENDBRANCH  16  18
ENDBRANCH   1  16
TORSDOF 4
ENDMDL
MODEL 8
REMARK VINA RESULT:      -5.4     16.685     17.946
REMARK  4 active torsions:
REMARK  status: ('A' for Active; 'I' for Inactive)
REMARK    1  A    between atoms: C_2  and  O_3 
REMARK    2  A    between atoms: C_2  and  C_6 
REMARK    3  A    between atoms: O_3  and  C_4 
REMARK    4  A    between atoms: N_13  and  C_14 
ROOT
HETATM    1  C   UNK N   1      20.308  14.344   6.482  0.00  0.00     0.087 A 
HETATM    2  C   UNK N   1      20.922  14.465   7.716  0.00  0.00     0.049 A 
HETATM    3  C   UNK N   1      20.861  15.692   8.559  0.00  0.00     0.071 C 
HETATM    4  C   UNK N   1      20.496  13.025   6.120  0.00  0.00     0.041 A 
HETATM    5  C   UNK N   1      20.006  12.353   4.883  0.00  0.00     0.071 C 
HETATM    6  N   UNK N   1      21.188  12.394   7.084  0.00  0.00    -0.297 N 
ATOM      7  HN  UNK N   1      21.452  11.409   7.078  1.00  0.00     0.187 HD
HETATM    8  N   UNK N   1      21.470  13.263   8.049  0.00  0.00    -0.258 N 
ENDROOT
BRANCH   8   9
HETATM    9  C   UNK N   1      22.185  12.836   9.238  0.00  0.00     0.078 A 
HETATM   10  C   UNK N   1      23.608  12.725   9.349  0.00  0.00     0.062 A 
HETATM   11 Cl   UNK N   1      24.743  12.937   8.028  0.00  0.00    -0.082 Cl
HETATM   12  C   UNK N   1      24.175  12.305  10.558  0.00  0.00     0.026 A 
HETATM   13  C   UNK N   1      23.377  11.988  11.655  0.00  0.00     0.002 A 
HETATM   14  C   UNK N   1      21.994  12.050  11.546  0.00  0.00     0.002 A 
HETATM   15  C   UNK N   1      21.408  12.464  10.350  0.00  0.00     0.033 A 
ENDBRANCH   8   9
BRANCH   1  16
HETATM   16  C   UNK N   1      19.585  15.387   5.720  0.00  0.00     0.297 C 
HETATM   17  O   UNK N   1      18.383  15.540   5.879  0.00  0.00    -0.259 OA
BRANCH  16  18
HETATM   18  O   UNK N   1      20.273  16.189   4.872  0.00  0.00    -0.318 OA
BRANCH  18  19
HETATM   19  C   UNK N   1      20.148  16.106   3.506  0.00  0.00     0.174 C 
HETATM   20  C   UNK N   1      20.492  17.448   2.895  0.00  0.00     0.034 C 
ENDBRANCH  18  19
ENDBRANCH  16  18
ENDBRANCH   1  16
TORSDOF 4
ENDMDL
MODEL 9
REMARK VINA RESULT:      -5.3     12.986     14.973
REMARK  4 active torsions:
REMARK  status: ('A' for Active; 'I' for Inactive)
REMARK    1  A    between atoms: C_2  and  O_3 
REMARK    2  A    between atoms: C_2  and  C_6 
REMARK    3  A    between atoms: O_3  and  C_4 
REMARK    4  A    between atoms: N_13  and  C_14 
ROOT
HETATM    1  C   UNK N   1      29.505  17.123   7.207  0.00  0.00     0.087 A 
HETATM    2  C   UNK N   1      30.760  16.547   7.116  0.00  0.00     0.049 A 
HETATM    3  C   UNK N   1      31.397  16.139   5.832  0.00  0.00     0.071 C 
HETATM    4  C   UNK N   1      29.367  17.464   8.538  0.00  0.00     0.041 A 
HETATM    5  C   UNK N   1      28.205  18.145   9.176  0.00  0.00     0.071 C 
HETATM    6  N   UNK N   1      30.478  17.107   9.205  0.00  0.00    -0.297 N 
ATOM      7  HN  UNK N   1      30.646  17.256  10.200  1.00  0.00     0.187 HD
HETATM    8  N   UNK N   1      31.322  16.531   8.356  0.00  0.00    -0.258 N 
ENDROOT
BRANCH   8   9
HETATM    9  C   UNK N   1      32.626  16.078   8.808  0.00  0.00     0.078 A 
HETATM   10  C   UNK N   1      33.818  16.870   8.809  0.00  0.00     0.062 A 
HETATM   11 Cl   UNK N   1      33.962  18.479   8.125  0.00  0.00    -0.082 Cl
HETATM   12  C   UNK N   1      35.014  16.315   9.277  0.00  0.00     0.026 A 
HETATM   13  C   UNK N   1      35.066  15.002   9.739  0.00  0.00     0.002 A 
HETATM   14  C   UNK N   1      33.926  14.209   9.703  0.00  0.00     0.002 A 
HETATM   15  C   UNK N   1      32.723  14.742   9.238  0.00  0.00     0.033 A 
ENDBRANCH   8   9
BRANCH   1  16
HETATM   16  C   UNK N   1      28.527  17.350   6.119  0.00  0.00     0.297 C 
HETATM   17  O   UNK N   1      27.553  16.620   6.009  0.00  0.00    -0.259 OA
BRANCH  16  18
HETATM   18  O   UNK N   1      28.705  18.392   5.271  0.00  0.00    -0.318 OA
BRANCH  18  19
HETATM   19  C   UNK N   1      27.879  18.624   4.198  0.00  0.00     0.174 C 
HETATM   20  C   UNK N   1      27.319  20.026   4.299  0.00  0.00     0.034 C 
ENDBRANCH  18  19
ENDBRANCH  16  18
ENDBRANCH   1  16
TORSDOF 4
ENDMDL
