REMARK  7 active torsions:
REMARK  status: ('A' for Active; 'I' for Inactive)
REMARK    1  A    between atoms: C_1  and  C_2 
REMARK    2  A    between atoms: C_1  and  C_8 
REMARK    3  A    between atoms: C_8  and  C_9 
REMARK    4  A    between atoms: C_8  and  N_18 
REMARK       I    between atoms: C_9  and  N_11 
REMARK    5  A    between atoms: C_13  and  C_14 
REMARK    6  A    between atoms: C_14  and  O_16 
REMARK       I    between atoms: N_18  and  C_19 
REMARK    7  A    between atoms: C_19  and  C_20 
ROOT
HETATM    1  C   UNK N   1      -0.957  -0.291   0.380  0.00  0.00     0.181 C 
ENDROOT
BRANCH   1   2
HETATM    2  C   UNK N   1      -2.171  -0.478   1.310  0.00  0.00     0.073 C 
BRANCH   2   3
HETATM    3  C   UNK N   1      -3.381  -1.131   0.692  0.00  0.00    -0.056 A 
HETATM    4  C   UNK N   1      -3.726  -2.429   1.086  0.00  0.00     0.007 A 
HETATM    5  C   UNK N   1      -4.846  -3.061   0.535  0.00  0.00     0.001 A 
HETATM    6  C   UNK N   1      -5.631  -2.393  -0.409  0.00  0.00     0.000 A 
HETATM    7  C   UNK N   1      -5.297  -1.093  -0.800  0.00  0.00     0.001 A 
HETATM    8  C   UNK N   1      -4.175  -0.462  -0.249  0.00  0.00     0.007 A 
ENDBRANCH   2   3
ENDBRANCH   1   2
BRANCH   1   9
HETATM    9  C   UNK N   1      -1.146   0.928  -0.503  0.00  0.00     0.243 C 
HETATM   10  O   UNK N   1      -1.957   0.895  -1.416  0.00  0.00    -0.271 OA
HETATM   11  N   UNK N   1      -0.489   2.090  -0.234  0.00  0.00    -0.349 N 
HETATM   12  C   UNK N   1      -0.681   3.365  -0.812  0.00  0.00     0.142 A 
HETATM   13  C   UNK N   1       0.378   2.431   0.831  0.00  0.00     0.142 A 
HETATM   14  C   UNK N   1       0.186   3.906   0.363  0.00  0.00     0.119 A 
BRANCH  14  15
HETATM   15  C   UNK N   1       1.429   4.601  -0.105  0.00  0.00     0.147 C 
HETATM   16  O   UNK N   1       1.336   5.676  -0.676  0.00  0.00    -0.650 OA
BRANCH  15  17
HETATM   17  O   UNK N   1       2.646   4.086   0.153  0.00  0.00    -0.776 OA
HETATM   18  H   UNK N   1       2.759   3.173   0.332  0.00  0.00     0.167 HD
ENDBRANCH  15  17
ENDBRANCH  14  15
ENDBRANCH   1   9
BRANCH   1  19
HETATM   19  N   UNK N   1      -0.796  -1.514  -0.385  0.00  0.00    -0.342 N 
HETATM   20  C   UNK N   1       0.303  -2.306  -0.481  0.00  0.00     0.269 C 
HETATM   21  O   UNK N   1       0.155  -3.438  -0.919  0.00  0.00    -0.266 OA
HETATM   22  H   UNK N   1      -1.583  -1.806  -0.899  0.00  0.00     0.163 HD
BRANCH  20  23
HETATM   23  C   UNK N   1       1.679  -1.872  -0.145  0.00  0.00     0.102 A 
HETATM   24  C   UNK N   1       2.765  -2.747  -0.114  0.00  0.00     0.049 A 
HETATM   25  C   UNK N   1       3.859  -1.940   0.053  0.00  0.00    -0.005 A 
HETATM   26  C   UNK N   1       3.423  -0.647   0.104  0.00  0.00     0.043 A 
HETATM   27  C   UNK N   1       5.207  -2.272   0.112  0.00  0.00     0.037 A 
HETATM   28  C   UNK N   1       4.313   0.420   0.210  0.00  0.00     0.032 A 
HETATM   29  N   UNK N   1       2.085  -0.582  -0.010  0.00  0.00    -0.351 N 
HETATM   30  C   UNK N   1       5.690   0.121   0.265  0.00  0.00     0.026 A 
HETATM   31  C   UNK N   1       6.135  -1.222   0.220  0.00  0.00     0.035 A 
HETATM   32 Cl   UNK N   1       7.847  -1.582   0.268  0.00  0.00    -0.084 Cl
HETATM   33  H   UNK N   1       1.520   0.224   0.002  0.00  0.00     0.166 HD
ENDBRANCH  20  23
ENDBRANCH   1  19
TORSDOF 7
