MODEL 1
REMARK VINA RESULT:      -7.9      0.000      0.000
REMARK  7 active torsions:
REMARK  status: ('A' for Active; 'I' for Inactive)
REMARK    1  A    between atoms: C_1  and  C_2 
REMARK    2  A    between atoms: C_1  and  C_8 
REMARK    3  A    between atoms: C_8  and  C_9 
REMARK    4  A    between atoms: C_8  and  N_18 
REMARK       I    between atoms: C_9  and  N_11 
REMARK    5  A    between atoms: C_13  and  C_14 
REMARK    6  A    between atoms: C_14  and  O_16 
REMARK       I    between atoms: N_18  and  C_19 
REMARK    7  A    between atoms: C_19  and  C_20 
ROOT
HETATM    1  C   UNK N   1      24.683  18.410   4.837  0.00  0.00     0.181 C 
ENDROOT
BRANCH   1   2
HETATM    2  C   UNK N   1      25.247  17.609   3.648  0.00  0.00     0.073 C 
BRANCH   2   3
HETATM    3  C   UNK N   1      26.185  16.482   3.997  0.00  0.00    -0.056 A 
HETATM    4  C   UNK N   1      27.199  16.139   3.095  0.00  0.00     0.007 A 
HETATM    5  C   UNK N   1      28.088  15.101   3.392  0.00  0.00     0.001 A 
HETATM    6  C   UNK N   1      27.971  14.404   4.598  0.00  0.00     0.000 A 
HETATM    7  C   UNK N   1      26.965  14.747   5.507  0.00  0.00     0.001 A 
HETATM    8  C   UNK N   1      26.075  15.786   5.208  0.00  0.00     0.007 A 
ENDBRANCH   2   3
ENDBRANCH   1   2
BRANCH   1   9
HETATM    9  C   UNK N   1      23.169  18.477   4.762  0.00  0.00     0.243 C 
HETATM   10  O   UNK N   1      22.495  17.950   5.634  0.00  0.00    -0.271 OA
HETATM   11  N   UNK N   1      22.552  19.197   3.784  0.00  0.00    -0.349 N 
HETATM   12  C   UNK N   1      21.185  19.534   3.668  0.00  0.00     0.142 A 
HETATM   13  C   UNK N   1      23.094  20.007   2.759  0.00  0.00     0.142 A 
HETATM   14  C   UNK N   1      21.642  20.546   2.576  0.00  0.00     0.119 A 
BRANCH  14  15
HETATM   15  C   UNK N   1      21.018  20.278   1.239  0.00  0.00     0.147 C 
HETATM   16  O   UNK N   1      21.265  21.021   0.302  0.00  0.00    -0.650 OA
BRANCH  15  17
HETATM   17  O   UNK N   1      20.243  19.194   1.045  0.00  0.00    -0.776 OA
HETATM   18  H   UNK N   1      20.617  18.343   0.933  0.00  0.00     0.167 HD
ENDBRANCH  15  17
ENDBRANCH  14  15
ENDBRANCH   1   9
BRANCH   1  19
HETATM   19  N   UNK N   1      25.301  19.723   4.816  0.00  0.00    -0.342 N 
HETATM   20  C   UNK N   1      26.540  20.075   5.245  0.00  0.00     0.269 C 
HETATM   21  O   UNK N   1      26.992  21.148   4.871  0.00  0.00    -0.266 OA
HETATM   22  H   UNK N   1      24.752  20.450   4.444  0.00  0.00     0.163 HD
BRANCH  20  23
HETATM   23  C   UNK N   1      27.360  19.273   6.183  0.00  0.00     0.102 A 
HETATM   24  C   UNK N   1      28.401  18.444   5.765  0.00  0.00     0.049 A 
HETATM   25  C   UNK N   1      29.008  18.035   6.922  0.00  0.00    -0.005 A 
HETATM   26  C   UNK N   1      28.351  18.614   7.969  0.00  0.00     0.043 A 
HETATM   27  C   UNK N   1      30.126  17.229   7.101  0.00  0.00     0.037 A 
HETATM   28  C   UNK N   1      28.773  18.436   9.285  0.00  0.00     0.032 A 
HETATM   29  N   UNK N   1      27.330  19.375   7.538  0.00  0.00    -0.351 N 
HETATM   30  C   UNK N   1      29.909  17.630   9.505  0.00  0.00     0.026 A 
HETATM   31  C   UNK N   1      30.581  17.025   8.416  0.00  0.00     0.035 A 
HETATM   32 Cl   UNK N   1      32.002  16.043   8.696  0.00  0.00    -0.084 Cl
HETATM   33  H   UNK N   1      26.696  19.895   8.084  0.00  0.00     0.166 HD
ENDBRANCH  20  23
ENDBRANCH   1  19
TORSDOF 7
ENDMDL
MODEL 2
REMARK VINA RESULT:      -7.8      3.991      6.274
REMARK  7 active torsions:
REMARK  status: ('A' for Active; 'I' for Inactive)
REMARK    1  A    between atoms: C_1  and  C_2 
REMARK    2  A    between atoms: C_1  and  C_8 
REMARK    3  A    between atoms: C_8  and  C_9 
REMARK    4  A    between atoms: C_8  and  N_18 
REMARK       I    between atoms: C_9  and  N_11 
REMARK    5  A    between atoms: C_13  and  C_14 
REMARK    6  A    between atoms: C_14  and  O_16 
REMARK       I    between atoms: N_18  and  C_19 
REMARK    7  A    between atoms: C_19  and  C_20 
ROOT
HETATM    1  C   UNK N   1      21.860  18.617   3.662  0.00  0.00     0.181 C 
ENDROOT
BRANCH   1   2
HETATM    2  C   UNK N   1      22.814  19.767   3.290  0.00  0.00     0.073 C 
BRANCH   2   3
HETATM    3  C   UNK N   1      24.280  19.515   3.536  0.00  0.00    -0.056 A 
HETATM    4  C   UNK N   1      25.209  20.490   3.157  0.00  0.00     0.007 A 
HETATM    5  C   UNK N   1      26.576  20.288   3.376  0.00  0.00     0.001 A 
HETATM    6  C   UNK N   1      27.019  19.110   3.984  0.00  0.00     0.000 A 
HETATM    7  C   UNK N   1      26.095  18.136   4.373  0.00  0.00     0.001 A 
HETATM    8  C   UNK N   1      24.728  18.338   4.152  0.00  0.00     0.007 A 
ENDBRANCH   2   3
ENDBRANCH   1   2
BRANCH   1   9
HETATM    9  C   UNK N   1      20.826  18.409   2.571  0.00  0.00     0.243 C 
HETATM   10  O   UNK N   1      20.246  19.372   2.095  0.00  0.00    -0.271 OA
HETATM   11  N   UNK N   1      20.603  17.170   2.053  0.00  0.00    -0.349 N 
HETATM   12  C   UNK N   1      19.839  16.814   0.919  0.00  0.00     0.142 A 
HETATM   13  C   UNK N   1      21.235  15.933   2.321  0.00  0.00     0.142 A 
HETATM   14  C   UNK N   1      20.527  15.421   1.029  0.00  0.00     0.119 A 
BRANCH  14  15
HETATM   15  C   UNK N   1      19.547  14.305   1.230  0.00  0.00     0.147 C 
HETATM   16  O   UNK N   1      19.471  13.417   0.396  0.00  0.00    -0.650 OA
BRANCH  15  17
HETATM   17  O   UNK N   1      18.799  14.236   2.348  0.00  0.00    -0.776 OA
HETATM   18  H   UNK N   1      18.548  13.411   2.714  0.00  0.00     0.167 HD
ENDBRANCH  15  17
ENDBRANCH  14  15
ENDBRANCH   1   9
BRANCH   1  19
HETATM   19  N   UNK N   1      21.260  18.940   4.944  0.00  0.00    -0.342 N 
HETATM   20  C   UNK N   1      21.230  18.183   6.071  0.00  0.00     0.269 C 
HETATM   21  O   UNK N   1      20.953  18.738   7.125  0.00  0.00    -0.266 OA
HETATM   22  H   UNK N   1      20.820  19.818   5.004  0.00  0.00     0.163 HD
BRANCH  20  23
HETATM   23  C   UNK N   1      21.452  16.719   6.102  0.00  0.00     0.102 A 
HETATM   24  C   UNK N   1      22.683  16.144   6.417  0.00  0.00     0.049 A 
HETATM   25  C   UNK N   1      22.428  14.802   6.513  0.00  0.00    -0.005 A 
HETATM   26  C   UNK N   1      21.097  14.610   6.275  0.00  0.00     0.043 A 
HETATM   27  C   UNK N   1      23.282  13.756   6.843  0.00  0.00     0.037 A 
HETATM   28  C   UNK N   1      20.515  13.346   6.360  0.00  0.00     0.032 A 
HETATM   29  N   UNK N   1      20.478  15.774   6.015  0.00  0.00    -0.351 N 
HETATM   30  C   UNK N   1      21.350  12.262   6.701  0.00  0.00     0.026 A 
HETATM   31  C   UNK N   1      22.731  12.467   6.937  0.00  0.00     0.035 A 
HETATM   32 Cl   UNK N   1      23.755  11.118   7.380  0.00  0.00    -0.084 Cl
HETATM   33  H   UNK N   1      19.527  15.915   5.806  0.00  0.00     0.166 HD
ENDBRANCH  20  23
ENDBRANCH   1  19
TORSDOF 7
ENDMDL
MODEL 3
REMARK VINA RESULT:      -7.7      5.347      9.890
REMARK  7 active torsions:
REMARK  status: ('A' for Active; 'I' for Inactive)
REMARK    1  A    between atoms: C_1  and  C_2 
REMARK    2  A    between atoms: C_1  and  C_8 
REMARK    3  A    between atoms: C_8  and  C_9 
REMARK    4  A    between atoms: C_8  and  N_18 
REMARK       I    between atoms: C_9  and  N_11 
REMARK    5  A    between atoms: C_13  and  C_14 
REMARK    6  A    between atoms: C_14  and  O_16 
REMARK       I    between atoms: N_18  and  C_19 
REMARK    7  A    between atoms: C_19  and  C_20 
ROOT
HETATM    1  C   UNK N   1      32.029  17.261   8.080  0.00  0.00     0.181 C 
ENDROOT
BRANCH   1   2
HETATM    2  C   UNK N   1      32.033  15.969   7.241  0.00  0.00     0.073 C 
BRANCH   2   3
HETATM    3  C   UNK N   1      32.391  16.130   5.785  0.00  0.00    -0.056 A 
HETATM    4  C   UNK N   1      32.091  17.336   5.143  0.00  0.00     0.007 A 
HETATM    5  C   UNK N   1      32.415  17.519   3.794  0.00  0.00     0.001 A 
HETATM    6  C   UNK N   1      33.047  16.495   3.083  0.00  0.00     0.000 A 
HETATM    7  C   UNK N   1      33.357  15.291   3.721  0.00  0.00     0.001 A 
HETATM    8  C   UNK N   1      33.032  15.109   5.071  0.00  0.00     0.007 A 
ENDBRANCH   2   3
ENDBRANCH   1   2
BRANCH   1   9
HETATM    9  C   UNK N   1      33.419  17.554   8.612  0.00  0.00     0.243 C 
HETATM   10  O   UNK N   1      33.931  18.643   8.402  0.00  0.00    -0.271 OA
HETATM   11  N   UNK N   1      34.066  16.652   9.400  0.00  0.00    -0.349 N 
HETATM   12  C   UNK N   1      35.260  16.822  10.138  0.00  0.00     0.142 A 
HETATM   13  C   UNK N   1      33.642  15.400   9.906  0.00  0.00     0.142 A 
HETATM   14  C   UNK N   1      34.876  15.494  10.855  0.00  0.00     0.119 A 
BRANCH  14  15
HETATM   15  C   UNK N   1      35.907  14.421  10.679  0.00  0.00     0.147 C 
HETATM   16  O   UNK N   1      35.871  13.711   9.686  0.00  0.00    -0.650 OA
BRANCH  15  17
HETATM   17  O   UNK N   1      36.907  14.272  11.568  0.00  0.00    -0.776 OA
HETATM   18  H   UNK N   1      36.741  14.279  12.491  0.00  0.00     0.167 HD
ENDBRANCH  15  17
ENDBRANCH  14  15
ENDBRANCH   1   9
BRANCH   1  19
HETATM   19  N   UNK N   1      31.050  17.094   9.139  0.00  0.00    -0.342 N 
HETATM   20  C   UNK N   1      29.718  17.354   9.100  0.00  0.00     0.269 C 
HETATM   21  O   UNK N   1      29.015  16.870   9.976  0.00  0.00    -0.266 OA
HETATM   22  H   UNK N   1      31.396  16.750   9.994  0.00  0.00     0.163 HD
BRANCH  20  23
HETATM   23  C   UNK N   1      29.066  18.232   8.101  0.00  0.00     0.102 A 
HETATM   24  C   UNK N   1      28.959  17.898   6.751  0.00  0.00     0.049 A 
HETATM   25  C   UNK N   1      28.149  18.863   6.215  0.00  0.00    -0.005 A 
HETATM   26  C   UNK N   1      27.791  19.716   7.219  0.00  0.00     0.043 A 
HETATM   27  C   UNK N   1      27.674  19.004   4.917  0.00  0.00     0.037 A 
HETATM   28  C   UNK N   1      26.916  20.778   6.998  0.00  0.00     0.032 A 
HETATM   29  N   UNK N   1      28.348  19.350   8.387  0.00  0.00    -0.351 N 
HETATM   30  C   UNK N   1      26.407  20.947   5.694  0.00  0.00     0.026 A 
HETATM   31  C   UNK N   1      26.789  20.064   4.655  0.00  0.00     0.035 A 
HETATM   32 Cl   UNK N   1      26.136  20.269   3.044  0.00  0.00    -0.084 Cl
HETATM   33  H   UNK N   1      28.258  19.795   9.260  0.00  0.00     0.166 HD
ENDBRANCH  20  23
ENDBRANCH   1  19
TORSDOF 7
ENDMDL
MODEL 4
REMARK VINA RESULT:      -7.6     10.921     13.197
REMARK  7 active torsions:
REMARK  status: ('A' for Active; 'I' for Inactive)
REMARK    1  A    between atoms: C_1  and  C_2 
REMARK    2  A    between atoms: C_1  and  C_8 
REMARK    3  A    between atoms: C_8  and  C_9 
REMARK    4  A    between atoms: C_8  and  N_18 
REMARK       I    between atoms: C_9  and  N_11 
REMARK    5  A    between atoms: C_13  and  C_14 
REMARK    6  A    between atoms: C_14  and  O_16 
REMARK       I    between atoms: N_18  and  C_19 
REMARK    7  A    between atoms: C_19  and  C_20 
ROOT
HETATM    1  C   UNK N   1      26.726  24.461  -5.901  0.00  0.00     0.181 C 
ENDROOT
BRANCH   1   2
HETATM    2  C   UNK N   1      25.973  25.665  -6.499  0.00  0.00     0.073 C 
BRANCH   2   3
HETATM    3  C   UNK N   1      26.344  27.017  -5.944  0.00  0.00    -0.056 A 
HETATM    4  C   UNK N   1      27.365  27.747  -6.564  0.00  0.00     0.007 A 
HETATM    5  C   UNK N   1      27.730  29.007  -6.076  0.00  0.00     0.001 A 
HETATM    6  C   UNK N   1      27.068  29.545  -4.969  0.00  0.00     0.000 A 
HETATM    7  C   UNK N   1      26.041  28.825  -4.351  0.00  0.00     0.001 A 
HETATM    8  C   UNK N   1      25.678  27.564  -4.839  0.00  0.00     0.007 A 
ENDBRANCH   2   3
ENDBRANCH   1   2
BRANCH   1   9
HETATM    9  C   UNK N   1      26.377  23.190  -6.652  0.00  0.00     0.243 C 
HETATM   10  O   UNK N   1      25.222  22.984  -6.992  0.00  0.00    -0.271 OA
HETATM   11  N   UNK N   1      27.351  22.318  -7.032  0.00  0.00    -0.349 N 
HETATM   12  C   UNK N   1      27.248  21.201  -7.892  0.00  0.00     0.142 A 
HETATM   13  C   UNK N   1      28.758  22.392  -6.894  0.00  0.00     0.142 A 
HETATM   14  C   UNK N   1      28.805  21.214  -7.914  0.00  0.00     0.119 A 
BRANCH  14  15
HETATM   15  C   UNK N   1      29.403  19.939  -7.399  0.00  0.00     0.147 C 
HETATM   16  O   UNK N   1      28.944  18.870  -7.768  0.00  0.00    -0.650 OA
BRANCH  15  17
HETATM   17  O   UNK N   1      30.477  19.959  -6.587  0.00  0.00    -0.776 OA
HETATM   18  H   UNK N   1      30.438  20.362  -5.741  0.00  0.00     0.167 HD
ENDBRANCH  15  17
ENDBRANCH  14  15
ENDBRANCH   1   9
BRANCH   1  19
HETATM   19  N   UNK N   1      26.388  24.387  -4.492  0.00  0.00    -0.342 N 
HETATM   20  C   UNK N   1      27.230  24.343  -3.427  0.00  0.00     0.269 C 
HETATM   21  O   UNK N   1      26.768  24.589  -2.322  0.00  0.00    -0.266 OA
HETATM   22  H   UNK N   1      25.426  24.366  -4.281  0.00  0.00     0.163 HD
BRANCH  20  23
HETATM   23  C   UNK N   1      28.659  23.961  -3.506  0.00  0.00     0.102 A 
HETATM   24  C   UNK N   1      29.181  22.836  -2.867  0.00  0.00     0.049 A 
HETATM   25  C   UNK N   1      30.467  22.737  -3.329  0.00  0.00    -0.005 A 
HETATM   26  C   UNK N   1      30.676  23.759  -4.211  0.00  0.00     0.043 A 
HETATM   27  C   UNK N   1      31.437  21.780  -3.058  0.00  0.00     0.037 A 
HETATM   28  C   UNK N   1      31.879  23.893  -4.900  0.00  0.00     0.032 A 
HETATM   29  N   UNK N   1      29.579  24.527  -4.331  0.00  0.00    -0.351 N 
HETATM   30  C   UNK N   1      32.885  22.936  -4.655  0.00  0.00     0.026 A 
HETATM   31  C   UNK N   1      32.665  21.884  -3.733  0.00  0.00     0.035 A 
HETATM   32 Cl   UNK N   1      33.911  20.688  -3.451  0.00  0.00    -0.084 Cl
HETATM   33  H   UNK N   1      29.465  25.327  -4.894  0.00  0.00     0.166 HD
ENDBRANCH  20  23
ENDBRANCH   1  19
TORSDOF 7
ENDMDL
MODEL 5
REMARK VINA RESULT:      -7.5      3.132      5.428
REMARK  7 active torsions:
REMARK  status: ('A' for Active; 'I' for Inactive)
REMARK    1  A    between atoms: C_1  and  C_2 
REMARK    2  A    between atoms: C_1  and  C_8 
REMARK    3  A    between atoms: C_8  and  C_9 
REMARK    4  A    between atoms: C_8  and  N_18 
REMARK       I    between atoms: C_9  and  N_11 
REMARK    5  A    between atoms: C_13  and  C_14 
REMARK    6  A    between atoms: C_14  and  O_16 
REMARK       I    between atoms: N_18  and  C_19 
REMARK    7  A    between atoms: C_19  and  C_20 
ROOT
HETATM    1  C   UNK N   1      25.370  16.147   5.561  0.00  0.00     0.181 C 
ENDROOT
BRANCH   1   2
HETATM    2  C   UNK N   1      25.586  15.489   4.185  0.00  0.00     0.073 C 
BRANCH   2   3
HETATM    3  C   UNK N   1      27.000  15.074   3.867  0.00  0.00    -0.056 A 
HETATM    4  C   UNK N   1      27.503  15.308   2.582  0.00  0.00     0.007 A 
HETATM    5  C   UNK N   1      28.813  14.940   2.257  0.00  0.00     0.001 A 
HETATM    6  C   UNK N   1      29.629  14.341   3.220  0.00  0.00     0.000 A 
HETATM    7  C   UNK N   1      29.136  14.112   4.508  0.00  0.00     0.001 A 
HETATM    8  C   UNK N   1      27.825  14.480   4.832  0.00  0.00     0.007 A 
ENDBRANCH   2   3
ENDBRANCH   1   2
BRANCH   1   9
HETATM    9  C   UNK N   1      24.156  15.553   6.250  0.00  0.00     0.243 C 
HETATM   10  O   UNK N   1      23.035  15.874   5.885  0.00  0.00    -0.271 OA
HETATM   11  N   UNK N   1      24.298  14.597   7.209  0.00  0.00    -0.349 N 
HETATM   12  C   UNK N   1      23.301  13.799   7.813  0.00  0.00     0.142 A 
HETATM   13  C   UNK N   1      25.459  13.956   7.702  0.00  0.00     0.142 A 
HETATM   14  C   UNK N   1      24.478  12.935   8.355  0.00  0.00     0.119 A 
BRANCH  14  15
HETATM   15  C   UNK N   1      24.512  12.875   9.852  0.00  0.00     0.147 C 
HETATM   16  O   UNK N   1      23.619  12.294  10.450  0.00  0.00    -0.650 OA
BRANCH  15  17
HETATM   17  O   UNK N   1      25.545  13.397  10.540  0.00  0.00    -0.776 OA
HETATM   18  H   UNK N   1      26.321  13.690  10.104  0.00  0.00     0.167 HD
ENDBRANCH  15  17
ENDBRANCH  14  15
ENDBRANCH   1   9
BRANCH   1  19
HETATM   19  N   UNK N   1      25.247  17.578   5.350  0.00  0.00    -0.342 N 
HETATM   20  C   UNK N   1      26.227  18.471   5.058  0.00  0.00     0.269 C 
HETATM   21  O   UNK N   1      25.894  19.563   4.620  0.00  0.00    -0.266 OA
HETATM   22  H   UNK N   1      24.338  17.947   5.429  0.00  0.00     0.163 HD
BRANCH  20  23
HETATM   23  C   UNK N   1      27.671  18.233   5.287  0.00  0.00     0.102 A 
HETATM   24  C   UNK N   1      28.184  17.797   6.509  0.00  0.00     0.049 A 
HETATM   25  C   UNK N   1      29.504  17.529   6.258  0.00  0.00    -0.005 A 
HETATM   26  C   UNK N   1      29.741  17.789   4.939  0.00  0.00     0.043 A 
HETATM   27  C   UNK N   1      30.485  17.028   7.104  0.00  0.00     0.037 A 
HETATM   28  C   UNK N   1      30.988  17.556   4.361  0.00  0.00     0.032 A 
HETATM   29  N   UNK N   1      28.630  18.229   4.323  0.00  0.00    -0.351 N 
HETATM   30  C   UNK N   1      32.007  17.040   5.189  0.00  0.00     0.026 A 
HETATM   31  C   UNK N   1      31.756  16.781   6.558  0.00  0.00     0.035 A 
HETATM   32 Cl   UNK N   1      33.021  16.121   7.573  0.00  0.00    -0.084 Cl
HETATM   33  H   UNK N   1      28.530  18.491   3.380  0.00  0.00     0.166 HD
ENDBRANCH  20  23
ENDBRANCH   1  19
TORSDOF 7
ENDMDL
MODEL 6
REMARK VINA RESULT:      -7.5      6.123      9.152
REMARK  7 active torsions:
REMARK  status: ('A' for Active; 'I' for Inactive)
REMARK    1  A    between atoms: C_1  and  C_2 
REMARK    2  A    between atoms: C_1  and  C_8 
REMARK    3  A    between atoms: C_8  and  C_9 
REMARK    4  A    between atoms: C_8  and  N_18 
REMARK       I    between atoms: C_9  and  N_11 
REMARK    5  A    between atoms: C_13  and  C_14 
REMARK    6  A    between atoms: C_14  and  O_16 
REMARK       I    between atoms: N_18  and  C_19 
REMARK    7  A    between atoms: C_19  and  C_20 
ROOT
HETATM    1  C   UNK N   1      21.108  14.642   7.808  0.00  0.00     0.181 C 
ENDROOT
BRANCH   1   2
HETATM    2  C   UNK N   1      19.978  14.325   6.810  0.00  0.00     0.073 C 
BRANCH   2   3
HETATM    3  C   UNK N   1      20.324  13.357   5.708  0.00  0.00    -0.056 A 
HETATM    4  C   UNK N   1      21.517  12.630   5.794  0.00  0.00     0.007 A 
HETATM    5  C   UNK N   1      21.864  11.720   4.790  0.00  0.00     0.001 A 
HETATM    6  C   UNK N   1      21.015  11.528   3.696  0.00  0.00     0.000 A 
HETATM    7  C   UNK N   1      19.818  12.246   3.608  0.00  0.00     0.001 A 
HETATM    8  C   UNK N   1      19.472  13.157   4.614  0.00  0.00     0.007 A 
ENDBRANCH   2   3
ENDBRANCH   1   2
BRANCH   1   9
HETATM    9  C   UNK N   1      20.796  14.052   9.170  0.00  0.00     0.243 C 
HETATM   10  O   UNK N   1      19.677  14.178   9.643  0.00  0.00    -0.271 OA
HETATM   11  N   UNK N   1      21.722  13.305   9.833  0.00  0.00    -0.349 N 
HETATM   12  C   UNK N   1      21.554  12.524  10.998  0.00  0.00     0.142 A 
HETATM   13  C   UNK N   1      23.019  12.893   9.446  0.00  0.00     0.142 A 
HETATM   14  C   UNK N   1      22.939  11.905  10.650  0.00  0.00     0.119 A 
BRANCH  14  15
HETATM   15  C   UNK N   1      23.958  12.119  11.729  0.00  0.00     0.147 C 
HETATM   16  O   UNK N   1      23.635  11.971  12.896  0.00  0.00    -0.650 OA
BRANCH  15  17
HETATM   17  O   UNK N   1      25.237  12.407  11.422  0.00  0.00    -0.776 OA
HETATM   18  H   UNK N   1      25.457  12.861  10.632  0.00  0.00     0.167 HD
ENDBRANCH  15  17
ENDBRANCH  14  15
ENDBRANCH   1   9
BRANCH   1  19
HETATM   19  N   UNK N   1      21.268  16.084   7.849  0.00  0.00    -0.342 N 
HETATM   20  C   UNK N   1      21.289  16.957   6.808  0.00  0.00     0.269 C 
HETATM   21  O   UNK N   1      21.128  18.143   7.053  0.00  0.00    -0.266 OA
HETATM   22  H   UNK N   1      21.375  16.480   8.744  0.00  0.00     0.163 HD
BRANCH  20  23
HETATM   23  C   UNK N   1      21.553  16.574   5.401  0.00  0.00     0.102 A 
HETATM   24  C   UNK N   1      22.729  15.946   4.992  0.00  0.00     0.049 A 
HETATM   25  C   UNK N   1      22.507  15.605   3.684  0.00  0.00    -0.005 A 
HETATM   26  C   UNK N   1      21.246  16.010   3.354  0.00  0.00     0.043 A 
HETATM   27  C   UNK N   1      23.325  14.922   2.793  0.00  0.00     0.037 A 
HETATM   28  C   UNK N   1      20.701  15.751   2.097  0.00  0.00     0.032 A 
HETATM   29  N   UNK N   1      20.642  16.614   4.393  0.00  0.00    -0.351 N 
HETATM   30  C   UNK N   1      21.501  15.052   1.169  0.00  0.00     0.026 A 
HETATM   31  C   UNK N   1      22.811  14.643   1.515  0.00  0.00     0.035 A 
HETATM   32 Cl   UNK N   1      23.788  13.758   0.364  0.00  0.00    -0.084 Cl
HETATM   33  H   UNK N   1      19.738  17.001   4.419  0.00  0.00     0.166 HD
ENDBRANCH  20  23
ENDBRANCH   1  19
TORSDOF 7
ENDMDL
MODEL 7
REMARK VINA RESULT:      -7.5      1.681      3.163
REMARK  7 active torsions:
REMARK  status: ('A' for Active; 'I' for Inactive)
REMARK    1  A    between atoms: C_1  and  C_2 
REMARK    2  A    between atoms: C_1  and  C_8 
REMARK    3  A    between atoms: C_8  and  C_9 
REMARK    4  A    between atoms: C_8  and  N_18 
REMARK       I    between atoms: C_9  and  N_11 
REMARK    5  A    between atoms: C_13  and  C_14 
REMARK    6  A    between atoms: C_14  and  O_16 
REMARK       I    between atoms: N_18  and  C_19 
REMARK    7  A    between atoms: C_19  and  C_20 
ROOT
HETATM    1  C   UNK N   1      24.699  18.314   4.730  0.00  0.00     0.181 C 
ENDROOT
BRANCH   1   2
HETATM    2  C   UNK N   1      25.303  17.486   3.581  0.00  0.00     0.073 C 
BRANCH   2   3
HETATM    3  C   UNK N   1      26.280  16.410   3.985  0.00  0.00    -0.056 A 
HETATM    4  C   UNK N   1      26.120  15.781   5.225  0.00  0.00     0.007 A 
HETATM    5  C   UNK N   1      27.006  14.776   5.627  0.00  0.00     0.001 A 
HETATM    6  C   UNK N   1      28.053  14.390   4.785  0.00  0.00     0.000 A 
HETATM    7  C   UNK N   1      28.212  15.008   3.541  0.00  0.00     0.001 A 
HETATM    8  C   UNK N   1      27.326  16.015   3.141  0.00  0.00     0.007 A 
ENDBRANCH   2   3
ENDBRANCH   1   2
BRANCH   1   9
HETATM    9  C   UNK N   1      23.188  18.376   4.605  0.00  0.00     0.243 C 
HETATM   10  O   UNK N   1      22.679  19.133   3.793  0.00  0.00    -0.271 OA
HETATM   11  N   UNK N   1      22.396  17.532   5.321  0.00  0.00    -0.349 N 
HETATM   12  C   UNK N   1      21.006  17.308   5.195  0.00  0.00     0.142 A 
HETATM   13  C   UNK N   1      22.735  16.480   6.205  0.00  0.00     0.142 A 
HETATM   14  C   UNK N   1      21.239  16.055   6.089  0.00  0.00     0.119 A 
BRANCH  14  15
HETATM   15  C   UNK N   1      20.455  16.100   7.367  0.00  0.00     0.147 C 
HETATM   16  O   UNK N   1      19.650  15.214   7.607  0.00  0.00    -0.650 OA
BRANCH  15  17
HETATM   17  O   UNK N   1      20.676  17.066   8.277  0.00  0.00    -0.776 OA
HETATM   18  H   UNK N   1      20.291  17.026   9.131  0.00  0.00     0.167 HD
ENDBRANCH  15  17
ENDBRANCH  14  15
ENDBRANCH   1   9
BRANCH   1  19
HETATM   19  N   UNK N   1      25.316  19.628   4.698  0.00  0.00    -0.342 N 
HETATM   20  C   UNK N   1      26.549  19.987   5.138  0.00  0.00     0.269 C 
HETATM   21  O   UNK N   1      27.004  21.055   4.753  0.00  0.00    -0.266 OA
HETATM   22  H   UNK N   1      24.771  20.348   4.308  0.00  0.00     0.163 HD
BRANCH  20  23
HETATM   23  C   UNK N   1      27.357  19.201   6.098  0.00  0.00     0.102 A 
HETATM   24  C   UNK N   1      28.444  18.415   5.712  0.00  0.00     0.049 A 
HETATM   25  C   UNK N   1      29.018  18.010   6.888  0.00  0.00    -0.005 A 
HETATM   26  C   UNK N   1      28.298  18.551   7.914  0.00  0.00     0.043 A 
HETATM   27  C   UNK N   1      30.155  17.242   7.102  0.00  0.00     0.037 A 
HETATM   28  C   UNK N   1      28.671  18.368   9.244  0.00  0.00     0.032 A 
HETATM   29  N   UNK N   1      27.268  19.282   7.452  0.00  0.00    -0.351 N 
HETATM   30  C   UNK N   1      29.825  17.599   9.500  0.00  0.00     0.026 A 
HETATM   31  C   UNK N   1      30.563  17.034   8.431  0.00  0.00     0.035 A 
HETATM   32 Cl   UNK N   1      32.005  16.099   8.758  0.00  0.00    -0.084 Cl
HETATM   33  H   UNK N   1      26.595  19.771   7.978  0.00  0.00     0.166 HD
ENDBRANCH  20  23
ENDBRANCH   1  19
TORSDOF 7
ENDMDL
MODEL 8
REMARK VINA RESULT:      -7.5      5.489      7.908
REMARK  7 active torsions:
REMARK  status: ('A' for Active; 'I' for Inactive)
REMARK    1  A    between atoms: C_1  and  C_2 
REMARK    2  A    between atoms: C_1  and  C_8 
REMARK    3  A    between atoms: C_8  and  C_9 
REMARK    4  A    between atoms: C_8  and  N_18 
REMARK       I    between atoms: C_9  and  N_11 
REMARK    5  A    between atoms: C_13  and  C_14 
REMARK    6  A    between atoms: C_14  and  O_16 
REMARK       I    between atoms: N_18  and  C_19 
REMARK    7  A    between atoms: C_19  and  C_20 
ROOT
HETATM    1  C   UNK N   1      21.512  13.462   6.501  0.00  0.00     0.181 C 
ENDROOT
BRANCH   1   2
HETATM    2  C   UNK N   1      21.270  12.350   7.540  0.00  0.00     0.073 C 
BRANCH   2   3
HETATM    3  C   UNK N   1      22.225  12.317   8.706  0.00  0.00    -0.056 A 
HETATM    4  C   UNK N   1      21.712  12.423  10.004  0.00  0.00     0.007 A 
HETATM    5  C   UNK N   1      22.571  12.390  11.108  0.00  0.00     0.001 A 
HETATM    6  C   UNK N   1      23.948  12.244  10.917  0.00  0.00     0.000 A 
HETATM    7  C   UNK N   1      24.465  12.129   9.624  0.00  0.00     0.001 A 
HETATM    8  C   UNK N   1      23.605  12.163   8.519  0.00  0.00     0.007 A 
ENDBRANCH   2   3
ENDBRANCH   1   2
BRANCH   1   9
HETATM    9  C   UNK N   1      20.306  14.378   6.412  0.00  0.00     0.243 C 
HETATM   10  O   UNK N   1      19.393  14.104   5.649  0.00  0.00    -0.271 OA
HETATM   11  N   UNK N   1      20.188  15.453   7.238  0.00  0.00    -0.349 N 
HETATM   12  C   UNK N   1      19.068  16.293   7.437  0.00  0.00     0.142 A 
HETATM   13  C   UNK N   1      21.019  15.899   8.293  0.00  0.00     0.142 A 
HETATM   14  C   UNK N   1      19.826  16.821   8.691  0.00  0.00     0.119 A 
BRANCH  14  15
HETATM   15  C   UNK N   1      20.099  18.293   8.627  0.00  0.00     0.147 C 
HETATM   16  O   UNK N   1      19.813  18.998   9.582  0.00  0.00    -0.650 OA
BRANCH  15  17
HETATM   17  O   UNK N   1      20.712  18.835   7.558  0.00  0.00    -0.776 OA
HETATM   18  H   UNK N   1      20.221  19.236   6.867  0.00  0.00     0.167 HD
ENDBRANCH  15  17
ENDBRANCH  14  15
ENDBRANCH   1   9
BRANCH   1  19
HETATM   19  N   UNK N   1      21.822  12.823   5.235  0.00  0.00    -0.342 N 
HETATM   20  C   UNK N   1      22.402  13.371   4.137  0.00  0.00     0.269 C 
HETATM   21  O   UNK N   1      22.855  12.613   3.291  0.00  0.00    -0.266 OA
HETATM   22  H   UNK N   1      21.581  11.871   5.164  0.00  0.00     0.163 HD
BRANCH  20  23
HETATM   23  C   UNK N   1      22.473  14.826   3.867  0.00  0.00     0.102 A 
HETATM   24  C   UNK N   1      21.438  15.537   3.261  0.00  0.00     0.049 A 
HETATM   25  C   UNK N   1      21.812  16.851   3.358  0.00  0.00    -0.005 A 
HETATM   26  C   UNK N   1      23.013  16.898   4.007  0.00  0.00     0.043 A 
HETATM   27  C   UNK N   1      21.140  17.999   2.956  0.00  0.00     0.037 A 
HETATM   28  C   UNK N   1      23.631  18.109   4.312  0.00  0.00     0.032 A 
HETATM   29  N   UNK N   1      23.441  15.664   4.324  0.00  0.00    -0.351 N 
HETATM   30  C   UNK N   1      22.973  19.296   3.926  0.00  0.00     0.026 A 
HETATM   31  C   UNK N   1      21.733  19.240   3.246  0.00  0.00     0.035 A 
HETATM   32 Cl   UNK N   1      20.914  20.717   2.789  0.00  0.00    -0.084 Cl
HETATM   33  H   UNK N   1      24.274  15.418   4.787  0.00  0.00     0.166 HD
ENDBRANCH  20  23
ENDBRANCH   1  19
TORSDOF 7
ENDMDL
MODEL 9
REMARK VINA RESULT:      -7.5      8.744     12.714
REMARK  7 active torsions:
REMARK  status: ('A' for Active; 'I' for Inactive)
REMARK    1  A    between atoms: C_1  and  C_2 
REMARK    2  A    between atoms: C_1  and  C_8 
REMARK    3  A    between atoms: C_8  and  C_9 
REMARK    4  A    between atoms: C_8  and  N_18 
REMARK       I    between atoms: C_9  and  N_11 
REMARK    5  A    between atoms: C_13  and  C_14 
REMARK    6  A    between atoms: C_14  and  O_16 
REMARK       I    between atoms: N_18  and  C_19 
REMARK    7  A    between atoms: C_19  and  C_20 
ROOT
HETATM    1  C   UNK N   1      35.836  15.193  11.122  0.00  0.00     0.181 C 
ENDROOT
BRANCH   1   2
HETATM    2  C   UNK N   1      37.186  14.754  10.524  0.00  0.00     0.073 C 
BRANCH   2   3
HETATM    3  C   UNK N   1      37.261  13.328  10.041  0.00  0.00    -0.056 A 
HETATM    4  C   UNK N   1      36.092  12.702   9.591  0.00  0.00     0.007 A 
HETATM    5  C   UNK N   1      36.129  11.381   9.132  0.00  0.00     0.001 A 
HETATM    6  C   UNK N   1      37.339  10.681   9.114  0.00  0.00     0.000 A 
HETATM    7  C   UNK N   1      38.512  11.304   9.553  0.00  0.00     0.001 A 
HETATM    8  C   UNK N   1      38.473  12.625  10.014  0.00  0.00     0.007 A 
ENDBRANCH   2   3
ENDBRANCH   1   2
BRANCH   1   9
HETATM    9  C   UNK N   1      35.309  16.421  10.404  0.00  0.00     0.243 C 
HETATM   10  O   UNK N   1      35.927  17.472  10.470  0.00  0.00    -0.271 OA
HETATM   11  N   UNK N   1      34.205  16.342   9.611  0.00  0.00    -0.349 N 
HETATM   12  C   UNK N   1      33.688  17.311   8.722  0.00  0.00     0.142 A 
HETATM   13  C   UNK N   1      33.406  15.230   9.254  0.00  0.00     0.142 A 
HETATM   14  C   UNK N   1      32.804  16.160   8.157  0.00  0.00     0.119 A 
BRANCH  14  15
HETATM   15  C   UNK N   1      31.336  16.440   8.284  0.00  0.00     0.147 C 
HETATM   16  O   UNK N   1      30.612  16.291   7.313  0.00  0.00    -0.650 OA
BRANCH  15  17
HETATM   17  O   UNK N   1      30.800  16.791   9.468  0.00  0.00    -0.776 OA
HETATM   18  H   UNK N   1      30.937  16.271  10.236  0.00  0.00     0.167 HD
ENDBRANCH  15  17
ENDBRANCH  14  15
ENDBRANCH   1   9
BRANCH   1  19
HETATM   19  N   UNK N   1      36.037  15.420  12.542  0.00  0.00    -0.342 N 
HETATM   20  C   UNK N   1      36.407  14.524  13.492  0.00  0.00     0.269 C 
HETATM   21  O   UNK N   1      36.818  14.958  14.559  0.00  0.00    -0.266 OA
HETATM   22  H   UNK N   1      35.886  16.341  12.855  0.00  0.00     0.163 HD
BRANCH  20  23
HETATM   23  C   UNK N   1      36.294  13.054  13.345  0.00  0.00     0.102 A 
HETATM   24  C   UNK N   1      35.098  12.413  13.023  0.00  0.00     0.049 A 
HETATM   25  C   UNK N   1      35.449  11.107  12.806  0.00  0.00    -0.005 A 
HETATM   26  C   UNK N   1      36.799  11.000  12.983  0.00  0.00     0.043 A 
HETATM   27  C   UNK N   1      34.663  10.029  12.417  0.00  0.00     0.037 A 
HETATM   28  C   UNK N   1      37.470   9.797  12.774  0.00  0.00     0.032 A 
HETATM   29  N   UNK N   1      37.338  12.184  13.321  0.00  0.00    -0.351 N 
HETATM   30  C   UNK N   1      36.705   8.682  12.371  0.00  0.00     0.026 A 
HETATM   31  C   UNK N   1      35.305   8.798  12.197  0.00  0.00     0.035 A 
HETATM   32 Cl   UNK N   1      34.368   7.415  11.676  0.00  0.00    -0.084 Cl
HETATM   33  H   UNK N   1      38.284  12.381  13.510  0.00  0.00     0.166 HD
ENDBRANCH  20  23
ENDBRANCH   1  19
TORSDOF 7
ENDMDL
