MODEL 1
REMARK VINA RESULT:      -7.9      0.000      0.000
REMARK  6 active torsions:
REMARK  status: ('A' for Active; 'I' for Inactive)
REMARK    1  A    between atoms: C_3  and  N_7 
REMARK    2  A    between atoms: C_5  and  C_10 
REMARK    3  A    between atoms: N_19  and  C_23 
REMARK    4  A    between atoms: C_23  and  C_24 
REMARK    5  A    between atoms: C_24  and  C_25 
REMARK    6  A    between atoms: C_25  and  N_26 
ROOT
HETATM    1  C   UNK N   1      27.180  18.879   5.186  0.00  0.00     0.018 A 
HETATM    2  S   UNK N   1      27.337  20.074   3.996  0.00  0.00    -0.087 SA
HETATM    3  C   UNK N   1      25.755  20.145   3.546  0.00  0.00     0.035 A 
HETATM    4  C   UNK N   1      25.079  19.263   4.331  0.00  0.00     0.060 A 
HETATM    5  C   UNK N   1      25.823  18.516   5.264  0.00  0.00     0.051 A 
HETATM    6  N   UNK N   1      23.796  19.276   4.007  0.00  0.00    -0.281 N 
HETATM    7  C   UNK N   1      23.641  20.133   3.005  0.00  0.00     0.112 A 
HETATM    8  C   UNK N   1      24.855  20.746   2.656  0.00  0.00     0.057 A 
HETATM    9  C   UNK N   1      22.601  18.745   4.286  0.00  0.00     0.188 A 
HETATM   10  N   UNK N   1      21.654  19.221   3.434  0.00  0.00    -0.288 N 
HETATM   11  C   UNK N   1      22.317  20.114   2.627  0.00  0.00     0.277 A 
HETATM   12  S   UNK N   1      22.372  17.786   5.336  0.00  0.00    -0.040 SA
HETATM   13  O   UNK N   1      21.807  20.754   1.723  0.00  0.00    -0.265 OA
ENDROOT
BRANCH   1  14
HETATM   14  C   UNK N   1      28.259  18.313   5.999  0.00  0.00    -0.017 A 
HETATM   15  C   UNK N   1      28.195  18.408   7.389  0.00  0.00     0.048 A 
HETATM   16  C   UNK N   1      29.187  17.835   8.189  0.00  0.00     0.103 A 
HETATM   17  C   UNK N   1      30.271  17.181   7.580  0.00  0.00     0.036 A 
HETATM   18  C   UNK N   1      30.349  17.097   6.186  0.00  0.00     0.003 A 
HETATM   19  C   UNK N   1      29.336  17.648   5.397  0.00  0.00     0.013 A 
BRANCH  16  20
HETATM   20  N   UNK N   1      29.065  17.886   9.603  0.00  0.00    -0.116 N 
HETATM   21  O   UNK N   1      29.618  18.744  10.225  0.00  0.00    -0.532 OA
HETATM   22  O   UNK N   1      28.395  16.952  10.244  0.00  0.00    -0.532 OA
ENDBRANCH  16  20
ENDBRANCH   1  14
BRANCH  10  23
HETATM   23  C   UNK N   1      20.255  18.816   3.365  0.00  0.00     0.136 C 
BRANCH  23  24
HETATM   24  C   UNK N   1      20.038  17.872   2.182  0.00  0.00     0.050 C 
BRANCH  24  25
HETATM   25  C   UNK N   1      20.214  16.387   2.544  0.00  0.00     0.274 C 
BRANCH  25  26
HETATM   26  N   UNK N   1      21.176  15.697   1.686  0.00  0.00     0.092 N 
HETATM   27  C   UNK N   1      22.383  15.381   2.458  0.00  0.00     0.298 C 
HETATM   28  C   UNK N   1      23.299  14.413   1.685  0.00  0.00     0.198 C 
HETATM   29  O   UNK N   1      22.779  14.125   0.410  0.00  0.00    -0.388 OA
HETATM   30  C   UNK N   1      21.551  13.478   0.627  0.00  0.00     0.198 C 
HETATM   31  C   UNK N   1      20.527  14.465   1.215  0.00  0.00     0.298 C 
ENDBRANCH  25  26
ENDBRANCH  24  25
ENDBRANCH  23  24
ENDBRANCH  10  23
TORSDOF 6
ENDMDL
MODEL 2
REMARK VINA RESULT:      -7.7      4.706     11.494
REMARK  6 active torsions:
REMARK  status: ('A' for Active; 'I' for Inactive)
REMARK    1  A    between atoms: C_3  and  N_7 
REMARK    2  A    between atoms: C_5  and  C_10 
REMARK    3  A    between atoms: N_19  and  C_23 
REMARK    4  A    between atoms: C_23  and  C_24 
REMARK    5  A    between atoms: C_24  and  C_25 
REMARK    6  A    between atoms: C_25  and  N_26 
ROOT
HETATM    1  C   UNK N   1      28.270  17.491   4.636  0.00  0.00     0.018 A 
HETATM    2  S   UNK N   1      29.245  16.787   3.444  0.00  0.00    -0.087 SA
HETATM    3  C   UNK N   1      30.650  16.750   4.302  0.00  0.00     0.035 A 
HETATM    4  C   UNK N   1      30.376  17.259   5.534  0.00  0.00     0.060 A 
HETATM    5  C   UNK N   1      29.062  17.701   5.780  0.00  0.00     0.051 A 
HETATM    6  N   UNK N   1      31.477  17.258   6.267  0.00  0.00    -0.281 N 
HETATM    7  C   UNK N   1      32.463  16.782   5.516  0.00  0.00     0.112 A 
HETATM    8  C   UNK N   1      32.010  16.419   4.237  0.00  0.00     0.057 A 
HETATM    9  C   UNK N   1      31.983  17.569   7.466  0.00  0.00     0.188 A 
HETATM   10  N   UNK N   1      33.324  17.338   7.495  0.00  0.00    -0.288 N 
HETATM   11  C   UNK N   1      33.623  16.826   6.255  0.00  0.00     0.277 A 
HETATM   12  S   UNK N   1      31.204  18.094   8.556  0.00  0.00    -0.040 SA
HETATM   13  O   UNK N   1      34.737  16.493   5.885  0.00  0.00    -0.265 OA
ENDROOT
BRANCH   1  14
HETATM   14  C   UNK N   1      26.851  17.830   4.513  0.00  0.00    -0.017 A 
HETATM   15  C   UNK N   1      26.475  18.981   3.822  0.00  0.00     0.048 A 
HETATM   16  C   UNK N   1      25.125  19.301   3.650  0.00  0.00     0.103 A 
HETATM   17  C   UNK N   1      24.143  18.464   4.205  0.00  0.00     0.036 A 
HETATM   18  C   UNK N   1      24.514  17.317   4.913  0.00  0.00     0.003 A 
HETATM   19  C   UNK N   1      25.865  16.991   5.053  0.00  0.00     0.013 A 
BRANCH  16  20
HETATM   20  N   UNK N   1      24.766  20.443   2.884  0.00  0.00    -0.116 N 
HETATM   21  O   UNK N   1      25.565  20.958   2.161  0.00  0.00    -0.532 OA
HETATM   22  O   UNK N   1      23.571  20.977   3.015  0.00  0.00    -0.532 OA
ENDBRANCH  16  20
ENDBRANCH   1  14
BRANCH  10  23
HETATM   23  C   UNK N   1      34.239  17.633   8.589  0.00  0.00     0.136 C 
BRANCH  23  24
HETATM   24  C   UNK N   1      34.541  16.360   9.381  0.00  0.00     0.050 C 
BRANCH  24  25
HETATM   25  C   UNK N   1      35.368  16.614  10.654  0.00  0.00     0.274 C 
BRANCH  25  26
HETATM   26  N   UNK N   1      36.266  15.508  10.983  0.00  0.00     0.092 N 
HETATM   27  C   UNK N   1      35.852  14.903  12.255  0.00  0.00     0.298 C 
HETATM   28  C   UNK N   1      36.583  13.570  12.500  0.00  0.00     0.198 C 
HETATM   29  O   UNK N   1      37.509  13.298  11.475  0.00  0.00    -0.388 OA
HETATM   30  C   UNK N   1      36.757  13.168  10.296  0.00  0.00     0.198 C 
HETATM   31  C   UNK N   1      36.166  14.530   9.890  0.00  0.00     0.298 C 
ENDBRANCH  25  26
ENDBRANCH  24  25
ENDBRANCH  23  24
ENDBRANCH  10  23
TORSDOF 6
ENDMDL
MODEL 3
REMARK VINA RESULT:      -7.5      2.857      4.627
REMARK  6 active torsions:
REMARK  status: ('A' for Active; 'I' for Inactive)
REMARK    1  A    between atoms: C_3  and  N_7 
REMARK    2  A    between atoms: C_5  and  C_10 
REMARK    3  A    between atoms: N_19  and  C_23 
REMARK    4  A    between atoms: C_23  and  C_24 
REMARK    5  A    between atoms: C_24  and  C_25 
REMARK    6  A    between atoms: C_25  and  N_26 
ROOT
HETATM    1  C   UNK N   1      29.179  16.507   5.226  0.00  0.00     0.018 A 
HETATM    2  S   UNK N   1      29.523  16.033   3.637  0.00  0.00    -0.087 SA
HETATM    3  C   UNK N   1      27.975  15.757   3.149  0.00  0.00     0.035 A 
HETATM    4  C   UNK N   1      27.168  16.055   4.204  0.00  0.00     0.060 A 
HETATM    5  C   UNK N   1      27.783  16.472   5.399  0.00  0.00     0.051 A 
HETATM    6  N   UNK N   1      25.906  15.845   3.867  0.00  0.00    -0.281 N 
HETATM    7  C   UNK N   1      25.890  15.390   2.620  0.00  0.00     0.112 A 
HETATM    8  C   UNK N   1      27.185  15.315   2.081  0.00  0.00     0.057 A 
HETATM    9  C   UNK N   1      24.642  15.897   4.304  0.00  0.00     0.188 A 
HETATM   10  N   UNK N   1      23.787  15.431   3.355  0.00  0.00    -0.288 N 
HETATM   11  C   UNK N   1      24.584  15.119   2.279  0.00  0.00     0.277 A 
HETATM   12  S   UNK N   1      24.263  16.366   5.611  0.00  0.00    -0.040 SA
HETATM   13  O   UNK N   1      24.185  14.663   1.221  0.00  0.00    -0.265 OA
ENDROOT
BRANCH   1  14
HETATM   14  C   UNK N   1      30.152  16.890   6.251  0.00  0.00    -0.017 A 
HETATM   15  C   UNK N   1      31.507  16.956   5.924  0.00  0.00     0.048 A 
HETATM   16  C   UNK N   1      32.449  17.364   6.872  0.00  0.00     0.103 A 
HETATM   17  C   UNK N   1      32.025  17.682   8.172  0.00  0.00     0.036 A 
HETATM   18  C   UNK N   1      30.671  17.602   8.511  0.00  0.00     0.003 A 
HETATM   19  C   UNK N   1      29.734  17.222   7.547  0.00  0.00     0.013 A 
BRANCH  16  20
HETATM   20  N   UNK N   1      33.813  17.489   6.496  0.00  0.00    -0.116 N 
HETATM   21  O   UNK N   1      34.253  16.835   5.597  0.00  0.00    -0.532 OA
HETATM   22  O   UNK N   1      34.617  18.278   7.176  0.00  0.00    -0.532 OA
ENDBRANCH  16  20
ENDBRANCH   1  14
BRANCH  10  23
HETATM   23  C   UNK N   1      22.347  15.249   3.487  0.00  0.00     0.136 C 
BRANCH  23  24
HETATM   24  C   UNK N   1      21.608  16.454   2.903  0.00  0.00     0.050 C 
BRANCH  24  25
HETATM   25  C   UNK N   1      21.079  17.425   3.973  0.00  0.00     0.274 C 
BRANCH  25  26
HETATM   26  N   UNK N   1      21.314  18.829   3.640  0.00  0.00     0.092 N 
HETATM   27  C   UNK N   1      22.757  19.076   3.551  0.00  0.00     0.298 C 
HETATM   28  C   UNK N   1      23.047  20.456   2.930  0.00  0.00     0.198 C 
HETATM   29  O   UNK N   1      21.857  21.156   2.661  0.00  0.00    -0.388 OA
HETATM   30  C   UNK N   1      21.161  20.391   1.710  0.00  0.00     0.198 C 
HETATM   31  C   UNK N   1      20.667  19.078   2.343  0.00  0.00     0.298 C 
ENDBRANCH  25  26
ENDBRANCH  24  25
ENDBRANCH  23  24
ENDBRANCH  10  23
TORSDOF 6
ENDMDL
MODEL 4
REMARK VINA RESULT:      -7.4      1.956      2.159
REMARK  6 active torsions:
REMARK  status: ('A' for Active; 'I' for Inactive)
REMARK    1  A    between atoms: C_3  and  N_7 
REMARK    2  A    between atoms: C_5  and  C_10 
REMARK    3  A    between atoms: N_19  and  C_23 
REMARK    4  A    between atoms: C_23  and  C_24 
REMARK    5  A    between atoms: C_24  and  C_25 
REMARK    6  A    between atoms: C_25  and  N_26 
ROOT
HETATM    1  C   UNK N   1      27.262  18.813   5.006  0.00  0.00     0.018 A 
HETATM    2  S   UNK N   1      27.352  20.086   3.893  0.00  0.00    -0.087 SA
HETATM    3  C   UNK N   1      25.751  20.161   3.516  0.00  0.00     0.035 A 
HETATM    4  C   UNK N   1      25.121  19.218   4.268  0.00  0.00     0.060 A 
HETATM    5  C   UNK N   1      25.915  18.423   5.117  0.00  0.00     0.051 A 
HETATM    6  N   UNK N   1      23.826  19.232   4.000  0.00  0.00    -0.281 N 
HETATM    7  C   UNK N   1      23.616  20.152   3.065  0.00  0.00     0.112 A 
HETATM    8  C   UNK N   1      24.806  20.805   2.707  0.00  0.00     0.057 A 
HETATM    9  C   UNK N   1      22.650  18.665   4.293  0.00  0.00     0.188 A 
HETATM   10  N   UNK N   1      21.661  19.181   3.515  0.00  0.00    -0.288 N 
HETATM   11  C   UNK N   1      22.278  20.136   2.742  0.00  0.00     0.277 A 
HETATM   12  S   UNK N   1      22.480  17.636   5.285  0.00  0.00    -0.040 SA
HETATM   13  O   UNK N   1      21.721  20.826   1.905  0.00  0.00    -0.265 OA
ENDROOT
BRANCH   1  14
HETATM   14  C   UNK N   1      28.382  18.211   5.734  0.00  0.00    -0.017 A 
HETATM   15  C   UNK N   1      29.496  17.756   5.029  0.00  0.00     0.048 A 
HETATM   16  C   UNK N   1      30.597  17.221   5.704  0.00  0.00     0.103 A 
HETATM   17  C   UNK N   1      30.563  17.119   7.104  0.00  0.00     0.036 A 
HETATM   18  C   UNK N   1      29.443  17.559   7.816  0.00  0.00     0.003 A 
HETATM   19  C   UNK N   1      28.360  18.120   7.133  0.00  0.00     0.013 A 
BRANCH  16  20
HETATM   20  N   UNK N   1      31.747  16.826   4.969  0.00  0.00    -0.116 N 
HETATM   21  O   UNK N   1      31.856  17.123   3.817  0.00  0.00    -0.532 OA
HETATM   22  O   UNK N   1      32.669  16.078   5.535  0.00  0.00    -0.532 OA
ENDBRANCH  16  20
ENDBRANCH   1  14
BRANCH  10  23
HETATM   23  C   UNK N   1      20.267  18.760   3.478  0.00  0.00     0.136 C 
BRANCH  23  24
HETATM   24  C   UNK N   1      20.024  17.848   2.274  0.00  0.00     0.050 C 
BRANCH  24  25
HETATM   25  C   UNK N   1      20.197  16.353   2.595  0.00  0.00     0.274 C 
BRANCH  25  26
HETATM   26  N   UNK N   1      21.143  15.682   1.705  0.00  0.00     0.092 N 
HETATM   27  C   UNK N   1      22.363  15.350   2.448  0.00  0.00     0.298 C 
HETATM   28  C   UNK N   1      23.265  14.398   1.639  0.00  0.00     0.198 C 
HETATM   29  O   UNK N   1      22.722  14.136   0.368  0.00  0.00    -0.388 OA
HETATM   30  C   UNK N   1      21.498  13.485   0.594  0.00  0.00     0.198 C 
HETATM   31  C   UNK N   1      20.485  14.459   1.220  0.00  0.00     0.298 C 
ENDBRANCH  25  26
ENDBRANCH  24  25
ENDBRANCH  23  24
ENDBRANCH  10  23
TORSDOF 6
ENDMDL
MODEL 5
REMARK VINA RESULT:      -7.4      8.500     13.396
REMARK  6 active torsions:
REMARK  status: ('A' for Active; 'I' for Inactive)
REMARK    1  A    between atoms: C_3  and  N_7 
REMARK    2  A    between atoms: C_5  and  C_10 
REMARK    3  A    between atoms: N_19  and  C_23 
REMARK    4  A    between atoms: C_23  and  C_24 
REMARK    5  A    between atoms: C_24  and  C_25 
REMARK    6  A    between atoms: C_25  and  N_26 
ROOT
HETATM    1  C   UNK N   1      35.005  12.006  14.057  0.00  0.00     0.018 A 
HETATM    2  S   UNK N   1      34.765  10.702  13.002  0.00  0.00    -0.087 SA
HETATM    3  C   UNK N   1      34.721  11.560  11.598  0.00  0.00     0.035 A 
HETATM    4  C   UNK N   1      34.919  12.867  11.925  0.00  0.00     0.060 A 
HETATM    5  C   UNK N   1      35.075  13.182  13.288  0.00  0.00     0.051 A 
HETATM    6  N   UNK N   1      34.888  13.605  10.828  0.00  0.00    -0.281 N 
HETATM    7  C   UNK N   1      34.645  12.798   9.802  0.00  0.00     0.112 A 
HETATM    8  C   UNK N   1      34.537  11.459  10.213  0.00  0.00     0.057 A 
HETATM    9  C   UNK N   1      34.988  14.853  10.357  0.00  0.00     0.188 A 
HETATM   10  N   UNK N   1      34.766  14.878   9.015  0.00  0.00    -0.288 N 
HETATM   11  C   UNK N   1      34.560  13.566   8.663  0.00  0.00     0.277 A 
HETATM   12  S   UNK N   1      35.271  16.002  11.176  0.00  0.00    -0.040 SA
HETATM   13  O   UNK N   1      34.322  13.172   7.534  0.00  0.00    -0.265 OA
ENDROOT
BRANCH   1  14
HETATM   14  C   UNK N   1      35.120  11.937  15.515  0.00  0.00    -0.017 A 
HETATM   15  C   UNK N   1      35.268  13.113  16.250  0.00  0.00     0.048 A 
HETATM   16  C   UNK N   1      35.333  13.078  17.646  0.00  0.00     0.103 A 
HETATM   17  C   UNK N   1      35.275  11.841  18.307  0.00  0.00     0.036 A 
HETATM   18  C   UNK N   1      35.144  10.656  17.575  0.00  0.00     0.003 A 
HETATM   19  C   UNK N   1      35.050  10.706  16.182  0.00  0.00     0.013 A 
BRANCH  16  20
HETATM   20  N   UNK N   1      35.415  14.294  18.375  0.00  0.00    -0.116 N 
HETATM   21  O   UNK N   1      34.744  14.459  19.350  0.00  0.00    -0.532 OA
HETATM   22  O   UNK N   1      36.185  15.272  17.946  0.00  0.00    -0.532 OA
ENDBRANCH  16  20
ENDBRANCH   1  14
BRANCH  10  23
HETATM   23  C   UNK N   1      34.703  16.057   8.160  0.00  0.00     0.136 C 
BRANCH  23  24
HETATM   24  C   UNK N   1      33.258  16.324   7.737  0.00  0.00     0.050 C 
BRANCH  24  25
HETATM   25  C   UNK N   1      32.547  17.369   8.615  0.00  0.00     0.274 C 
BRANCH  25  26
HETATM   26  N   UNK N   1      31.090  17.249   8.583  0.00  0.00     0.092 N 
HETATM   27  C   UNK N   1      30.485  18.508   9.030  0.00  0.00     0.298 C 
HETATM   28  C   UNK N   1      28.971  18.529   8.746  0.00  0.00     0.198 C 
HETATM   29  O   UNK N   1      28.539  17.312   8.186  0.00  0.00    -0.388 OA
HETATM   30  C   UNK N   1      29.208  17.190   6.957  0.00  0.00     0.198 C 
HETATM   31  C   UNK N   1      30.712  16.960   7.192  0.00  0.00     0.298 C 
ENDBRANCH  25  26
ENDBRANCH  24  25
ENDBRANCH  23  24
ENDBRANCH  10  23
TORSDOF 6
ENDMDL
MODEL 6
REMARK VINA RESULT:      -7.2      6.967     11.010
REMARK  6 active torsions:
REMARK  status: ('A' for Active; 'I' for Inactive)
REMARK    1  A    between atoms: C_3  and  N_7 
REMARK    2  A    between atoms: C_5  and  C_10 
REMARK    3  A    between atoms: N_19  and  C_23 
REMARK    4  A    between atoms: C_23  and  C_24 
REMARK    5  A    between atoms: C_24  and  C_25 
REMARK    6  A    between atoms: C_25  and  N_26 
ROOT
HETATM    1  C   UNK N   1      35.600  14.800  10.864  0.00  0.00     0.018 A 
HETATM    2  S   UNK N   1      35.329  16.470  10.943  0.00  0.00    -0.087 SA
HETATM    3  C   UNK N   1      34.852  16.689   9.383  0.00  0.00     0.035 A 
HETATM    4  C   UNK N   1      34.870  15.466   8.787  0.00  0.00     0.060 A 
HETATM    5  C   UNK N   1      35.290  14.368   9.561  0.00  0.00     0.051 A 
HETATM    6  N   UNK N   1      34.498  15.586   7.523  0.00  0.00    -0.281 N 
HETATM    7  C   UNK N   1      34.267  16.872   7.289  0.00  0.00     0.112 A 
HETATM    8  C   UNK N   1      34.461  17.650   8.442  0.00  0.00     0.057 A 
HETATM    9  C   UNK N   1      34.283  14.913   6.386  0.00  0.00     0.188 A 
HETATM   10  N   UNK N   1      33.950  15.766   5.380  0.00  0.00    -0.288 N 
HETATM   11  C   UNK N   1      33.930  17.011   5.961  0.00  0.00     0.277 A 
HETATM   12  S   UNK N   1      34.412  13.485   6.260  0.00  0.00    -0.040 SA
HETATM   13  O   UNK N   1      33.674  18.052   5.379  0.00  0.00    -0.265 OA
ENDROOT
BRANCH   1  14
HETATM   14  C   UNK N   1      36.075  13.941  11.952  0.00  0.00    -0.017 A 
HETATM   15  C   UNK N   1      36.241  14.477  13.229  0.00  0.00     0.048 A 
HETATM   16  C   UNK N   1      36.647  13.668  14.294  0.00  0.00     0.103 A 
HETATM   17  C   UNK N   1      36.916  12.309  14.063  0.00  0.00     0.036 A 
HETATM   18  C   UNK N   1      36.768  11.769  12.782  0.00  0.00     0.003 A 
HETATM   19  C   UNK N   1      36.332  12.581  11.731  0.00  0.00     0.013 A 
BRANCH  16  20
HETATM   20  N   UNK N   1      36.743  14.221  15.599  0.00  0.00    -0.116 N 
HETATM   21  O   UNK N   1      37.572  15.047  15.844  0.00  0.00    -0.532 OA
HETATM   22  O   UNK N   1      35.961  13.783  16.562  0.00  0.00    -0.532 OA
ENDBRANCH  16  20
ENDBRANCH   1  14
BRANCH  10  23
HETATM   23  C   UNK N   1      33.727  15.425   3.981  0.00  0.00     0.136 C 
BRANCH  23  24
HETATM   24  C   UNK N   1      32.304  15.802   3.568  0.00  0.00     0.050 C 
BRANCH  24  25
HETATM   25  C   UNK N   1      31.231  14.857   4.139  0.00  0.00     0.274 C 
BRANCH  25  26
HETATM   26  N   UNK N   1      30.011  15.554   4.543  0.00  0.00     0.092 N 
HETATM   27  C   UNK N   1      30.358  16.693   5.400  0.00  0.00     0.298 C 
HETATM   28  C   UNK N   1      29.143  17.616   5.616  0.00  0.00     0.198 C 
HETATM   29  O   UNK N   1      27.993  17.102   4.990  0.00  0.00    -0.388 OA
HETATM   30  C   UNK N   1      28.278  17.076   3.614  0.00  0.00     0.198 C 
HETATM   31  C   UNK N   1      29.351  16.015   3.314  0.00  0.00     0.298 C 
ENDBRANCH  25  26
ENDBRANCH  24  25
ENDBRANCH  23  24
ENDBRANCH  10  23
TORSDOF 6
ENDMDL
MODEL 7
REMARK VINA RESULT:      -7.2      5.120      8.185
REMARK  6 active torsions:
REMARK  status: ('A' for Active; 'I' for Inactive)
REMARK    1  A    between atoms: C_3  and  N_7 
REMARK    2  A    between atoms: C_5  and  C_10 
REMARK    3  A    between atoms: N_19  and  C_23 
REMARK    4  A    between atoms: C_23  and  C_24 
REMARK    5  A    between atoms: C_24  and  C_25 
REMARK    6  A    between atoms: C_25  and  N_26 
ROOT
HETATM    1  C   UNK N   1      22.445  14.610   8.035  0.00  0.00     0.018 A 
HETATM    2  S   UNK N   1      21.563  15.814   7.234  0.00  0.00    -0.087 SA
HETATM    3  C   UNK N   1      22.719  16.246   6.145  0.00  0.00     0.035 A 
HETATM    4  C   UNK N   1      23.795  15.444   6.369  0.00  0.00     0.060 A 
HETATM    5  C   UNK N   1      23.707  14.512   7.421  0.00  0.00     0.051 A 
HETATM    6  N   UNK N   1      24.761  15.753   5.520  0.00  0.00    -0.281 N 
HETATM    7  C   UNK N   1      24.333  16.762   4.770  0.00  0.00     0.112 A 
HETATM    8  C   UNK N   1      23.019  17.131   5.102  0.00  0.00     0.057 A 
HETATM    9  C   UNK N   1      26.008  15.455   5.138  0.00  0.00     0.188 A 
HETATM   10  N   UNK N   1      26.425  16.301   4.158  0.00  0.00    -0.288 N 
HETATM   11  C   UNK N   1      25.351  17.124   3.918  0.00  0.00     0.277 A 
HETATM   12  S   UNK N   1      26.792  14.393   5.713  0.00  0.00    -0.040 SA
HETATM   13  O   UNK N   1      25.332  18.029   3.100  0.00  0.00    -0.265 OA
ENDROOT
BRANCH   1  14
HETATM   14  C   UNK N   1      21.988  13.803   9.169  0.00  0.00    -0.017 A 
HETATM   15  C   UNK N   1      22.926  13.225  10.024  0.00  0.00     0.048 A 
HETATM   16  C   UNK N   1      22.515  12.490  11.140  0.00  0.00     0.103 A 
HETATM   17  C   UNK N   1      21.143  12.314  11.381  0.00  0.00     0.036 A 
HETATM   18  C   UNK N   1      20.197  12.877  10.518  0.00  0.00     0.003 A 
HETATM   19  C   UNK N   1      20.620  13.635   9.423  0.00  0.00     0.013 A 
BRANCH  16  20
HETATM   20  N   UNK N   1      23.488  11.968  12.034  0.00  0.00    -0.116 N 
HETATM   21  O   UNK N   1      24.630  11.874  11.693  0.00  0.00    -0.532 OA
HETATM   22  O   UNK N   1      23.128  11.527  13.220  0.00  0.00    -0.532 OA
ENDBRANCH  16  20
ENDBRANCH   1  14
BRANCH  10  23
HETATM   23  C   UNK N   1      27.748  16.349   3.548  0.00  0.00     0.136 C 
BRANCH  23  24
HETATM   24  C   UNK N   1      28.627  17.365   4.279  0.00  0.00     0.050 C 
BRANCH  24  25
HETATM   25  C   UNK N   1      29.748  16.717   5.111  0.00  0.00     0.274 C 
BRANCH  25  26
HETATM   26  N   UNK N   1      29.564  16.887   6.551  0.00  0.00     0.092 N 
HETATM   27  C   UNK N   1      30.851  17.214   7.174  0.00  0.00     0.298 C 
HETATM   28  C   UNK N   1      30.662  17.679   8.631  0.00  0.00     0.198 C 
HETATM   29  O   UNK N   1      29.311  17.613   9.017  0.00  0.00    -0.388 OA
HETATM   30  C   UNK N   1      28.623  18.511   8.184  0.00  0.00     0.198 C 
HETATM   31  C   UNK N   1      28.606  17.987   6.737  0.00  0.00     0.298 C 
ENDBRANCH  25  26
ENDBRANCH  24  25
ENDBRANCH  23  24
ENDBRANCH  10  23
TORSDOF 6
ENDMDL
MODEL 8
REMARK VINA RESULT:      -6.9     11.472     16.553
REMARK  6 active torsions:
REMARK  status: ('A' for Active; 'I' for Inactive)
REMARK    1  A    between atoms: C_3  and  N_7 
REMARK    2  A    between atoms: C_5  and  C_10 
REMARK    3  A    between atoms: N_19  and  C_23 
REMARK    4  A    between atoms: C_23  and  C_24 
REMARK    5  A    between atoms: C_24  and  C_25 
REMARK    6  A    between atoms: C_25  and  N_26 
ROOT
HETATM    1  C   UNK N   1      34.716  10.050  17.660  0.00  0.00     0.018 A 
HETATM    2  S   UNK N   1      35.288  11.517  18.284  0.00  0.00    -0.087 SA
HETATM    3  C   UNK N   1      35.445  12.317  16.854  0.00  0.00     0.035 A 
HETATM    4  C   UNK N   1      35.030  11.468  15.876  0.00  0.00     0.060 A 
HETATM    5  C   UNK N   1      34.618  10.178  16.262  0.00  0.00     0.051 A 
HETATM    6  N   UNK N   1      35.141  12.062  14.699  0.00  0.00    -0.281 N 
HETATM    7  C   UNK N   1      35.647  13.272  14.902  0.00  0.00     0.112 A 
HETATM    8  C   UNK N   1      35.861  13.520  16.268  0.00  0.00     0.057 A 
HETATM    9  C   UNK N   1      34.957  11.907  13.383  0.00  0.00     0.188 A 
HETATM   10  N   UNK N   1      35.386  13.005  12.706  0.00  0.00    -0.288 N 
HETATM   11  C   UNK N   1      35.814  13.878  13.678  0.00  0.00     0.277 A 
HETATM   12  S   UNK N   1      34.400  10.723  12.783  0.00  0.00    -0.040 SA
HETATM   13  O   UNK N   1      36.278  14.986  13.469  0.00  0.00    -0.265 OA
ENDROOT
BRANCH   1  14
HETATM   14  C   UNK N   1      34.377   8.849  18.428  0.00  0.00    -0.017 A 
HETATM   15  C   UNK N   1      33.428   8.928  19.446  0.00  0.00     0.048 A 
HETATM   16  C   UNK N   1      33.053   7.787  20.161  0.00  0.00     0.103 A 
HETATM   17  C   UNK N   1      33.664   6.557  19.865  0.00  0.00     0.036 A 
HETATM   18  C   UNK N   1      34.629   6.475  18.856  0.00  0.00     0.003 A 
HETATM   19  C   UNK N   1      34.973   7.616  18.127  0.00  0.00     0.013 A 
BRANCH  16  20
HETATM   20  N   UNK N   1      32.035   7.879  21.148  0.00  0.00    -0.116 N 
HETATM   21  O   UNK N   1      31.145   7.082  21.172  0.00  0.00    -0.532 OA
HETATM   22  O   UNK N   1      32.032   8.880  22.002  0.00  0.00    -0.532 OA
ENDBRANCH  16  20
ENDBRANCH   1  14
BRANCH  10  23
HETATM   23  C   UNK N   1      35.432  13.180  11.260  0.00  0.00     0.136 C 
BRANCH  23  24
HETATM   24  C   UNK N   1      34.389  14.208  10.820  0.00  0.00     0.050 C 
BRANCH  24  25
HETATM   25  C   UNK N   1      34.997  15.427  10.104  0.00  0.00     0.274 C 
BRANCH  25  26
HETATM   26  N   UNK N   1      33.991  16.392   9.660  0.00  0.00     0.092 N 
HETATM   27  C   UNK N   1      34.588  17.304   8.678  0.00  0.00     0.298 C 
HETATM   28  C   UNK N   1      33.507  18.148   7.976  0.00  0.00     0.198 C 
HETATM   29  O   UNK N   1      32.228  17.877   8.496  0.00  0.00    -0.388 OA
HETATM   30  C   UNK N   1      31.972  16.525   8.214  0.00  0.00     0.198 C 
HETATM   31  C   UNK N   1      32.896  15.623   9.052  0.00  0.00     0.298 C 
ENDBRANCH  25  26
ENDBRANCH  24  25
ENDBRANCH  23  24
ENDBRANCH  10  23
TORSDOF 6
ENDMDL
MODEL 9
REMARK VINA RESULT:      -6.9      8.580     13.165
REMARK  6 active torsions:
REMARK  status: ('A' for Active; 'I' for Inactive)
REMARK    1  A    between atoms: C_3  and  N_7 
REMARK    2  A    between atoms: C_5  and  C_10 
REMARK    3  A    between atoms: N_19  and  C_23 
REMARK    4  A    between atoms: C_23  and  C_24 
REMARK    5  A    between atoms: C_24  and  C_25 
REMARK    6  A    between atoms: C_25  and  N_26 
ROOT
HETATM    1  C   UNK N   1      35.490  13.095  13.738  0.00  0.00     0.018 A 
HETATM    2  S   UNK N   1      36.238  14.558  13.326  0.00  0.00    -0.087 SA
HETATM    3  C   UNK N   1      35.947  14.505  11.707  0.00  0.00     0.035 A 
HETATM    4  C   UNK N   1      35.242  13.365  11.467  0.00  0.00     0.060 A 
HETATM    5  C   UNK N   1      34.963  12.528  12.563  0.00  0.00     0.051 A 
HETATM    6  N   UNK N   1      34.985  13.270  10.173  0.00  0.00    -0.281 N 
HETATM    7  C   UNK N   1      35.538  14.317   9.571  0.00  0.00     0.112 A 
HETATM    8  C   UNK N   1      36.168  15.169  10.493  0.00  0.00     0.057 A 
HETATM    9  C   UNK N   1      34.399  12.516   9.236  0.00  0.00     0.188 A 
HETATM   10  N   UNK N   1      34.603  13.044   7.999  0.00  0.00    -0.288 N 
HETATM   11  C   UNK N   1      35.318  14.197   8.218  0.00  0.00     0.277 A 
HETATM   12  S   UNK N   1      33.674  11.304   9.516  0.00  0.00    -0.040 SA
HETATM   13  O   UNK N   1      35.702  14.959   7.347  0.00  0.00    -0.265 OA
ENDROOT
BRANCH   1  14
HETATM   14  C   UNK N   1      35.400  12.510  15.078  0.00  0.00    -0.017 A 
HETATM   15  C   UNK N   1      35.409  13.344  16.196  0.00  0.00     0.048 A 
HETATM   16  C   UNK N   1      35.276  12.813  17.482  0.00  0.00     0.103 A 
HETATM   17  C   UNK N   1      35.162  11.423  17.645  0.00  0.00     0.036 A 
HETATM   18  C   UNK N   1      35.169  10.580  16.529  0.00  0.00     0.003 A 
HETATM   19  C   UNK N   1      35.271  11.124  15.246  0.00  0.00     0.013 A 
BRANCH  16  20
HETATM   20  N   UNK N   1      35.220  13.688  18.600  0.00  0.00    -0.116 N 
HETATM   21  O   UNK N   1      35.293  14.870  18.444  0.00  0.00    -0.532 OA
HETATM   22  O   UNK N   1      35.151  13.199  19.819  0.00  0.00    -0.532 OA
ENDBRANCH  16  20
ENDBRANCH   1  14
BRANCH  10  23
HETATM   23  C   UNK N   1      34.197  12.468   6.723  0.00  0.00     0.136 C 
BRANCH  23  24
HETATM   24  C   UNK N   1      32.913  13.135   6.229  0.00  0.00     0.050 C 
BRANCH  24  25
HETATM   25  C   UNK N   1      33.157  14.206   5.151  0.00  0.00     0.274 C 
BRANCH  25  26
HETATM   26  N   UNK N   1      32.418  15.444   5.395  0.00  0.00     0.092 N 
HETATM   27  C   UNK N   1      31.505  15.699   4.276  0.00  0.00     0.298 C 
HETATM   28  C   UNK N   1      30.510  16.825   4.615  0.00  0.00     0.198 C 
HETATM   29  O   UNK N   1      30.767  17.368   5.887  0.00  0.00    -0.388 OA
HETATM   30  C   UNK N   1      30.566  16.323   6.804  0.00  0.00     0.198 C 
HETATM   31  C   UNK N   1      31.664  15.257   6.644  0.00  0.00     0.298 C 
ENDBRANCH  25  26
ENDBRANCH  24  25
ENDBRANCH  23  24
ENDBRANCH  10  23
TORSDOF 6
ENDMDL
