MODEL 1
REMARK VINA RESULT:      -7.9      0.000      0.000
REMARK  4 active torsions:
REMARK  status: ('A' for Active; 'I' for Inactive)
REMARK    1  A    between atoms: C_15  and  C_1 
REMARK    2  A    between atoms: C_9  and  C_11 
REMARK    3  A    between atoms: C_11  and  N_14 
REMARK    4  A    between atoms: C_16  and  C_17 
ROOT
HETATM    1  C   UNK N   1      26.974  24.540  -5.210  0.00  0.00    -0.052 A 
HETATM    2  C   UNK N   1      27.690  24.466  -4.005  0.00  0.00     0.019 A 
HETATM    3  C   UNK N   1      28.825  23.647  -3.912  0.00  0.00    -0.025 A 
HETATM    4  C   UNK N   1      29.233  22.879  -5.025  0.00  0.00    -0.025 A 
HETATM    5  C   UNK N   1      28.538  22.978  -6.229  0.00  0.00     0.013 A 
HETATM    6  C   UNK N   1      27.410  23.793  -6.314  0.00  0.00     0.008 A 
HETATM    7  C   UNK N   1      29.519  23.532  -2.704  0.00  0.00     0.013 A 
HETATM    8  C   UNK N   1      30.582  22.629  -2.591  0.00  0.00     0.016 A 
HETATM    9  C   UNK N   1      30.962  21.832  -3.682  0.00  0.00     0.008 A 
HETATM   10  C   UNK N   1      30.294  21.980  -4.907  0.00  0.00     0.027 A 
ENDROOT
BRANCH   1  11
HETATM   11  C   UNK N   1      25.602  25.148  -5.301  0.00  0.00     0.028 A 
HETATM   12  C   UNK N   1      25.306  26.620  -4.966  0.00  0.00     0.028 A 
HETATM   13  C   UNK N   1      25.302  26.085  -6.414  0.00  0.00     0.020 A 
BRANCH  12  14
HETATM   14  C   UNK N   1      26.118  27.882  -5.065  0.00  0.00    -0.053 A 
HETATM   15  C   UNK N   1      27.083  28.060  -6.063  0.00  0.00     0.007 A 
HETATM   16  C   UNK N   1      27.873  29.215  -6.079  0.00  0.00     0.001 A 
HETATM   17  C   UNK N   1      27.718  30.188  -5.084  0.00  0.00     0.000 A 
HETATM   18  C   UNK N   1      26.770  30.008  -4.075  0.00  0.00     0.001 A 
HETATM   19  C   UNK N   1      25.976  28.861  -4.065  0.00  0.00     0.007 A 
ENDBRANCH  12  14
ENDBRANCH   1  11
BRANCH   9  20
HETATM   20  C   UNK N   1      32.018  20.805  -3.528  0.00  0.00     0.102 C 
HETATM   21  N   UNK N   1      31.982  19.728  -4.225  0.00  0.00    -0.385 N 
HETATM   22  H   UNK N   1      32.743  19.104  -4.216  0.00  0.00     0.157 HD
ATOM     23  HN  UNK N   1      31.160  19.517  -4.791  1.00  0.00     0.157 HD
BRANCH  20  24
HETATM   24  N   UNK N   1      33.013  20.953  -2.534  0.00  0.00    -0.385 N 
HETATM   25  H   UNK N   1      33.080  21.775  -1.996  0.00  0.00     0.157 HD
HETATM   26  H   UNK N   1      33.652  20.221  -2.379  0.00  0.00     0.157 HD
ENDBRANCH  20  24
ENDBRANCH   9  20
TORSDOF 4
ENDMDL
MODEL 2
REMARK VINA RESULT:      -7.6      3.898      7.427
REMARK  4 active torsions:
REMARK  status: ('A' for Active; 'I' for Inactive)
REMARK    1  A    between atoms: C_15  and  C_1 
REMARK    2  A    between atoms: C_9  and  C_11 
REMARK    3  A    between atoms: C_11  and  N_14 
REMARK    4  A    between atoms: C_16  and  C_17 
ROOT
HETATM    1  C   UNK N   1      26.159  24.416  -6.763  0.00  0.00    -0.052 A 
HETATM    2  C   UNK N   1      26.647  25.681  -7.129  0.00  0.00     0.019 A 
HETATM    3  C   UNK N   1      26.767  26.693  -6.165  0.00  0.00    -0.025 A 
HETATM    4  C   UNK N   1      26.374  26.445  -4.831  0.00  0.00    -0.025 A 
HETATM    5  C   UNK N   1      25.919  25.180  -4.465  0.00  0.00     0.013 A 
HETATM    6  C   UNK N   1      25.800  24.179  -5.428  0.00  0.00     0.008 A 
HETATM    7  C   UNK N   1      27.210  27.968  -6.527  0.00  0.00     0.013 A 
HETATM    8  C   UNK N   1      27.220  29.000  -5.582  0.00  0.00     0.016 A 
HETATM    9  C   UNK N   1      26.788  28.769  -4.266  0.00  0.00     0.008 A 
HETATM   10  C   UNK N   1      26.386  27.477  -3.892  0.00  0.00     0.027 A 
ENDROOT
BRANCH   1  11
HETATM   11  C   UNK N   1      25.726  23.392  -7.774  0.00  0.00     0.028 A 
HETATM   12  C   UNK N   1      26.654  22.287  -8.310  0.00  0.00     0.028 A 
HETATM   13  C   UNK N   1      25.498  21.992  -7.330  0.00  0.00     0.020 A 
BRANCH  12  14
HETATM   14  C   UNK N   1      27.814  21.538  -7.712  0.00  0.00    -0.053 A 
HETATM   15  C   UNK N   1      28.656  22.123  -6.759  0.00  0.00     0.007 A 
HETATM   16  C   UNK N   1      29.770  21.423  -6.282  0.00  0.00     0.001 A 
HETATM   17  C   UNK N   1      30.060  20.144  -6.771  0.00  0.00     0.000 A 
HETATM   18  C   UNK N   1      29.234  19.562  -7.734  0.00  0.00     0.001 A 
HETATM   19  C   UNK N   1      28.119  20.256  -8.203  0.00  0.00     0.007 A 
ENDBRANCH  12  14
ENDBRANCH   1  11
BRANCH   9  20
HETATM   20  C   UNK N   1      26.703  29.886  -3.298  0.00  0.00     0.102 C 
HETATM   21  N   UNK N   1      26.048  30.949  -3.592  0.00  0.00    -0.385 N 
HETATM   22  H   UNK N   1      25.886  31.638  -2.907  0.00  0.00     0.157 HD
ATOM     23  HN  UNK N   1      25.695  31.083  -4.539  1.00  0.00     0.157 HD
BRANCH  20  24
HETATM   24  N   UNK N   1      27.432  29.834  -2.087  0.00  0.00    -0.385 N 
HETATM   25  H   UNK N   1      27.009  30.053  -1.225  0.00  0.00     0.157 HD
HETATM   26  H   UNK N   1      28.381  29.575  -2.107  0.00  0.00     0.157 HD
ENDBRANCH  20  24
ENDBRANCH   9  20
TORSDOF 4
ENDMDL
MODEL 3
REMARK VINA RESULT:      -7.6     24.881     28.793
REMARK  4 active torsions:
REMARK  status: ('A' for Active; 'I' for Inactive)
REMARK    1  A    between atoms: C_15  and  C_1 
REMARK    2  A    between atoms: C_9  and  C_11 
REMARK    3  A    between atoms: C_11  and  N_14 
REMARK    4  A    between atoms: C_16  and  C_17 
ROOT
HETATM    1  C   UNK N   1      34.959  10.546  19.991  0.00  0.00    -0.052 A 
HETATM    2  C   UNK N   1      34.950  11.910  19.659  0.00  0.00     0.019 A 
HETATM    3  C   UNK N   1      35.277  12.318  18.357  0.00  0.00    -0.025 A 
HETATM    4  C   UNK N   1      35.638  11.356  17.388  0.00  0.00    -0.025 A 
HETATM    5  C   UNK N   1      35.616  10.002  17.712  0.00  0.00     0.013 A 
HETATM    6  C   UNK N   1      35.292   9.603  19.008  0.00  0.00     0.008 A 
HETATM    7  C   UNK N   1      35.314  13.676  18.029  0.00  0.00     0.013 A 
HETATM    8  C   UNK N   1      35.750  14.078  16.760  0.00  0.00     0.016 A 
HETATM    9  C   UNK N   1      36.151  13.127  15.808  0.00  0.00     0.008 A 
HETATM   10  C   UNK N   1      36.071  11.762  16.124  0.00  0.00     0.027 A 
ENDROOT
BRANCH   1  11
HETATM   11  C   UNK N   1      34.914  10.058  21.412  0.00  0.00     0.028 A 
HETATM   12  C   UNK N   1      33.703   9.326  22.016  0.00  0.00     0.028 A 
HETATM   13  C   UNK N   1      35.023   8.600  21.676  0.00  0.00     0.020 A 
BRANCH  12  14
HETATM   14  C   UNK N   1      32.651   8.421  21.434  0.00  0.00    -0.053 A 
HETATM   15  C   UNK N   1      31.834   8.831  20.374  0.00  0.00     0.007 A 
HETATM   16  C   UNK N   1      30.814   7.991  19.909  0.00  0.00     0.001 A 
HETATM   17  C   UNK N   1      30.593   6.749  20.514  0.00  0.00     0.000 A 
HETATM   18  C   UNK N   1      31.393   6.343  21.584  0.00  0.00     0.001 A 
HETATM   19  C   UNK N   1      32.415   7.175  22.042  0.00  0.00     0.007 A 
ENDBRANCH  12  14
ENDBRANCH   1  11
BRANCH   9  20
HETATM   20  C   UNK N   1      36.708  13.559  14.506  0.00  0.00     0.102 C 
HETATM   21  N   UNK N   1      37.190  12.697  13.688  0.00  0.00    -0.385 N 
HETATM   22  H   UNK N   1      37.445  12.965  12.776  0.00  0.00     0.157 HD
ATOM     23  HN  UNK N   1      37.309  11.728  13.984  1.00  0.00     0.157 HD
BRANCH  20  24
HETATM   24  N   UNK N   1      36.813  14.936  14.201  0.00  0.00    -0.385 N 
HETATM   25  H   UNK N   1      37.610  15.302  13.752  0.00  0.00     0.157 HD
HETATM   26  H   UNK N   1      36.076  15.542  14.444  0.00  0.00     0.157 HD
ENDBRANCH  20  24
ENDBRANCH   9  20
TORSDOF 4
ENDMDL
MODEL 4
REMARK VINA RESULT:      -7.5     10.743     13.907
REMARK  4 active torsions:
REMARK  status: ('A' for Active; 'I' for Inactive)
REMARK    1  A    between atoms: C_15  and  C_1 
REMARK    2  A    between atoms: C_9  and  C_11 
REMARK    3  A    between atoms: C_11  and  N_14 
REMARK    4  A    between atoms: C_16  and  C_17 
ROOT
HETATM    1  C   UNK N   1      27.011  17.557   4.548  0.00  0.00    -0.052 A 
HETATM    2  C   UNK N   1      26.717  18.758   3.883  0.00  0.00     0.019 A 
HETATM    3  C   UNK N   1      25.385  19.169   3.730  0.00  0.00    -0.025 A 
HETATM    4  C   UNK N   1      24.337  18.361   4.226  0.00  0.00    -0.025 A 
HETATM    5  C   UNK N   1      24.633  17.185   4.912  0.00  0.00     0.013 A 
HETATM    6  C   UNK N   1      25.959  16.782   5.059  0.00  0.00     0.008 A 
HETATM    7  C   UNK N   1      25.080  20.341   3.032  0.00  0.00     0.013 A 
HETATM    8  C   UNK N   1      23.745  20.683   2.789  0.00  0.00     0.016 A 
HETATM    9  C   UNK N   1      22.702  19.860   3.242  0.00  0.00     0.008 A 
HETATM   10  C   UNK N   1      23.008  18.708   3.982  0.00  0.00     0.027 A 
ENDROOT
BRANCH   1  11
HETATM   11  C   UNK N   1      28.366  16.909   4.491  0.00  0.00     0.028 A 
HETATM   12  C   UNK N   1      29.484  17.198   5.508  0.00  0.00     0.028 A 
HETATM   13  C   UNK N   1      28.707  15.864   5.491  0.00  0.00     0.020 A 
BRANCH  12  14
HETATM   14  C   UNK N   1      29.479  17.582   6.963  0.00  0.00    -0.053 A 
HETATM   15  C   UNK N   1      28.341  18.117   7.579  0.00  0.00     0.007 A 
HETATM   16  C   UNK N   1      28.396  18.534   8.914  0.00  0.00     0.001 A 
HETATM   17  C   UNK N   1      29.593  18.439   9.633  0.00  0.00     0.000 A 
HETATM   18  C   UNK N   1      30.736  17.923   9.019  0.00  0.00     0.001 A 
HETATM   19  C   UNK N   1      30.679  17.499   7.691  0.00  0.00     0.007 A 
ENDBRANCH  12  14
ENDBRANCH   1  11
BRANCH   9  20
HETATM   20  C   UNK N   1      21.297  20.171   2.893  0.00  0.00     0.102 C 
HETATM   21  N   UNK N   1      20.978  21.337   2.463  0.00  0.00    -0.385 N 
HETATM   22  H   UNK N   1      20.073  21.508   2.115  0.00  0.00     0.157 HD
ATOM     23  HN  UNK N   1      21.665  22.090   2.482  1.00  0.00     0.157 HD
BRANCH  20  24
HETATM   24  N   UNK N   1      20.278  19.221   3.136  0.00  0.00    -0.385 N 
HETATM   25  H   UNK N   1      19.373  19.335   2.766  0.00  0.00     0.157 HD
HETATM   26  H   UNK N   1      20.478  18.430   3.686  0.00  0.00     0.157 HD
ENDBRANCH  20  24
ENDBRANCH   9  20
TORSDOF 4
ENDMDL
MODEL 5
REMARK VINA RESULT:      -7.4      0.888      1.791
REMARK  4 active torsions:
REMARK  status: ('A' for Active; 'I' for Inactive)
REMARK    1  A    between atoms: C_15  and  C_1 
REMARK    2  A    between atoms: C_9  and  C_11 
REMARK    3  A    between atoms: C_11  and  N_14 
REMARK    4  A    between atoms: C_16  and  C_17 
ROOT
HETATM    1  C   UNK N   1      26.274  24.620  -5.245  0.00  0.00    -0.052 A 
HETATM    2  C   UNK N   1      27.076  23.758  -6.010  0.00  0.00     0.019 A 
HETATM    3  C   UNK N   1      28.237  23.201  -5.453  0.00  0.00    -0.025 A 
HETATM    4  C   UNK N   1      28.611  23.528  -4.131  0.00  0.00    -0.025 A 
HETATM    5  C   UNK N   1      27.797  24.359  -3.364  0.00  0.00     0.013 A 
HETATM    6  C   UNK N   1      26.645  24.911  -3.924  0.00  0.00     0.008 A 
HETATM    7  C   UNK N   1      29.065  22.377  -6.220  0.00  0.00     0.013 A 
HETATM    8  C   UNK N   1      30.278  21.917  -5.692  0.00  0.00     0.016 A 
HETATM    9  C   UNK N   1      30.674  22.276  -4.394  0.00  0.00     0.008 A 
HETATM   10  C   UNK N   1      29.820  23.067  -3.609  0.00  0.00     0.027 A 
ENDROOT
BRANCH   1  11
HETATM   11  C   UNK N   1      25.198  25.477  -5.852  0.00  0.00     0.028 A 
HETATM   12  C   UNK N   1      25.034  26.975  -5.538  0.00  0.00     0.028 A 
HETATM   13  C   UNK N   1      25.570  26.468  -6.895  0.00  0.00     0.020 A 
BRANCH  12  14
HETATM   14  C   UNK N   1      26.006  28.062  -5.167  0.00  0.00    -0.053 A 
HETATM   15  C   UNK N   1      27.064  28.422  -6.010  0.00  0.00     0.007 A 
HETATM   16  C   UNK N   1      27.993  29.384  -5.597  0.00  0.00     0.001 A 
HETATM   17  C   UNK N   1      27.883  29.974  -4.333  0.00  0.00     0.000 A 
HETATM   18  C   UNK N   1      26.840  29.606  -3.481  0.00  0.00     0.001 A 
HETATM   19  C   UNK N   1      25.909  28.653  -3.895  0.00  0.00     0.007 A 
ENDBRANCH  12  14
ENDBRANCH   1  11
BRANCH   9  20
HETATM   20  C   UNK N   1      32.002  21.874  -3.878  0.00  0.00     0.102 C 
HETATM   21  N   UNK N   1      32.097  21.167  -2.812  0.00  0.00    -0.385 N 
HETATM   22  H   UNK N   1      32.966  20.796  -2.537  0.00  0.00     0.157 HD
ATOM     23  HN  UNK N   1      31.268  20.989  -2.246  1.00  0.00     0.157 HD
BRANCH  20  24
HETATM   24  N   UNK N   1      33.179  22.358  -4.494  0.00  0.00    -0.385 N 
HETATM   25  H   UNK N   1      33.669  23.130  -4.127  0.00  0.00     0.157 HD
HETATM   26  H   UNK N   1      33.514  21.917  -5.307  0.00  0.00     0.157 HD
ENDBRANCH  20  24
ENDBRANCH   9  20
TORSDOF 4
ENDMDL
MODEL 6
REMARK VINA RESULT:      -7.4     11.108     13.368
REMARK  4 active torsions:
REMARK  status: ('A' for Active; 'I' for Inactive)
REMARK    1  A    between atoms: C_15  and  C_1 
REMARK    2  A    between atoms: C_9  and  C_11 
REMARK    3  A    between atoms: C_11  and  N_14 
REMARK    4  A    between atoms: C_16  and  C_17 
ROOT
HETATM    1  C   UNK N   1      28.074  18.919   5.293  0.00  0.00    -0.052 A 
HETATM    2  C   UNK N   1      29.048  17.949   5.010  0.00  0.00     0.019 A 
HETATM    3  C   UNK N   1      29.783  17.366   6.054  0.00  0.00    -0.025 A 
HETATM    4  C   UNK N   1      29.556  17.774   7.387  0.00  0.00    -0.025 A 
HETATM    5  C   UNK N   1      28.568  18.715   7.667  0.00  0.00     0.013 A 
HETATM    6  C   UNK N   1      27.843  19.291   6.625  0.00  0.00     0.008 A 
HETATM    7  C   UNK N   1      30.785  16.431   5.779  0.00  0.00     0.013 A 
HETATM    8  C   UNK N   1      31.586  15.940   6.817  0.00  0.00     0.016 A 
HETATM    9  C   UNK N   1      31.394  16.376   8.137  0.00  0.00     0.008 A 
HETATM   10  C   UNK N   1      30.358  17.281   8.418  0.00  0.00     0.027 A 
ENDROOT
BRANCH   1  11
HETATM   11  C   UNK N   1      27.467  19.791   4.230  0.00  0.00     0.028 A 
HETATM   12  C   UNK N   1      26.104  19.502   3.576  0.00  0.00     0.028 A 
HETATM   13  C   UNK N   1      26.310  20.655   4.581  0.00  0.00     0.020 A 
BRANCH  12  14
HETATM   14  C   UNK N   1      24.847  18.836   4.066  0.00  0.00    -0.053 A 
HETATM   15  C   UNK N   1      24.884  17.649   4.807  0.00  0.00     0.007 A 
HETATM   16  C   UNK N   1      23.692  17.017   5.181  0.00  0.00     0.001 A 
HETATM   17  C   UNK N   1      22.459  17.556   4.796  0.00  0.00     0.000 A 
HETATM   18  C   UNK N   1      22.416  18.730   4.041  0.00  0.00     0.001 A 
HETATM   19  C   UNK N   1      23.603  19.364   3.677  0.00  0.00     0.007 A 
ENDBRANCH  12  14
ENDBRANCH   1  11
BRANCH   9  20
HETATM   20  C   UNK N   1      32.310  15.934   9.213  0.00  0.00     0.102 C 
HETATM   21  N   UNK N   1      31.950  15.016  10.034  0.00  0.00    -0.385 N 
HETATM   22  H   UNK N   1      32.599  14.635  10.669  0.00  0.00     0.157 HD
ATOM     23  HN  UNK N   1      30.987  14.680  10.030  1.00  0.00     0.157 HD
BRANCH  20  24
HETATM   24  N   UNK N   1      33.544  16.595   9.411  0.00  0.00    -0.385 N 
HETATM   25  H   UNK N   1      34.390  16.208   9.087  0.00  0.00     0.157 HD
HETATM   26  H   UNK N   1      33.558  17.458   9.883  0.00  0.00     0.157 HD
ENDBRANCH  20  24
ENDBRANCH   9  20
TORSDOF 4
ENDMDL
MODEL 7
REMARK VINA RESULT:      -7.3     15.300     16.833
REMARK  4 active torsions:
REMARK  status: ('A' for Active; 'I' for Inactive)
REMARK    1  A    between atoms: C_15  and  C_1 
REMARK    2  A    between atoms: C_9  and  C_11 
REMARK    3  A    between atoms: C_11  and  N_14 
REMARK    4  A    between atoms: C_16  and  C_17 
ROOT
HETATM    1  C   UNK N   1      21.746  16.747   6.558  0.00  0.00    -0.052 A 
HETATM    2  C   UNK N   1      22.491  15.563   6.671  0.00  0.00     0.019 A 
HETATM    3  C   UNK N   1      22.216  14.657   7.706  0.00  0.00    -0.025 A 
HETATM    4  C   UNK N   1      21.205  14.949   8.648  0.00  0.00    -0.025 A 
HETATM    5  C   UNK N   1      20.447  16.111   8.515  0.00  0.00     0.013 A 
HETATM    6  C   UNK N   1      20.726  17.008   7.485  0.00  0.00     0.008 A 
HETATM    7  C   UNK N   1      22.981  13.497   7.854  0.00  0.00     0.013 A 
HETATM    8  C   UNK N   1      22.773  12.656   8.954  0.00  0.00     0.016 A 
HETATM    9  C   UNK N   1      21.798  12.966   9.915  0.00  0.00     0.008 A 
HETATM   10  C   UNK N   1      21.001  14.108   9.743  0.00  0.00     0.027 A 
ENDROOT
BRANCH   1  11
HETATM   11  C   UNK N   1      22.167  17.889   5.675  0.00  0.00     0.028 A 
HETATM   12  C   UNK N   1      22.205  17.801   4.140  0.00  0.00     0.028 A 
HETATM   13  C   UNK N   1      21.133  18.617   4.895  0.00  0.00     0.020 A 
BRANCH  12  14
HETATM   14  C   UNK N   1      21.401  17.023   3.133  0.00  0.00    -0.053 A 
HETATM   15  C   UNK N   1      21.442  15.625   3.080  0.00  0.00     0.007 A 
HETATM   16  C   UNK N   1      20.741  14.939   2.081  0.00  0.00     0.001 A 
HETATM   17  C   UNK N   1      20.015  15.648   1.118  0.00  0.00     0.000 A 
HETATM   18  C   UNK N   1      19.984  17.043   1.154  0.00  0.00     0.001 A 
HETATM   19  C   UNK N   1      20.675  17.727   2.155  0.00  0.00     0.007 A 
ENDBRANCH  12  14
ENDBRANCH   1  11
BRANCH   9  20
HETATM   20  C   UNK N   1      21.652  12.131  11.129  0.00  0.00     0.102 C 
HETATM   21  N   UNK N   1      22.653  11.475  11.590  0.00  0.00    -0.385 N 
HETATM   22  H   UNK N   1      22.592  11.021  12.461  0.00  0.00     0.157 HD
ATOM     23  HN  UNK N   1      23.517  11.422  11.050  1.00  0.00     0.157 HD
BRANCH  20  24
HETATM   24  N   UNK N   1      20.381  11.964  11.727  0.00  0.00    -0.385 N 
HETATM   25  H   UNK N   1      20.151  12.412  12.574  0.00  0.00     0.157 HD
HETATM   26  H   UNK N   1      19.714  11.388  11.290  0.00  0.00     0.157 HD
ENDBRANCH  20  24
ENDBRANCH   9  20
TORSDOF 4
ENDMDL
MODEL 8
REMARK VINA RESULT:      -7.2      3.734      7.074
REMARK  4 active torsions:
REMARK  status: ('A' for Active; 'I' for Inactive)
REMARK    1  A    between atoms: C_15  and  C_1 
REMARK    2  A    between atoms: C_9  and  C_11 
REMARK    3  A    between atoms: C_11  and  N_14 
REMARK    4  A    between atoms: C_16  and  C_17 
ROOT
HETATM    1  C   UNK N   1      26.282  25.022  -7.810  0.00  0.00    -0.052 A 
HETATM    2  C   UNK N   1      25.569  25.452  -6.679  0.00  0.00     0.019 A 
HETATM    3  C   UNK N   1      25.866  26.689  -6.090  0.00  0.00    -0.025 A 
HETATM    4  C   UNK N   1      26.900  27.492  -6.620  0.00  0.00    -0.025 A 
HETATM    5  C   UNK N   1      27.586  27.077  -7.759  0.00  0.00     0.013 A 
HETATM    6  C   UNK N   1      27.286  25.845  -8.340  0.00  0.00     0.008 A 
HETATM    7  C   UNK N   1      25.191  27.106  -4.939  0.00  0.00     0.013 A 
HETATM    8  C   UNK N   1      25.571  28.289  -4.294  0.00  0.00     0.016 A 
HETATM    9  C   UNK N   1      26.627  29.067  -4.793  0.00  0.00     0.008 A 
HETATM   10  C   UNK N   1      27.275  28.671  -5.974  0.00  0.00     0.027 A 
ENDROOT
BRANCH   1  11
HETATM   11  C   UNK N   1      26.231  23.606  -8.311  0.00  0.00     0.028 A 
HETATM   12  C   UNK N   1      27.355  22.583  -8.068  0.00  0.00     0.028 A 
HETATM   13  C   UNK N   1      25.996  22.506  -7.340  0.00  0.00     0.020 A 
BRANCH  12  14
HETATM   14  C   UNK N   1      28.354  22.394  -6.959  0.00  0.00    -0.053 A 
HETATM   15  C   UNK N   1      29.226  21.300  -6.934  0.00  0.00     0.007 A 
HETATM   16  C   UNK N   1      30.089  21.115  -5.847  0.00  0.00     0.001 A 
HETATM   17  C   UNK N   1      30.068  22.010  -4.771  0.00  0.00     0.000 A 
HETATM   18  C   UNK N   1      29.187  23.093  -4.782  0.00  0.00     0.001 A 
HETATM   19  C   UNK N   1      28.334  23.282  -5.869  0.00  0.00     0.007 A 
ENDBRANCH  12  14
ENDBRANCH   1  11
BRANCH   9  20
HETATM   20  C   UNK N   1      27.094  30.261  -4.052  0.00  0.00     0.102 C 
HETATM   21  N   UNK N   1      28.346  30.527  -3.973  0.00  0.00    -0.385 N 
HETATM   22  H   UNK N   1      28.650  31.382  -3.589  0.00  0.00     0.157 HD
ATOM     23  HN  UNK N   1      29.031  29.851  -4.309  1.00  0.00     0.157 HD
BRANCH  20  24
HETATM   24  N   UNK N   1      26.171  31.055  -3.333  0.00  0.00    -0.385 N 
HETATM   25  H   UNK N   1      26.434  31.922  -2.945  0.00  0.00     0.157 HD
HETATM   26  H   UNK N   1      25.248  30.736  -3.216  0.00  0.00     0.157 HD
ENDBRANCH  20  24
ENDBRANCH   9  20
TORSDOF 4
ENDMDL
MODEL 9
REMARK VINA RESULT:      -7.2     24.219     28.313
REMARK  4 active torsions:
REMARK  status: ('A' for Active; 'I' for Inactive)
REMARK    1  A    between atoms: C_15  and  C_1 
REMARK    2  A    between atoms: C_9  and  C_11 
REMARK    3  A    between atoms: C_11  and  N_14 
REMARK    4  A    between atoms: C_16  and  C_17 
ROOT
HETATM    1  C   UNK N   1      35.705   8.570  17.715  0.00  0.00    -0.052 A 
HETATM    2  C   UNK N   1      35.377   9.850  18.188  0.00  0.00     0.019 A 
HETATM    3  C   UNK N   1      35.610  10.977  17.385  0.00  0.00    -0.025 A 
HETATM    4  C   UNK N   1      36.197  10.823  16.109  0.00  0.00    -0.025 A 
HETATM    5  C   UNK N   1      36.493   9.549  15.630  0.00  0.00     0.013 A 
HETATM    6  C   UNK N   1      36.261   8.434  16.434  0.00  0.00     0.008 A 
HETATM    7  C   UNK N   1      35.327  12.259  17.864  0.00  0.00     0.013 A 
HETATM    8  C   UNK N   1      35.667  13.382  17.101  0.00  0.00     0.016 A 
HETATM    9  C   UNK N   1      36.291  13.235  15.852  0.00  0.00     0.008 A 
HETATM   10  C   UNK N   1      36.533  11.946  15.352  0.00  0.00     0.027 A 
ENDROOT
BRANCH   1  11
HETATM   11  C   UNK N   1      35.764   7.365  18.611  0.00  0.00     0.028 A 
HETATM   12  C   UNK N   1      34.703   7.055  19.682  0.00  0.00     0.028 A 
HETATM   13  C   UNK N   1      34.820   6.243  18.374  0.00  0.00     0.020 A 
BRANCH  12  14
HETATM   14  C   UNK N   1      33.228   7.338  19.782  0.00  0.00    -0.053 A 
HETATM   15  C   UNK N   1      32.734   8.645  19.859  0.00  0.00     0.007 A 
HETATM   16  C   UNK N   1      31.362   8.868  20.029  0.00  0.00     0.001 A 
HETATM   17  C   UNK N   1      30.482   7.786  20.145  0.00  0.00     0.000 A 
HETATM   18  C   UNK N   1      30.972   6.480  20.087  0.00  0.00     0.001 A 
HETATM   19  C   UNK N   1      32.337   6.258  19.909  0.00  0.00     0.007 A 
ENDBRANCH  12  14
ENDBRANCH   1  11
BRANCH   9  20
HETATM   20  C   UNK N   1      36.741  14.425  15.095  0.00  0.00     0.102 C 
HETATM   21  N   UNK N   1      36.660  14.449  13.815  0.00  0.00    -0.385 N 
HETATM   22  H   UNK N   1      36.842  15.280  13.320  0.00  0.00     0.157 HD
ATOM     23  HN  UNK N   1      36.407  13.602  13.307  1.00  0.00     0.157 HD
BRANCH  20  24
HETATM   24  N   UNK N   1      37.365  15.501  15.769  0.00  0.00    -0.385 N 
HETATM   25  H   UNK N   1      37.806  15.373  16.640  0.00  0.00     0.157 HD
HETATM   26  H   UNK N   1      37.358  16.395  15.359  0.00  0.00     0.157 HD
ENDBRANCH  20  24
ENDBRANCH   9  20
TORSDOF 4
ENDMDL
