MODEL 1
REMARK VINA RESULT:      -7.2      0.000      0.000
REMARK  7 active torsions:
REMARK  status: ('A' for Active; 'I' for Inactive)
REMARK    1  A    between atoms: C_1  and  C_7 
REMARK    2  A    between atoms: C_7  and  N_8 
REMARK    3  A    between atoms: C_7  and  N_9 
REMARK    4  A    between atoms: C_13  and  C_14 
REMARK    5  A    between atoms: C_16  and  O_17 
REMARK    6  A    between atoms: O_17  and  C_18 
REMARK    7  A    between atoms: C_24  and  O_25 
ROOT
HETATM    1  C   UNK N   1      23.644  19.737   3.509  0.00  0.00     0.009 A 
HETATM    2  C   UNK N   1      24.547  20.513   2.737  0.00  0.00     0.017 A 
HETATM    3  C   UNK N   1      25.925  20.503   3.017  0.00  0.00     0.033 A 
HETATM    4  C   UNK N   1      26.356  19.709   4.073  0.00  0.00     0.060 A 
HETATM    5  C   UNK N   1      25.500  18.962   4.818  0.00  0.00     0.061 A 
HETATM    6  C   UNK N   1      24.133  18.942   4.574  0.00  0.00     0.047 A 
HETATM    7  N   UNK N   1      27.605  19.550   4.519  0.00  0.00    -0.340 N 
HETATM    8  N   UNK N   1      26.187  18.303   5.767  0.00  0.00    -0.340 N 
ATOM      9  HN  UNK N   1      25.825  17.666   6.477  1.00  0.00     0.167 HD
HETATM   10  C   UNK N   1      27.473  18.684   5.559  0.00  0.00     0.119 A 
HETATM   11  H   UNK N   1      28.429  19.964   4.175  0.00  0.00     0.167 HD
ENDROOT
BRANCH  10  12
HETATM   12  C   UNK N   1      28.629  18.227   6.356  0.00  0.00     0.044 A 
HETATM   13  C   UNK N   1      29.700  17.651   5.671  0.00  0.00     0.055 A 
HETATM   14  C   UNK N   1      30.827  17.172   6.349  0.00  0.00     0.079 A 
HETATM   15  C   UNK N   1      30.886  17.291   7.740  0.00  0.00     0.040 A 
HETATM   16  C   UNK N   1      29.823  17.870   8.442  0.00  0.00     0.040 A 
HETATM   17  C   UNK N   1      28.690  18.330   7.762  0.00  0.00     0.079 A 
BRANCH  14  18
HETATM   18  O   UNK N   1      31.838  16.556   5.684  0.00  0.00    -0.255 OA
BRANCH  18  19
HETATM   19  C   UNK N   1      32.935  17.211   5.149  0.00  0.00     0.530 C 
HETATM   20  F   UNK N   1      33.802  16.298   4.574  0.00  0.00    -0.144 F 
HETATM   21  F   UNK N   1      32.506  18.096   4.181  0.00  0.00    -0.144 F 
HETATM   22  F   UNK N   1      33.600  17.924   6.134  0.00  0.00    -0.144 F 
ENDBRANCH  18  19
ENDBRANCH  14  18
BRANCH  17  23
HETATM   23  O   UNK N   1      27.674  18.864   8.463  0.00  0.00    -0.360 OA
ATOM     24  HO  UNK N   1      27.331  18.431   9.236  1.00  0.00     0.217 HD
ENDBRANCH  17  23
ENDBRANCH  10  12
BRANCH   1  25
HETATM   25  C   UNK N   1      22.199  19.769   3.199  0.00  0.00     0.102 C 
BRANCH  25  26
HETATM   26  N   UNK N   1      21.730  20.483   2.072  0.00  0.00    -0.385 N 
HETATM   27  H   UNK N   1      20.874  20.966   2.118  0.00  0.00     0.157 HD
HETATM   28  H   UNK N   1      22.261  20.497   1.243  0.00  0.00     0.157 HD
ENDBRANCH  25  26
BRANCH  25  29
HETATM   29  N   UNK N   1      21.360  19.158   3.952  0.00  0.00    -0.385 N 
HETATM   30  H   UNK N   1      21.195  18.196   3.825  0.00  0.00     0.157 HD
HETATM   31  H   UNK N   1      20.881  19.651   4.657  0.00  0.00     0.157 HD
ENDBRANCH  25  29
ENDBRANCH   1  25
TORSDOF 7
ENDMDL
MODEL 2
REMARK VINA RESULT:      -6.9     11.417     13.810
REMARK  7 active torsions:
REMARK  status: ('A' for Active; 'I' for Inactive)
REMARK    1  A    between atoms: C_1  and  C_7 
REMARK    2  A    between atoms: C_7  and  N_8 
REMARK    3  A    between atoms: C_7  and  N_9 
REMARK    4  A    between atoms: C_13  and  C_14 
REMARK    5  A    between atoms: C_16  and  O_17 
REMARK    6  A    between atoms: O_17  and  C_18 
REMARK    7  A    between atoms: C_24  and  O_25 
ROOT
HETATM    1  C   UNK N   1      30.899  21.282  -4.446  0.00  0.00     0.009 A 
HETATM    2  C   UNK N   1      30.989  21.722  -3.100  0.00  0.00     0.017 A 
HETATM    3  C   UNK N   1      30.181  22.772  -2.631  0.00  0.00     0.033 A 
HETATM    4  C   UNK N   1      29.302  23.354  -3.537  0.00  0.00     0.060 A 
HETATM    5  C   UNK N   1      29.208  22.941  -4.827  0.00  0.00     0.061 A 
HETATM    6  C   UNK N   1      29.986  21.906  -5.330  0.00  0.00     0.047 A 
HETATM    7  N   UNK N   1      28.451  24.360  -3.317  0.00  0.00    -0.340 N 
HETATM    8  N   UNK N   1      28.287  23.679  -5.470  0.00  0.00    -0.340 N 
ATOM      9  HN  UNK N   1      27.992  23.608  -6.444  1.00  0.00     0.167 HD
HETATM   10  C   UNK N   1      27.841  24.541  -4.519  0.00  0.00     0.119 A 
HETATM   11  H   UNK N   1      28.300  24.855  -2.480  0.00  0.00     0.167 HD
ENDROOT
BRANCH  10  12
HETATM   12  C   UNK N   1      26.808  25.573  -4.732  0.00  0.00     0.044 A 
HETATM   13  C   UNK N   1      26.872  26.725  -3.946  0.00  0.00     0.055 A 
HETATM   14  C   UNK N   1      25.921  27.744  -4.067  0.00  0.00     0.079 A 
HETATM   15  C   UNK N   1      24.898  27.613  -5.010  0.00  0.00     0.040 A 
HETATM   16  C   UNK N   1      24.822  26.468  -5.810  0.00  0.00     0.040 A 
HETATM   17  C   UNK N   1      25.763  25.441  -5.671  0.00  0.00     0.079 A 
BRANCH  14  18
HETATM   18  O   UNK N   1      25.952  28.833  -3.257  0.00  0.00    -0.255 OA
BRANCH  18  19
HETATM   19  C   UNK N   1      26.772  29.932  -3.453  0.00  0.00     0.530 C 
HETATM   20  F   UNK N   1      27.038  30.093  -4.802  0.00  0.00    -0.144 F 
HETATM   21  F   UNK N   1      26.136  31.062  -2.982  0.00  0.00    -0.144 F 
HETATM   22  F   UNK N   1      27.963  29.776  -2.762  0.00  0.00    -0.144 F 
ENDBRANCH  18  19
ENDBRANCH  14  18
BRANCH  17  23
HETATM   23  O   UNK N   1      25.655  24.343  -6.438  0.00  0.00    -0.360 OA
ATOM     24  HO  UNK N   1      25.232  24.377  -7.288  1.00  0.00     0.217 HD
ENDBRANCH  17  23
ENDBRANCH  10  12
BRANCH   1  25
HETATM   25  C   UNK N   1      31.764  20.180  -4.917  0.00  0.00     0.102 C 
BRANCH  25  26
HETATM   26  N   UNK N   1      31.896  19.923  -6.301  0.00  0.00    -0.385 N 
HETATM   27  H   UNK N   1      31.694  19.028  -6.657  0.00  0.00     0.157 HD
HETATM   28  H   UNK N   1      32.191  20.640  -6.909  0.00  0.00     0.157 HD
ENDBRANCH  25  26
BRANCH  25  29
HETATM   29  N   UNK N   1      32.393  19.444  -4.077  0.00  0.00    -0.385 N 
HETATM   30  H   UNK N   1      32.039  19.324  -3.166  0.00  0.00     0.157 HD
HETATM   31  H   UNK N   1      33.230  18.998  -4.341  0.00  0.00     0.157 HD
ENDBRANCH  25  29
ENDBRANCH   1  25
TORSDOF 7
ENDMDL
MODEL 3
REMARK VINA RESULT:      -6.8      6.200      9.079
REMARK  7 active torsions:
REMARK  status: ('A' for Active; 'I' for Inactive)
REMARK    1  A    between atoms: C_1  and  C_7 
REMARK    2  A    between atoms: C_7  and  N_8 
REMARK    3  A    between atoms: C_7  and  N_9 
REMARK    4  A    between atoms: C_13  and  C_14 
REMARK    5  A    between atoms: C_16  and  O_17 
REMARK    6  A    between atoms: O_17  and  C_18 
REMARK    7  A    between atoms: C_24  and  O_25 
ROOT
HETATM    1  C   UNK N   1      22.056  13.644   9.448  0.00  0.00     0.009 A 
HETATM    2  C   UNK N   1      20.763  14.077   9.843  0.00  0.00     0.017 A 
HETATM    3  C   UNK N   1      20.050  15.011   9.072  0.00  0.00     0.033 A 
HETATM    4  C   UNK N   1      20.663  15.488   7.920  0.00  0.00     0.060 A 
HETATM    5  C   UNK N   1      21.900  15.082   7.532  0.00  0.00     0.061 A 
HETATM    6  C   UNK N   1      22.637  14.159   8.264  0.00  0.00     0.047 A 
HETATM    7  N   UNK N   1      20.181  16.376   7.046  0.00  0.00    -0.340 N 
HETATM    8  N   UNK N   1      22.242  15.705   6.392  0.00  0.00    -0.340 N 
ATOM      9  HN  UNK N   1      23.105  15.609   5.857  1.00  0.00     0.167 HD
HETATM   10  C   UNK N   1      21.169  16.492   6.119  0.00  0.00     0.119 A 
HETATM   11  H   UNK N   1      19.312  16.838   7.068  0.00  0.00     0.167 HD
ENDROOT
BRANCH  10  12
HETATM   12  C   UNK N   1      21.054  17.389   4.952  0.00  0.00     0.044 A 
HETATM   13  C   UNK N   1      22.071  18.324   4.751  0.00  0.00     0.055 A 
HETATM   14  C   UNK N   1      22.031  19.226   3.683  0.00  0.00     0.079 A 
HETATM   15  C   UNK N   1      20.959  19.175   2.788  0.00  0.00     0.040 A 
HETATM   16  C   UNK N   1      19.933  18.242   2.971  0.00  0.00     0.040 A 
HETATM   17  C   UNK N   1      19.967  17.354   4.053  0.00  0.00     0.079 A 
BRANCH  14  18
HETATM   18  O   UNK N   1      22.991  20.174   3.528  0.00  0.00    -0.255 OA
BRANCH  18  19
HETATM   19  C   UNK N   1      24.340  19.903   3.376  0.00  0.00     0.530 C 
HETATM   20  F   UNK N   1      24.544  18.539   3.270  0.00  0.00    -0.144 F 
HETATM   21  F   UNK N   1      24.799  20.516   2.227  0.00  0.00    -0.144 F 
HETATM   22  F   UNK N   1      25.057  20.397   4.454  0.00  0.00    -0.144 F 
ENDBRANCH  18  19
ENDBRANCH  14  18
BRANCH  17  23
HETATM   23  O   UNK N   1      18.958  16.481   4.218  0.00  0.00    -0.360 OA
ATOM     24  HO  UNK N   1      19.124  15.549   4.292  1.00  0.00     0.217 HD
ENDBRANCH  17  23
ENDBRANCH  10  12
BRANCH   1  25
HETATM   25  C   UNK N   1      22.789  12.666  10.278  0.00  0.00     0.102 C 
BRANCH  25  26
HETATM   26  N   UNK N   1      24.165  12.851  10.545  0.00  0.00    -0.385 N 
HETATM   27  H   UNK N   1      24.520  12.669  11.445  0.00  0.00     0.157 HD
HETATM   28  H   UNK N   1      24.767  13.160   9.830  0.00  0.00     0.157 HD
ENDBRANCH  25  26
BRANCH  25  29
HETATM   29  N   UNK N   1      22.186  11.640  10.756  0.00  0.00    -0.385 N 
HETATM   30  H   UNK N   1      21.226  11.509  10.583  0.00  0.00     0.157 HD
HETATM   31  H   UNK N   1      22.683  10.984  11.296  0.00  0.00     0.157 HD
ENDBRANCH  25  29
ENDBRANCH   1  25
TORSDOF 7
ENDMDL
MODEL 4
REMARK VINA RESULT:      -6.8      4.582      8.272
REMARK  7 active torsions:
REMARK  status: ('A' for Active; 'I' for Inactive)
REMARK    1  A    between atoms: C_1  and  C_7 
REMARK    2  A    between atoms: C_7  and  N_8 
REMARK    3  A    between atoms: C_7  and  N_9 
REMARK    4  A    between atoms: C_13  and  C_14 
REMARK    5  A    between atoms: C_16  and  O_17 
REMARK    6  A    between atoms: O_17  and  C_18 
REMARK    7  A    between atoms: C_24  and  O_25 
ROOT
HETATM    1  C   UNK N   1      33.060  17.547   7.212  0.00  0.00     0.009 A 
HETATM    2  C   UNK N   1      33.673  17.578   5.932  0.00  0.00     0.017 A 
HETATM    3  C   UNK N   1      32.903  17.459   4.762  0.00  0.00     0.033 A 
HETATM    4  C   UNK N   1      31.530  17.308   4.915  0.00  0.00     0.060 A 
HETATM    5  C   UNK N   1      30.933  17.277   6.135  0.00  0.00     0.061 A 
HETATM    6  C   UNK N   1      31.656  17.394   7.315  0.00  0.00     0.047 A 
HETATM    7  N   UNK N   1      30.611  17.173   3.955  0.00  0.00    -0.340 N 
HETATM    8  N   UNK N   1      29.606  17.119   5.983  0.00  0.00    -0.340 N 
ATOM      9  HN  UNK N   1      28.893  17.059   6.710  1.00  0.00     0.167 HD
HETATM   10  C   UNK N   1      29.440  17.057   4.636  0.00  0.00     0.119 A 
HETATM   11  H   UNK N   1      30.749  17.160   2.981  0.00  0.00     0.167 HD
ENDROOT
BRANCH  10  12
HETATM   12  C   UNK N   1      28.143  16.885   3.952  0.00  0.00     0.044 A 
HETATM   13  C   UNK N   1      27.132  17.803   4.241  0.00  0.00     0.055 A 
HETATM   14  C   UNK N   1      25.866  17.701   3.654  0.00  0.00     0.079 A 
HETATM   15  C   UNK N   1      25.617  16.669   2.745  0.00  0.00     0.040 A 
HETATM   16  C   UNK N   1      26.621  15.743   2.441  0.00  0.00     0.040 A 
HETATM   17  C   UNK N   1      27.880  15.837   3.046  0.00  0.00     0.079 A 
BRANCH  14  18
HETATM   18  O   UNK N   1      24.867  18.559   3.985  0.00  0.00    -0.255 OA
BRANCH  18  19
HETATM   19  C   UNK N   1      24.795  19.876   3.562  0.00  0.00     0.530 C 
HETATM   20  F   UNK N   1      23.474  20.245   3.376  0.00  0.00    -0.144 F 
HETATM   21  F   UNK N   1      25.359  20.692   4.521  0.00  0.00    -0.144 F 
HETATM   22  F   UNK N   1      25.493  20.042   2.376  0.00  0.00    -0.144 F 
ENDBRANCH  18  19
ENDBRANCH  14  18
BRANCH  17  23
HETATM   23  O   UNK N   1      28.819  14.921   2.751  0.00  0.00    -0.360 OA
ATOM     24  HO  UNK N   1      29.439  15.064   2.045  1.00  0.00     0.217 HD
ENDBRANCH  17  23
ENDBRANCH  10  12
BRANCH   1  25
HETATM   25  C   UNK N   1      33.892  17.667   8.427  0.00  0.00     0.102 C 
BRANCH  25  26
HETATM   26  N   UNK N   1      34.869  18.686   8.521  0.00  0.00    -0.385 N 
HETATM   27  H   UNK N   1      35.678  18.644   7.963  0.00  0.00     0.157 HD
HETATM   28  H   UNK N   1      34.738  19.437   9.144  0.00  0.00     0.157 HD
ENDBRANCH  25  26
BRANCH  25  29
HETATM   29  N   UNK N   1      33.742  16.847   9.401  0.00  0.00    -0.385 N 
HETATM   30  H   UNK N   1      32.856  16.460   9.585  0.00  0.00     0.157 HD
HETATM   31  H   UNK N   1      34.512  16.604   9.964  0.00  0.00     0.157 HD
ENDBRANCH  25  29
ENDBRANCH   1  25
TORSDOF 7
ENDMDL
MODEL 5
REMARK VINA RESULT:      -6.7      6.325     10.369
REMARK  7 active torsions:
REMARK  status: ('A' for Active; 'I' for Inactive)
REMARK    1  A    between atoms: C_1  and  C_7 
REMARK    2  A    between atoms: C_7  and  N_8 
REMARK    3  A    between atoms: C_7  and  N_9 
REMARK    4  A    between atoms: C_13  and  C_14 
REMARK    5  A    between atoms: C_16  and  O_17 
REMARK    6  A    between atoms: O_17  and  C_18 
REMARK    7  A    between atoms: C_24  and  O_25 
ROOT
HETATM    1  C   UNK N   1      35.702  13.828  12.089  0.00  0.00     0.009 A 
HETATM    2  C   UNK N   1      35.576  12.630  11.339  0.00  0.00     0.017 A 
HETATM    3  C   UNK N   1      34.784  12.588  10.178  0.00  0.00     0.033 A 
HETATM    4  C   UNK N   1      34.137  13.760   9.804  0.00  0.00     0.060 A 
HETATM    5  C   UNK N   1      34.251  14.912  10.513  0.00  0.00     0.061 A 
HETATM    6  C   UNK N   1      35.025  14.997  11.664  0.00  0.00     0.047 A 
HETATM    7  N   UNK N   1      33.338  13.951   8.751  0.00  0.00    -0.340 N 
HETATM    8  N   UNK N   1      33.520  15.876   9.928  0.00  0.00    -0.340 N 
ATOM      9  HN  UNK N   1      33.406  16.846  10.224  1.00  0.00     0.167 HD
HETATM   10  C   UNK N   1      32.971  15.257   8.851  0.00  0.00     0.119 A 
HETATM   11  H   UNK N   1      33.074  13.298   8.063  0.00  0.00     0.167 HD
ENDROOT
BRANCH  10  12
HETATM   12  C   UNK N   1      32.071  15.901   7.874  0.00  0.00     0.044 A 
HETATM   13  C   UNK N   1      32.307  15.659   6.519  0.00  0.00     0.055 A 
HETATM   14  C   UNK N   1      31.516  16.246   5.526  0.00  0.00     0.079 A 
HETATM   15  C   UNK N   1      30.455  17.075   5.901  0.00  0.00     0.040 A 
HETATM   16  C   UNK N   1      30.201  17.324   7.254  0.00  0.00     0.040 A 
HETATM   17  C   UNK N   1      31.008  16.751   8.244  0.00  0.00     0.079 A 
BRANCH  14  18
HETATM   18  O   UNK N   1      31.788  16.058   4.209  0.00  0.00    -0.255 OA
BRANCH  18  19
HETATM   19  C   UNK N   1      32.634  16.862   3.463  0.00  0.00     0.530 C 
HETATM   20  F   UNK N   1      33.047  17.948   4.216  0.00  0.00    -0.144 F 
HETATM   21  F   UNK N   1      33.742  16.129   3.087  0.00  0.00    -0.144 F 
HETATM   22  F   UNK N   1      31.992  17.309   2.319  0.00  0.00    -0.144 F 
ENDBRANCH  18  19
ENDBRANCH  14  18
BRANCH  17  23
HETATM   23  O   UNK N   1      30.755  17.023   9.536  0.00  0.00    -0.360 OA
ATOM     24  HO  UNK N   1      30.913  17.888   9.895  1.00  0.00     0.217 HD
ENDBRANCH  17  23
ENDBRANCH  10  12
BRANCH   1  25
HETATM   25  C   UNK N   1      36.535  13.846  13.309  0.00  0.00     0.102 C 
BRANCH  25  26
HETATM   26  N   UNK N   1      37.123  12.651  13.785  0.00  0.00    -0.385 N 
HETATM   27  H   UNK N   1      37.933  12.690  14.342  0.00  0.00     0.157 HD
HETATM   28  H   UNK N   1      36.721  11.781  13.559  0.00  0.00     0.157 HD
ENDBRANCH  25  26
BRANCH  25  29
HETATM   29  N   UNK N   1      36.723  14.940  13.951  0.00  0.00    -0.385 N 
HETATM   30  H   UNK N   1      37.553  15.452  13.816  0.00  0.00     0.157 HD
HETATM   31  H   UNK N   1      36.039  15.268  14.578  0.00  0.00     0.157 HD
ENDBRANCH  25  29
ENDBRANCH   1  25
TORSDOF 7
ENDMDL
MODEL 6
REMARK VINA RESULT:      -6.7      9.579     12.390
REMARK  7 active torsions:
REMARK  status: ('A' for Active; 'I' for Inactive)
REMARK    1  A    between atoms: C_1  and  C_7 
REMARK    2  A    between atoms: C_7  and  N_8 
REMARK    3  A    between atoms: C_7  and  N_9 
REMARK    4  A    between atoms: C_13  and  C_14 
REMARK    5  A    between atoms: C_16  and  O_17 
REMARK    6  A    between atoms: O_17  and  C_18 
REMARK    7  A    between atoms: C_24  and  O_25 
ROOT
HETATM    1  C   UNK N   1      34.314  16.752   9.041  0.00  0.00     0.009 A 
HETATM    2  C   UNK N   1      33.272  15.799   8.900  0.00  0.00     0.017 A 
HETATM    3  C   UNK N   1      33.242  14.642   9.698  0.00  0.00     0.033 A 
HETATM    4  C   UNK N   1      34.270  14.476  10.619  0.00  0.00     0.060 A 
HETATM    5  C   UNK N   1      35.272  15.381  10.762  0.00  0.00     0.061 A 
HETATM    6  C   UNK N   1      35.337  16.538   9.995  0.00  0.00     0.047 A 
HETATM    7  N   UNK N   1      34.448  13.462  11.470  0.00  0.00    -0.340 N 
HETATM    8  N   UNK N   1      36.123  14.965  11.715  0.00  0.00    -0.340 N 
ATOM      9  HN  UNK N   1      36.969  15.427  12.049  1.00  0.00     0.167 HD
HETATM   10  C   UNK N   1      35.592  13.785  12.130  0.00  0.00     0.119 A 
HETATM   11  H   UNK N   1      33.882  12.666  11.592  0.00  0.00     0.167 HD
ENDROOT
BRANCH  10  12
HETATM   12  C   UNK N   1      36.167  12.922  13.181  0.00  0.00     0.044 A 
HETATM   13  C   UNK N   1      35.473  12.822  14.387  0.00  0.00     0.055 A 
HETATM   14  C   UNK N   1      35.957  12.043  15.444  0.00  0.00     0.079 A 
HETATM   15  C   UNK N   1      37.152  11.337  15.279  0.00  0.00     0.040 A 
HETATM   16  C   UNK N   1      37.858  11.423  14.074  0.00  0.00     0.040 A 
HETATM   17  C   UNK N   1      37.380  12.219  13.026  0.00  0.00     0.079 A 
BRANCH  14  18
HETATM   18  O   UNK N   1      35.311  11.998  16.638  0.00  0.00    -0.255 OA
BRANCH  18  19
HETATM   19  C   UNK N   1      35.061  13.104  17.433  0.00  0.00     0.530 C 
HETATM   20  F   UNK N   1      33.889  13.723  17.034  0.00  0.00    -0.144 F 
HETATM   21  F   UNK N   1      34.930  12.698  18.746  0.00  0.00    -0.144 F 
HETATM   22  F   UNK N   1      36.111  14.005  17.353  0.00  0.00    -0.144 F 
ENDBRANCH  18  19
ENDBRANCH  14  18
BRANCH  17  23
HETATM   23  O   UNK N   1      38.089  12.299  11.887  0.00  0.00    -0.360 OA
ATOM     24  HO  UNK N   1      37.707  12.659  11.095  1.00  0.00     0.217 HD
ENDBRANCH  17  23
ENDBRANCH  10  12
BRANCH   1  25
HETATM   25  C   UNK N   1      34.326  17.957   8.186  0.00  0.00     0.102 C 
BRANCH  25  26
HETATM   26  N   UNK N   1      35.098  19.082   8.556  0.00  0.00    -0.385 N 
HETATM   27  H   UNK N   1      35.948  19.269   8.097  0.00  0.00     0.157 HD
HETATM   28  H   UNK N   1      34.783  19.680   9.273  0.00  0.00     0.157 HD
ENDBRANCH  25  26
BRANCH  25  29
HETATM   29  N   UNK N   1      33.633  17.995   7.107  0.00  0.00    -0.385 N 
HETATM   30  H   UNK N   1      33.420  18.861   6.690  0.00  0.00     0.157 HD
HETATM   31  H   UNK N   1      33.314  17.160   6.697  0.00  0.00     0.157 HD
ENDBRANCH  25  29
ENDBRANCH   1  25
TORSDOF 7
ENDMDL
MODEL 7
REMARK VINA RESULT:      -6.6      8.447     11.335
REMARK  7 active torsions:
REMARK  status: ('A' for Active; 'I' for Inactive)
REMARK    1  A    between atoms: C_1  and  C_7 
REMARK    2  A    between atoms: C_7  and  N_8 
REMARK    3  A    between atoms: C_7  and  N_9 
REMARK    4  A    between atoms: C_13  and  C_14 
REMARK    5  A    between atoms: C_16  and  O_17 
REMARK    6  A    between atoms: O_17  and  C_18 
REMARK    7  A    between atoms: C_24  and  O_25 
ROOT
HETATM    1  C   UNK N   1      32.829  16.555   8.336  0.00  0.00     0.009 A 
HETATM    2  C   UNK N   1      33.834  17.530   8.564  0.00  0.00     0.017 A 
HETATM    3  C   UNK N   1      34.852  17.308   9.508  0.00  0.00     0.033 A 
HETATM    4  C   UNK N   1      34.827  16.104  10.202  0.00  0.00     0.060 A 
HETATM    5  C   UNK N   1      33.870  15.163   9.991  0.00  0.00     0.061 A 
HETATM    6  C   UNK N   1      32.849  15.342   9.067  0.00  0.00     0.047 A 
HETATM    7  N   UNK N   1      35.681  15.683  11.139  0.00  0.00    -0.340 N 
HETATM    8  N   UNK N   1      34.090  14.110  10.797  0.00  0.00    -0.340 N 
ATOM      9  HN  UNK N   1      33.545  13.250  10.871  1.00  0.00     0.167 HD
HETATM   10  C   UNK N   1      35.205  14.458  11.489  0.00  0.00     0.119 A 
HETATM   11  H   UNK N   1      36.470  16.151  11.494  0.00  0.00     0.167 HD
ENDROOT
BRANCH  10  12
HETATM   12  C   UNK N   1      35.858  13.622  12.516  0.00  0.00     0.044 A 
HETATM   13  C   UNK N   1      35.732  14.018  13.848  0.00  0.00     0.055 A 
HETATM   14  C   UNK N   1      36.336  13.296  14.883  0.00  0.00     0.079 A 
HETATM   15  C   UNK N   1      37.065  12.144  14.576  0.00  0.00     0.040 A 
HETATM   16  C   UNK N   1      37.198  11.730  13.245  0.00  0.00     0.040 A 
HETATM   17  C   UNK N   1      36.608  12.467  12.211  0.00  0.00     0.079 A 
BRANCH  14  18
HETATM   18  O   UNK N   1      36.263  13.719  16.171  0.00  0.00    -0.255 OA
BRANCH  18  19
HETATM   19  C   UNK N   1      35.269  13.346  17.062  0.00  0.00     0.530 C 
HETATM   20  F   UNK N   1      35.500  12.062  17.524  0.00  0.00    -0.144 F 
HETATM   21  F   UNK N   1      35.271  14.217  18.133  0.00  0.00    -0.144 F 
HETATM   22  F   UNK N   1      34.027  13.403  16.451  0.00  0.00    -0.144 F 
ENDBRANCH  18  19
ENDBRANCH  14  18
BRANCH  17  23
HETATM   23  O   UNK N   1      36.769  12.059  10.941  0.00  0.00    -0.360 OA
ATOM     24  HO  UNK N   1      36.642  11.149  10.697  1.00  0.00     0.217 HD
ENDBRANCH  17  23
ENDBRANCH  10  12
BRANCH   1  25
HETATM   25  C   UNK N   1      31.766  16.814   7.344  0.00  0.00     0.102 C 
BRANCH  25  26
HETATM   26  N   UNK N   1      30.409  16.813   7.739  0.00  0.00    -0.385 N 
HETATM   27  H   UNK N   1      30.101  16.191   8.438  0.00  0.00     0.157 HD
HETATM   28  H   UNK N   1      29.772  17.434   7.316  0.00  0.00     0.157 HD
ENDBRANCH  25  26
BRANCH  25  29
HETATM   29  N   UNK N   1      32.064  17.035   6.116  0.00  0.00    -0.385 N 
HETATM   30  H   UNK N   1      31.411  17.469   5.522  0.00  0.00     0.157 HD
HETATM   31  H   UNK N   1      32.945  16.769   5.767  0.00  0.00     0.157 HD
ENDBRANCH  25  29
ENDBRANCH   1  25
TORSDOF 7
ENDMDL
MODEL 8
REMARK VINA RESULT:      -6.6      7.338     10.032
REMARK  7 active torsions:
REMARK  status: ('A' for Active; 'I' for Inactive)
REMARK    1  A    between atoms: C_1  and  C_7 
REMARK    2  A    between atoms: C_7  and  N_8 
REMARK    3  A    between atoms: C_7  and  N_9 
REMARK    4  A    between atoms: C_13  and  C_14 
REMARK    5  A    between atoms: C_16  and  O_17 
REMARK    6  A    between atoms: O_17  and  C_18 
REMARK    7  A    between atoms: C_24  and  O_25 
ROOT
HETATM    1  C   UNK N   1      22.435  13.344   9.588  0.00  0.00     0.009 A 
HETATM    2  C   UNK N   1      21.125  13.769   9.930  0.00  0.00     0.017 A 
HETATM    3  C   UNK N   1      20.435  14.693   9.126  0.00  0.00     0.033 A 
HETATM    4  C   UNK N   1      21.089  15.167   7.995  0.00  0.00     0.060 A 
HETATM    5  C   UNK N   1      22.342  14.767   7.658  0.00  0.00     0.061 A 
HETATM    6  C   UNK N   1      23.057  13.854   8.423  0.00  0.00     0.047 A 
HETATM    7  N   UNK N   1      20.634  16.044   7.096  0.00  0.00    -0.340 N 
HETATM    8  N   UNK N   1      22.723  15.385   6.527  0.00  0.00    -0.340 N 
ATOM      9  HN  UNK N   1      23.607  15.291   6.026  1.00  0.00     0.167 HD
HETATM   10  C   UNK N   1      21.656  16.162   6.207  0.00  0.00     0.119 A 
HETATM   11  H   UNK N   1      19.762  16.500   7.081  0.00  0.00     0.167 HD
ENDROOT
BRANCH  10  12
HETATM   12  C   UNK N   1      21.580  17.050   5.030  0.00  0.00     0.044 A 
HETATM   13  C   UNK N   1      20.628  16.749   4.054  0.00  0.00     0.055 A 
HETATM   14  C   UNK N   1      20.502  17.525   2.896  0.00  0.00     0.079 A 
HETATM   15  C   UNK N   1      21.333  18.635   2.726  0.00  0.00     0.040 A 
HETATM   16  C   UNK N   1      22.289  18.954   3.697  0.00  0.00     0.040 A 
HETATM   17  C   UNK N   1      22.426  18.163   4.844  0.00  0.00     0.079 A 
BRANCH  14  18
HETATM   18  O   UNK N   1      19.618  17.191   1.920  0.00  0.00    -0.255 OA
BRANCH  18  19
HETATM   19  C   UNK N   1      19.973  16.646   0.698  0.00  0.00     0.530 C 
HETATM   20  F   UNK N   1      20.252  17.651  -0.211  0.00  0.00    -0.144 F 
HETATM   21  F   UNK N   1      21.098  15.862   0.861  0.00  0.00    -0.144 F 
HETATM   22  F   UNK N   1      18.949  15.850   0.209  0.00  0.00    -0.144 F 
ENDBRANCH  18  19
ENDBRANCH  14  18
BRANCH  17  23
HETATM   23  O   UNK N   1      23.365  18.480   5.751  0.00  0.00    -0.360 OA
ATOM     24  HO  UNK N   1      24.239  18.109   5.703  1.00  0.00     0.217 HD
ENDBRANCH  17  23
ENDBRANCH  10  12
BRANCH   1  25
HETATM   25  C   UNK N   1      23.142  12.377  10.453  0.00  0.00     0.102 C 
BRANCH  25  26
HETATM   26  N   UNK N   1      24.443  12.666  10.925  0.00  0.00    -0.385 N 
HETATM   27  H   UNK N   1      25.221  12.208  10.533  0.00  0.00     0.157 HD
HETATM   28  H   UNK N   1      24.571  13.325  11.646  0.00  0.00     0.157 HD
ENDBRANCH  25  26
BRANCH  25  29
HETATM   29  N   UNK N   1      22.586  11.267  10.776  0.00  0.00    -0.385 N 
HETATM   30  H   UNK N   1      22.967  10.719  11.499  0.00  0.00     0.157 HD
HETATM   31  H   UNK N   1      21.780  10.963  10.301  0.00  0.00     0.157 HD
ENDBRANCH  25  29
ENDBRANCH   1  25
TORSDOF 7
ENDMDL
MODEL 9
REMARK VINA RESULT:      -6.6      7.233     11.474
REMARK  7 active torsions:
REMARK  status: ('A' for Active; 'I' for Inactive)
REMARK    1  A    between atoms: C_1  and  C_7 
REMARK    2  A    between atoms: C_7  and  N_8 
REMARK    3  A    between atoms: C_7  and  N_9 
REMARK    4  A    between atoms: C_13  and  C_14 
REMARK    5  A    between atoms: C_16  and  O_17 
REMARK    6  A    between atoms: O_17  and  C_18 
REMARK    7  A    between atoms: C_24  and  O_25 
ROOT
HETATM    1  C   UNK N   1      36.490  13.455  12.684  0.00  0.00     0.009 A 
HETATM    2  C   UNK N   1      37.262  13.076  11.555  0.00  0.00     0.017 A 
HETATM    3  C   UNK N   1      36.891  13.481  10.261  0.00  0.00     0.033 A 
HETATM    4  C   UNK N   1      35.745  14.258  10.139  0.00  0.00     0.060 A 
HETATM    5  C   UNK N   1      34.999  14.626  11.213  0.00  0.00     0.061 A 
HETATM    6  C   UNK N   1      35.331  14.250  12.508  0.00  0.00     0.047 A 
HETATM    7  N   UNK N   1      35.205  14.747   9.020  0.00  0.00    -0.340 N 
HETATM    8  N   UNK N   1      33.954  15.365  10.802  0.00  0.00    -0.340 N 
ATOM      9  HN  UNK N   1      33.219  15.786  11.372  1.00  0.00     0.167 HD
HETATM   10  C   UNK N   1      34.107  15.421   9.454  0.00  0.00     0.119 A 
HETATM   11  H   UNK N   1      35.527  14.644   8.096  0.00  0.00     0.167 HD
ENDROOT
BRANCH  10  12
HETATM   12  C   UNK N   1      33.199  16.129   8.529  0.00  0.00     0.044 A 
HETATM   13  C   UNK N   1      31.871  16.296   8.927  0.00  0.00     0.055 A 
HETATM   14  C   UNK N   1      30.939  16.935   8.104  0.00  0.00     0.079 A 
HETATM   15  C   UNK N   1      31.352  17.434   6.865  0.00  0.00     0.040 A 
HETATM   16  C   UNK N   1      32.680  17.280   6.453  0.00  0.00     0.040 A 
HETATM   17  C   UNK N   1      33.605  16.621   7.271  0.00  0.00     0.079 A 
BRANCH  14  18
HETATM   18  O   UNK N   1      29.635  17.040   8.468  0.00  0.00    -0.255 OA
BRANCH  18  19
HETATM   19  C   UNK N   1      29.189  17.706   9.598  0.00  0.00     0.530 C 
HETATM   20  F   UNK N   1      29.221  16.860  10.693  0.00  0.00    -0.144 F 
HETATM   21  F   UNK N   1      30.013  18.786   9.841  0.00  0.00    -0.144 F 
HETATM   22  F   UNK N   1      27.898  18.170   9.408  0.00  0.00    -0.144 F 
ENDBRANCH  18  19
ENDBRANCH  14  18
BRANCH  17  23
HETATM   23  O   UNK N   1      34.870  16.468   6.842  0.00  0.00    -0.360 OA
ATOM     24  HO  UNK N   1      35.344  17.190   6.445  1.00  0.00     0.217 HD
ENDBRANCH  17  23
ENDBRANCH  10  12
BRANCH   1  25
HETATM   25  C   UNK N   1      36.897  13.012  14.034  0.00  0.00     0.102 C 
BRANCH  25  26
HETATM   26  N   UNK N   1      36.279  13.564  15.179  0.00  0.00    -0.385 N 
HETATM   27  H   UNK N   1      36.183  13.024  15.996  0.00  0.00     0.157 HD
HETATM   28  H   UNK N   1      35.944  14.490  15.159  0.00  0.00     0.157 HD
ENDBRANCH  25  26
BRANCH  25  29
HETATM   29  N   UNK N   1      37.818  12.132  14.178  0.00  0.00    -0.385 N 
HETATM   30  H   UNK N   1      38.166  11.927  15.075  0.00  0.00     0.157 HD
HETATM   31  H   UNK N   1      38.178  11.661  13.392  0.00  0.00     0.157 HD
ENDBRANCH  25  29
ENDBRANCH   1  25
TORSDOF 7
ENDMDL
