MODEL 1
REMARK VINA RESULT:      -5.8      0.000      0.000
REMARK  4 active torsions:
REMARK  status: ('A' for Active; 'I' for Inactive)
REMARK    1  A    between atoms: C_10  and  O_11 
REMARK    2  A    between atoms: O_11  and  P_12 
REMARK    3  A    between atoms: P_12  and  O_13 
REMARK    4  A    between atoms: P_12  and  O_15 
ROOT
HETATM    1  C   UNK N   1      33.633  10.586  14.779  0.00  0.00     0.024 C 
HETATM    2  C   UNK N   1      34.815  11.181  15.546  0.00  0.00     0.042 C 
HETATM    3  C   UNK N   1      35.389  12.399  14.877  0.00  0.00    -0.029 A 
HETATM    4  C   UNK N   1      35.111  12.685  13.519  0.00  0.00     0.068 A 
HETATM    5  N   UNK N   1      34.308  11.779  12.779  0.00  0.00    -0.387 N 
HETATM    6  C   UNK N   1      33.964  10.477  13.300  0.00  0.00     0.120 C 
HETATM    7  C   UNK N   1      36.209  13.251  15.618  0.00  0.00     0.009 A 
HETATM    8  C   UNK N   1      36.756  14.387  15.028  0.00  0.00     0.003 A 
HETATM    9  C   UNK N   1      36.484  14.683  13.693  0.00  0.00     0.040 A 
HETATM   10  C   UNK N   1      35.659  13.855  12.922  0.00  0.00     0.107 A 
HETATM   11  H   UNK N   1      33.977  12.044  11.891  0.00  0.00     0.159 HD
ENDROOT
BRANCH  10  12
HETATM   12  O   UNK N   1      35.438  14.233  11.626  0.00  0.00    -0.252 OA
BRANCH  12  13
HETATM   13  P   UNK N   1      35.164  15.834  11.036  0.00  0.00     0.396 P 
HETATM   14  O   UNK N   1      35.719  15.200   9.732  0.00  0.00    -0.631 OA
BRANCH  13  15
HETATM   15  O   UNK N   1      33.933  16.335   9.921  0.00  0.00    -0.307 OA
HETATM   16  H   UNK N   1      33.209  15.811   9.544  0.00  0.00     0.222 HD
ENDBRANCH  13  15
BRANCH  13  17
HETATM   17  O   UNK N   1      33.629  15.054  11.274  0.00  0.00    -0.307 OA
HETATM   18  H   UNK N   1      32.771  14.709  11.567  0.00  0.00     0.222 HD
ENDBRANCH  13  17
ENDBRANCH  12  13
ENDBRANCH  10  12
TORSDOF 4
ENDMDL
MODEL 2
REMARK VINA RESULT:      -5.6      7.968      9.316
REMARK  4 active torsions:
REMARK  status: ('A' for Active; 'I' for Inactive)
REMARK    1  A    between atoms: C_10  and  O_11 
REMARK    2  A    between atoms: O_11  and  P_12 
REMARK    3  A    between atoms: P_12  and  O_13 
REMARK    4  A    between atoms: P_12  and  O_15 
ROOT
HETATM    1  C   UNK N   1      31.764  16.150   3.522  0.00  0.00     0.024 C 
HETATM    2  C   UNK N   1      32.905  16.980   4.114  0.00  0.00     0.042 C 
HETATM    3  C   UNK N   1      32.731  17.242   5.586  0.00  0.00    -0.029 A 
HETATM    4  C   UNK N   1      31.474  17.076   6.212  0.00  0.00     0.068 A 
HETATM    5  N   UNK N   1      30.359  16.694   5.422  0.00  0.00    -0.387 N 
HETATM    6  C   UNK N   1      30.422  16.695   3.980  0.00  0.00     0.120 C 
HETATM    7  C   UNK N   1      33.836  17.656   6.330  0.00  0.00     0.009 A 
HETATM    8  C   UNK N   1      33.709  17.907   7.693  0.00  0.00     0.003 A 
HETATM    9  C   UNK N   1      32.477  17.740   8.324  0.00  0.00     0.040 A 
HETATM   10  C   UNK N   1      31.349  17.318   7.610  0.00  0.00     0.107 A 
HETATM   11  H   UNK N   1      29.524  16.422   5.867  0.00  0.00     0.159 HD
ENDROOT
BRANCH  10  12
HETATM   12  O   UNK N   1      30.187  17.169   8.316  0.00  0.00    -0.252 OA
BRANCH  12  13
HETATM   13  P   UNK N   1      28.977  18.370   8.601  0.00  0.00     0.396 P 
HETATM   14  O   UNK N   1      28.255  17.579   7.477  0.00  0.00    -0.631 OA
BRANCH  13  15
HETATM   15  O   UNK N   1      27.434  18.131   9.357  0.00  0.00    -0.307 OA
HETATM   16  H   UNK N   1      27.240  17.771  10.236  0.00  0.00     0.222 HD
ENDBRANCH  13  15
BRANCH  13  17
HETATM   17  O   UNK N   1      29.007  17.272   9.948  0.00  0.00    -0.307 OA
HETATM   18  H   UNK N   1      28.879  16.755  10.759  0.00  0.00     0.222 HD
ENDBRANCH  13  17
ENDBRANCH  12  13
ENDBRANCH  10  12
TORSDOF 4
ENDMDL
MODEL 3
REMARK VINA RESULT:      -5.6      6.822      8.116
REMARK  4 active torsions:
REMARK  status: ('A' for Active; 'I' for Inactive)
REMARK    1  A    between atoms: C_10  and  O_11 
REMARK    2  A    between atoms: O_11  and  P_12 
REMARK    3  A    between atoms: P_12  and  O_13 
REMARK    4  A    between atoms: P_12  and  O_15 
ROOT
HETATM    1  C   UNK N   1      28.343  18.229   8.971  0.00  0.00     0.024 C 
HETATM    2  C   UNK N   1      28.637  17.863   7.515  0.00  0.00     0.042 C 
HETATM    3  C   UNK N   1      29.878  17.026   7.364  0.00  0.00    -0.029 A 
HETATM    4  C   UNK N   1      30.837  16.951   8.401  0.00  0.00     0.068 A 
HETATM    5  N   UNK N   1      30.633  17.711   9.581  0.00  0.00    -0.387 N 
HETATM    6  C   UNK N   1      29.607  18.724   9.656  0.00  0.00     0.120 C 
HETATM    7  C   UNK N   1      30.072  16.321   6.176  0.00  0.00     0.009 A 
HETATM    8  C   UNK N   1      31.210  15.537   6.004  0.00  0.00     0.003 A 
HETATM    9  C   UNK N   1      32.160  15.448   7.022  0.00  0.00     0.040 A 
HETATM   10  C   UNK N   1      31.993  16.136   8.229  0.00  0.00     0.107 A 
HETATM   11  H   UNK N   1      31.203  17.545  10.366  0.00  0.00     0.159 HD
ENDROOT
BRANCH  10  12
HETATM   12  O   UNK N   1      32.969  15.978   9.174  0.00  0.00    -0.252 OA
BRANCH  12  13
HETATM   13  P   UNK N   1      34.606  16.528   9.088  0.00  0.00     0.396 P 
HETATM   14  O   UNK N   1      33.895  17.903   8.975  0.00  0.00    -0.631 OA
BRANCH  13  15
HETATM   15  O   UNK N   1      35.472  17.405  10.308  0.00  0.00    -0.307 OA
HETATM   16  H   UNK N   1      35.248  18.254  10.718  0.00  0.00     0.222 HD
ENDBRANCH  13  15
BRANCH  13  17
HETATM   17  O   UNK N   1      34.274  16.004  10.712  0.00  0.00    -0.307 OA
HETATM   18  H   UNK N   1      34.058  15.890  11.651  0.00  0.00     0.222 HD
ENDBRANCH  13  17
ENDBRANCH  12  13
ENDBRANCH  10  12
TORSDOF 4
ENDMDL
MODEL 4
REMARK VINA RESULT:      -5.6      2.351      3.715
REMARK  4 active torsions:
REMARK  status: ('A' for Active; 'I' for Inactive)
REMARK    1  A    between atoms: C_10  and  O_11 
REMARK    2  A    between atoms: O_11  and  P_12 
REMARK    3  A    between atoms: P_12  and  O_13 
REMARK    4  A    between atoms: P_12  and  O_15 
ROOT
HETATM    1  C   UNK N   1      35.700  12.145  18.963  0.00  0.00     0.024 C 
HETATM    2  C   UNK N   1      35.044  10.938  18.289  0.00  0.00     0.042 C 
HETATM    3  C   UNK N   1      34.948  11.086  16.795  0.00  0.00    -0.029 A 
HETATM    4  C   UNK N   1      35.083  12.352  16.178  0.00  0.00     0.068 A 
HETATM    5  N   UNK N   1      35.273  13.496  16.996  0.00  0.00    -0.387 N 
HETATM    6  C   UNK N   1      35.103  13.436  18.428  0.00  0.00     0.120 C 
HETATM    7  C   UNK N   1      34.721   9.949  16.020  0.00  0.00     0.009 A 
HETATM    8  C   UNK N   1      34.627  10.052  14.634  0.00  0.00     0.003 A 
HETATM    9  C   UNK N   1      34.765  11.293  14.014  0.00  0.00     0.040 A 
HETATM   10  C   UNK N   1      35.002  12.453  14.760  0.00  0.00     0.107 A 
HETATM   11  H   UNK N   1      35.527  14.350  16.576  0.00  0.00     0.159 HD
ENDROOT
BRANCH  10  12
HETATM   12  O   UNK N   1      35.137  13.623  14.064  0.00  0.00    -0.252 OA
BRANCH  12  13
HETATM   13  P   UNK N   1      36.015  13.870  12.595  0.00  0.00     0.396 P 
HETATM   14  O   UNK N   1      34.634  14.407  12.131  0.00  0.00    -0.631 OA
BRANCH  13  15
HETATM   15  O   UNK N   1      36.505  15.391  11.922  0.00  0.00    -0.307 OA
HETATM   16  H   UNK N   1      36.149  16.275  12.100  0.00  0.00     0.222 HD
ENDBRANCH  13  15
BRANCH  13  17
HETATM   17  O   UNK N   1      36.554  15.029  13.774  0.00  0.00    -0.307 OA
HETATM   18  H   UNK N   1      37.022  15.634  14.369  0.00  0.00     0.222 HD
ENDBRANCH  13  17
ENDBRANCH  12  13
ENDBRANCH  10  12
TORSDOF 4
ENDMDL
MODEL 5
REMARK VINA RESULT:      -5.5     12.838     13.882
REMARK  4 active torsions:
REMARK  status: ('A' for Active; 'I' for Inactive)
REMARK    1  A    between atoms: C_10  and  O_11 
REMARK    2  A    between atoms: O_11  and  P_12 
REMARK    3  A    between atoms: P_12  and  O_13 
REMARK    4  A    between atoms: P_12  and  O_15 
ROOT
HETATM    1  C   UNK N   1      23.533  12.157  11.872  0.00  0.00     0.024 C 
HETATM    2  C   UNK N   1      24.496  12.173  10.684  0.00  0.00     0.042 C 
HETATM    3  C   UNK N   1      23.959  12.944   9.509  0.00  0.00    -0.029 A 
HETATM    4  C   UNK N   1      22.581  13.251   9.407  0.00  0.00     0.068 A 
HETATM    5  N   UNK N   1      21.698  12.784  10.415  0.00  0.00    -0.387 N 
HETATM    6  C   UNK N   1      22.125  11.824  11.405  0.00  0.00     0.120 C 
HETATM    7  C   UNK N   1      24.844  13.355   8.512  0.00  0.00     0.009 A 
HETATM    8  C   UNK N   1      24.378  14.070   7.412  0.00  0.00     0.003 A 
HETATM    9  C   UNK N   1      23.024  14.385   7.303  0.00  0.00     0.040 A 
HETATM   10  C   UNK N   1      22.109  13.996   8.288  0.00  0.00     0.107 A 
HETATM   11  H   UNK N   1      20.775  13.124  10.440  0.00  0.00     0.159 HD
ENDROOT
BRANCH  10  12
HETATM   12  O   UNK N   1      20.805  14.360   8.103  0.00  0.00    -0.252 OA
BRANCH  12  13
HETATM   13  P   UNK N   1      20.035  15.808   8.652  0.00  0.00     0.396 P 
HETATM   14  O   UNK N   1      19.335  15.684   7.272  0.00  0.00    -0.631 OA
BRANCH  13  15
HETATM   15  O   UNK N   1      18.382  15.982   9.148  0.00  0.00    -0.307 OA
HETATM   16  H   UNK N   1      18.033  16.360   9.969  0.00  0.00     0.222 HD
ENDBRANCH  13  15
BRANCH  13  17
HETATM   17  O   UNK N   1      19.422  14.463   9.568  0.00  0.00    -0.307 OA
HETATM   18  H   UNK N   1      18.932  13.820  10.103  0.00  0.00     0.222 HD
ENDBRANCH  13  17
ENDBRANCH  12  13
ENDBRANCH  10  12
TORSDOF 4
ENDMDL
MODEL 6
REMARK VINA RESULT:      -5.3     15.200     16.913
REMARK  4 active torsions:
REMARK  status: ('A' for Active; 'I' for Inactive)
REMARK    1  A    between atoms: C_10  and  O_11 
REMARK    2  A    between atoms: O_11  and  P_12 
REMARK    3  A    between atoms: P_12  and  O_13 
REMARK    4  A    between atoms: P_12  and  O_15 
ROOT
HETATM    1  C   UNK N   1      40.541  25.027  -0.415  0.00  0.00     0.024 C 
HETATM    2  C   UNK N   1      40.085  23.583  -0.631  0.00  0.00     0.042 C 
HETATM    3  C   UNK N   1      40.511  22.665   0.482  0.00  0.00    -0.029 A 
HETATM    4  C   UNK N   1      41.538  23.038   1.381  0.00  0.00     0.068 A 
HETATM    5  N   UNK N   1      42.194  24.283   1.196  0.00  0.00    -0.387 N 
HETATM    6  C   UNK N   1      42.004  25.063  -0.004  0.00  0.00     0.120 C 
HETATM    7  C   UNK N   1      39.876  21.431   0.615  0.00  0.00     0.009 A 
HETATM    8  C   UNK N   1      40.247  20.558   1.635  0.00  0.00     0.003 A 
HETATM    9  C   UNK N   1      41.253  20.916   2.533  0.00  0.00     0.040 A 
HETATM   10  C   UNK N   1      41.905  22.151   2.433  0.00  0.00     0.107 A 
HETATM   11  H   UNK N   1      42.791  24.622   1.901  0.00  0.00     0.159 HD
ENDROOT
BRANCH  10  12
HETATM   12  O   UNK N   1      42.868  22.421   3.365  0.00  0.00    -0.252 OA
BRANCH  12  13
HETATM   13  P   UNK N   1      44.467  21.767   3.437  0.00  0.00     0.396 P 
HETATM   14  O   UNK N   1      44.756  22.979   2.511  0.00  0.00    -0.631 OA
BRANCH  13  15
HETATM   15  O   UNK N   1      45.831  22.447   4.265  0.00  0.00    -0.307 OA
HETATM   16  H   UNK N   1      46.368  23.215   4.017  0.00  0.00     0.222 HD
ENDBRANCH  13  15
BRANCH  13  17
HETATM   17  O   UNK N   1      44.083  22.482   4.975  0.00  0.00    -0.307 OA
HETATM   18  H   UNK N   1      43.751  22.741   5.848  0.00  0.00     0.222 HD
ENDBRANCH  13  17
ENDBRANCH  12  13
ENDBRANCH  10  12
TORSDOF 4
ENDMDL
MODEL 7
REMARK VINA RESULT:      -5.3      2.930      3.750
REMARK  4 active torsions:
REMARK  status: ('A' for Active; 'I' for Inactive)
REMARK    1  A    between atoms: C_10  and  O_11 
REMARK    2  A    between atoms: O_11  and  P_12 
REMARK    3  A    between atoms: P_12  and  O_13 
REMARK    4  A    between atoms: P_12  and  O_15 
ROOT
HETATM    1  C   UNK N   1      34.737   8.975  18.062  0.00  0.00     0.024 C 
HETATM    2  C   UNK N   1      35.272  10.116  18.929  0.00  0.00     0.042 C 
HETATM    3  C   UNK N   1      35.202  11.452  18.242  0.00  0.00    -0.029 A 
HETATM    4  C   UNK N   1      35.039  11.542  16.839  0.00  0.00     0.068 A 
HETATM    5  N   UNK N   1      34.981  10.346  16.077  0.00  0.00    -0.387 N 
HETATM    6  C   UNK N   1      35.311   9.066  16.658  0.00  0.00     0.120 C 
HETATM    7  C   UNK N   1      35.303  12.611  19.011  0.00  0.00     0.009 A 
HETATM    8  C   UNK N   1      35.242  13.863  18.405  0.00  0.00     0.003 A 
HETATM    9  C   UNK N   1      35.074  13.965  17.025  0.00  0.00     0.040 A 
HETATM   10  C   UNK N   1      34.961  12.824  16.223  0.00  0.00     0.107 A 
HETATM   11  H   UNK N   1      34.709  10.391  15.132  0.00  0.00     0.159 HD
ENDROOT
BRANCH  10  12
HETATM   12  O   UNK N   1      34.786  13.022  14.881  0.00  0.00    -0.252 OA
BRANCH  12  13
HETATM   13  P   UNK N   1      35.936  13.659  13.759  0.00  0.00     0.396 P 
HETATM   14  O   UNK N   1      36.546  12.242  13.933  0.00  0.00    -0.631 OA
BRANCH  13  15
HETATM   15  O   UNK N   1      36.119  13.214  12.093  0.00  0.00    -0.307 OA
HETATM   16  H   UNK N   1      36.936  13.080  11.588  0.00  0.00     0.222 HD
ENDBRANCH  13  15
BRANCH  13  17
HETATM   17  O   UNK N   1      34.435  13.383  12.928  0.00  0.00    -0.307 OA
HETATM   18  H   UNK N   1      33.686  13.296  12.318  0.00  0.00     0.222 HD
ENDBRANCH  13  17
ENDBRANCH  12  13
ENDBRANCH  10  12
TORSDOF 4
ENDMDL
MODEL 8
REMARK VINA RESULT:      -5.3     13.311     14.472
REMARK  4 active torsions:
REMARK  status: ('A' for Active; 'I' for Inactive)
REMARK    1  A    between atoms: C_10  and  O_11 
REMARK    2  A    between atoms: O_11  and  P_12 
REMARK    3  A    between atoms: P_12  and  O_13 
REMARK    4  A    between atoms: P_12  and  O_15 
ROOT
HETATM    1  C   UNK N   1      24.749  13.458   7.109  0.00  0.00     0.024 C 
HETATM    2  C   UNK N   1      24.820  13.007   8.569  0.00  0.00     0.042 C 
HETATM    3  C   UNK N   1      23.474  12.987   9.239  0.00  0.00    -0.029 A 
HETATM    4  C   UNK N   1      22.374  13.685   8.687  0.00  0.00     0.068 A 
HETATM    5  N   UNK N   1      22.568  14.443   7.503  0.00  0.00    -0.387 N 
HETATM    6  C   UNK N   1      23.889  14.706   6.984  0.00  0.00     0.120 C 
HETATM    7  C   UNK N   1      23.323  12.266  10.424  0.00  0.00     0.009 A 
HETATM    8  C   UNK N   1      22.089  12.227  11.069  0.00  0.00     0.003 A 
HETATM    9  C   UNK N   1      20.996  12.905  10.531  0.00  0.00     0.040 A 
HETATM   10  C   UNK N   1      21.109  13.631   9.340  0.00  0.00     0.107 A 
HETATM   11  H   UNK N   1      21.784  14.797   7.025  0.00  0.00     0.159 HD
ENDROOT
BRANCH  10  12
HETATM   12  O   UNK N   1      19.981  14.252   8.881  0.00  0.00    -0.252 OA
BRANCH  12  13
HETATM   13  P   UNK N   1      19.752  15.945   8.619  0.00  0.00     0.396 P 
HETATM   14  O   UNK N   1      19.466  15.448   7.176  0.00  0.00    -0.631 OA
BRANCH  13  15
HETATM   15  O   UNK N   1      18.248  16.757   8.324  0.00  0.00    -0.307 OA
HETATM   16  H   UNK N   1      17.414  16.387   7.997  0.00  0.00     0.222 HD
ENDBRANCH  13  15
BRANCH  13  17
HETATM   17  O   UNK N   1      18.420  15.337   9.556  0.00  0.00    -0.307 OA
HETATM   18  H   UNK N   1      17.807  14.948  10.198  0.00  0.00     0.222 HD
ENDBRANCH  13  17
ENDBRANCH  12  13
ENDBRANCH  10  12
TORSDOF 4
ENDMDL
MODEL 9
REMARK VINA RESULT:      -5.2     21.287     22.835
REMARK  4 active torsions:
REMARK  status: ('A' for Active; 'I' for Inactive)
REMARK    1  A    between atoms: C_10  and  O_11 
REMARK    2  A    between atoms: O_11  and  P_12 
REMARK    3  A    between atoms: P_12  and  O_13 
REMARK    4  A    between atoms: P_12  and  O_15 
ROOT
HETATM    1  C   UNK N   1      27.863  28.672  -5.800  0.00  0.00     0.024 C 
HETATM    2  C   UNK N   1      26.962  27.660  -6.511  0.00  0.00     0.042 C 
HETATM    3  C   UNK N   1      26.816  26.372  -5.748  0.00  0.00    -0.029 A 
HETATM    4  C   UNK N   1      27.726  26.027  -4.721  0.00  0.00     0.068 A 
HETATM    5  N   UNK N   1      28.810  26.899  -4.442  0.00  0.00    -0.387 N 
HETATM    6  C   UNK N   1      29.138  27.997  -5.320  0.00  0.00     0.120 C 
HETATM    7  C   UNK N   1      25.765  25.515  -6.070  0.00  0.00     0.009 A 
HETATM    8  C   UNK N   1      25.602  24.315  -5.383  0.00  0.00     0.003 A 
HETATM    9  C   UNK N   1      26.487  23.966  -4.363  0.00  0.00     0.040 A 
HETATM   10  C   UNK N   1      27.549  24.806  -4.008  0.00  0.00     0.107 A 
HETATM   11  H   UNK N   1      29.350  26.752  -3.633  0.00  0.00     0.159 HD
ENDROOT
BRANCH  10  12
HETATM   12  O   UNK N   1      28.357  24.388  -2.987  0.00  0.00    -0.252 OA
BRANCH  12  13
HETATM   13  P   UNK N   1      29.759  23.384  -3.109  0.00  0.00     0.396 P 
HETATM   14  O   UNK N   1      30.469  24.739  -2.844  0.00  0.00    -0.631 OA
BRANCH  13  15
HETATM   15  O   UNK N   1      30.814  22.912  -1.815  0.00  0.00    -0.307 OA
HETATM   16  H   UNK N   1      30.581  22.586  -0.933  0.00  0.00     0.222 HD
ENDBRANCH  13  15
BRANCH  13  17
HETATM   17  O   UNK N   1      28.941  23.028  -1.617  0.00  0.00    -0.307 OA
HETATM   18  H   UNK N   1      28.648  22.766  -0.730  0.00  0.00     0.222 HD
ENDBRANCH  13  17
ENDBRANCH  12  13
ENDBRANCH  10  12
TORSDOF 4
ENDMDL
