MODEL 1
REMARK VINA RESULT:      -5.5      0.000      0.000
REMARK  5 active torsions:
REMARK  status: ('A' for Active; 'I' for Inactive)
REMARK    1  A    between atoms: C_4  and  C_7 
REMARK    2  A    between atoms: C_7  and  C_8 
REMARK    3  A    between atoms: C_7  and  C_9 
REMARK    4  A    between atoms: C_8  and  O_10 
REMARK    5  A    between atoms: C_9  and  O_12 
ROOT
HETATM    1  C   UNK N   1      33.285  17.389   8.519  0.00  0.00     0.214 C 
ENDROOT
BRANCH   1   2
HETATM    2  C   UNK N   1      31.797  17.463   8.175  0.00  0.00    -0.034 A 
HETATM    3  C   UNK N   1      30.926  18.283   8.910  0.00  0.00     0.008 A 
HETATM    4  C   UNK N   1      29.564  18.341   8.599  0.00  0.00     0.001 A 
HETATM    5  C   UNK N   1      29.055  17.578   7.547  0.00  0.00     0.000 A 
HETATM    6  C   UNK N   1      29.907  16.757   6.808  0.00  0.00     0.001 A 
HETATM    7  C   UNK N   1      31.266  16.700   7.122  0.00  0.00     0.008 A 
ENDBRANCH   1   2
BRANCH   1   8
HETATM    8  C   UNK N   1      33.777  16.474   9.636  0.00  0.00     0.159 C 
HETATM    9  O   UNK N   1      33.360  15.331   9.734  0.00  0.00    -0.649 OA
BRANCH   8  10
HETATM   10  O   UNK N   1      34.680  16.913  10.533  0.00  0.00    -0.775 OA
HETATM   11  H   UNK N   1      34.875  16.403  11.294  0.00  0.00     0.167 HD
ENDBRANCH   8  10
ENDBRANCH   1   8
BRANCH   1  12
HETATM   12  C   UNK N   1      34.309  18.216   7.749  0.00  0.00     0.159 C 
HETATM   13  O   UNK N   1      34.480  18.041   6.552  0.00  0.00    -0.649 OA
BRANCH  12  14
HETATM   14  O   UNK N   1      35.060  19.137   8.381  0.00  0.00    -0.775 OA
HETATM   15  H   UNK N   1      34.651  19.783   8.924  0.00  0.00     0.167 HD
ENDBRANCH  12  14
ENDBRANCH   1  12
TORSDOF 5
ENDMDL
MODEL 2
REMARK VINA RESULT:      -5.4      0.092      2.466
REMARK  5 active torsions:
REMARK  status: ('A' for Active; 'I' for Inactive)
REMARK    1  A    between atoms: C_4  and  C_7 
REMARK    2  A    between atoms: C_7  and  C_8 
REMARK    3  A    between atoms: C_7  and  C_9 
REMARK    4  A    between atoms: C_8  and  O_10 
REMARK    5  A    between atoms: C_9  and  O_12 
ROOT
HETATM    1  C   UNK N   1      33.246  17.385   8.521  0.00  0.00     0.214 C 
ENDROOT
BRANCH   1   2
HETATM    2  C   UNK N   1      31.756  17.492   8.198  0.00  0.00    -0.034 A 
HETATM    3  C   UNK N   1      30.913  18.332   8.944  0.00  0.00     0.008 A 
HETATM    4  C   UNK N   1      29.548  18.420   8.653  0.00  0.00     0.001 A 
HETATM    5  C   UNK N   1      29.008  17.668   7.609  0.00  0.00     0.000 A 
HETATM    6  C   UNK N   1      29.831  16.827   6.859  0.00  0.00     0.001 A 
HETATM    7  C   UNK N   1      31.192  16.740   7.154  0.00  0.00     0.008 A 
ENDBRANCH   1   2
BRANCH   1   8
HETATM    8  C   UNK N   1      34.270  18.201   7.737  0.00  0.00     0.159 C 
HETATM    9  O   UNK N   1      34.956  19.041   8.296  0.00  0.00    -0.649 OA
BRANCH   8  10
HETATM   10  O   UNK N   1      34.433  18.007   6.415  0.00  0.00    -0.775 OA
HETATM   11  H   UNK N   1      34.499  18.740   5.836  0.00  0.00     0.167 HD
ENDBRANCH   8  10
ENDBRANCH   1   8
BRANCH   1  12
HETATM   12  C   UNK N   1      33.742  16.469   9.635  0.00  0.00     0.159 C 
HETATM   13  O   UNK N   1      33.311  15.332   9.746  0.00  0.00    -0.649 OA
BRANCH  12  14
HETATM   14  O   UNK N   1      34.644  16.909  10.532  0.00  0.00    -0.775 OA
HETATM   15  H   UNK N   1      35.486  16.500  10.588  0.00  0.00     0.167 HD
ENDBRANCH  12  14
ENDBRANCH   1  12
TORSDOF 5
ENDMDL
MODEL 3
REMARK VINA RESULT:      -5.3     12.260     13.549
REMARK  5 active torsions:
REMARK  status: ('A' for Active; 'I' for Inactive)
REMARK    1  A    between atoms: C_4  and  C_7 
REMARK    2  A    between atoms: C_7  and  C_8 
REMARK    3  A    between atoms: C_7  and  C_9 
REMARK    4  A    between atoms: C_8  and  O_10 
REMARK    5  A    between atoms: C_9  and  O_12 
ROOT
HETATM    1  C   UNK N   1      19.141  17.263   8.876  0.00  0.00     0.214 C 
ENDROOT
BRANCH   1   2
HETATM    2  C   UNK N   1      19.800  15.984   8.357  0.00  0.00    -0.034 A 
HETATM    3  C   UNK N   1      20.359  15.049   9.243  0.00  0.00     0.008 A 
HETATM    4  C   UNK N   1      20.969  13.885   8.764  0.00  0.00     0.001 A 
HETATM    5  C   UNK N   1      21.028  13.642   7.391  0.00  0.00     0.000 A 
HETATM    6  C   UNK N   1      20.479  14.562   6.497  0.00  0.00     0.001 A 
HETATM    7  C   UNK N   1      19.873  15.724   6.978  0.00  0.00     0.008 A 
ENDBRANCH   1   2
BRANCH   1   8
HETATM    8  C   UNK N   1      19.924  18.572   8.926  0.00  0.00     0.159 C 
HETATM    9  O   UNK N   1      20.572  18.947   7.962  0.00  0.00    -0.649 OA
BRANCH   8  10
HETATM   10  O   UNK N   1      19.912  19.334  10.035  0.00  0.00    -0.775 OA
HETATM   11  H   UNK N   1      20.643  19.327  10.620  0.00  0.00     0.167 HD
ENDBRANCH   8  10
ENDBRANCH   1   8
BRANCH   1  12
HETATM   12  C   UNK N   1      17.690  17.262   9.344  0.00  0.00     0.159 C 
HETATM   13  O   UNK N   1      16.939  16.347   9.045  0.00  0.00    -0.649 OA
BRANCH  12  14
HETATM   14  O   UNK N   1      17.206  18.283  10.075  0.00  0.00    -0.775 OA
HETATM   15  H   UNK N   1      17.429  19.166   9.852  0.00  0.00     0.167 HD
ENDBRANCH  12  14
ENDBRANCH   1  12
TORSDOF 5
ENDMDL
MODEL 4
REMARK VINA RESULT:      -5.2      9.431     11.337
REMARK  5 active torsions:
REMARK  status: ('A' for Active; 'I' for Inactive)
REMARK    1  A    between atoms: C_4  and  C_7 
REMARK    2  A    between atoms: C_7  and  C_8 
REMARK    3  A    between atoms: C_7  and  C_9 
REMARK    4  A    between atoms: C_8  and  O_10 
REMARK    5  A    between atoms: C_9  and  O_12 
ROOT
HETATM    1  C   UNK N   1      22.780  12.177  10.711  0.00  0.00     0.214 C 
ENDROOT
BRANCH   1   2
HETATM    2  C   UNK N   1      23.431  12.193   9.328  0.00  0.00    -0.034 A 
HETATM    3  C   UNK N   1      24.102  13.334   8.858  0.00  0.00     0.008 A 
HETATM    4  C   UNK N   1      24.687  13.348   7.588  0.00  0.00     0.001 A 
HETATM    5  C   UNK N   1      24.609  12.219   6.770  0.00  0.00     0.000 A 
HETATM    6  C   UNK N   1      23.945  11.079   7.222  0.00  0.00     0.001 A 
HETATM    7  C   UNK N   1      23.359  11.069   8.489  0.00  0.00     0.008 A 
ENDBRANCH   1   2
BRANCH   1   8
HETATM    8  C   UNK N   1      23.635  12.049  11.968  0.00  0.00     0.159 C 
HETATM    9  O   UNK N   1      23.118  11.832  13.053  0.00  0.00    -0.649 OA
BRANCH   8  10
HETATM   10  O   UNK N   1      24.973  12.173  11.902  0.00  0.00    -0.775 OA
HETATM   11  H   UNK N   1      25.486  11.520  11.468  0.00  0.00     0.167 HD
ENDBRANCH   8  10
ENDBRANCH   1   8
BRANCH   1  12
HETATM   12  C   UNK N   1      21.267  12.298  10.866  0.00  0.00     0.159 C 
HETATM   13  O   UNK N   1      20.600  12.887  10.029  0.00  0.00    -0.649 OA
BRANCH  12  14
HETATM   14  O   UNK N   1      20.645  11.778  11.940  0.00  0.00    -0.775 OA
HETATM   15  H   UNK N   1      19.992  12.278  12.390  0.00  0.00     0.167 HD
ENDBRANCH  12  14
ENDBRANCH   1  12
TORSDOF 5
ENDMDL
MODEL 5
REMARK VINA RESULT:      -5.2      1.142      2.768
REMARK  5 active torsions:
REMARK  status: ('A' for Active; 'I' for Inactive)
REMARK    1  A    between atoms: C_4  and  C_7 
REMARK    2  A    between atoms: C_7  and  C_8 
REMARK    3  A    between atoms: C_7  and  C_9 
REMARK    4  A    between atoms: C_8  and  O_10 
REMARK    5  A    between atoms: C_9  and  O_12 
ROOT
HETATM    1  C   UNK N   1      33.343  17.663   7.406  0.00  0.00     0.214 C 
ENDROOT
BRANCH   1   2
HETATM    2  C   UNK N   1      31.836  17.615   7.661  0.00  0.00    -0.034 A 
HETATM    3  C   UNK N   1      30.985  16.869   6.829  0.00  0.00     0.008 A 
HETATM    4  C   UNK N   1      29.606  16.836   7.059  0.00  0.00     0.001 A 
HETATM    5  C   UNK N   1      29.059  17.549   8.127  0.00  0.00     0.000 A 
HETATM    6  C   UNK N   1      29.890  18.296   8.962  0.00  0.00     0.001 A 
HETATM    7  C   UNK N   1      31.266  18.330   8.728  0.00  0.00     0.008 A 
ENDBRANCH   1   2
BRANCH   1   8
HETATM    8  C   UNK N   1      33.909  17.293   6.039  0.00  0.00     0.159 C 
HETATM    9  O   UNK N   1      33.581  17.913   5.040  0.00  0.00    -0.649 OA
BRANCH   8  10
HETATM   10  O   UNK N   1      34.782  16.276   5.912  0.00  0.00    -0.775 OA
HETATM   11  H   UNK N   1      34.473  15.407   5.751  0.00  0.00     0.167 HD
ENDBRANCH   8  10
ENDBRANCH   1   8
BRANCH   1  12
HETATM   12  C   UNK N   1      34.309  18.090   8.506  0.00  0.00     0.159 C 
HETATM   13  O   UNK N   1      35.022  19.071   8.363  0.00  0.00    -0.649 OA
BRANCH  12  14
HETATM   14  O   UNK N   1      34.411  17.378   9.643  0.00  0.00    -0.775 OA
HETATM   15  H   UNK N   1      34.114  17.744  10.454  0.00  0.00     0.167 HD
ENDBRANCH  12  14
ENDBRANCH   1  12
TORSDOF 5
ENDMDL
MODEL 6
REMARK VINA RESULT:      -5.2      1.148      2.352
REMARK  5 active torsions:
REMARK  status: ('A' for Active; 'I' for Inactive)
REMARK    1  A    between atoms: C_4  and  C_7 
REMARK    2  A    between atoms: C_7  and  C_8 
REMARK    3  A    between atoms: C_7  and  C_9 
REMARK    4  A    between atoms: C_8  and  O_10 
REMARK    5  A    between atoms: C_9  and  O_12 
ROOT
HETATM    1  C   UNK N   1      33.351  17.664   7.404  0.00  0.00     0.214 C 
ENDROOT
BRANCH   1   2
HETATM    2  C   UNK N   1      31.846  17.624   7.668  0.00  0.00    -0.034 A 
HETATM    3  C   UNK N   1      30.987  16.877   6.846  0.00  0.00     0.008 A 
HETATM    4  C   UNK N   1      29.609  16.851   7.084  0.00  0.00     0.001 A 
HETATM    5  C   UNK N   1      29.072  17.573   8.151  0.00  0.00     0.000 A 
HETATM    6  C   UNK N   1      29.911  18.322   8.976  0.00  0.00     0.001 A 
HETATM    7  C   UNK N   1      31.285  18.348   8.734  0.00  0.00     0.008 A 
ENDBRANCH   1   2
BRANCH   1   8
HETATM    8  C   UNK N   1      34.320  18.087   8.504  0.00  0.00     0.159 C 
HETATM    9  O   UNK N   1      35.025  19.074   8.368  0.00  0.00    -0.649 OA
BRANCH   8  10
HETATM   10  O   UNK N   1      34.412  17.378   9.645  0.00  0.00    -0.775 OA
HETATM   11  H   UNK N   1      34.063  16.510   9.690  0.00  0.00     0.167 HD
ENDBRANCH   8  10
ENDBRANCH   1   8
BRANCH   1  12
HETATM   12  C   UNK N   1      33.918  17.275   6.043  0.00  0.00     0.159 C 
HETATM   13  O   UNK N   1      34.734  16.372   5.942  0.00  0.00    -0.649 OA
BRANCH  12  14
HETATM   14  O   UNK N   1      33.547  17.938   4.932  0.00  0.00    -0.775 OA
HETATM   15  H   UNK N   1      32.954  18.662   4.994  0.00  0.00     0.167 HD
ENDBRANCH  12  14
ENDBRANCH   1  12
TORSDOF 5
ENDMDL
MODEL 7
REMARK VINA RESULT:      -5.1      8.384     10.509
REMARK  5 active torsions:
REMARK  status: ('A' for Active; 'I' for Inactive)
REMARK    1  A    between atoms: C_4  and  C_7 
REMARK    2  A    between atoms: C_7  and  C_8 
REMARK    3  A    between atoms: C_7  and  C_9 
REMARK    4  A    between atoms: C_8  and  O_10 
REMARK    5  A    between atoms: C_9  and  O_12 
ROOT
HETATM    1  C   UNK N   1      35.700  12.035  15.024  0.00  0.00     0.214 C 
ENDROOT
BRANCH   1   2
HETATM    2  C   UNK N   1      35.562  12.181  16.540  0.00  0.00    -0.034 A 
HETATM    3  C   UNK N   1      35.685  11.069  17.387  0.00  0.00     0.008 A 
HETATM    4  C   UNK N   1      35.547  11.205  18.773  0.00  0.00     0.001 A 
HETATM    5  C   UNK N   1      35.284  12.458  19.328  0.00  0.00     0.000 A 
HETATM    6  C   UNK N   1      35.157  13.573  18.499  0.00  0.00     0.001 A 
HETATM    7  C   UNK N   1      35.292  13.433  17.117  0.00  0.00     0.008 A 
ENDBRANCH   1   2
BRANCH   1   8
HETATM    8  C   UNK N   1      37.073  12.095  14.362  0.00  0.00     0.159 C 
HETATM    9  O   UNK N   1      37.963  11.333  14.704  0.00  0.00    -0.649 OA
BRANCH   8  10
HETATM   10  O   UNK N   1      37.325  12.988  13.388  0.00  0.00    -0.775 OA
HETATM   11  H   UNK N   1      36.626  13.486  13.012  0.00  0.00     0.167 HD
ENDBRANCH   8  10
ENDBRANCH   1   8
BRANCH   1  12
HETATM   12  C   UNK N   1      34.474  11.818  14.143  0.00  0.00     0.159 C 
HETATM   13  O   UNK N   1      33.625  10.995  14.449  0.00  0.00    -0.649 OA
BRANCH  12  14
HETATM   14  O   UNK N   1      34.320  12.512  13.001  0.00  0.00    -0.775 OA
HETATM   15  H   UNK N   1      34.743  12.222  12.216  0.00  0.00     0.167 HD
ENDBRANCH  12  14
ENDBRANCH   1  12
TORSDOF 5
ENDMDL
MODEL 8
REMARK VINA RESULT:      -5.0      2.113      2.852
REMARK  5 active torsions:
REMARK  status: ('A' for Active; 'I' for Inactive)
REMARK    1  A    between atoms: C_4  and  C_7 
REMARK    2  A    between atoms: C_7  and  C_8 
REMARK    3  A    between atoms: C_7  and  C_9 
REMARK    4  A    between atoms: C_8  and  O_10 
REMARK    5  A    between atoms: C_9  and  O_12 
ROOT
HETATM    1  C   UNK N   1      34.201  16.868   7.316  0.00  0.00     0.214 C 
ENDROOT
BRANCH   1   2
HETATM    2  C   UNK N   1      33.028  17.111   6.365  0.00  0.00    -0.034 A 
HETATM    3  C   UNK N   1      31.702  16.946   6.796  0.00  0.00     0.008 A 
HETATM    4  C   UNK N   1      30.633  17.159   5.920  0.00  0.00     0.001 A 
HETATM    5  C   UNK N   1      30.877  17.541   4.600  0.00  0.00     0.000 A 
HETATM    6  C   UNK N   1      32.189  17.707   4.155  0.00  0.00     0.001 A 
HETATM    7  C   UNK N   1      33.254  17.491   5.032  0.00  0.00     0.008 A 
ENDBRANCH   1   2
BRANCH   1   8
HETATM    8  C   UNK N   1      35.105  15.652   7.137  0.00  0.00     0.159 C 
HETATM    9  O   UNK N   1      35.658  15.439   6.069  0.00  0.00    -0.649 OA
BRANCH   8  10
HETATM   10  O   UNK N   1      35.308  14.794   8.153  0.00  0.00    -0.775 OA
HETATM   11  H   UNK N   1      35.346  15.108   9.035  0.00  0.00     0.167 HD
ENDBRANCH   8  10
ENDBRANCH   1   8
BRANCH   1  12
HETATM   12  C   UNK N   1      34.498  17.837   8.456  0.00  0.00     0.159 C 
HETATM   13  O   UNK N   1      34.856  18.981   8.225  0.00  0.00    -0.649 OA
BRANCH  12  14
HETATM   14  O   UNK N   1      34.395  17.438   9.738  0.00  0.00    -0.775 OA
HETATM   15  H   UNK N   1      34.102  18.041  10.393  0.00  0.00     0.167 HD
ENDBRANCH  12  14
ENDBRANCH   1  12
TORSDOF 5
ENDMDL
MODEL 9
REMARK VINA RESULT:      -4.9      3.871      5.093
REMARK  5 active torsions:
REMARK  status: ('A' for Active; 'I' for Inactive)
REMARK    1  A    between atoms: C_4  and  C_7 
REMARK    2  A    between atoms: C_7  and  C_8 
REMARK    3  A    between atoms: C_7  and  C_9 
REMARK    4  A    between atoms: C_8  and  O_10 
REMARK    5  A    between atoms: C_9  and  O_12 
ROOT
HETATM    1  C   UNK N   1      28.872  18.208   7.444  0.00  0.00     0.214 C 
ENDROOT
BRANCH   1   2
HETATM    2  C   UNK N   1      28.136  19.105   6.448  0.00  0.00    -0.034 A 
HETATM    3  C   UNK N   1      27.431  20.240   6.882  0.00  0.00     0.008 A 
HETATM    4  C   UNK N   1      26.750  21.052   5.970  0.00  0.00     0.001 A 
HETATM    5  C   UNK N   1      26.766  20.739   4.609  0.00  0.00     0.000 A 
HETATM    6  C   UNK N   1      27.460  19.615   4.162  0.00  0.00     0.001 A 
HETATM    7  C   UNK N   1      28.136  18.804   5.076  0.00  0.00     0.008 A 
ENDBRANCH   1   2
BRANCH   1   8
HETATM    8  C   UNK N   1      28.594  18.320   8.940  0.00  0.00     0.159 C 
HETATM    9  O   UNK N   1      29.446  18.750   9.701  0.00  0.00    -0.649 OA
BRANCH   8  10
HETATM   10  O   UNK N   1      27.404  17.946   9.445  0.00  0.00    -0.775 OA
HETATM   11  H   UNK N   1      27.155  17.044   9.447  0.00  0.00     0.167 HD
ENDBRANCH   8  10
ENDBRANCH   1   8
BRANCH   1  12
HETATM   12  C   UNK N   1      29.890  17.178   6.966  0.00  0.00     0.159 C 
HETATM   13  O   UNK N   1      31.088  17.394   7.061  0.00  0.00    -0.649 OA
BRANCH  12  14
HETATM   14  O   UNK N   1      29.484  16.023   6.406  0.00  0.00    -0.775 OA
HETATM   15  H   UNK N   1      28.674  15.989   5.936  0.00  0.00     0.167 HD
ENDBRANCH  12  14
ENDBRANCH   1  12
TORSDOF 5
ENDMDL
