MODEL 1
REMARK VINA RESULT:      -7.6      0.000      0.000
REMARK  6 active torsions:
REMARK  status: ('A' for Active; 'I' for Inactive)
REMARK    1  A    between atoms: O_1  and  C_2 
REMARK    2  A    between atoms: C_2  and  C_4 
REMARK       I    between atoms: C_4  and  N_6 
REMARK    3  A    between atoms: N_6  and  C_7 
REMARK    4  A    between atoms: N_6  and  C_16 
REMARK    5  A    between atoms: C_12  and  C_13 
REMARK    6  A    between atoms: C_13  and  O_15 
ROOT
HETATM    1  C   UNK N   1      28.216  16.062   5.851  0.00  0.00     0.326 C 
HETATM    2  O   UNK N   1      28.700  14.956   5.782  0.00  0.00    -0.260 OA
HETATM    3  N   UNK N   1      29.016  17.212   5.731  0.00  0.00    -0.272 N 
ENDROOT
BRANCH   3   4
HETATM    4  C   UNK N   1      28.349  18.509   5.843  0.00  0.00     0.060 A 
HETATM    5  C   UNK N   1      27.969  19.151   4.645  0.00  0.00     0.031 A 
HETATM    6  C   UNK N   1      27.318  20.382   4.640  0.00  0.00     0.002 A 
HETATM    7  C   UNK N   1      26.986  20.997   5.838  0.00  0.00     0.001 A 
HETATM    8  C   UNK N   1      27.317  20.388   7.043  0.00  0.00     0.020 A 
HETATM    9  C   UNK N   1      28.005  19.163   7.088  0.00  0.00     0.065 A 
BRANCH   9  10
HETATM   10  C   UNK N   1      28.359  18.685   8.455  0.00  0.00     0.178 C 
HETATM   11  O   UNK N   1      29.462  18.892   8.933  0.00  0.00    -0.646 OA
BRANCH  10  12
HETATM   12  O   UNK N   1      27.439  18.023   9.189  0.00  0.00    -0.773 OA
HETATM   13  H   UNK N   1      26.929  18.480   9.828  0.00  0.00     0.167 HD
ENDBRANCH  10  12
ENDBRANCH   9  10
ENDBRANCH   3   4
BRANCH   3  14
HETATM   14  C   UNK N   1      30.506  17.205   5.596  0.00  0.00     0.054 A 
HETATM   15  C   UNK N   1      31.035  17.688   4.380  0.00  0.00     0.031 A 
HETATM   16  C   UNK N   1      32.383  17.692   4.057  0.00  0.00     0.003 A 
HETATM   17  C   UNK N   1      33.311  17.241   4.969  0.00  0.00     0.012 A 
HETATM   18  C   UNK N   1      32.903  16.826   6.225  0.00  0.00    -0.024 A 
HETATM   19  C   UNK N   1      31.516  16.809   6.586  0.00  0.00     0.001 A 
HETATM   20  C   UNK N   1      33.895  16.443   7.136  0.00  0.00     0.012 A 
HETATM   21  C   UNK N   1      31.237  16.440   7.910  0.00  0.00     0.014 A 
HETATM   22  C   UNK N   1      32.229  16.071   8.819  0.00  0.00     0.001 A 
HETATM   23  C   UNK N   1      33.560  16.059   8.428  0.00  0.00     0.001 A 
ENDBRANCH   3  14
BRANCH   1  24
HETATM   24  C   UNK N   1      26.722  16.053   6.004  0.00  0.00     0.237 C 
HETATM   25  O   UNK N   1      25.964  15.998   5.051  0.00  0.00    -0.643 OA
BRANCH  24  26
HETATM   26  O   UNK N   1      26.199  16.025   7.248  0.00  0.00    -0.769 OA
HETATM   27  H   UNK N   1      26.368  15.311   7.830  0.00  0.00     0.168 HD
ENDBRANCH  24  26
ENDBRANCH   1  24
TORSDOF 6
ENDMDL
MODEL 2
REMARK VINA RESULT:      -7.0      7.353      9.011
REMARK  6 active torsions:
REMARK  status: ('A' for Active; 'I' for Inactive)
REMARK    1  A    between atoms: O_1  and  C_2 
REMARK    2  A    between atoms: C_2  and  C_4 
REMARK       I    between atoms: C_4  and  N_6 
REMARK    3  A    between atoms: N_6  and  C_7 
REMARK    4  A    between atoms: N_6  and  C_16 
REMARK    5  A    between atoms: C_12  and  C_13 
REMARK    6  A    between atoms: C_13  and  O_15 
ROOT
HETATM    1  C   UNK N   1      20.727  13.425   6.150  0.00  0.00     0.326 C 
HETATM    2  O   UNK N   1      20.539  12.269   6.451  0.00  0.00    -0.260 OA
HETATM    3  N   UNK N   1      21.745  14.176   6.762  0.00  0.00    -0.272 N 
ENDROOT
BRANCH   3   4
HETATM    4  C   UNK N   1      21.892  15.572   6.347  0.00  0.00     0.060 A 
HETATM    5  C   UNK N   1      22.778  15.845   5.283  0.00  0.00     0.031 A 
HETATM    6  C   UNK N   1      22.983  17.136   4.803  0.00  0.00     0.002 A 
HETATM    7  C   UNK N   1      22.274  18.198   5.345  0.00  0.00     0.001 A 
HETATM    8  C   UNK N   1      21.370  17.972   6.377  0.00  0.00     0.020 A 
HETATM    9  C   UNK N   1      21.163  16.689   6.912  0.00  0.00     0.065 A 
BRANCH   9  10
HETATM   10  C   UNK N   1      20.226  16.627   8.068  0.00  0.00     0.178 C 
HETATM   11  O   UNK N   1      20.408  17.302   9.068  0.00  0.00    -0.646 OA
BRANCH  10  12
HETATM   12  O   UNK N   1      19.143  15.823   8.008  0.00  0.00    -0.773 OA
HETATM   13  H   UNK N   1      19.183  15.015   7.534  0.00  0.00     0.167 HD
ENDBRANCH  10  12
ENDBRANCH   9  10
ENDBRANCH   3   4
BRANCH   3  14
HETATM   14  C   UNK N   1      22.621  13.685   7.872  0.00  0.00     0.054 A 
HETATM   15  C   UNK N   1      24.014  13.765   7.663  0.00  0.00     0.031 A 
HETATM   16  C   UNK N   1      24.969  13.295   8.552  0.00  0.00     0.003 A 
HETATM   17  C   UNK N   1      24.580  12.741   9.750  0.00  0.00     0.012 A 
HETATM   18  C   UNK N   1      23.239  12.694  10.090  0.00  0.00    -0.024 A 
HETATM   19  C   UNK N   1      22.229  13.170   9.190  0.00  0.00     0.001 A 
HETATM   20  C   UNK N   1      22.906  12.183  11.350  0.00  0.00     0.012 A 
HETATM   21  C   UNK N   1      20.916  13.137   9.679  0.00  0.00     0.014 A 
HETATM   22  C   UNK N   1      20.588  12.639  10.940  0.00  0.00     0.001 A 
HETATM   23  C   UNK N   1      21.583  12.149  11.773  0.00  0.00     0.001 A 
ENDBRANCH   3  14
BRANCH   1  24
HETATM   24  C   UNK N   1      19.830  13.910   5.047  0.00  0.00     0.237 C 
HETATM   25  O   UNK N   1      20.060  13.695   3.870  0.00  0.00    -0.643 OA
BRANCH  24  26
HETATM   26  O   UNK N   1      18.684  14.540   5.377  0.00  0.00    -0.769 OA
HETATM   27  H   UNK N   1      18.304  14.446   6.229  0.00  0.00     0.168 HD
ENDBRANCH  24  26
ENDBRANCH   1  24
TORSDOF 6
ENDMDL
MODEL 3
REMARK VINA RESULT:      -6.9      1.710      5.510
REMARK  6 active torsions:
REMARK  status: ('A' for Active; 'I' for Inactive)
REMARK    1  A    between atoms: O_1  and  C_2 
REMARK    2  A    between atoms: C_2  and  C_4 
REMARK       I    between atoms: C_4  and  N_6 
REMARK    3  A    between atoms: N_6  and  C_7 
REMARK    4  A    between atoms: N_6  and  C_16 
REMARK    5  A    between atoms: C_12  and  C_13 
REMARK    6  A    between atoms: C_13  and  O_15 
ROOT
HETATM    1  C   UNK N   1      29.215  15.247   5.434  0.00  0.00     0.326 C 
HETATM    2  O   UNK N   1      28.035  15.022   5.566  0.00  0.00    -0.260 OA
HETATM    3  N   UNK N   1      29.789  16.426   5.939  0.00  0.00    -0.272 N 
ENDROOT
BRANCH   3   4
HETATM    4  C   UNK N   1      31.222  16.624   5.720  0.00  0.00     0.060 A 
HETATM    5  C   UNK N   1      31.614  17.309   4.551  0.00  0.00     0.031 A 
HETATM    6  C   UNK N   1      32.950  17.560   4.252  0.00  0.00     0.002 A 
HETATM    7  C   UNK N   1      33.944  17.169   5.138  0.00  0.00     0.001 A 
HETATM    8  C   UNK N   1      33.603  16.514   6.315  0.00  0.00     0.020 A 
HETATM    9  C   UNK N   1      32.268  16.212   6.634  0.00  0.00     0.065 A 
BRANCH   9  10
HETATM   10  C   UNK N   1      32.077  15.434   7.890  0.00  0.00     0.178 C 
HETATM   11  O   UNK N   1      31.999  14.217   7.876  0.00  0.00    -0.646 OA
BRANCH  10  12
HETATM   12  O   UNK N   1      32.003  16.083   9.072  0.00  0.00    -0.773 OA
HETATM   13  H   UNK N   1      31.231  16.014   9.600  0.00  0.00     0.167 HD
ENDBRANCH  10  12
ENDBRANCH   9  10
ENDBRANCH   3   4
BRANCH   3  14
HETATM   14  C   UNK N   1      29.027  17.535   6.595  0.00  0.00     0.054 A 
HETATM   15  C   UNK N   1      29.074  17.590   8.004  0.00  0.00     0.031 A 
HETATM   16  C   UNK N   1      28.377  18.504   8.778  0.00  0.00     0.003 A 
HETATM   17  C   UNK N   1      27.602  19.468   8.174  0.00  0.00     0.012 A 
HETATM   18  C   UNK N   1      27.555  19.555   6.793  0.00  0.00    -0.024 A 
HETATM   19  C   UNK N   1      28.265  18.622   5.967  0.00  0.00     0.001 A 
HETATM   20  C   UNK N   1      26.807  20.597   6.232  0.00  0.00     0.012 A 
HETATM   21  C   UNK N   1      28.199  18.860   4.587  0.00  0.00     0.014 A 
HETATM   22  C   UNK N   1      27.463  19.907   4.032  0.00  0.00     0.001 A 
HETATM   23  C   UNK N   1      26.754  20.770   4.855  0.00  0.00     0.001 A 
ENDBRANCH   3  14
BRANCH   1  24
HETATM   24  C   UNK N   1      29.964  14.134   4.758  0.00  0.00     0.237 C 
HETATM   25  O   UNK N   1      30.061  14.049   3.545  0.00  0.00    -0.643 OA
BRANCH  24  26
HETATM   26  O   UNK N   1      30.621  13.239   5.523  0.00  0.00    -0.769 OA
HETATM   27  H   UNK N   1      30.250  12.916   6.321  0.00  0.00     0.168 HD
ENDBRANCH  24  26
ENDBRANCH   1  24
TORSDOF 6
ENDMDL
MODEL 4
REMARK VINA RESULT:      -6.8      7.149     10.417
REMARK  6 active torsions:
REMARK  status: ('A' for Active; 'I' for Inactive)
REMARK    1  A    between atoms: O_1  and  C_2 
REMARK    2  A    between atoms: C_2  and  C_4 
REMARK       I    between atoms: C_4  and  N_6 
REMARK    3  A    between atoms: N_6  and  C_7 
REMARK    4  A    between atoms: N_6  and  C_16 
REMARK    5  A    between atoms: C_12  and  C_13 
REMARK    6  A    between atoms: C_13  and  O_15 
ROOT
HETATM    1  C   UNK N   1      37.303  12.356  11.170  0.00  0.00     0.326 C 
HETATM    2  O   UNK N   1      37.856  11.410  11.681  0.00  0.00    -0.260 OA
HETATM    3  N   UNK N   1      36.129  12.895  11.724  0.00  0.00    -0.272 N 
ENDROOT
BRANCH   3   4
HETATM    4  C   UNK N   1      35.518  14.030  11.030  0.00  0.00     0.060 A 
HETATM    5  C   UNK N   1      35.890  15.325  11.448  0.00  0.00     0.031 A 
HETATM    6  C   UNK N   1      35.377  16.472  10.847  0.00  0.00     0.002 A 
HETATM    7  C   UNK N   1      34.504  16.363   9.776  0.00  0.00     0.001 A 
HETATM    8  C   UNK N   1      34.130  15.107   9.313  0.00  0.00     0.020 A 
HETATM    9  C   UNK N   1      34.599  13.926   9.916  0.00  0.00     0.065 A 
BRANCH   9  10
HETATM   10  C   UNK N   1      34.040  12.664   9.356  0.00  0.00     0.178 C 
HETATM   11  O   UNK N   1      34.758  11.833   8.826  0.00  0.00    -0.646 OA
BRANCH  10  12
HETATM   12  O   UNK N   1      32.714  12.423   9.448  0.00  0.00    -0.773 OA
HETATM   13  H   UNK N   1      32.121  13.122   9.644  0.00  0.00     0.167 HD
ENDBRANCH  10  12
ENDBRANCH   9  10
ENDBRANCH   3   4
BRANCH   3  14
HETATM   14  C   UNK N   1      35.407  12.335  12.909  0.00  0.00     0.054 A 
HETATM   15  C   UNK N   1      34.578  11.217  12.675  0.00  0.00     0.031 A 
HETATM   16  C   UNK N   1      33.786  10.612  13.639  0.00  0.00     0.003 A 
HETATM   17  C   UNK N   1      33.807  11.073  14.935  0.00  0.00     0.012 A 
HETATM   18  C   UNK N   1      34.651  12.112  15.289  0.00  0.00    -0.024 A 
HETATM   19  C   UNK N   1      35.480  12.757  14.313  0.00  0.00     0.001 A 
HETATM   20  C   UNK N   1      34.682  12.495  16.635  0.00  0.00     0.012 A 
HETATM   21  C   UNK N   1      36.345  13.743  14.808  0.00  0.00     0.014 A 
HETATM   22  C   UNK N   1      36.383  14.114  16.152  0.00  0.00     0.001 A 
HETATM   23  C   UNK N   1      35.540  13.498  17.066  0.00  0.00     0.001 A 
ENDBRANCH   3  14
BRANCH   1  24
HETATM   24  C   UNK N   1      38.028  12.897   9.971  0.00  0.00     0.237 C 
HETATM   25  O   UNK N   1      38.919  13.724  10.060  0.00  0.00    -0.643 OA
BRANCH  24  26
HETATM   26  O   UNK N   1      37.736  12.390   8.756  0.00  0.00    -0.769 OA
HETATM   27  H   UNK N   1      38.412  12.097   8.176  0.00  0.00     0.168 HD
ENDBRANCH  24  26
ENDBRANCH   1  24
TORSDOF 6
ENDMDL
MODEL 5
REMARK VINA RESULT:      -6.8      7.067     10.233
REMARK  6 active torsions:
REMARK  status: ('A' for Active; 'I' for Inactive)
REMARK    1  A    between atoms: O_1  and  C_2 
REMARK    2  A    between atoms: C_2  and  C_4 
REMARK       I    between atoms: C_4  and  N_6 
REMARK    3  A    between atoms: N_6  and  C_7 
REMARK    4  A    between atoms: N_6  and  C_16 
REMARK    5  A    between atoms: C_12  and  C_13 
REMARK    6  A    between atoms: C_13  and  O_15 
ROOT
HETATM    1  C   UNK N   1      37.373  12.511  10.990  0.00  0.00     0.326 C 
HETATM    2  O   UNK N   1      38.120  11.935  11.745  0.00  0.00    -0.260 OA
HETATM    3  N   UNK N   1      36.020  12.705  11.317  0.00  0.00    -0.272 N 
ENDROOT
BRANCH   3   4
HETATM    4  C   UNK N   1      35.184  13.399  10.337  0.00  0.00     0.060 A 
HETATM    5  C   UNK N   1      34.461  12.606   9.421  0.00  0.00     0.031 A 
HETATM    6  C   UNK N   1      33.627  13.166   8.455  0.00  0.00     0.002 A 
HETATM    7  C   UNK N   1      33.455  14.541   8.399  0.00  0.00     0.001 A 
HETATM    8  C   UNK N   1      34.128  15.359   9.299  0.00  0.00     0.020 A 
HETATM    9  C   UNK N   1      35.004  14.834  10.265  0.00  0.00     0.065 A 
BRANCH   9  10
HETATM   10  C   UNK N   1      35.710  15.848  11.098  0.00  0.00     0.178 C 
HETATM   11  O   UNK N   1      35.166  16.372  12.055  0.00  0.00    -0.646 OA
BRANCH  10  12
HETATM   12  O   UNK N   1      36.983  16.185  10.800  0.00  0.00    -0.773 OA
HETATM   13  H   UNK N   1      37.463  16.761  11.365  0.00  0.00     0.167 HD
ENDBRANCH  10  12
ENDBRANCH   9  10
ENDBRANCH   3   4
BRANCH   3  14
HETATM   14  C   UNK N   1      35.352  12.168  12.545  0.00  0.00     0.054 A 
HETATM   15  C   UNK N   1      34.535  11.031  12.375  0.00  0.00     0.031 A 
HETATM   16  C   UNK N   1      33.790  10.442  13.386  0.00  0.00     0.003 A 
HETATM   17  C   UNK N   1      33.850  10.943  14.666  0.00  0.00     0.012 A 
HETATM   18  C   UNK N   1      34.689  12.006  14.957  0.00  0.00    -0.024 A 
HETATM   19  C   UNK N   1      35.469  12.635  13.932  0.00  0.00     0.001 A 
HETATM   20  C   UNK N   1      34.762  12.430  16.289  0.00  0.00     0.012 A 
HETATM   21  C   UNK N   1      36.335  13.650  14.364  0.00  0.00     0.014 A 
HETATM   22  C   UNK N   1      36.415  14.062  15.695  0.00  0.00     0.001 A 
HETATM   23  C   UNK N   1      35.618  13.461  16.657  0.00  0.00     0.001 A 
ENDBRANCH   3  14
BRANCH   1  24
HETATM   24  C   UNK N   1      38.052  13.027   9.754  0.00  0.00     0.237 C 
HETATM   25  O   UNK N   1      38.006  12.442   8.685  0.00  0.00    -0.643 OA
BRANCH  24  26
HETATM   26  O   UNK N   1      38.671  14.225   9.808  0.00  0.00    -0.769 OA
HETATM   27  H   UNK N   1      38.981  14.648   9.032  0.00  0.00     0.168 HD
ENDBRANCH  24  26
ENDBRANCH   1  24
TORSDOF 6
ENDMDL
MODEL 6
REMARK VINA RESULT:      -6.8     13.331     16.163
REMARK  6 active torsions:
REMARK  status: ('A' for Active; 'I' for Inactive)
REMARK    1  A    between atoms: O_1  and  C_2 
REMARK    2  A    between atoms: C_2  and  C_4 
REMARK       I    between atoms: C_4  and  N_6 
REMARK    3  A    between atoms: N_6  and  C_7 
REMARK    4  A    between atoms: N_6  and  C_16 
REMARK    5  A    between atoms: C_12  and  C_13 
REMARK    6  A    between atoms: C_13  and  O_15 
ROOT
HETATM    1  C   UNK N   1      26.193  25.387  -8.264  0.00  0.00     0.326 C 
HETATM    2  O   UNK N   1      25.548  26.221  -8.855  0.00  0.00    -0.260 OA
HETATM    3  N   UNK N   1      27.159  25.758  -7.313  0.00  0.00    -0.272 N 
ENDROOT
BRANCH   3   4
HETATM    4  C   UNK N   1      27.904  24.684  -6.657  0.00  0.00     0.060 A 
HETATM    5  C   UNK N   1      29.109  24.264  -7.260  0.00  0.00     0.031 A 
HETATM    6  C   UNK N   1      29.900  23.258  -6.712  0.00  0.00     0.002 A 
HETATM    7  C   UNK N   1      29.534  22.663  -5.514  0.00  0.00     0.001 A 
HETATM    8  C   UNK N   1      28.368  23.062  -4.871  0.00  0.00     0.020 A 
HETATM    9  C   UNK N   1      27.526  24.049  -5.411  0.00  0.00     0.065 A 
BRANCH   9  10
HETATM   10  C   UNK N   1      26.274  24.304  -4.643  0.00  0.00     0.178 C 
HETATM   11  O   UNK N   1      25.185  24.311  -5.192  0.00  0.00    -0.646 OA
BRANCH  10  12
HETATM   12  O   UNK N   1      26.340  24.516  -3.312  0.00  0.00    -0.773 OA
HETATM   13  H   UNK N   1      27.172  24.622  -2.892  0.00  0.00     0.167 HD
ENDBRANCH  10  12
ENDBRANCH   9  10
ENDBRANCH   3   4
BRANCH   3  14
HETATM   14  C   UNK N   1      27.548  27.168  -6.996  0.00  0.00     0.054 A 
HETATM   15  C   UNK N   1      28.421  27.804  -7.905  0.00  0.00     0.031 A 
HETATM   16  C   UNK N   1      28.936  29.080  -7.736  0.00  0.00     0.003 A 
HETATM   17  C   UNK N   1      28.570  29.831  -6.642  0.00  0.00     0.012 A 
HETATM   18  C   UNK N   1      27.652  29.332  -5.734  0.00  0.00    -0.024 A 
HETATM   19  C   UNK N   1      27.104  28.016  -5.883  0.00  0.00     0.001 A 
HETATM   20  C   UNK N   1      27.264  30.166  -4.679  0.00  0.00     0.012 A 
HETATM   21  C   UNK N   1      26.129  27.655  -4.942  0.00  0.00     0.014 A 
HETATM   22  C   UNK N   1      25.735  28.492  -3.898  0.00  0.00     0.001 A 
HETATM   23  C   UNK N   1      26.313  29.746  -3.758  0.00  0.00     0.001 A 
ENDBRANCH   3  14
BRANCH   1  24
HETATM   24  C   UNK N   1      25.804  23.977  -8.605  0.00  0.00     0.237 C 
HETATM   25  O   UNK N   1      26.394  23.318  -9.445  0.00  0.00    -0.643 OA
BRANCH  24  26
HETATM   26  O   UNK N   1      24.816  23.390  -7.900  0.00  0.00    -0.769 OA
HETATM   27  H   UNK N   1      24.873  23.296  -6.969  0.00  0.00     0.168 HD
ENDBRANCH  24  26
ENDBRANCH   1  24
TORSDOF 6
ENDMDL
MODEL 7
REMARK VINA RESULT:      -6.7      5.241      7.599
REMARK  6 active torsions:
REMARK  status: ('A' for Active; 'I' for Inactive)
REMARK    1  A    between atoms: O_1  and  C_2 
REMARK    2  A    between atoms: C_2  and  C_4 
REMARK       I    between atoms: C_4  and  N_6 
REMARK    3  A    between atoms: N_6  and  C_7 
REMARK    4  A    between atoms: N_6  and  C_16 
REMARK    5  A    between atoms: C_12  and  C_13 
REMARK    6  A    between atoms: C_13  and  O_15 
ROOT
HETATM    1  C   UNK N   1      22.405  16.839   5.799  0.00  0.00     0.326 C 
HETATM    2  O   UNK N   1      23.022  16.038   6.462  0.00  0.00    -0.260 OA
HETATM    3  N   UNK N   1      22.700  17.035   4.439  0.00  0.00    -0.272 N 
ENDROOT
BRANCH   3   4
HETATM    4  C   UNK N   1      21.912  18.035   3.718  0.00  0.00     0.060 A 
HETATM    5  C   UNK N   1      22.498  19.303   3.516  0.00  0.00     0.031 A 
HETATM    6  C   UNK N   1      21.840  20.322   2.832  0.00  0.00     0.002 A 
HETATM    7  C   UNK N   1      20.585  20.094   2.288  0.00  0.00     0.001 A 
HETATM    8  C   UNK N   1      19.980  18.852   2.439  0.00  0.00     0.020 A 
HETATM    9  C   UNK N   1      20.598  17.810   3.152  0.00  0.00     0.065 A 
BRANCH   9  10
HETATM   10  C   UNK N   1      19.784  16.570   3.295  0.00  0.00     0.178 C 
HETATM   11  O   UNK N   1      19.986  15.595   2.591  0.00  0.00    -0.646 OA
BRANCH  10  12
HETATM   12  O   UNK N   1      18.813  16.514   4.231  0.00  0.00    -0.773 OA
HETATM   13  H   UNK N   1      18.470  15.685   4.506  0.00  0.00     0.167 HD
ENDBRANCH  10  12
ENDBRANCH   9  10
ENDBRANCH   3   4
BRANCH   3  14
HETATM   14  C   UNK N   1      23.821  16.369   3.704  0.00  0.00     0.054 A 
HETATM   15  C   UNK N   1      23.469  15.320   2.828  0.00  0.00     0.031 A 
HETATM   16  C   UNK N   1      24.380  14.551   2.120  0.00  0.00     0.003 A 
HETATM   17  C   UNK N   1      25.727  14.817   2.215  0.00  0.00     0.012 A 
HETATM   18  C   UNK N   1      26.171  15.881   2.981  0.00  0.00    -0.024 A 
HETATM   19  C   UNK N   1      25.253  16.693   3.726  0.00  0.00     0.001 A 
HETATM   20  C   UNK N   1      27.545  16.149   2.987  0.00  0.00     0.012 A 
HETATM   21  C   UNK N   1      25.817  17.784   4.401  0.00  0.00     0.014 A 
HETATM   22  C   UNK N   1      27.185  18.055   4.395  0.00  0.00     0.001 A 
HETATM   23  C   UNK N   1      28.054  17.228   3.697  0.00  0.00     0.001 A 
ENDBRANCH   3  14
BRANCH   1  24
HETATM   24  C   UNK N   1      21.294  17.512   6.555  0.00  0.00     0.237 C 
HETATM   25  O   UNK N   1      21.346  18.682   6.893  0.00  0.00    -0.643 OA
BRANCH  24  26
HETATM   26  O   UNK N   1      20.164  16.817   6.799  0.00  0.00    -0.769 OA
HETATM   27  H   UNK N   1      20.015  15.978   6.409  0.00  0.00     0.168 HD
ENDBRANCH  24  26
ENDBRANCH   1  24
TORSDOF 6
ENDMDL
MODEL 8
REMARK VINA RESULT:      -6.7      6.549      9.739
REMARK  6 active torsions:
REMARK  status: ('A' for Active; 'I' for Inactive)
REMARK    1  A    between atoms: O_1  and  C_2 
REMARK    2  A    between atoms: C_2  and  C_4 
REMARK       I    between atoms: C_4  and  N_6 
REMARK    3  A    between atoms: N_6  and  C_7 
REMARK    4  A    between atoms: N_6  and  C_16 
REMARK    5  A    between atoms: C_12  and  C_13 
REMARK    6  A    between atoms: C_13  and  O_15 
ROOT
HETATM    1  C   UNK N   1      20.763  17.092   5.143  0.00  0.00     0.326 C 
HETATM    2  O   UNK N   1      19.741  16.465   5.299  0.00  0.00    -0.260 OA
HETATM    3  N   UNK N   1      21.349  17.218   3.872  0.00  0.00    -0.272 N 
ENDROOT
BRANCH   3   4
HETATM    4  C   UNK N   1      22.593  17.982   3.778  0.00  0.00     0.060 A 
HETATM    5  C   UNK N   1      23.800  17.295   4.027  0.00  0.00     0.031 A 
HETATM    6  C   UNK N   1      25.039  17.925   3.953  0.00  0.00     0.002 A 
HETATM    7  C   UNK N   1      25.118  19.259   3.584  0.00  0.00     0.001 A 
HETATM    8  C   UNK N   1      23.957  19.969   3.304  0.00  0.00     0.020 A 
HETATM    9  C   UNK N   1      22.686  19.378   3.402  0.00  0.00     0.065 A 
BRANCH   9  10
HETATM   10  C   UNK N   1      21.539  20.294   3.150  0.00  0.00     0.178 C 
HETATM   11  O   UNK N   1      21.480  20.973   2.138  0.00  0.00    -0.646 OA
BRANCH  10  12
HETATM   12  O   UNK N   1      20.534  20.368   4.049  0.00  0.00    -0.773 OA
HETATM   13  H   UNK N   1      19.986  19.624   4.206  0.00  0.00     0.167 HD
ENDBRANCH  10  12
ENDBRANCH   9  10
ENDBRANCH   3   4
BRANCH   3  14
HETATM   14  C   UNK N   1      20.850  16.547   2.631  0.00  0.00     0.054 A 
HETATM   15  C   UNK N   1      20.182  17.364   1.694  0.00  0.00     0.031 A 
HETATM   16  C   UNK N   1      19.597  16.901   0.525  0.00  0.00     0.003 A 
HETATM   17  C   UNK N   1      19.682  15.567   0.194  0.00  0.00     0.012 A 
HETATM   18  C   UNK N   1      20.389  14.695   1.004  0.00  0.00    -0.024 A 
HETATM   19  C   UNK N   1      21.003  15.145   2.219  0.00  0.00     0.001 A 
HETATM   20  C   UNK N   1      20.501  13.365   0.584  0.00  0.00     0.012 A 
HETATM   21  C   UNK N   1      21.753  14.185   2.912  0.00  0.00     0.014 A 
HETATM   22  C   UNK N   1      21.873  12.863   2.485  0.00  0.00     0.001 A 
HETATM   23  C   UNK N   1      21.235  12.447   1.325  0.00  0.00     0.001 A 
ENDBRANCH   3  14
BRANCH   1  24
HETATM   24  C   UNK N   1      21.262  17.745   6.401  0.00  0.00     0.237 C 
HETATM   25  O   UNK N   1      20.966  18.886   6.711  0.00  0.00    -0.643 OA
BRANCH  24  26
HETATM   26  O   UNK N   1      22.004  17.014   7.258  0.00  0.00    -0.769 OA
HETATM   27  H   UNK N   1      22.138  16.096   7.124  0.00  0.00     0.168 HD
ENDBRANCH  24  26
ENDBRANCH   1  24
TORSDOF 6
ENDMDL
MODEL 9
REMARK VINA RESULT:      -6.7      5.236      8.326
REMARK  6 active torsions:
REMARK  status: ('A' for Active; 'I' for Inactive)
REMARK    1  A    between atoms: O_1  and  C_2 
REMARK    2  A    between atoms: C_2  and  C_4 
REMARK       I    between atoms: C_4  and  N_6 
REMARK    3  A    between atoms: N_6  and  C_7 
REMARK    4  A    between atoms: N_6  and  C_16 
REMARK    5  A    between atoms: C_12  and  C_13 
REMARK    6  A    between atoms: C_13  and  O_15 
ROOT
HETATM    1  C   UNK N   1      21.596  17.572   6.019  0.00  0.00     0.326 C 
HETATM    2  O   UNK N   1      21.653  18.584   6.676  0.00  0.00    -0.260 OA
HETATM    3  N   UNK N   1      22.290  17.457   4.802  0.00  0.00    -0.272 N 
ENDROOT
BRANCH   3   4
HETATM    4  C   UNK N   1      22.152  16.201   4.065  0.00  0.00     0.060 A 
HETATM    5  C   UNK N   1      23.111  15.195   4.308  0.00  0.00     0.031 A 
HETATM    6  C   UNK N   1      23.065  13.959   3.669  0.00  0.00     0.002 A 
HETATM    7  C   UNK N   1      22.030  13.669   2.792  0.00  0.00     0.001 A 
HETATM    8  C   UNK N   1      21.048  14.620   2.543  0.00  0.00     0.020 A 
HETATM    9  C   UNK N   1      21.080  15.891   3.142  0.00  0.00     0.065 A 
BRANCH   9  10
HETATM   10  C   UNK N   1      20.003  16.824   2.707  0.00  0.00     0.178 C 
HETATM   11  O   UNK N   1      19.981  17.285   1.577  0.00  0.00    -0.646 OA
BRANCH  10  12
HETATM   12  O   UNK N   1      19.020  17.158   3.571  0.00  0.00    -0.773 OA
HETATM   13  H   UNK N   1      18.677  18.030   3.580  0.00  0.00     0.167 HD
ENDBRANCH  10  12
ENDBRANCH   9  10
ENDBRANCH   3   4
BRANCH   3  14
HETATM   14  C   UNK N   1      23.076  18.557   4.161  0.00  0.00     0.054 A 
HETATM   15  C   UNK N   1      22.340  19.533   3.455  0.00  0.00     0.031 A 
HETATM   16  C   UNK N   1      22.905  20.582   2.746  0.00  0.00     0.003 A 
HETATM   17  C   UNK N   1      24.272  20.745   2.732  0.00  0.00     0.012 A 
HETATM   18  C   UNK N   1      25.080  19.891   3.462  0.00  0.00    -0.024 A 
HETATM   19  C   UNK N   1      24.523  18.798   4.204  0.00  0.00     0.001 A 
HETATM   20  C   UNK N   1      26.457  20.146   3.467  0.00  0.00     0.012 A 
HETATM   21  C   UNK N   1      25.436  18.051   4.962  0.00  0.00     0.014 A 
HETATM   22  C   UNK N   1      26.806  18.315   4.975  0.00  0.00     0.001 A 
HETATM   23  C   UNK N   1      27.320  19.356   4.216  0.00  0.00     0.001 A 
ENDBRANCH   3  14
BRANCH   1  24
HETATM   24  C   UNK N   1      20.789  16.482   6.667  0.00  0.00     0.237 C 
HETATM   25  O   UNK N   1      19.620  16.277   6.388  0.00  0.00    -0.643 OA
BRANCH  24  26
HETATM   26  O   UNK N   1      21.403  15.649   7.531  0.00  0.00    -0.769 OA
HETATM   27  H   UNK N   1      21.644  15.932   8.392  0.00  0.00     0.168 HD
ENDBRANCH  24  26
ENDBRANCH   1  24
TORSDOF 6
ENDMDL
