MODEL 1
REMARK VINA RESULT:      -8.7      0.000      0.000
REMARK  5 active torsions:
REMARK  status: ('A' for Active; 'I' for Inactive)
REMARK    1  A    between atoms: O_1  and  C_2 
REMARK    2  A    between atoms: C_5  and  C_8 
REMARK       I    between atoms: C_8  and  N_10 
REMARK    3  A    between atoms: N_16  and  C_23 
REMARK    4  A    between atoms: C_23  and  C_24 
REMARK    5  A    between atoms: C_27  and  O_28 
ROOT
HETATM    1  C   UNK N   1      21.329  14.448   8.319  0.00  0.00     0.254 C 
HETATM    2  O   UNK N   1      20.659  15.449   8.533  0.00  0.00    -0.267 OA
HETATM    3  N   UNK N   1      21.711  14.166   7.027  0.00  0.00    -0.342 N 
HETATM    4  C   UNK N   1      22.442  12.944   6.694  0.00  0.00     0.131 C 
HETATM    5  C   UNK N   1      23.594  13.224   5.738  0.00  0.00     0.061 C 
HETATM    6  C   UNK N   1      22.981  13.859   4.547  0.00  0.00    -0.020 A 
HETATM    7  C   UNK N   1      21.917  14.727   4.630  0.00  0.00     0.037 A 
HETATM    8  C   UNK N   1      21.292  15.078   5.954  0.00  0.00     0.183 C 
HETATM    9  N   UNK N   1      21.548  15.142   3.381  0.00  0.00    -0.343 N 
HETATM   10  C   UNK N   1      22.386  14.510   2.528  0.00  0.00     0.045 A 
HETATM   11  C   UNK N   1      23.272  13.715   3.216  0.00  0.00    -0.001 A 
HETATM   12  C   UNK N   1      24.233  12.944   2.571  0.00  0.00     0.014 A 
HETATM   13  C   UNK N   1      24.276  12.996   1.167  0.00  0.00     0.001 A 
HETATM   14  C   UNK N   1      23.368  13.811   0.452  0.00  0.00     0.002 A 
HETATM   15  C   UNK N   1      22.407  14.583   1.134  0.00  0.00     0.030 A 
ENDROOT
BRANCH   1  16
HETATM   16  C   UNK N   1      21.685  13.583   9.498  0.00  0.00     0.032 A 
HETATM   17  C   UNK N   1      23.012  13.277   9.842  0.00  0.00     0.020 A 
HETATM   18  C   UNK N   1      23.306  12.483  10.951  0.00  0.00     0.037 A 
HETATM   19  C   UNK N   1      22.272  11.978  11.737  0.00  0.00     0.065 A 
HETATM   20  C   UNK N   1      20.945  12.270  11.414  0.00  0.00     0.037 A 
HETATM   21  C   UNK N   1      20.653  13.069  10.303  0.00  0.00     0.020 A 
BRANCH  19  22
HETATM   22  O   UNK N   1      22.554  11.216  12.805  0.00  0.00    -0.361 OA
HETATM   23  H   UNK N   1      22.429  10.287  12.769  0.00  0.00     0.217 HD
ENDBRANCH  19  22
ENDBRANCH   1  16
BRANCH   9  24
HETATM   24  C   UNK N   1      20.478  16.061   2.960  0.00  0.00     0.167 C 
BRANCH  24  25
HETATM   25  C   UNK N   1      20.915  17.484   2.850  0.00  0.00    -0.040 A 
HETATM   26  C   UNK N   1      21.924  17.966   3.690  0.00  0.00     0.011 A 
HETATM   27  C   UNK N   1      22.284  19.316   3.644  0.00  0.00     0.037 A 
HETATM   28  C   UNK N   1      21.638  20.183   2.758  0.00  0.00     0.065 A 
HETATM   29  C   UNK N   1      20.642  19.698   1.905  0.00  0.00     0.037 A 
HETATM   30  C   UNK N   1      20.280  18.349   1.949  0.00  0.00     0.011 A 
BRANCH  28  31
HETATM   31  O   UNK N   1      21.971  21.483   2.729  0.00  0.00    -0.361 OA
HETATM   32  H   UNK N   1      22.700  21.792   3.230  0.00  0.00     0.217 HD
ENDBRANCH  28  31
ENDBRANCH  24  25
ENDBRANCH   9  24
TORSDOF 5
ENDMDL
MODEL 2
REMARK VINA RESULT:      -8.6      2.452      4.608
REMARK  5 active torsions:
REMARK  status: ('A' for Active; 'I' for Inactive)
REMARK    1  A    between atoms: O_1  and  C_2 
REMARK    2  A    between atoms: C_5  and  C_8 
REMARK       I    between atoms: C_8  and  N_10 
REMARK    3  A    between atoms: N_16  and  C_23 
REMARK    4  A    between atoms: C_23  and  C_24 
REMARK    5  A    between atoms: C_27  and  O_28 
ROOT
HETATM    1  C   UNK N   1      21.378  12.781   7.183  0.00  0.00     0.254 C 
HETATM    2  O   UNK N   1      20.708  11.830   6.801  0.00  0.00    -0.267 OA
HETATM    3  N   UNK N   1      21.400  13.928   6.423  0.00  0.00    -0.342 N 
HETATM    4  C   UNK N   1      22.242  15.068   6.781  0.00  0.00     0.131 C 
HETATM    5  C   UNK N   1      21.489  16.385   6.650  0.00  0.00     0.061 C 
HETATM    6  C   UNK N   1      21.027  16.443   5.242  0.00  0.00    -0.020 A 
HETATM    7  C   UNK N   1      20.613  15.330   4.547  0.00  0.00     0.037 A 
HETATM    8  C   UNK N   1      20.619  13.963   5.179  0.00  0.00     0.183 C 
HETATM    9  N   UNK N   1      20.262  15.673   3.272  0.00  0.00    -0.343 N 
HETATM   10  C   UNK N   1      20.477  17.006   3.184  0.00  0.00     0.045 A 
HETATM   11  C   UNK N   1      20.949  17.502   4.376  0.00  0.00    -0.001 A 
HETATM   12  C   UNK N   1      21.266  18.845   4.548  0.00  0.00     0.014 A 
HETATM   13  C   UNK N   1      21.090  19.702   3.448  0.00  0.00     0.001 A 
HETATM   14  C   UNK N   1      20.606  19.199   2.218  0.00  0.00     0.002 A 
HETATM   15  C   UNK N   1      20.292  17.834   2.076  0.00  0.00     0.030 A 
ENDROOT
BRANCH   1  16
HETATM   16  C   UNK N   1      22.146  12.621   8.468  0.00  0.00     0.032 A 
HETATM   17  C   UNK N   1      21.554  12.780   9.730  0.00  0.00     0.020 A 
HETATM   18  C   UNK N   1      22.293  12.610  10.902  0.00  0.00     0.037 A 
HETATM   19  C   UNK N   1      23.644  12.277  10.828  0.00  0.00     0.065 A 
HETATM   20  C   UNK N   1      24.254  12.113   9.582  0.00  0.00     0.037 A 
HETATM   21  C   UNK N   1      23.510  12.281   8.409  0.00  0.00     0.020 A 
BRANCH  19  22
HETATM   22  O   UNK N   1      24.356  12.111  11.953  0.00  0.00    -0.361 OA
HETATM   23  H   UNK N   1      24.878  11.342  12.073  0.00  0.00     0.217 HD
ENDBRANCH  19  22
ENDBRANCH   1  16
BRANCH   9  24
HETATM   24  C   UNK N   1      19.764  14.842   2.164  0.00  0.00     0.167 C 
BRANCH  24  25
HETATM   25  C   UNK N   1      20.833  14.078   1.456  0.00  0.00    -0.040 A 
HETATM   26  C   UNK N   1      20.608  12.747   1.091  0.00  0.00     0.011 A 
HETATM   27  C   UNK N   1      21.631  12.004   0.497  0.00  0.00     0.037 A 
HETATM   28  C   UNK N   1      22.880  12.590   0.268  0.00  0.00     0.065 A 
HETATM   29  C   UNK N   1      23.100  13.926   0.616  0.00  0.00     0.037 A 
HETATM   30  C   UNK N   1      22.078  14.671   1.210  0.00  0.00     0.011 A 
BRANCH  28  31
HETATM   31  O   UNK N   1      23.868  11.869  -0.284  0.00  0.00    -0.361 OA
HETATM   32  H   UNK N   1      23.665  11.138  -0.834  0.00  0.00     0.217 HD
ENDBRANCH  28  31
ENDBRANCH  24  25
ENDBRANCH   9  24
TORSDOF 5
ENDMDL
MODEL 3
REMARK VINA RESULT:      -8.4      1.828      8.084
REMARK  5 active torsions:
REMARK  status: ('A' for Active; 'I' for Inactive)
REMARK    1  A    between atoms: O_1  and  C_2 
REMARK    2  A    between atoms: C_5  and  C_8 
REMARK       I    between atoms: C_8  and  N_10 
REMARK    3  A    between atoms: N_16  and  C_23 
REMARK    4  A    between atoms: C_23  and  C_24 
REMARK    5  A    between atoms: C_27  and  O_28 
ROOT
HETATM    1  C   UNK N   1      21.910  18.001   5.195  0.00  0.00     0.254 C 
HETATM    2  O   UNK N   1      21.829  18.503   6.308  0.00  0.00    -0.267 OA
HETATM    3  N   UNK N   1      22.317  16.691   5.083  0.00  0.00    -0.342 N 
HETATM    4  C   UNK N   1      22.512  16.059   3.779  0.00  0.00     0.131 C 
HETATM    5  C   UNK N   1      21.914  14.659   3.741  0.00  0.00     0.061 C 
HETATM    6  C   UNK N   1      22.576  13.910   4.837  0.00  0.00    -0.020 A 
HETATM    7  C   UNK N   1      22.915  14.492   6.037  0.00  0.00     0.037 A 
HETATM    8  C   UNK N   1      22.644  15.948   6.307  0.00  0.00     0.183 C 
HETATM    9  N   UNK N   1      23.525  13.578   6.848  0.00  0.00    -0.343 N 
HETATM   10  C   UNK N   1      23.571  12.432   6.131  0.00  0.00     0.045 A 
HETATM   11  C   UNK N   1      22.999  12.609   4.894  0.00  0.00    -0.001 A 
HETATM   12  C   UNK N   1      22.932  11.587   3.953  0.00  0.00     0.014 A 
HETATM   13  C   UNK N   1      23.478  10.340   4.306  0.00  0.00     0.001 A 
HETATM   14  C   UNK N   1      24.068  10.150   5.577  0.00  0.00     0.002 A 
HETATM   15  C   UNK N   1      24.119  11.205   6.509  0.00  0.00     0.030 A 
ENDROOT
BRANCH   1  16
HETATM   16  C   UNK N   1      21.561  18.867   4.014  0.00  0.00     0.032 A 
HETATM   17  C   UNK N   1      22.488  19.728   3.405  0.00  0.00     0.020 A 
HETATM   18  C   UNK N   1      22.134  20.506   2.302  0.00  0.00     0.037 A 
HETATM   19  C   UNK N   1      20.841  20.435   1.788  0.00  0.00     0.065 A 
HETATM   20  C   UNK N   1      19.903  19.584   2.377  0.00  0.00     0.037 A 
HETATM   21  C   UNK N   1      20.261  18.803   3.481  0.00  0.00     0.020 A 
BRANCH  19  22
HETATM   22  O   UNK N   1      20.501  21.181   0.726  0.00  0.00    -0.361 OA
HETATM   23  H   UNK N   1      20.996  21.126  -0.068  0.00  0.00     0.217 HD
ENDBRANCH  19  22
ENDBRANCH   1  16
BRANCH   9  24
HETATM   24  C   UNK N   1      24.060  13.722   8.212  0.00  0.00     0.167 C 
BRANCH  24  25
HETATM   25  C   UNK N   1      23.131  13.241   9.277  0.00  0.00    -0.040 A 
HETATM   26  C   UNK N   1      23.591  12.342  10.245  0.00  0.00     0.011 A 
HETATM   27  C   UNK N   1      22.708  11.829  11.198  0.00  0.00     0.037 A 
HETATM   28  C   UNK N   1      21.363  12.214  11.185  0.00  0.00     0.065 A 
HETATM   29  C   UNK N   1      20.906  13.126  10.229  0.00  0.00     0.037 A 
HETATM   30  C   UNK N   1      21.788  13.640   9.275  0.00  0.00     0.011 A 
BRANCH  28  31
HETATM   31  O   UNK N   1      20.511  11.705  12.088  0.00  0.00    -0.361 OA
HETATM   32  H   UNK N   1      19.687  12.124  12.243  0.00  0.00     0.217 HD
ENDBRANCH  28  31
ENDBRANCH  24  25
ENDBRANCH   9  24
TORSDOF 5
ENDMDL
MODEL 4
REMARK VINA RESULT:      -8.2      5.728      7.118
REMARK  5 active torsions:
REMARK  status: ('A' for Active; 'I' for Inactive)
REMARK    1  A    between atoms: O_1  and  C_2 
REMARK    2  A    between atoms: C_5  and  C_8 
REMARK       I    between atoms: C_8  and  N_10 
REMARK    3  A    between atoms: N_16  and  C_23 
REMARK    4  A    between atoms: C_23  and  C_24 
REMARK    5  A    between atoms: C_27  and  O_28 
ROOT
HETATM    1  C   UNK N   1      28.946  17.870   5.503  0.00  0.00     0.254 C 
HETATM    2  O   UNK N   1      28.582  18.877   6.096  0.00  0.00    -0.267 OA
HETATM    3  N   UNK N   1      28.006  17.112   4.841  0.00  0.00    -0.342 N 
HETATM    4  C   UNK N   1      28.362  15.856   4.182  0.00  0.00     0.131 C 
HETATM    5  C   UNK N   1      27.723  15.747   2.804  0.00  0.00     0.061 C 
HETATM    6  C   UNK N   1      26.263  15.875   3.027  0.00  0.00    -0.020 A 
HETATM    7  C   UNK N   1      25.726  16.708   3.981  0.00  0.00     0.037 A 
HETATM    8  C   UNK N   1      26.602  17.541   4.878  0.00  0.00     0.183 C 
HETATM    9  N   UNK N   1      24.363  16.611   3.978  0.00  0.00    -0.343 N 
HETATM   10  C   UNK N   1      24.067  15.699   3.024  0.00  0.00     0.045 A 
HETATM   11  C   UNK N   1      25.213  15.230   2.428  0.00  0.00    -0.001 A 
HETATM   12  C   UNK N   1      25.188  14.270   1.423  0.00  0.00     0.014 A 
HETATM   13  C   UNK N   1      23.933  13.778   1.023  0.00  0.00     0.001 A 
HETATM   14  C   UNK N   1      22.750  14.255   1.632  0.00  0.00     0.002 A 
HETATM   15  C   UNK N   1      22.808  15.230   2.646  0.00  0.00     0.030 A 
ENDROOT
BRANCH   1  16
HETATM   16  C   UNK N   1      30.410  17.525   5.547  0.00  0.00     0.032 A 
HETATM   17  C   UNK N   1      31.256  17.663   4.436  0.00  0.00     0.020 A 
HETATM   18  C   UNK N   1      32.613  17.346   4.517  0.00  0.00     0.037 A 
HETATM   19  C   UNK N   1      33.147  16.884   5.718  0.00  0.00     0.065 A 
HETATM   20  C   UNK N   1      32.324  16.739   6.837  0.00  0.00     0.037 A 
HETATM   21  C   UNK N   1      30.965  17.060   6.753  0.00  0.00     0.020 A 
BRANCH  19  22
HETATM   22  O   UNK N   1      34.452  16.581   5.797  0.00  0.00    -0.361 OA
HETATM   23  H   UNK N   1      34.777  16.078   6.519  0.00  0.00     0.217 HD
ENDBRANCH  19  22
ENDBRANCH   1  16
BRANCH   9  24
HETATM   24  C   UNK N   1      23.357  17.298   4.806  0.00  0.00     0.167 C 
BRANCH  24  25
HETATM   25  C   UNK N   1      22.749  18.491   4.147  0.00  0.00    -0.040 A 
HETATM   26  C   UNK N   1      21.358  18.611   4.079  0.00  0.00     0.011 A 
HETATM   27  C   UNK N   1      20.783  19.687   3.397  0.00  0.00     0.037 A 
HETATM   28  C   UNK N   1      21.598  20.643   2.783  0.00  0.00     0.065 A 
HETATM   29  C   UNK N   1      22.990  20.534   2.866  0.00  0.00     0.037 A 
HETATM   30  C   UNK N   1      23.566  19.459   3.548  0.00  0.00     0.011 A 
BRANCH  28  31
HETATM   31  O   UNK N   1      21.045  21.665   2.112  0.00  0.00    -0.361 OA
HETATM   32  H   UNK N   1      20.172  21.941   2.312  0.00  0.00     0.217 HD
ENDBRANCH  28  31
ENDBRANCH  24  25
ENDBRANCH   9  24
TORSDOF 5
ENDMDL
MODEL 5
REMARK VINA RESULT:      -8.0     12.861     15.127
REMARK  5 active torsions:
REMARK  status: ('A' for Active; 'I' for Inactive)
REMARK    1  A    between atoms: O_1  and  C_2 
REMARK    2  A    between atoms: C_5  and  C_8 
REMARK       I    between atoms: C_8  and  N_10 
REMARK    3  A    between atoms: N_16  and  C_23 
REMARK    4  A    between atoms: C_23  and  C_24 
REMARK    5  A    between atoms: C_27  and  O_28 
ROOT
HETATM    1  C   UNK N   1      36.301  12.651  15.250  0.00  0.00     0.254 C 
HETATM    2  O   UNK N   1      37.364  13.221  15.041  0.00  0.00    -0.267 OA
HETATM    3  N   UNK N   1      35.574  12.183  14.178  0.00  0.00    -0.342 N 
HETATM    4  C   UNK N   1      34.260  11.567  14.354  0.00  0.00     0.131 C 
HETATM    5  C   UNK N   1      34.117  10.305  13.515  0.00  0.00     0.061 C 
HETATM    6  C   UNK N   1      34.361  10.724  12.114  0.00  0.00    -0.020 A 
HETATM    7  C   UNK N   1      35.286  11.686  11.775  0.00  0.00     0.037 A 
HETATM    8  C   UNK N   1      36.105  12.391  12.824  0.00  0.00     0.183 C 
HETATM    9  N   UNK N   1      35.286  11.884  10.424  0.00  0.00    -0.343 N 
HETATM   10  C   UNK N   1      34.344  11.045   9.935  0.00  0.00     0.045 A 
HETATM   11  C   UNK N   1      33.760  10.326  10.950  0.00  0.00    -0.001 A 
HETATM   12  C   UNK N   1      32.746   9.402  10.718  0.00  0.00     0.014 A 
HETATM   13  C   UNK N   1      32.323   9.219   9.390  0.00  0.00     0.001 A 
HETATM   14  C   UNK N   1      32.919   9.956   8.340  0.00  0.00     0.002 A 
HETATM   15  C   UNK N   1      33.944  10.884   8.608  0.00  0.00     0.030 A 
ENDROOT
BRANCH   1  16
HETATM   16  C   UNK N   1      35.855  12.510  16.681  0.00  0.00     0.032 A 
HETATM   17  C   UNK N   1      35.826  11.276  17.348  0.00  0.00     0.020 A 
HETATM   18  C   UNK N   1      35.420  11.184  18.680  0.00  0.00     0.037 A 
HETATM   19  C   UNK N   1      35.034  12.332  19.369  0.00  0.00     0.065 A 
HETATM   20  C   UNK N   1      35.055  13.571  18.725  0.00  0.00     0.037 A 
HETATM   21  C   UNK N   1      35.466  13.661  17.390  0.00  0.00     0.020 A 
BRANCH  19  22
HETATM   22  O   UNK N   1      34.645  12.246  20.650  0.00  0.00    -0.361 OA
HETATM   23  H   UNK N   1      34.726  11.435  21.115  0.00  0.00     0.217 HD
ENDBRANCH  19  22
ENDBRANCH   1  16
BRANCH   9  24
HETATM   24  C   UNK N   1      36.090  12.797   9.595  0.00  0.00     0.167 C 
BRANCH  24  25
HETATM   25  C   UNK N   1      35.510  14.167   9.474  0.00  0.00    -0.040 A 
HETATM   26  C   UNK N   1      34.696  14.481   8.381  0.00  0.00     0.011 A 
HETATM   27  C   UNK N   1      34.213  15.783   8.222  0.00  0.00     0.037 A 
HETATM   28  C   UNK N   1      34.543  16.771   9.155  0.00  0.00     0.065 A 
HETATM   29  C   UNK N   1      35.342  16.454  10.257  0.00  0.00     0.037 A 
HETATM   30  C   UNK N   1      35.825  15.152  10.419  0.00  0.00     0.011 A 
BRANCH  28  31
HETATM   31  O   UNK N   1      34.095  18.025   8.990  0.00  0.00    -0.361 OA
HETATM   32  H   UNK N   1      33.920  18.563   9.737  0.00  0.00     0.217 HD
ENDBRANCH  28  31
ENDBRANCH  24  25
ENDBRANCH   9  24
TORSDOF 5
ENDMDL
MODEL 6
REMARK VINA RESULT:      -7.7      2.263      7.862
REMARK  5 active torsions:
REMARK  status: ('A' for Active; 'I' for Inactive)
REMARK    1  A    between atoms: O_1  and  C_2 
REMARK    2  A    between atoms: C_5  and  C_8 
REMARK       I    between atoms: C_8  and  N_10 
REMARK    3  A    between atoms: N_16  and  C_23 
REMARK    4  A    between atoms: C_23  and  C_24 
REMARK    5  A    between atoms: C_27  and  O_28 
ROOT
HETATM    1  C   UNK N   1      22.777  17.746   5.405  0.00  0.00     0.254 C 
HETATM    2  O   UNK N   1      22.152  18.234   6.337  0.00  0.00    -0.267 OA
HETATM    3  N   UNK N   1      22.738  16.382   5.219  0.00  0.00    -0.342 N 
HETATM    4  C   UNK N   1      23.526  15.729   4.175  0.00  0.00     0.131 C 
HETATM    5  C   UNK N   1      22.708  14.685   3.427  0.00  0.00     0.061 C 
HETATM    6  C   UNK N   1      22.236  13.731   4.459  0.00  0.00    -0.020 A 
HETATM    7  C   UNK N   1      21.873  14.124   5.727  0.00  0.00     0.037 A 
HETATM    8  C   UNK N   1      21.950  15.567   6.152  0.00  0.00     0.183 C 
HETATM    9  N   UNK N   1      21.499  13.040   6.468  0.00  0.00    -0.343 N 
HETATM   10  C   UNK N   1      21.649  11.973   5.650  0.00  0.00     0.045 A 
HETATM   11  C   UNK N   1      22.102  12.368   4.414  0.00  0.00    -0.001 A 
HETATM   12  C   UNK N   1      22.354  11.462   3.391  0.00  0.00     0.014 A 
HETATM   13  C   UNK N   1      22.130  10.099   3.658  0.00  0.00     0.001 A 
HETATM   14  C   UNK N   1      21.665   9.685   4.927  0.00  0.00     0.002 A 
HETATM   15  C   UNK N   1      21.417  10.628   5.943  0.00  0.00     0.030 A 
ENDROOT
BRANCH   1  16
HETATM   16  C   UNK N   1      23.559  18.682   4.523  0.00  0.00     0.032 A 
HETATM   17  C   UNK N   1      22.954  19.479   3.538  0.00  0.00     0.020 A 
HETATM   18  C   UNK N   1      23.709  20.347   2.747  0.00  0.00     0.037 A 
HETATM   19  C   UNK N   1      25.087  20.432   2.931  0.00  0.00     0.065 A 
HETATM   20  C   UNK N   1      25.710  19.649   3.906  0.00  0.00     0.037 A 
HETATM   21  C   UNK N   1      24.950  18.782   4.699  0.00  0.00     0.020 A 
BRANCH  19  22
HETATM   22  O   UNK N   1      25.813  21.268   2.173  0.00  0.00    -0.361 OA
HETATM   23  H   UNK N   1      26.539  21.732   2.544  0.00  0.00     0.217 HD
ENDBRANCH  19  22
ENDBRANCH   1  16
BRANCH   9  24
HETATM   24  C   UNK N   1      21.036  12.953   7.863  0.00  0.00     0.167 C 
BRANCH  24  25
HETATM   25  C   UNK N   1      22.131  12.707   8.847  0.00  0.00    -0.040 A 
HETATM   26  C   UNK N   1      21.815  12.334  10.157  0.00  0.00     0.011 A 
HETATM   27  C   UNK N   1      22.832  12.176  11.103  0.00  0.00     0.037 A 
HETATM   28  C   UNK N   1      24.165  12.392  10.740  0.00  0.00     0.065 A 
HETATM   29  C   UNK N   1      24.483  12.748   9.426  0.00  0.00     0.037 A 
HETATM   30  C   UNK N   1      23.468  12.905   8.479  0.00  0.00     0.011 A 
BRANCH  28  31
HETATM   31  O   UNK N   1      25.138  12.260  11.654  0.00  0.00    -0.361 OA
HETATM   32  H   UNK N   1      25.695  11.506  11.641  0.00  0.00     0.217 HD
ENDBRANCH  28  31
ENDBRANCH  24  25
ENDBRANCH   9  24
TORSDOF 5
ENDMDL
MODEL 7
REMARK VINA RESULT:      -7.7      6.761      9.575
REMARK  5 active torsions:
REMARK  status: ('A' for Active; 'I' for Inactive)
REMARK    1  A    between atoms: O_1  and  C_2 
REMARK    2  A    between atoms: C_5  and  C_8 
REMARK       I    between atoms: C_8  and  N_10 
REMARK    3  A    between atoms: N_16  and  C_23 
REMARK    4  A    between atoms: C_23  and  C_24 
REMARK    5  A    between atoms: C_27  and  O_28 
ROOT
HETATM    1  C   UNK N   1      25.998  19.300   4.339  0.00  0.00     0.254 C 
HETATM    2  O   UNK N   1      26.511  20.196   4.996  0.00  0.00    -0.267 OA
HETATM    3  N   UNK N   1      26.776  18.235   3.945  0.00  0.00    -0.342 N 
HETATM    4  C   UNK N   1      26.245  17.174   3.090  0.00  0.00     0.131 C 
HETATM    5  C   UNK N   1      26.659  15.796   3.587  0.00  0.00     0.061 C 
HETATM    6  C   UNK N   1      28.141  15.809   3.617  0.00  0.00    -0.020 A 
HETATM    7  C   UNK N   1      28.869  16.923   3.964  0.00  0.00     0.037 A 
HETATM    8  C   UNK N   1      28.194  18.220   4.326  0.00  0.00     0.183 C 
HETATM    9  N   UNK N   1      30.206  16.656   3.887  0.00  0.00    -0.343 N 
HETATM   10  C   UNK N   1      30.295  15.371   3.474  0.00  0.00     0.045 A 
HETATM   11  C   UNK N   1      29.044  14.829   3.298  0.00  0.00    -0.001 A 
HETATM   12  C   UNK N   1      28.855  13.523   2.862  0.00  0.00     0.014 A 
HETATM   13  C   UNK N   1      30.001  12.752   2.598  0.00  0.00     0.001 A 
HETATM   14  C   UNK N   1      31.291  13.302   2.776  0.00  0.00     0.002 A 
HETATM   15  C   UNK N   1      31.450  14.629   3.221  0.00  0.00     0.030 A 
ENDROOT
BRANCH   1  16
HETATM   16  C   UNK N   1      24.538  19.434   3.998  0.00  0.00     0.032 A 
HETATM   17  C   UNK N   1      24.059  20.370   3.068  0.00  0.00     0.020 A 
HETATM   18  C   UNK N   1      22.700  20.457   2.765  0.00  0.00     0.037 A 
HETATM   19  C   UNK N   1      21.793  19.605   3.393  0.00  0.00     0.065 A 
HETATM   20  C   UNK N   1      22.247  18.667   4.322  0.00  0.00     0.037 A 
HETATM   21  C   UNK N   1      23.611  18.579   4.621  0.00  0.00     0.020 A 
BRANCH  19  22
HETATM   22  O   UNK N   1      20.486  19.687   3.101  0.00  0.00    -0.361 OA
HETATM   23  H   UNK N   1      20.186  19.529   2.227  0.00  0.00     0.217 HD
ENDBRANCH  19  22
ENDBRANCH   1  16
BRANCH   9  24
HETATM   24  C   UNK N   1      31.368  17.519   4.159  0.00  0.00     0.167 C 
BRANCH  24  25
HETATM   25  C   UNK N   1      31.938  17.346   5.528  0.00  0.00    -0.040 A 
HETATM   26  C   UNK N   1      31.088  17.063   6.602  0.00  0.00     0.011 A 
HETATM   27  C   UNK N   1      31.605  16.976   7.897  0.00  0.00     0.037 A 
HETATM   28  C   UNK N   1      32.972  17.173   8.120  0.00  0.00     0.065 A 
HETATM   29  C   UNK N   1      33.825  17.438   7.044  0.00  0.00     0.037 A 
HETATM   30  C   UNK N   1      33.310  17.525   5.748  0.00  0.00     0.011 A 
BRANCH  28  31
HETATM   31  O   UNK N   1      33.464  17.109   9.366  0.00  0.00    -0.361 OA
HETATM   32  H   UNK N   1      34.379  16.955   9.502  0.00  0.00     0.217 HD
ENDBRANCH  28  31
ENDBRANCH  24  25
ENDBRANCH   9  24
TORSDOF 5
ENDMDL
MODEL 8
REMARK VINA RESULT:      -7.7     15.211     16.566
REMARK  5 active torsions:
REMARK  status: ('A' for Active; 'I' for Inactive)
REMARK    1  A    between atoms: O_1  and  C_2 
REMARK    2  A    between atoms: C_5  and  C_8 
REMARK       I    between atoms: C_8  and  N_10 
REMARK    3  A    between atoms: N_16  and  C_23 
REMARK    4  A    between atoms: C_23  and  C_24 
REMARK    5  A    between atoms: C_27  and  O_28 
ROOT
HETATM    1  C   UNK N   1      31.325  22.670  -4.095  0.00  0.00     0.254 C 
HETATM    2  O   UNK N   1      30.978  23.121  -3.012  0.00  0.00    -0.267 OA
HETATM    3  N   UNK N   1      30.445  22.725  -5.152  0.00  0.00    -0.342 N 
HETATM    4  C   UNK N   1      30.767  22.131  -6.449  0.00  0.00     0.131 C 
HETATM    5  C   UNK N   1      30.394  23.058  -7.598  0.00  0.00     0.061 C 
HETATM    6  C   UNK N   1      28.943  23.324  -7.442  0.00  0.00    -0.020 A 
HETATM    7  C   UNK N   1      28.338  23.457  -6.214  0.00  0.00     0.037 A 
HETATM    8  C   UNK N   1      29.121  23.322  -4.935  0.00  0.00     0.183 C 
HETATM    9  N   UNK N   1      26.999  23.678  -6.370  0.00  0.00    -0.343 N 
HETATM   10  C   UNK N   1      26.783  23.666  -7.705  0.00  0.00     0.045 A 
HETATM   11  C   UNK N   1      27.957  23.448  -8.385  0.00  0.00    -0.001 A 
HETATM   12  C   UNK N   1      28.009  23.374  -9.773  0.00  0.00     0.014 A 
HETATM   13  C   UNK N   1      26.804  23.530 -10.479  0.00  0.00     0.001 A 
HETATM   14  C   UNK N   1      25.591  23.754  -9.787  0.00  0.00     0.002 A 
HETATM   15  C   UNK N   1      25.572  23.825  -8.380  0.00  0.00     0.030 A 
ENDROOT
BRANCH   1  16
HETATM   16  C   UNK N   1      32.703  22.071  -4.192  0.00  0.00     0.032 A 
HETATM   17  C   UNK N   1      33.769  22.721  -4.833  0.00  0.00     0.020 A 
HETATM   18  C   UNK N   1      35.038  22.142  -4.891  0.00  0.00     0.037 A 
HETATM   19  C   UNK N   1      35.260  20.897  -4.307  0.00  0.00     0.065 A 
HETATM   20  C   UNK N   1      34.214  20.232  -3.663  0.00  0.00     0.037 A 
HETATM   21  C   UNK N   1      32.944  20.816  -3.603  0.00  0.00     0.020 A 
BRANCH  19  22
HETATM   22  O   UNK N   1      36.480  20.340  -4.360  0.00  0.00    -0.361 OA
HETATM   23  H   UNK N   1      37.247  20.877  -4.301  0.00  0.00     0.217 HD
ENDBRANCH  19  22
ENDBRANCH   1  16
BRANCH   9  24
HETATM   24  C   UNK N   1      25.943  23.881  -5.364  0.00  0.00     0.167 C 
BRANCH  24  25
HETATM   25  C   UNK N   1      25.834  25.290  -4.882  0.00  0.00    -0.040 A 
HETATM   26  C   UNK N   1      25.113  26.225  -5.631  0.00  0.00     0.011 A 
HETATM   27  C   UNK N   1      25.071  27.561  -5.225  0.00  0.00     0.037 A 
HETATM   28  C   UNK N   1      25.749  27.964  -4.071  0.00  0.00     0.065 A 
HETATM   29  C   UNK N   1      26.457  27.026  -3.312  0.00  0.00     0.037 A 
HETATM   30  C   UNK N   1      26.499  25.689  -3.716  0.00  0.00     0.011 A 
BRANCH  28  31
HETATM   31  O   UNK N   1      25.725  29.252  -3.694  0.00  0.00    -0.361 OA
HETATM   32  H   UNK N   1      26.366  29.576  -3.092  0.00  0.00     0.217 HD
ENDBRANCH  28  31
ENDBRANCH  24  25
ENDBRANCH   9  24
TORSDOF 5
ENDMDL
MODEL 9
REMARK VINA RESULT:      -7.7     10.726     11.974
REMARK  5 active torsions:
REMARK  status: ('A' for Active; 'I' for Inactive)
REMARK    1  A    between atoms: O_1  and  C_2 
REMARK    2  A    between atoms: C_5  and  C_8 
REMARK       I    between atoms: C_8  and  N_10 
REMARK    3  A    between atoms: N_16  and  C_23 
REMARK    4  A    between atoms: C_23  and  C_24 
REMARK    5  A    between atoms: C_27  and  O_28 
ROOT
HETATM    1  C   UNK N   1      35.442  15.343  10.422  0.00  0.00     0.254 C 
HETATM    2  O   UNK N   1      35.705  16.536  10.499  0.00  0.00    -0.267 OA
HETATM    3  N   UNK N   1      34.614  14.908   9.413  0.00  0.00    -0.342 N 
HETATM    4  C   UNK N   1      34.195  13.510   9.315  0.00  0.00     0.131 C 
HETATM    5  C   UNK N   1      34.284  12.998   7.883  0.00  0.00     0.061 C 
HETATM    6  C   UNK N   1      33.426  13.903   7.081  0.00  0.00    -0.020 A 
HETATM    7  C   UNK N   1      33.323  15.252   7.334  0.00  0.00     0.037 A 
HETATM    8  C   UNK N   1      34.075  15.896   8.469  0.00  0.00     0.183 C 
HETATM    9  N   UNK N   1      32.453  15.831   6.456  0.00  0.00    -0.343 N 
HETATM   10  C   UNK N   1      32.010  14.825   5.667  0.00  0.00     0.045 A 
HETATM   11  C   UNK N   1      32.588  13.633   6.031  0.00  0.00    -0.001 A 
HETATM   12  C   UNK N   1      32.290  12.436   5.388  0.00  0.00     0.014 A 
HETATM   13  C   UNK N   1      31.361  12.477   4.334  0.00  0.00     0.001 A 
HETATM   14  C   UNK N   1      30.761  13.700   3.954  0.00  0.00     0.002 A 
HETATM   15  C   UNK N   1      31.085  14.896   4.624  0.00  0.00     0.030 A 
ENDROOT
BRANCH   1  16
HETATM   16  C   UNK N   1      36.043  14.429  11.456  0.00  0.00     0.032 A 
HETATM   17  C   UNK N   1      35.688  14.480  12.813  0.00  0.00     0.020 A 
HETATM   18  C   UNK N   1      36.255  13.607  13.742  0.00  0.00     0.037 A 
HETATM   19  C   UNK N   1      37.194  12.665  13.326  0.00  0.00     0.065 A 
HETATM   20  C   UNK N   1      37.563  12.596  11.980  0.00  0.00     0.037 A 
HETATM   21  C   UNK N   1      36.989  13.471  11.051  0.00  0.00     0.020 A 
BRANCH  19  22
HETATM   22  O   UNK N   1      37.739  11.824  14.218  0.00  0.00    -0.361 OA
HETATM   23  H   UNK N   1      38.637  11.567  14.138  0.00  0.00     0.217 HD
ENDBRANCH  19  22
ENDBRANCH   1  16
BRANCH   9  24
HETATM   24  C   UNK N   1      32.020  17.233   6.328  0.00  0.00     0.167 C 
BRANCH  24  25
HETATM   25  C   UNK N   1      30.805  17.563   7.131  0.00  0.00    -0.040 A 
HETATM   26  C   UNK N   1      30.940  17.928   8.474  0.00  0.00     0.011 A 
HETATM   27  C   UNK N   1      29.802  18.164   9.250  0.00  0.00     0.037 A 
HETATM   28  C   UNK N   1      28.530  18.034   8.686  0.00  0.00     0.065 A 
HETATM   29  C   UNK N   1      28.394  17.686   7.338  0.00  0.00     0.037 A 
HETATM   30  C   UNK N   1      29.531  17.451   6.560  0.00  0.00     0.011 A 
BRANCH  28  31
HETATM   31  O   UNK N   1      27.438  18.241   9.437  0.00  0.00    -0.361 OA
HETATM   32  H   UNK N   1      26.759  18.811   9.133  0.00  0.00     0.217 HD
ENDBRANCH  28  31
ENDBRANCH  24  25
ENDBRANCH   9  24
TORSDOF 5
ENDMDL
