MODEL 1
REMARK VINA RESULT:      -6.9      0.000      0.000
REMARK  4 active torsions:
REMARK  status: ('A' for Active; 'I' for Inactive)
REMARK    1  A    between atoms: C_1  and  C_7 
REMARK    2  A    between atoms: C_7  and  N_8 
REMARK    3  A    between atoms: C_12  and  C_13 
REMARK    4  A    between atoms: C_19  and  O_20 
ROOT
HETATM    1  C   UNK N   1      35.346  11.990  18.478  0.00  0.00     0.008 A 
HETATM    2  C   UNK N   1      35.573  10.688  17.957  0.00  0.00     0.017 A 
HETATM    3  C   UNK N   1      35.906  10.504  16.597  0.00  0.00     0.031 A 
HETATM    4  C   UNK N   1      35.998  11.640  15.792  0.00  0.00     0.043 A 
HETATM    5  C   UNK N   1      35.776  12.886  16.298  0.00  0.00    -0.006 A 
HETATM    6  C   UNK N   1      35.453  13.106  17.626  0.00  0.00     0.029 A 
HETATM    7  N   UNK N   1      36.287  11.697  14.480  0.00  0.00    -0.355 N 
HETATM    8  C   UNK N   1      35.919  13.788  15.284  0.00  0.00     0.044 A 
HETATM    9  C   UNK N   1      36.234  13.021  14.165  0.00  0.00     0.046 A 
HETATM   10  H   UNK N   1      36.491  10.946  13.878  0.00  0.00     0.166 HD
ENDROOT
BRANCH   9  11
HETATM   11  C   UNK N   1      36.457  13.567  12.802  0.00  0.00     0.026 A 
HETATM   12  C   UNK N   1      35.862  14.784  12.436  0.00  0.00     0.023 A 
HETATM   13  C   UNK N   1      36.064  15.317  11.159  0.00  0.00    -0.060 A 
HETATM   14  C   UNK N   1      35.425  16.604  10.778  0.00  0.00     0.048 C 
HETATM   15  C   UNK N   1      36.869  14.647  10.238  0.00  0.00     0.028 A 
HETATM   16  C   UNK N   1      37.472  13.438  10.585  0.00  0.00     0.045 A 
HETATM   17  C   UNK N   1      37.271  12.890  11.858  0.00  0.00     0.095 A 
HETATM   18 Br   UNK N   1      38.580  12.543   9.308  0.00  0.00    -0.048 Br
BRANCH  17  19
HETATM   19  O   UNK N   1      37.868  11.724  12.168  0.00  0.00    -0.358 OA
ATOM     20  HO  UNK N   1      37.677  11.280  12.985  1.00  0.00     0.217 HD
ENDBRANCH  17  19
ENDBRANCH   9  11
BRANCH   1  21
HETATM   21  C   UNK N   1      34.991  12.188  19.899  0.00  0.00     0.102 C 
HETATM   22  N   UNK N   1      34.938  11.186  20.699  0.00  0.00    -0.385 N 
HETATM   23  H   UNK N   1      34.644  11.311  21.630  0.00  0.00     0.157 HD
HETATM   24  H   UNK N   1      35.194  10.290  20.381  0.00  0.00     0.157 HD
BRANCH  21  25
HETATM   25  N   UNK N   1      34.718  13.484  20.394  0.00  0.00    -0.385 N 
HETATM   26  H   UNK N   1      34.022  13.615  21.077  0.00  0.00     0.157 HD
HETATM   27  H   UNK N   1      35.225  14.256  20.054  0.00  0.00     0.157 HD
ENDBRANCH  21  25
ENDBRANCH   1  21
TORSDOF 4
ENDMDL
MODEL 2
REMARK VINA RESULT:      -6.8      3.676      7.681
REMARK  4 active torsions:
REMARK  status: ('A' for Active; 'I' for Inactive)
REMARK    1  A    between atoms: C_1  and  C_7 
REMARK    2  A    between atoms: C_7  and  N_8 
REMARK    3  A    between atoms: C_12  and  C_13 
REMARK    4  A    between atoms: C_19  and  O_20 
ROOT
HETATM    1  C   UNK N   1      34.391  16.598   9.028  0.00  0.00     0.008 A 
HETATM    2  C   UNK N   1      33.696  15.439   8.589  0.00  0.00     0.017 A 
HETATM    3  C   UNK N   1      33.696  14.260   9.367  0.00  0.00     0.031 A 
HETATM    4  C   UNK N   1      34.402  14.278  10.570  0.00  0.00     0.043 A 
HETATM    5  C   UNK N   1      35.069  15.392  10.983  0.00  0.00    -0.006 A 
HETATM    6  C   UNK N   1      35.087  16.567  10.251  0.00  0.00     0.029 A 
HETATM    7  N   UNK N   1      34.547  13.274  11.454  0.00  0.00    -0.355 N 
HETATM    8  C   UNK N   1      35.673  15.109  12.174  0.00  0.00     0.044 A 
HETATM    9  C   UNK N   1      35.333  13.785  12.442  0.00  0.00     0.046 A 
HETATM   10  H   UNK N   1      34.166  12.369  11.399  0.00  0.00     0.166 HD
ENDROOT
BRANCH   9  11
HETATM   11  C   UNK N   1      35.789  13.019  13.630  0.00  0.00     0.026 A 
HETATM   12  C   UNK N   1      35.246  13.308  14.891  0.00  0.00     0.023 A 
HETATM   13  C   UNK N   1      35.658  12.595  16.021  0.00  0.00    -0.060 A 
HETATM   14  C   UNK N   1      35.082  12.911  17.354  0.00  0.00     0.048 C 
HETATM   15  C   UNK N   1      36.609  11.581  15.903  0.00  0.00     0.028 A 
HETATM   16  C   UNK N   1      37.157  11.278  14.657  0.00  0.00     0.045 A 
HETATM   17  C   UNK N   1      36.758  11.990  13.519  0.00  0.00     0.095 A 
HETATM   18 Br   UNK N   1      38.452   9.876  14.519  0.00  0.00    -0.048 Br
BRANCH  17  19
HETATM   19  O   UNK N   1      37.300  11.675  12.329  0.00  0.00    -0.358 OA
ATOM     20  HO  UNK N   1      37.474  10.771  12.095  1.00  0.00     0.217 HD
ENDBRANCH  17  19
ENDBRANCH   9  11
BRANCH   1  21
HETATM   21  C   UNK N   1      34.399  17.832   8.214  0.00  0.00     0.102 C 
HETATM   22  N   UNK N   1      35.009  18.880   8.633  0.00  0.00    -0.385 N 
HETATM   23  H   UNK N   1      34.963  19.719   8.119  0.00  0.00     0.157 HD
HETATM   24  H   UNK N   1      35.524  18.846   9.472  0.00  0.00     0.157 HD
BRANCH  21  25
HETATM   25  N   UNK N   1      33.745  17.866   6.961  0.00  0.00    -0.385 N 
HETATM   26  H   UNK N   1      32.785  18.075   6.911  0.00  0.00     0.157 HD
HETATM   27  H   UNK N   1      34.251  17.680   6.138  0.00  0.00     0.157 HD
ENDBRANCH  21  25
ENDBRANCH   1  21
TORSDOF 4
ENDMDL
MODEL 3
REMARK VINA RESULT:      -6.7     12.217     15.695
REMARK  4 active torsions:
REMARK  status: ('A' for Active; 'I' for Inactive)
REMARK    1  A    between atoms: C_1  and  C_7 
REMARK    2  A    between atoms: C_7  and  N_8 
REMARK    3  A    between atoms: C_12  and  C_13 
REMARK    4  A    between atoms: C_19  and  O_20 
ROOT
HETATM    1  C   UNK N   1      23.685  19.639   3.449  0.00  0.00     0.008 A 
HETATM    2  C   UNK N   1      24.466  20.600   2.753  0.00  0.00     0.017 A 
HETATM    3  C   UNK N   1      25.876  20.584   2.840  0.00  0.00     0.031 A 
HETATM    4  C   UNK N   1      26.465  19.599   3.633  0.00  0.00     0.043 A 
HETATM    5  C   UNK N   1      25.710  18.682   4.301  0.00  0.00    -0.006 A 
HETATM    6  C   UNK N   1      24.327  18.662   4.235  0.00  0.00     0.029 A 
HETATM    7  N   UNK N   1      27.775  19.406   3.868  0.00  0.00    -0.355 N 
HETATM    8  C   UNK N   1      26.552  17.865   4.999  0.00  0.00     0.044 A 
HETATM    9  C   UNK N   1      27.829  18.339   4.713  0.00  0.00     0.046 A 
HETATM   10  H   UNK N   1      28.530  19.923   3.507  0.00  0.00     0.166 HD
ENDROOT
BRANCH   9  11
HETATM   11  C   UNK N   1      29.084  17.778   5.274  0.00  0.00     0.026 A 
HETATM   12  C   UNK N   1      29.275  17.758   6.664  0.00  0.00     0.023 A 
HETATM   13  C   UNK N   1      30.448  17.229   7.212  0.00  0.00    -0.060 A 
HETATM   14  C   UNK N   1      30.645  17.218   8.685  0.00  0.00     0.048 C 
HETATM   15  C   UNK N   1      31.437  16.707   6.379  0.00  0.00     0.028 A 
HETATM   16  C   UNK N   1      31.264  16.714   4.995  0.00  0.00     0.045 A 
HETATM   17  C   UNK N   1      30.097  17.248   4.434  0.00  0.00     0.095 A 
HETATM   18 Br   UNK N   1      32.631  15.981   3.875  0.00  0.00    -0.048 Br
BRANCH  17  19
HETATM   19  O   UNK N   1      29.954  17.240   3.096  0.00  0.00    -0.358 OA
ATOM     20  HO  UNK N   1      29.110  17.409   2.694  1.00  0.00     0.217 HD
ENDBRANCH  17  19
ENDBRANCH   9  11
BRANCH   1  21
HETATM   21  C   UNK N   1      22.210  19.655   3.366  0.00  0.00     0.102 C 
HETATM   22  N   UNK N   1      21.511  18.866   4.099  0.00  0.00    -0.385 N 
HETATM   23  H   UNK N   1      20.532  18.836   3.999  0.00  0.00     0.157 HD
HETATM   24  H   UNK N   1      21.955  18.290   4.763  0.00  0.00     0.157 HD
BRANCH  21  25
HETATM   25  N   UNK N   1      21.553  20.547   2.488  0.00  0.00    -0.385 N 
HETATM   26  H   UNK N   1      21.964  20.782   1.625  0.00  0.00     0.157 HD
HETATM   27  H   UNK N   1      20.684  20.933   2.740  0.00  0.00     0.157 HD
ENDBRANCH  21  25
ENDBRANCH   1  21
TORSDOF 4
ENDMDL
MODEL 4
REMARK VINA RESULT:      -6.7      2.555      3.179
REMARK  4 active torsions:
REMARK  status: ('A' for Active; 'I' for Inactive)
REMARK    1  A    between atoms: C_1  and  C_7 
REMARK    2  A    between atoms: C_7  and  N_8 
REMARK    3  A    between atoms: C_12  and  C_13 
REMARK    4  A    between atoms: C_19  and  O_20 
ROOT
HETATM    1  C   UNK N   1      35.081  12.218  16.771  0.00  0.00     0.008 A 
HETATM    2  C   UNK N   1      34.404  11.088  16.240  0.00  0.00     0.017 A 
HETATM    3  C   UNK N   1      34.192  10.962  14.849  0.00  0.00     0.031 A 
HETATM    4  C   UNK N   1      34.667  11.984  14.026  0.00  0.00     0.043 A 
HETATM    5  C   UNK N   1      35.313  13.067  14.543  0.00  0.00    -0.006 A 
HETATM    6  C   UNK N   1      35.543  13.223  15.899  0.00  0.00     0.029 A 
HETATM    7  N   UNK N   1      34.565  12.078  12.688  0.00  0.00    -0.355 N 
HETATM    8  C   UNK N   1      35.641  13.899  13.511  0.00  0.00     0.044 A 
HETATM    9  C   UNK N   1      35.162  13.259  12.370  0.00  0.00     0.046 A 
HETATM   10  H   UNK N   1      34.150  11.432  12.073  0.00  0.00     0.166 HD
ENDROOT
BRANCH   9  11
HETATM   11  C   UNK N   1      35.263  13.803  10.992  0.00  0.00     0.026 A 
HETATM   12  C   UNK N   1      36.371  13.476  10.197  0.00  0.00     0.023 A 
HETATM   13  C   UNK N   1      36.482  13.974   8.894  0.00  0.00    -0.060 A 
HETATM   14  C   UNK N   1      37.662  13.628   8.060  0.00  0.00     0.048 C 
HETATM   15  C   UNK N   1      35.484  14.796   8.371  0.00  0.00     0.028 A 
HETATM   16  C   UNK N   1      34.373  15.129   9.145  0.00  0.00     0.045 A 
HETATM   17  C   UNK N   1      34.255  14.642  10.453  0.00  0.00     0.095 A 
HETATM   18 Br   UNK N   1      33.012  16.249   8.401  0.00  0.00    -0.048 Br
BRANCH  17  19
HETATM   19  O   UNK N   1      33.171  14.976  11.178  0.00  0.00    -0.358 OA
ATOM     20  HO  UNK N   1      32.461  14.359  11.308  1.00  0.00     0.217 HD
ENDBRANCH  17  19
ENDBRANCH   9  11
BRANCH   1  21
HETATM   21  C   UNK N   1      35.300  12.357  18.226  0.00  0.00     0.102 C 
HETATM   22  N   UNK N   1      35.273  13.516  18.778  0.00  0.00    -0.385 N 
HETATM   23  H   UNK N   1      35.477  13.613  19.736  0.00  0.00     0.157 HD
HETATM   24  H   UNK N   1      35.045  14.310  18.241  0.00  0.00     0.157 HD
BRANCH  21  25
HETATM   25  N   UNK N   1      35.530  11.215  19.027  0.00  0.00    -0.385 N 
HETATM   26  H   UNK N   1      34.822  10.879  19.622  0.00  0.00     0.157 HD
HETATM   27  H   UNK N   1      36.399  10.755  18.989  0.00  0.00     0.157 HD
ENDBRANCH  21  25
ENDBRANCH   1  21
TORSDOF 4
ENDMDL
MODEL 5
REMARK VINA RESULT:      -6.6      6.913     10.580
REMARK  4 active torsions:
REMARK  status: ('A' for Active; 'I' for Inactive)
REMARK    1  A    between atoms: C_1  and  C_7 
REMARK    2  A    between atoms: C_7  and  N_8 
REMARK    3  A    between atoms: C_12  and  C_13 
REMARK    4  A    between atoms: C_19  and  O_20 
ROOT
HETATM    1  C   UNK N   1      28.930  18.032   6.527  0.00  0.00     0.008 A 
HETATM    2  C   UNK N   1      28.851  18.550   7.848  0.00  0.00     0.017 A 
HETATM    3  C   UNK N   1      29.809  18.192   8.822  0.00  0.00     0.031 A 
HETATM    4  C   UNK N   1      30.824  17.314   8.440  0.00  0.00     0.043 A 
HETATM    5  C   UNK N   1      30.892  16.818   7.173  0.00  0.00    -0.006 A 
HETATM    6  C   UNK N   1      29.975  17.150   6.190  0.00  0.00     0.029 A 
HETATM    7  N   UNK N   1      31.825  16.832   9.200  0.00  0.00    -0.355 N 
HETATM    8  C   UNK N   1      31.969  15.982   7.100  0.00  0.00     0.044 A 
HETATM    9  C   UNK N   1      32.529  16.008   8.375  0.00  0.00     0.046 A 
HETATM   10  H   UNK N   1      32.008  17.033  10.145  0.00  0.00     0.166 HD
ENDROOT
BRANCH   9  11
HETATM   11  C   UNK N   1      33.718  15.223   8.792  0.00  0.00     0.026 A 
HETATM   12  C   UNK N   1      34.715  14.922   7.852  0.00  0.00     0.023 A 
HETATM   13  C   UNK N   1      35.845  14.188   8.227  0.00  0.00    -0.060 A 
HETATM   14  C   UNK N   1      36.895  13.869   7.224  0.00  0.00     0.048 C 
HETATM   15  C   UNK N   1      35.995  13.754   9.544  0.00  0.00     0.028 A 
HETATM   16  C   UNK N   1      35.016  14.046  10.493  0.00  0.00     0.045 A 
HETATM   17  C   UNK N   1      33.877  14.775  10.129  0.00  0.00     0.095 A 
HETATM   18 Br   UNK N   1      35.249  13.450  12.296  0.00  0.00    -0.048 Br
BRANCH  17  19
HETATM   19  O   UNK N   1      32.948  15.046  11.065  0.00  0.00    -0.358 OA
ATOM     20  HO  UNK N   1      33.185  15.115  11.982  1.00  0.00     0.217 HD
ENDBRANCH  17  19
ENDBRANCH   9  11
BRANCH   1  21
HETATM   21  C   UNK N   1      27.927  18.399   5.506  0.00  0.00     0.102 C 
HETATM   22  N   UNK N   1      26.688  18.503   5.824  0.00  0.00    -0.385 N 
HETATM   23  H   UNK N   1      26.013  18.689   5.131  0.00  0.00     0.157 HD
HETATM   24  H   UNK N   1      26.411  18.397   6.763  0.00  0.00     0.157 HD
BRANCH  21  25
HETATM   25  N   UNK N   1      28.323  18.651   4.173  0.00  0.00    -0.385 N 
HETATM   26  H   UNK N   1      28.455  17.902   3.548  0.00  0.00     0.157 HD
HETATM   27  H   UNK N   1      28.467  19.576   3.870  0.00  0.00     0.157 HD
ENDBRANCH  21  25
ENDBRANCH   1  21
TORSDOF 4
ENDMDL
MODEL 6
REMARK VINA RESULT:      -6.5      1.984      2.816
REMARK  4 active torsions:
REMARK  status: ('A' for Active; 'I' for Inactive)
REMARK    1  A    between atoms: C_1  and  C_7 
REMARK    2  A    between atoms: C_7  and  N_8 
REMARK    3  A    between atoms: C_12  and  C_13 
REMARK    4  A    between atoms: C_19  and  O_20 
ROOT
HETATM    1  C   UNK N   1      35.327  11.732  19.183  0.00  0.00     0.008 A 
HETATM    2  C   UNK N   1      35.198  13.144  19.081  0.00  0.00     0.017 A 
HETATM    3  C   UNK N   1      35.134  13.773  17.818  0.00  0.00     0.031 A 
HETATM    4  C   UNK N   1      35.205  12.961  16.685  0.00  0.00     0.043 A 
HETATM    5  C   UNK N   1      35.332  11.608  16.790  0.00  0.00    -0.006 A 
HETATM    6  C   UNK N   1      35.393  10.956  18.010  0.00  0.00     0.029 A 
HETATM    7  N   UNK N   1      35.177  13.343  15.396  0.00  0.00    -0.355 N 
HETATM    8  C   UNK N   1      35.393  11.088  15.530  0.00  0.00     0.044 A 
HETATM    9  C   UNK N   1      35.296  12.189  14.683  0.00  0.00     0.046 A 
HETATM   10  H   UNK N   1      35.088  14.258  15.045  0.00  0.00     0.166 HD
ENDROOT
BRANCH   9  11
HETATM   11  C   UNK N   1      35.344  12.122  13.200  0.00  0.00     0.026 A 
HETATM   12  C   UNK N   1      34.555  11.180  12.523  0.00  0.00     0.023 A 
HETATM   13  C   UNK N   1      34.583  11.104  11.126  0.00  0.00    -0.060 A 
HETATM   14  C   UNK N   1      33.749  10.099  10.417  0.00  0.00     0.048 C 
HETATM   15  C   UNK N   1      35.390  11.973  10.393  0.00  0.00     0.028 A 
HETATM   16  C   UNK N   1      36.178  12.918  11.048  0.00  0.00     0.045 A 
HETATM   17  C   UNK N   1      36.165  12.999  12.446  0.00  0.00     0.095 A 
HETATM   18 Br   UNK N   1      37.269  14.106  10.019  0.00  0.00    -0.048 Br
BRANCH  17  19
HETATM   19  O   UNK N   1      36.932  13.923  13.054  0.00  0.00    -0.358 OA
ATOM     20  HO  UNK N   1      37.383  13.726  13.867  1.00  0.00     0.217 HD
ENDBRANCH  17  19
ENDBRANCH   9  11
BRANCH   1  21
HETATM   21  C   UNK N   1      35.401  11.070  20.502  0.00  0.00     0.102 C 
HETATM   22  N   UNK N   1      34.329  10.700  21.102  0.00  0.00    -0.385 N 
HETATM   23  H   UNK N   1      34.376  10.314  22.006  0.00  0.00     0.157 HD
HETATM   24  H   UNK N   1      33.457  10.803  20.657  0.00  0.00     0.157 HD
BRANCH  21  25
HETATM   25  N   UNK N   1      36.654  10.826  21.110  0.00  0.00    -0.385 N 
HETATM   26  H   UNK N   1      36.735  10.148  21.818  0.00  0.00     0.157 HD
HETATM   27  H   UNK N   1      37.446  11.336  20.824  0.00  0.00     0.157 HD
ENDBRANCH  21  25
ENDBRANCH   1  21
TORSDOF 4
ENDMDL
MODEL 7
REMARK VINA RESULT:      -6.5     15.541     17.052
REMARK  4 active torsions:
REMARK  status: ('A' for Active; 'I' for Inactive)
REMARK    1  A    between atoms: C_1  and  C_7 
REMARK    2  A    between atoms: C_7  and  N_8 
REMARK    3  A    between atoms: C_12  and  C_13 
REMARK    4  A    between atoms: C_19  and  O_20 
ROOT
HETATM    1  C   UNK N   1      22.656  13.090   9.791  0.00  0.00     0.008 A 
HETATM    2  C   UNK N   1      21.352  13.495  10.186  0.00  0.00     0.017 A 
HETATM    3  C   UNK N   1      20.531  14.235   9.308  0.00  0.00     0.031 A 
HETATM    4  C   UNK N   1      21.047  14.553   8.051  0.00  0.00     0.043 A 
HETATM    5  C   UNK N   1      22.299  14.164   7.680  0.00  0.00    -0.006 A 
HETATM    6  C   UNK N   1      23.131  13.434   8.511  0.00  0.00     0.029 A 
HETATM    7  N   UNK N   1      20.450  15.255   7.070  0.00  0.00    -0.355 N 
HETATM    8  C   UNK N   1      22.532  14.629   6.418  0.00  0.00     0.044 A 
HETATM    9  C   UNK N   1      21.367  15.305   6.064  0.00  0.00     0.046 A 
HETATM   10  H   UNK N   1      19.548  15.646   7.078  0.00  0.00     0.166 HD
ENDROOT
BRANCH   9  11
HETATM   11  C   UNK N   1      21.159  16.010   4.775  0.00  0.00     0.026 A 
HETATM   12  C   UNK N   1      21.063  15.271   3.587  0.00  0.00     0.023 A 
HETATM   13  C   UNK N   1      20.861  15.917   2.363  0.00  0.00    -0.060 A 
HETATM   14  C   UNK N   1      20.766  15.127   1.108  0.00  0.00     0.048 C 
HETATM   15  C   UNK N   1      20.745  17.306   2.314  0.00  0.00     0.028 A 
HETATM   16  C   UNK N   1      20.834  18.058   3.485  0.00  0.00     0.045 A 
HETATM   17  C   UNK N   1      21.043  17.423   4.716  0.00  0.00     0.095 A 
HETATM   18 Br   UNK N   1      20.660  19.961   3.393  0.00  0.00    -0.048 Br
BRANCH  17  19
HETATM   19  O   UNK N   1      21.122  18.172   5.831  0.00  0.00    -0.358 OA
ATOM     20  HO  UNK N   1      21.251  17.769   6.681  1.00  0.00     0.217 HD
ENDBRANCH  17  19
ENDBRANCH   9  11
BRANCH   1  21
HETATM   21  C   UNK N   1      23.522  12.320  10.709  0.00  0.00     0.102 C 
HETATM   22  N   UNK N   1      23.034  11.361  11.409  0.00  0.00    -0.385 N 
HETATM   23  H   UNK N   1      23.598  10.889  12.063  0.00  0.00     0.157 HD
HETATM   24  H   UNK N   1      22.093  11.097  11.291  0.00  0.00     0.157 HD
BRANCH  21  25
HETATM   25  N   UNK N   1      24.898  12.624  10.816  0.00  0.00    -0.385 N 
HETATM   26  H   UNK N   1      25.251  13.456  10.428  0.00  0.00     0.157 HD
HETATM   27  H   UNK N   1      25.504  12.002  11.279  0.00  0.00     0.157 HD
ENDBRANCH  21  25
ENDBRANCH   1  21
TORSDOF 4
ENDMDL
MODEL 8
REMARK VINA RESULT:      -6.5     14.905     16.551
REMARK  4 active torsions:
REMARK  status: ('A' for Active; 'I' for Inactive)
REMARK    1  A    between atoms: C_1  and  C_7 
REMARK    2  A    between atoms: C_7  and  N_8 
REMARK    3  A    between atoms: C_12  and  C_13 
REMARK    4  A    between atoms: C_19  and  O_20 
ROOT
HETATM    1  C   UNK N   1      22.053  13.214   9.422  0.00  0.00     0.008 A 
HETATM    2  C   UNK N   1      23.239  12.775   8.775  0.00  0.00     0.017 A 
HETATM    3  C   UNK N   1      23.743  13.463   7.649  0.00  0.00     0.031 A 
HETATM    4  C   UNK N   1      23.034  14.578   7.200  0.00  0.00     0.043 A 
HETATM    5  C   UNK N   1      21.895  14.991   7.823  0.00  0.00    -0.006 A 
HETATM    6  C   UNK N   1      21.373  14.346   8.931  0.00  0.00     0.029 A 
HETATM    7  N   UNK N   1      23.321  15.367   6.148  0.00  0.00    -0.355 N 
HETATM    8  C   UNK N   1      21.418  16.083   7.157  0.00  0.00     0.044 A 
HETATM    9  C   UNK N   1      22.323  16.293   6.119  0.00  0.00     0.046 A 
HETATM   10  H   UNK N   1      24.086  15.291   5.535  0.00  0.00     0.166 HD
ENDROOT
BRANCH   9  11
HETATM   11  C   UNK N   1      22.205  17.365   5.099  0.00  0.00     0.026 A 
HETATM   12  C   UNK N   1      20.973  17.585   4.464  0.00  0.00     0.023 A 
HETATM   13  C   UNK N   1      20.840  18.594   3.504  0.00  0.00    -0.060 A 
HETATM   14  C   UNK N   1      19.534  18.817   2.832  0.00  0.00     0.048 C 
HETATM   15  C   UNK N   1      21.932  19.397   3.175  0.00  0.00     0.028 A 
HETATM   16  C   UNK N   1      23.163  19.195   3.798  0.00  0.00     0.045 A 
HETATM   17  C   UNK N   1      23.310  18.184   4.756  0.00  0.00     0.095 A 
HETATM   18 Br   UNK N   1      24.643  20.317   3.337  0.00  0.00    -0.048 Br
BRANCH  17  19
HETATM   19  O   UNK N   1      24.508  18.012   5.344  0.00  0.00    -0.358 OA
ATOM     20  HO  UNK N   1      24.595  18.026   6.290  1.00  0.00     0.217 HD
ENDBRANCH  17  19
ENDBRANCH   9  11
BRANCH   1  21
HETATM   21  C   UNK N   1      21.518  12.494  10.596  0.00  0.00     0.102 C 
HETATM   22  N   UNK N   1      20.314  12.700  10.991  0.00  0.00    -0.385 N 
HETATM   23  H   UNK N   1      19.979  12.266  11.807  0.00  0.00     0.157 HD
HETATM   24  H   UNK N   1      19.724  13.295  10.473  0.00  0.00     0.157 HD
BRANCH  21  25
HETATM   25  N   UNK N   1      22.323  11.562  11.291  0.00  0.00    -0.385 N 
HETATM   26  H   UNK N   1      22.602  11.745  12.217  0.00  0.00     0.157 HD
HETATM   27  H   UNK N   1      22.605  10.730  10.848  0.00  0.00     0.157 HD
ENDBRANCH  21  25
ENDBRANCH   1  21
TORSDOF 4
ENDMDL
MODEL 9
REMARK VINA RESULT:      -6.5     13.366     16.620
REMARK  4 active torsions:
REMARK  status: ('A' for Active; 'I' for Inactive)
REMARK    1  A    between atoms: C_1  and  C_7 
REMARK    2  A    between atoms: C_7  and  N_8 
REMARK    3  A    between atoms: C_12  and  C_13 
REMARK    4  A    between atoms: C_19  and  O_20 
ROOT
HETATM    1  C   UNK N   1      22.142  19.516   3.381  0.00  0.00     0.008 A 
HETATM    2  C   UNK N   1      21.744  18.599   4.391  0.00  0.00     0.017 A 
HETATM    3  C   UNK N   1      22.708  17.918   5.166  0.00  0.00     0.031 A 
HETATM    4  C   UNK N   1      24.053  18.176   4.902  0.00  0.00     0.043 A 
HETATM    5  C   UNK N   1      24.428  19.055   3.930  0.00  0.00    -0.006 A 
HETATM    6  C   UNK N   1      23.512  19.744   3.153  0.00  0.00     0.029 A 
HETATM    7  N   UNK N   1      25.129  17.636   5.503  0.00  0.00    -0.355 N 
HETATM    8  C   UNK N   1      25.792  19.088   3.889  0.00  0.00     0.044 A 
HETATM    9  C   UNK N   1      26.201  18.195   4.877  0.00  0.00     0.046 A 
HETATM   10  H   UNK N   1      25.138  16.980   6.235  0.00  0.00     0.166 HD
ENDROOT
BRANCH   9  11
HETATM   11  C   UNK N   1      27.616  17.872   5.189  0.00  0.00     0.026 A 
HETATM   12  C   UNK N   1      28.470  17.432   4.167  0.00  0.00     0.023 A 
HETATM   13  C   UNK N   1      29.807  17.128   4.441  0.00  0.00    -0.060 A 
HETATM   14  C   UNK N   1      30.703  16.657   3.352  0.00  0.00     0.048 C 
HETATM   15  C   UNK N   1      30.308  17.268   5.735  0.00  0.00     0.028 A 
HETATM   16  C   UNK N   1      29.475  17.708   6.764  0.00  0.00     0.045 A 
HETATM   17  C   UNK N   1      28.133  18.009   6.503  0.00  0.00     0.095 A 
HETATM   18 Br   UNK N   1      30.188  17.903   8.528  0.00  0.00    -0.048 Br
BRANCH  17  19
HETATM   19  O   UNK N   1      27.352  18.434   7.514  0.00  0.00    -0.358 OA
ATOM     20  HO  UNK N   1      26.558  18.928   7.344  1.00  0.00     0.217 HD
ENDBRANCH  17  19
ENDBRANCH   9  11
BRANCH   1  21
HETATM   21  C   UNK N   1      21.137  20.227   2.563  0.00  0.00     0.102 C 
HETATM   22  N   UNK N   1      21.035  21.505   2.627  0.00  0.00    -0.385 N 
HETATM   23  H   UNK N   1      20.327  21.971   2.127  0.00  0.00     0.157 HD
HETATM   24  H   UNK N   1      21.669  22.020   3.177  0.00  0.00     0.157 HD
BRANCH  21  25
HETATM   25  N   UNK N   1      20.286  19.508   1.693  0.00  0.00    -0.385 N 
HETATM   26  H   UNK N   1      20.592  19.272   0.787  0.00  0.00     0.157 HD
HETATM   27  H   UNK N   1      19.387  19.243   1.993  0.00  0.00     0.157 HD
ENDBRANCH  21  25
ENDBRANCH   1  21
TORSDOF 4
ENDMDL
