MODEL 1
REMARK VINA RESULT:      -6.3      0.000      0.000
REMARK  2 active torsions:
REMARK  status: ('A' for Active; 'I' for Inactive)
REMARK       I    between atoms: N_1  and  C_2 
REMARK    1  A    between atoms: C_5  and  C_12 
REMARK    2  A    between atoms: C_8  and  O_9 
ROOT
HETATM    1  N   UNK N   1      33.866  10.906  12.658  0.00  0.00    -0.234 N 
HETATM    2  C   UNK N   1      34.615  11.835  13.409  0.00  0.00     0.678 A 
HETATM    3  N   UNK N   1      34.696  11.705  14.755  0.00  0.00    -0.190 N 
ATOM      4  HN  UNK N   1      34.211  10.931  15.208  1.00  0.00     0.184 HD
HETATM    5  C   UNK N   1      35.408  12.580  15.523  0.00  0.00     0.081 A 
HETATM    6  C   UNK N   1      36.080  13.657  14.877  0.00  0.00     0.090 A 
HETATM    7 Br   UNK N   1      37.138  15.001  15.775  0.00  0.00    -0.044 Br
HETATM    8  C   UNK N   1      35.974  13.761  13.485  0.00  0.00     0.175 A 
HETATM    9  N   UNK N   1      35.248  12.854  12.784  0.00  0.00    -0.170 N 
ATOM     10  HN  UNK N   1      35.180  12.941  11.769  1.00  0.00     0.186 HD
HETATM   11  H   UNK N   1      33.405  10.164  13.112  0.00  0.00     0.174 HD
HETATM   12  H   UNK N   1      33.806  10.998  11.680  0.00  0.00     0.174 HD
ENDROOT
BRANCH   5  13
HETATM   13  C   UNK N   1      35.428  12.340  16.993  0.00  0.00    -0.007 A 
HETATM   14  C   UNK N   1      35.801  11.074  17.476  0.00  0.00     0.014 A 
HETATM   15  C   UNK N   1      35.830  10.817  18.850  0.00  0.00     0.001 A 
HETATM   16  C   UNK N   1      35.486  11.821  19.756  0.00  0.00     0.000 A 
HETATM   17  C   UNK N   1      35.114  13.081  19.289  0.00  0.00     0.001 A 
HETATM   18  C   UNK N   1      35.086  13.334  17.918  0.00  0.00     0.014 A 
ENDBRANCH   5  13
BRANCH   8  19
HETATM   19  O   UNK N   1      36.591  14.759  12.832  0.00  0.00    -0.345 OA
HETATM   20  H   UNK N   1      37.509  14.706  12.655  0.00  0.00     0.219 HD
ENDBRANCH   8  19
TORSDOF 2
ENDMDL
MODEL 2
REMARK VINA RESULT:      -6.0      2.275      2.839
REMARK  2 active torsions:
REMARK  status: ('A' for Active; 'I' for Inactive)
REMARK       I    between atoms: N_1  and  C_2 
REMARK    1  A    between atoms: C_5  and  C_12 
REMARK    2  A    between atoms: C_8  and  O_9 
ROOT
HETATM    1  N   UNK N   1      37.477  15.598  15.031  0.00  0.00    -0.234 N 
HETATM    2  C   UNK N   1      36.641  14.465  14.965  0.00  0.00     0.678 A 
HETATM    3  N   UNK N   1      36.543  13.637  16.033  0.00  0.00    -0.190 N 
ATOM      4  HN  UNK N   1      37.079  13.849  16.875  1.00  0.00     0.184 HD
HETATM    5  C   UNK N   1      35.747  12.529  16.017  0.00  0.00     0.081 A 
HETATM    6  C   UNK N   1      35.004  12.247  14.835  0.00  0.00     0.090 A 
HETATM    7 Br   UNK N   1      33.823  10.735  14.603  0.00  0.00    -0.044 Br
HETATM    8  C   UNK N   1      35.130  13.122  13.751  0.00  0.00     0.175 A 
HETATM    9  N   UNK N   1      35.941  14.207  13.837  0.00  0.00    -0.170 N 
ATOM     10  HN  UNK N   1      36.024  14.838  13.039  1.00  0.00     0.186 HD
HETATM   11  H   UNK N   1      37.988  15.787  15.851  0.00  0.00     0.174 HD
HETATM   12  H   UNK N   1      37.551  16.201  14.256  0.00  0.00     0.174 HD
ENDROOT
BRANCH   5  13
HETATM   13  C   UNK N   1      35.716  11.691  17.248  0.00  0.00    -0.007 A 
HETATM   14  C   UNK N   1      36.139  10.353  17.178  0.00  0.00     0.014 A 
HETATM   15  C   UNK N   1      36.122   9.540  18.315  0.00  0.00     0.001 A 
HETATM   16  C   UNK N   1      35.681  10.056  19.535  0.00  0.00     0.000 A 
HETATM   17  C   UNK N   1      35.259  11.382  19.618  0.00  0.00     0.001 A 
HETATM   18  C   UNK N   1      35.278  12.189  18.481  0.00  0.00     0.014 A 
ENDBRANCH   5  13
BRANCH   8  19
HETATM   19  O   UNK N   1      34.449  12.897  12.616  0.00  0.00    -0.345 OA
HETATM   20  H   UNK N   1      34.874  12.486  11.888  0.00  0.00     0.219 HD
ENDBRANCH   8  19
TORSDOF 2
ENDMDL
MODEL 3
REMARK VINA RESULT:      -5.8     15.151     16.510
REMARK  2 active torsions:
REMARK  status: ('A' for Active; 'I' for Inactive)
REMARK       I    between atoms: N_1  and  C_2 
REMARK    1  A    between atoms: C_5  and  C_12 
REMARK    2  A    between atoms: C_8  and  O_9 
ROOT
HETATM    1  N   UNK N   1      19.608  17.981   8.739  0.00  0.00    -0.234 N 
HETATM    2  C   UNK N   1      19.963  16.711   8.238  0.00  0.00     0.678 A 
HETATM    3  N   UNK N   1      20.527  15.796   9.062  0.00  0.00    -0.190 N 
ATOM      4  HN  UNK N   1      20.688  16.041  10.039  1.00  0.00     0.184 HD
HETATM    5  C   UNK N   1      20.887  14.555   8.624  0.00  0.00     0.081 A 
HETATM    6  C   UNK N   1      20.656  14.227   7.257  0.00  0.00     0.090 A 
HETATM    7 Br   UNK N   1      21.090  12.532   6.436  0.00  0.00    -0.044 Br
HETATM    8  C   UNK N   1      20.072  15.196   6.435  0.00  0.00     0.175 A 
HETATM    9  N   UNK N   1      19.739  16.411   6.939  0.00  0.00    -0.170 N 
ATOM     10  HN  UNK N   1      19.314  17.109   6.328  1.00  0.00     0.186 HD
HETATM   11  H   UNK N   1      19.770  18.200   9.684  0.00  0.00     0.174 HD
HETATM   12  H   UNK N   1      19.198  18.648   8.142  0.00  0.00     0.174 HD
ENDROOT
BRANCH   5  13
HETATM   13  C   UNK N   1      21.499  13.630   9.617  0.00  0.00    -0.007 A 
HETATM   14  C   UNK N   1      20.670  12.965  10.537  0.00  0.00     0.014 A 
HETATM   15  C   UNK N   1      21.213  12.090  11.482  0.00  0.00     0.001 A 
HETATM   16  C   UNK N   1      22.591  11.869  11.519  0.00  0.00     0.000 A 
HETATM   17  C   UNK N   1      23.424  12.522  10.612  0.00  0.00     0.001 A 
HETATM   18  C   UNK N   1      22.878  13.394   9.671  0.00  0.00     0.014 A 
ENDBRANCH   5  13
BRANCH   8  19
HETATM   19  O   UNK N   1      19.836  14.932   5.140  0.00  0.00    -0.345 OA
HETATM   20  H   UNK N   1      19.013  14.567   4.878  0.00  0.00     0.219 HD
ENDBRANCH   8  19
TORSDOF 2
ENDMDL
MODEL 4
REMARK VINA RESULT:      -5.8      3.713      5.585
REMARK  2 active torsions:
REMARK  status: ('A' for Active; 'I' for Inactive)
REMARK       I    between atoms: N_1  and  C_2 
REMARK    1  A    between atoms: C_5  and  C_12 
REMARK    2  A    between atoms: C_8  and  O_9 
ROOT
HETATM    1  N   UNK N   1      35.380  15.265  18.508  0.00  0.00    -0.234 N 
HETATM    2  C   UNK N   1      35.328  13.857  18.457  0.00  0.00     0.678 A 
HETATM    3  N   UNK N   1      35.273  13.227  17.260  0.00  0.00    -0.190 N 
ATOM      4  HN  UNK N   1      35.268  13.785  16.406  1.00  0.00     0.184 HD
HETATM    5  C   UNK N   1      35.222  11.867  17.161  0.00  0.00     0.081 A 
HETATM    6  C   UNK N   1      35.228  11.100  18.361  0.00  0.00     0.090 A 
HETATM    7 Br   UNK N   1      35.162   9.171  18.444  0.00  0.00    -0.044 Br
HETATM    8  C   UNK N   1      35.287  11.784  19.580  0.00  0.00     0.175 A 
HETATM    9  N   UNK N   1      35.335  13.140  19.604  0.00  0.00    -0.170 N 
ATOM     10  HN  UNK N   1      35.378  13.626  20.500  1.00  0.00     0.186 HD
HETATM   11  H   UNK N   1      35.375  15.788  17.674  0.00  0.00     0.174 HD
HETATM   12  H   UNK N   1      35.420  15.725  19.377  0.00  0.00     0.174 HD
ENDROOT
BRANCH   5  13
HETATM   13  C   UNK N   1      35.163  11.283  15.792  0.00  0.00    -0.007 A 
HETATM   14  C   UNK N   1      33.912  11.105  15.175  0.00  0.00     0.014 A 
HETATM   15  C   UNK N   1      33.823  10.559  13.892  0.00  0.00     0.001 A 
HETATM   16  C   UNK N   1      34.981  10.184  13.209  0.00  0.00     0.000 A 
HETATM   17  C   UNK N   1      36.228  10.356  13.810  0.00  0.00     0.001 A 
HETATM   18  C   UNK N   1      36.313  10.901  15.091  0.00  0.00     0.014 A 
ENDBRANCH   5  13
BRANCH   8  19
HETATM   19  O   UNK N   1      35.295  11.103  20.738  0.00  0.00    -0.345 OA
HETATM   20  H   UNK N   1      35.985  11.240  21.357  0.00  0.00     0.219 HD
ENDBRANCH   8  19
TORSDOF 2
ENDMDL
MODEL 5
REMARK VINA RESULT:      -5.7     25.758     26.577
REMARK  2 active torsions:
REMARK  status: ('A' for Active; 'I' for Inactive)
REMARK       I    between atoms: N_1  and  C_2 
REMARK    1  A    between atoms: C_5  and  C_12 
REMARK    2  A    between atoms: C_8  and  O_9 
ROOT
HETATM    1  N   UNK N   1      24.113  21.304  -6.865  0.00  0.00    -0.234 N 
HETATM    2  C   UNK N   1      25.216  22.183  -6.848  0.00  0.00     0.678 A 
HETATM    3  N   UNK N   1      25.144  23.342  -6.150  0.00  0.00    -0.190 N 
ATOM      4  HN  UNK N   1      24.286  23.563  -5.644  1.00  0.00     0.184 HD
HETATM    5  C   UNK N   1      26.184  24.223  -6.105  0.00  0.00     0.081 A 
HETATM    6  C   UNK N   1      27.375  23.902  -6.817  0.00  0.00     0.090 A 
HETATM    7 Br   UNK N   1      28.959  25.006  -6.884  0.00  0.00    -0.044 Br
HETATM    8  C   UNK N   1      27.415  22.697  -7.527  0.00  0.00     0.175 A 
HETATM    9  N   UNK N   1      26.341  21.867  -7.528  0.00  0.00    -0.170 N 
ATOM     10  HN  UNK N   1      26.384  20.991  -8.050  1.00  0.00     0.186 HD
HETATM   11  H   UNK N   1      23.294  21.533  -6.370  0.00  0.00     0.174 HD
HETATM   12  H   UNK N   1      24.164  20.462  -7.371  0.00  0.00     0.174 HD
ENDROOT
BRANCH   5  13
HETATM   13  C   UNK N   1      25.994  25.466  -5.307  0.00  0.00    -0.007 A 
HETATM   14  C   UNK N   1      26.522  25.533  -4.006  0.00  0.00     0.014 A 
HETATM   15  C   UNK N   1      26.360  26.685  -3.231  0.00  0.00     0.001 A 
HETATM   16  C   UNK N   1      25.669  27.783  -3.746  0.00  0.00     0.000 A 
HETATM   17  C   UNK N   1      25.140  27.729  -5.036  0.00  0.00     0.001 A 
HETATM   18  C   UNK N   1      25.304  26.578  -5.805  0.00  0.00     0.014 A 
ENDBRANCH   5  13
BRANCH   8  19
HETATM   19  O   UNK N   1      28.516  22.351  -8.213  0.00  0.00    -0.345 OA
HETATM   20  H   UNK N   1      28.461  22.176  -9.132  0.00  0.00     0.219 HD
ENDBRANCH   8  19
TORSDOF 2
ENDMDL
MODEL 6
REMARK VINA RESULT:      -5.7      8.005     10.348
REMARK  2 active torsions:
REMARK  status: ('A' for Active; 'I' for Inactive)
REMARK       I    between atoms: N_1  and  C_2 
REMARK    1  A    between atoms: C_5  and  C_12 
REMARK    2  A    between atoms: C_8  and  O_9 
ROOT
HETATM    1  N   UNK N   1      33.773  14.811  10.899  0.00  0.00    -0.234 N 
HETATM    2  C   UNK N   1      33.547  15.400   9.638  0.00  0.00     0.678 A 
HETATM    3  N   UNK N   1      32.361  16.000   9.377  0.00  0.00    -0.190 N 
ATOM      4  HN  UNK N   1      31.644  16.017  10.103  1.00  0.00     0.184 HD
HETATM    5  C   UNK N   1      32.096  16.583   8.173  0.00  0.00     0.081 A 
HETATM    6  C   UNK N   1      33.106  16.551   7.169  0.00  0.00     0.090 A 
HETATM    7 Br   UNK N   1      32.937  17.314   5.401  0.00  0.00    -0.044 Br
HETATM    8  C   UNK N   1      34.319  15.923   7.472  0.00  0.00     0.175 A 
HETATM    9  N   UNK N   1      34.514  15.363   8.693  0.00  0.00    -0.170 N 
ATOM     10  HN  UNK N   1      35.403  14.908   8.901  1.00  0.00     0.186 HD
HETATM   11  H   UNK N   1      33.070  14.837  11.588  0.00  0.00     0.174 HD
HETATM   12  H   UNK N   1      34.634  14.374  11.091  0.00  0.00     0.174 HD
ENDROOT
BRANCH   5  13
HETATM   13  C   UNK N   1      30.759  17.214   7.997  0.00  0.00    -0.007 A 
HETATM   14  C   UNK N   1      30.370  18.251   8.862  0.00  0.00     0.014 A 
HETATM   15  C   UNK N   1      29.122  18.864   8.724  0.00  0.00     0.001 A 
HETATM   16  C   UNK N   1      28.246  18.447   7.720  0.00  0.00     0.000 A 
HETATM   17  C   UNK N   1      28.619  17.419   6.854  0.00  0.00     0.001 A 
HETATM   18  C   UNK N   1      29.866  16.810   6.996  0.00  0.00     0.014 A 
ENDBRANCH   5  13
BRANCH   8  19
HETATM   19  O   UNK N   1      35.301  15.868   6.558  0.00  0.00    -0.345 OA
HETATM   20  H   UNK N   1      35.091  15.863   5.644  0.00  0.00     0.219 HD
ENDBRANCH   8  19
TORSDOF 2
ENDMDL
MODEL 7
REMARK VINA RESULT:      -5.7      9.320     10.974
REMARK  2 active torsions:
REMARK  status: ('A' for Active; 'I' for Inactive)
REMARK       I    between atoms: N_1  and  C_2 
REMARK    1  A    between atoms: C_5  and  C_12 
REMARK    2  A    between atoms: C_8  and  O_9 
ROOT
HETATM    1  N   UNK N   1      27.587  18.373   9.072  0.00  0.00    -0.234 N 
HETATM    2  C   UNK N   1      28.548  18.002   8.109  0.00  0.00     0.678 A 
HETATM    3  N   UNK N   1      29.829  17.777   8.488  0.00  0.00    -0.190 N 
ATOM      4  HN  UNK N   1      30.081  17.880   9.471  1.00  0.00     0.184 HD
HETATM    5  C   UNK N   1      30.794  17.416   7.593  0.00  0.00     0.081 A 
HETATM    6  C   UNK N   1      30.428  17.276   6.223  0.00  0.00     0.090 A 
HETATM    7 Br   UNK N   1      31.635  16.775   4.799  0.00  0.00    -0.044 Br
HETATM    8  C   UNK N   1      29.096  17.516   5.868  0.00  0.00     0.175 A 
HETATM    9  N   UNK N   1      28.189  17.872   6.812  0.00  0.00    -0.170 N 
ATOM     10  HN  UNK N   1      27.221  18.045   6.539  1.00  0.00     0.186 HD
HETATM   11  H   UNK N   1      27.848  18.468  10.017  0.00  0.00     0.174 HD
HETATM   12  H   UNK N   1      26.656  18.537   8.799  0.00  0.00     0.174 HD
ENDROOT
BRANCH   5  13
HETATM   13  C   UNK N   1      32.168  17.194   8.121  0.00  0.00    -0.007 A 
HETATM   14  C   UNK N   1      32.465  15.987   8.776  0.00  0.00     0.014 A 
HETATM   15  C   UNK N   1      33.745  15.747   9.283  0.00  0.00     0.001 A 
HETATM   16  C   UNK N   1      34.744  16.712   9.141  0.00  0.00     0.000 A 
HETATM   17  C   UNK N   1      34.463  17.914   8.493  0.00  0.00     0.001 A 
HETATM   18  C   UNK N   1      33.185  18.149   7.989  0.00  0.00     0.014 A 
ENDBRANCH   5  13
BRANCH   8  19
HETATM   19  O   UNK N   1      28.705  17.397   4.589  0.00  0.00    -0.345 OA
HETATM   20  H   UNK N   1      27.956  16.875   4.375  0.00  0.00     0.219 HD
ENDBRANCH   8  19
TORSDOF 2
ENDMDL
MODEL 8
REMARK VINA RESULT:      -5.7      9.343     11.099
REMARK  2 active torsions:
REMARK  status: ('A' for Active; 'I' for Inactive)
REMARK       I    between atoms: N_1  and  C_2 
REMARK    1  A    between atoms: C_5  and  C_12 
REMARK    2  A    between atoms: C_8  and  O_9 
ROOT
HETATM    1  N   UNK N   1      29.694  17.224   3.743  0.00  0.00    -0.234 N 
HETATM    2  C   UNK N   1      29.697  17.475   5.131  0.00  0.00     0.678 A 
HETATM    3  N   UNK N   1      30.816  17.236   5.856  0.00  0.00    -0.190 N 
ATOM      4  HN  UNK N   1      31.645  16.876   5.384  1.00  0.00     0.184 HD
HETATM    5  C   UNK N   1      30.867  17.464   7.200  0.00  0.00     0.081 A 
HETATM    6  C   UNK N   1      29.702  17.967   7.847  0.00  0.00     0.090 A 
HETATM    7 Br   UNK N   1      29.562  18.357   9.734  0.00  0.00    -0.044 Br
HETATM    8  C   UNK N   1      28.564  18.202   7.067  0.00  0.00     0.175 A 
HETATM    9  N   UNK N   1      28.585  17.953   5.733  0.00  0.00    -0.170 N 
ATOM     10  HN  UNK N   1      27.748  18.129   5.176  1.00  0.00     0.186 HD
HETATM   11  H   UNK N   1      30.503  16.876   3.304  0.00  0.00     0.174 HD
HETATM   12  H   UNK N   1      28.882  17.397   3.214  0.00  0.00     0.174 HD
ENDROOT
BRANCH   5  13
HETATM   13  C   UNK N   1      32.150  17.165   7.896  0.00  0.00    -0.007 A 
HETATM   14  C   UNK N   1      33.186  18.114   7.862  0.00  0.00     0.014 A 
HETATM   15  C   UNK N   1      34.402  17.865   8.505  0.00  0.00     0.001 A 
HETATM   16  C   UNK N   1      34.596  16.664   9.190  0.00  0.00     0.000 A 
HETATM   17  C   UNK N   1      33.576  15.714   9.232  0.00  0.00     0.001 A 
HETATM   18  C   UNK N   1      32.365  15.967   8.589  0.00  0.00     0.014 A 
ENDBRANCH   5  13
BRANCH   8  19
HETATM   19  O   UNK N   1      27.442  18.676   7.632  0.00  0.00    -0.345 OA
HETATM   20  H   UNK N   1      27.264  19.596   7.619  0.00  0.00     0.219 HD
ENDBRANCH   8  19
TORSDOF 2
ENDMDL
MODEL 9
REMARK VINA RESULT:      -5.6      7.787     10.725
REMARK  2 active torsions:
REMARK  status: ('A' for Active; 'I' for Inactive)
REMARK       I    between atoms: N_1  and  C_2 
REMARK    1  A    between atoms: C_5  and  C_12 
REMARK    2  A    between atoms: C_8  and  O_9 
ROOT
HETATM    1  N   UNK N   1      32.604  12.697   9.144  0.00  0.00    -0.234 N 
HETATM    2  C   UNK N   1      33.010  14.015   8.849  0.00  0.00     0.678 A 
HETATM    3  N   UNK N   1      32.809  14.521   7.608  0.00  0.00    -0.190 N 
ATOM      4  HN  UNK N   1      32.364  13.935   6.901  1.00  0.00     0.184 HD
HETATM    5  C   UNK N   1      33.184  15.789   7.276  0.00  0.00     0.081 A 
HETATM    6  C   UNK N   1      33.804  16.595   8.273  0.00  0.00     0.090 A 
HETATM    7 Br   UNK N   1      34.410  18.411   8.013  0.00  0.00    -0.044 Br
HETATM    8  C   UNK N   1      33.996  16.041   9.544  0.00  0.00     0.175 A 
HETATM    9  N   UNK N   1      33.598  14.770   9.805  0.00  0.00    -0.170 N 
ATOM     10  HN  UNK N   1      33.744  14.379  10.736  1.00  0.00     0.186 HD
HETATM   11  H   UNK N   1      32.176  12.147   8.450  0.00  0.00     0.174 HD
HETATM   12  H   UNK N   1      32.749  12.328  10.045  0.00  0.00     0.174 HD
ENDROOT
BRANCH   5  13
HETATM   13  C   UNK N   1      32.914  16.240   5.882  0.00  0.00    -0.007 A 
HETATM   14  C   UNK N   1      33.630  15.658   4.822  0.00  0.00     0.014 A 
HETATM   15  C   UNK N   1      33.401  16.058   3.503  0.00  0.00     0.001 A 
HETATM   16  C   UNK N   1      32.452  17.045   3.228  0.00  0.00     0.000 A 
HETATM   17  C   UNK N   1      31.735  17.630   4.270  0.00  0.00     0.001 A 
HETATM   18  C   UNK N   1      31.967  17.228   5.585  0.00  0.00     0.014 A 
ENDBRANCH   5  13
BRANCH   8  19
HETATM   19  O   UNK N   1      34.577  16.763  10.516  0.00  0.00    -0.345 OA
HETATM   20  H   UNK N   1      35.356  17.251  10.336  0.00  0.00     0.219 HD
ENDBRANCH   8  19
TORSDOF 2
ENDMDL
