MODEL 1
REMARK VINA RESULT:      -6.2      0.000      0.000
REMARK  1 active torsions:
REMARK  status: ('A' for Active; 'I' for Inactive)
REMARK    1  A    between atoms: C_7  and  N_9 
ROOT
HETATM    1  C   UNK N   1      26.587  20.557   4.311  0.00  0.00     0.001 A 
HETATM    2  C   UNK N   1      27.436  19.499   3.975  0.00  0.00     0.014 A 
HETATM    3  C   UNK N   1      27.156  20.290   6.644  0.00  0.00     0.013 A 
HETATM    4  C   UNK N   1      28.156  18.823   4.973  0.00  0.00     0.001 A 
HETATM    5  C   UNK N   1      26.447  20.951   5.642  0.00  0.00     0.001 A 
HETATM    6  C   UNK N   1      28.014  19.224   6.324  0.00  0.00    -0.013 A 
HETATM    7  C   UNK N   1      29.013  17.756   4.641  0.00  0.00     0.037 A 
HETATM    8  C   UNK N   1      29.722  17.094   5.647  0.00  0.00     0.042 A 
HETATM    9  C   UNK N   1      29.590  17.480   6.978  0.00  0.00    -0.023 A 
HETATM   10  C   UNK N   1      30.308  16.806   7.971  0.00  0.00     0.012 A 
HETATM   11  C   UNK N   1      28.734  18.550   7.332  0.00  0.00    -0.015 A 
HETATM   12  C   UNK N   1      30.181  17.186   9.309  0.00  0.00     0.001 A 
HETATM   13  C   UNK N   1      29.337  18.242   9.663  0.00  0.00     0.001 A 
HETATM   14  C   UNK N   1      28.616  18.921   8.680  0.00  0.00     0.013 A 
ENDROOT
BRANCH   7  15
HETATM   15  N   UNK N   1      29.170  17.340   3.302  0.00  0.00    -0.398 N 
HETATM   16  H   UNK N   1      29.121  17.999   2.573  0.00  0.00     0.156 HD
HETATM   17  H   UNK N   1      29.329  16.389   3.098  0.00  0.00     0.156 HD
ENDBRANCH   7  15
TORSDOF 1
ENDMDL
MODEL 2
REMARK VINA RESULT:      -6.2      3.093      4.679
REMARK  1 active torsions:
REMARK  status: ('A' for Active; 'I' for Inactive)
REMARK    1  A    between atoms: C_7  and  N_9 
ROOT
HETATM    1  C   UNK N   1      33.065  16.898   3.903  0.00  0.00     0.001 A 
HETATM    2  C   UNK N   1      33.516  17.262   5.175  0.00  0.00     0.014 A 
HETATM    3  C   UNK N   1      30.787  16.855   4.711  0.00  0.00     0.013 A 
HETATM    4  C   UNK N   1      32.606  17.427   6.231  0.00  0.00     0.001 A 
HETATM    5  C   UNK N   1      31.704  16.696   3.672  0.00  0.00     0.001 A 
HETATM    6  C   UNK N   1      31.225  17.221   5.995  0.00  0.00    -0.013 A 
HETATM    7  C   UNK N   1      33.056  17.793   7.514  0.00  0.00     0.037 A 
HETATM    8  C   UNK N   1      32.136  17.952   8.554  0.00  0.00     0.042 A 
HETATM    9  C   UNK N   1      30.775  17.752   8.334  0.00  0.00    -0.023 A 
HETATM   10  C   UNK N   1      29.870  17.917   9.386  0.00  0.00     0.012 A 
HETATM   11  C   UNK N   1      30.304  17.384   7.051  0.00  0.00    -0.015 A 
HETATM   12  C   UNK N   1      28.503  17.718   9.175  0.00  0.00     0.001 A 
HETATM   13  C   UNK N   1      28.034  17.355   7.910  0.00  0.00     0.001 A 
HETATM   14  C   UNK N   1      28.929  17.188   6.852  0.00  0.00     0.013 A 
ENDROOT
BRANCH   7  15
HETATM   15  N   UNK N   1      34.426  18.003   7.772  0.00  0.00    -0.398 N 
HETATM   16  H   UNK N   1      34.742  18.111   8.697  0.00  0.00     0.156 HD
HETATM   17  H   UNK N   1      35.067  18.042   7.025  0.00  0.00     0.156 HD
ENDBRANCH   7  15
TORSDOF 1
ENDMDL
MODEL 3
REMARK VINA RESULT:      -6.1     12.362     14.416
REMARK  1 active torsions:
REMARK  status: ('A' for Active; 'I' for Inactive)
REMARK    1  A    between atoms: C_7  and  N_9 
ROOT
HETATM    1  C   UNK N   1      35.612   8.289  14.072  0.00  0.00     0.001 A 
HETATM    2  C   UNK N   1      35.273   9.603  13.739  0.00  0.00     0.014 A 
HETATM    3  C   UNK N   1      35.782   8.910  16.401  0.00  0.00     0.013 A 
HETATM    4  C   UNK N   1      35.184  10.588  14.736  0.00  0.00     0.001 A 
HETATM    5  C   UNK N   1      35.866   7.943  15.400  0.00  0.00     0.001 A 
HETATM    6  C   UNK N   1      35.442  10.236  16.084  0.00  0.00    -0.013 A 
HETATM    7  C   UNK N   1      34.843  11.913  14.406  0.00  0.00     0.037 A 
HETATM    8  C   UNK N   1      34.759  12.881  15.412  0.00  0.00     0.042 A 
HETATM    9  C   UNK N   1      35.011  12.546  16.740  0.00  0.00    -0.023 A 
HETATM   10  C   UNK N   1      34.922  13.527  17.732  0.00  0.00     0.012 A 
HETATM   11  C   UNK N   1      35.355  11.219  17.091  0.00  0.00    -0.015 A 
HETATM   12  C   UNK N   1      35.173  13.201  19.067  0.00  0.00     0.001 A 
HETATM   13  C   UNK N   1      35.513  11.892  19.418  0.00  0.00     0.001 A 
HETATM   14  C   UNK N   1      35.604  10.905  18.435  0.00  0.00     0.013 A 
ENDROOT
BRANCH   7  15
HETATM   15  N   UNK N   1      34.582  12.286  13.072  0.00  0.00    -0.398 N 
HETATM   16  H   UNK N   1      35.157  11.953  12.346  0.00  0.00     0.156 HD
HETATM   17  H   UNK N   1      33.823  12.880  12.866  0.00  0.00     0.156 HD
ENDBRANCH   7  15
TORSDOF 1
ENDMDL
MODEL 4
REMARK VINA RESULT:      -6.1     12.153     14.942
REMARK  1 active torsions:
REMARK  status: ('A' for Active; 'I' for Inactive)
REMARK    1  A    between atoms: C_7  and  N_9 
ROOT
HETATM    1  C   UNK N   1      35.179  10.602  20.132  0.00  0.00     0.001 A 
HETATM    2  C   UNK N   1      35.293  11.873  19.560  0.00  0.00     0.014 A 
HETATM    3  C   UNK N   1      34.851   9.633  17.942  0.00  0.00     0.013 A 
HETATM    4  C   UNK N   1      35.187  12.037  18.170  0.00  0.00     0.001 A 
HETATM    5  C   UNK N   1      34.958   9.486  19.325  0.00  0.00     0.001 A 
HETATM    6  C   UNK N   1      34.963  10.904  17.351  0.00  0.00    -0.013 A 
HETATM    7  C   UNK N   1      35.301  13.315  17.589  0.00  0.00     0.037 A 
HETATM    8  C   UNK N   1      35.193  13.462  16.203  0.00  0.00     0.042 A 
HETATM    9  C   UNK N   1      34.973  12.353  15.389  0.00  0.00    -0.023 A 
HETATM   10  C   UNK N   1      34.867  12.519  14.005  0.00  0.00     0.012 A 
HETATM   11  C   UNK N   1      34.855  11.061  15.954  0.00  0.00    -0.015 A 
HETATM   12  C   UNK N   1      34.646  11.413  13.180  0.00  0.00     0.001 A 
HETATM   13  C   UNK N   1      34.530  10.136  13.733  0.00  0.00     0.001 A 
HETATM   14  C   UNK N   1      34.634   9.959  15.114  0.00  0.00     0.013 A 
ENDROOT
BRANCH   7  15
HETATM   15  N   UNK N   1      35.524  14.458  18.384  0.00  0.00    -0.398 N 
HETATM   16  H   UNK N   1      35.917  15.267  17.985  0.00  0.00     0.156 HD
HETATM   17  H   UNK N   1      35.287  14.446  19.340  0.00  0.00     0.156 HD
ENDBRANCH   7  15
TORSDOF 1
ENDMDL
MODEL 5
REMARK VINA RESULT:      -6.0     12.600     14.255
REMARK  1 active torsions:
REMARK  status: ('A' for Active; 'I' for Inactive)
REMARK    1  A    between atoms: C_7  and  N_9 
ROOT
HETATM    1  C   UNK N   1      37.825   9.992  13.006  0.00  0.00     0.001 A 
HETATM    2  C   UNK N   1      37.486  11.348  13.028  0.00  0.00     0.014 A 
HETATM    3  C   UNK N   1      37.055   9.752  15.284  0.00  0.00     0.013 A 
HETATM    4  C   UNK N   1      36.927  11.922  14.181  0.00  0.00     0.001 A 
HETATM    5  C   UNK N   1      37.609   9.196  14.131  0.00  0.00     0.001 A 
HETATM    6  C   UNK N   1      36.709  11.113  15.323  0.00  0.00    -0.013 A 
HETATM    7  C   UNK N   1      36.584  13.288  14.208  0.00  0.00     0.037 A 
HETATM    8  C   UNK N   1      36.028  13.842  15.364  0.00  0.00     0.042 A 
HETATM    9  C   UNK N   1      35.809  13.056  16.492  0.00  0.00    -0.023 A 
HETATM   10  C   UNK N   1      35.252  13.629  17.640  0.00  0.00     0.012 A 
HETATM   11  C   UNK N   1      36.147  11.682  16.484  0.00  0.00    -0.015 A 
HETATM   12  C   UNK N   1      35.029  12.848  18.777  0.00  0.00     0.001 A 
HETATM   13  C   UNK N   1      35.361  11.491  18.773  0.00  0.00     0.001 A 
HETATM   14  C   UNK N   1      35.918  10.909  17.633  0.00  0.00     0.013 A 
ENDROOT
BRANCH   7  15
HETATM   15  N   UNK N   1      36.792  14.112  13.082  0.00  0.00    -0.398 N 
HETATM   16  H   UNK N   1      37.617  14.643  13.007  0.00  0.00     0.156 HD
HETATM   17  H   UNK N   1      36.112  14.156  12.372  0.00  0.00     0.156 HD
ENDBRANCH   7  15
TORSDOF 1
ENDMDL
MODEL 6
REMARK VINA RESULT:      -6.0      2.745      4.102
REMARK  1 active torsions:
REMARK  status: ('A' for Active; 'I' for Inactive)
REMARK    1  A    between atoms: C_7  and  N_9 
ROOT
HETATM    1  C   UNK N   1      28.100  18.042   9.181  0.00  0.00     0.001 A 
HETATM    2  C   UNK N   1      28.092  17.309   7.991  0.00  0.00     0.014 A 
HETATM    3  C   UNK N   1      30.502  18.264   9.043  0.00  0.00     0.013 A 
HETATM    4  C   UNK N   1      29.293  17.045   7.312  0.00  0.00     0.001 A 
HETATM    5  C   UNK N   1      29.301  18.518   9.705  0.00  0.00     0.001 A 
HETATM    6  C   UNK N   1      30.512  17.529   7.845  0.00  0.00    -0.013 A 
HETATM    7  C   UNK N   1      29.290  16.307   6.112  0.00  0.00     0.037 A 
HETATM    8  C   UNK N   1      30.495  16.054   5.450  0.00  0.00     0.042 A 
HETATM    9  C   UNK N   1      31.700  16.525   5.965  0.00  0.00    -0.023 A 
HETATM   10  C   UNK N   1      32.894  16.262   5.288  0.00  0.00     0.012 A 
HETATM   11  C   UNK N   1      31.722  17.268   7.169  0.00  0.00    -0.015 A 
HETATM   12  C   UNK N   1      34.108  16.731   5.797  0.00  0.00     0.001 A 
HETATM   13  C   UNK N   1      34.135  17.465   6.985  0.00  0.00     0.001 A 
HETATM   14  C   UNK N   1      32.947  17.733   7.669  0.00  0.00     0.013 A 
ENDROOT
BRANCH   7  15
HETATM   15  N   UNK N   1      28.088  15.815   5.563  0.00  0.00    -0.398 N 
HETATM   16  H   UNK N   1      27.595  15.099   6.022  0.00  0.00     0.156 HD
HETATM   17  H   UNK N   1      27.743  16.190   4.720  0.00  0.00     0.156 HD
ENDBRANCH   7  15
TORSDOF 1
ENDMDL
MODEL 7
REMARK VINA RESULT:      -5.9     12.063     14.687
REMARK  1 active torsions:
REMARK  status: ('A' for Active; 'I' for Inactive)
REMARK    1  A    between atoms: C_7  and  N_9 
ROOT
HETATM    1  C   UNK N   1      35.306  12.694  19.564  0.00  0.00     0.001 A 
HETATM    2  C   UNK N   1      35.294  11.340  19.218  0.00  0.00     0.014 A 
HETATM    3  C   UNK N   1      35.091  13.304  17.236  0.00  0.00     0.013 A 
HETATM    4  C   UNK N   1      35.181  10.952  17.873  0.00  0.00     0.001 A 
HETATM    5  C   UNK N   1      35.204  13.673  18.576  0.00  0.00     0.001 A 
HETATM    6  C   UNK N   1      35.078  11.947  16.870  0.00  0.00    -0.013 A 
HETATM    7  C   UNK N   1      35.170   9.589  17.519  0.00  0.00     0.037 A 
HETATM    8  C   UNK N   1      35.056   9.221  16.175  0.00  0.00     0.042 A 
HETATM    9  C   UNK N   1      34.954  10.191  15.181  0.00  0.00    -0.023 A 
HETATM   10  C   UNK N   1      34.842   9.803  13.842  0.00  0.00     0.012 A 
HETATM   11  C   UNK N   1      34.964  11.565  15.517  0.00  0.00    -0.015 A 
HETATM   12  C   UNK N   1      34.739  10.769  12.838  0.00  0.00     0.001 A 
HETATM   13  C   UNK N   1      34.748  12.127  13.166  0.00  0.00     0.001 A 
HETATM   14  C   UNK N   1      34.860  12.525  14.499  0.00  0.00     0.013 A 
ENDROOT
BRANCH   7  15
HETATM   15  N   UNK N   1      35.271   8.582  18.500  0.00  0.00    -0.398 N 
HETATM   16  H   UNK N   1      34.564   8.482  19.177  0.00  0.00     0.156 HD
HETATM   17  H   UNK N   1      36.049   7.979  18.508  0.00  0.00     0.156 HD
ENDBRANCH   7  15
TORSDOF 1
ENDMDL
MODEL 8
REMARK VINA RESULT:      -5.9     14.475     16.018
REMARK  1 active torsions:
REMARK  status: ('A' for Active; 'I' for Inactive)
REMARK    1  A    between atoms: C_7  and  N_9 
ROOT
HETATM    1  C   UNK N   1      28.078  26.153  -9.720  0.00  0.00     0.001 A 
HETATM    2  C   UNK N   1      27.168  25.512  -8.874  0.00  0.00     0.014 A 
HETATM    3  C   UNK N   1      28.241  27.998  -8.167  0.00  0.00     0.013 A 
HETATM    4  C   UNK N   1      26.783  26.110  -7.663  0.00  0.00     0.001 A 
HETATM    5  C   UNK N   1      28.613  27.392  -9.367  0.00  0.00     0.001 A 
HETATM    6  C   UNK N   1      27.327  27.367  -7.306  0.00  0.00    -0.013 A 
HETATM    7  C   UNK N   1      25.866  25.468  -6.808  0.00  0.00     0.037 A 
HETATM    8  C   UNK N   1      25.494  26.077  -5.606  0.00  0.00     0.042 A 
HETATM    9  C   UNK N   1      26.023  27.314  -5.244  0.00  0.00    -0.023 A 
HETATM   10  C   UNK N   1      25.638  27.907  -4.038  0.00  0.00     0.012 A 
HETATM   11  C   UNK N   1      26.945  27.973  -6.090  0.00  0.00    -0.015 A 
HETATM   12  C   UNK N   1      26.163  29.148  -3.667  0.00  0.00     0.001 A 
HETATM   13  C   UNK N   1      27.074  29.802  -4.499  0.00  0.00     0.001 A 
HETATM   14  C   UNK N   1      27.464  29.219  -5.706  0.00  0.00     0.013 A 
ENDROOT
BRANCH   7  15
HETATM   15  N   UNK N   1      25.312  24.216  -7.143  0.00  0.00    -0.398 N 
HETATM   16  H   UNK N   1      25.824  23.584  -7.699  0.00  0.00     0.156 HD
HETATM   17  H   UNK N   1      24.414  23.973  -6.821  0.00  0.00     0.156 HD
ENDBRANCH   7  15
TORSDOF 1
ENDMDL
MODEL 9
REMARK VINA RESULT:      -5.7      8.108      9.125
REMARK  1 active torsions:
REMARK  status: ('A' for Active; 'I' for Inactive)
REMARK    1  A    between atoms: C_7  and  N_9 
ROOT
HETATM    1  C   UNK N   1      22.774  11.477  10.578  0.00  0.00     0.001 A 
HETATM    2  C   UNK N   1      23.477  11.918   9.453  0.00  0.00     0.014 A 
HETATM    3  C   UNK N   1      21.187  13.280  10.309  0.00  0.00     0.013 A 
HETATM    4  C   UNK N   1      23.042  13.049   8.743  0.00  0.00     0.001 A 
HETATM    5  C   UNK N   1      21.632  12.156  11.004  0.00  0.00     0.001 A 
HETATM    6  C   UNK N   1      21.883  13.738   9.177  0.00  0.00    -0.013 A 
HETATM    7  C   UNK N   1      23.747  13.498   7.610  0.00  0.00     0.037 A 
HETATM    8  C   UNK N   1      23.300  14.625   6.914  0.00  0.00     0.042 A 
HETATM    9  C   UNK N   1      22.161  15.310   7.332  0.00  0.00    -0.023 A 
HETATM   10  C   UNK N   1      21.729  16.435   6.623  0.00  0.00     0.012 A 
HETATM   11  C   UNK N   1      21.440  14.874   8.468  0.00  0.00    -0.015 A 
HETATM   12  C   UNK N   1      20.588  17.128   7.035  0.00  0.00     0.001 A 
HETATM   13  C   UNK N   1      19.873  16.701   8.156  0.00  0.00     0.001 A 
HETATM   14  C   UNK N   1      20.296  15.579   8.871  0.00  0.00     0.013 A 
ENDROOT
BRANCH   7  15
HETATM   15  N   UNK N   1      24.903  12.828   7.160  0.00  0.00    -0.398 N 
HETATM   16  H   UNK N   1      25.213  12.017   7.623  0.00  0.00     0.156 HD
HETATM   17  H   UNK N   1      25.400  13.172   6.382  0.00  0.00     0.156 HD
ENDBRANCH   7  15
TORSDOF 1
ENDMDL
