REMARK  1 active torsions:
REMARK  status: ('A' for Active; 'I' for Inactive)
REMARK    1  A    between atoms: C_7  and  N_9 
ROOT
HETATM    1  C   UNK N   1       3.388   0.536  -0.000  0.00  0.00     0.001 A 
HETATM    2  C   UNK N   1       2.661  -0.658  -0.000  0.00  0.00     0.014 A 
HETATM    3  C   UNK N   1       1.330   1.803  -0.000  0.00  0.00     0.013 A 
HETATM    4  C   UNK N   1       1.257  -0.634  -0.000  0.00  0.00     0.001 A 
HETATM    5  C   UNK N   1       2.724   1.763  -0.000  0.00  0.00     0.001 A 
HETATM    6  C   UNK N   1       0.584   0.612  -0.000  0.00  0.00    -0.013 A 
HETATM    7  C   UNK N   1       0.520  -1.834   0.000  0.00  0.00     0.037 A 
HETATM    8  C   UNK N   1      -0.877  -1.792   0.000  0.00  0.00     0.042 A 
HETATM    9  C   UNK N   1      -1.549  -0.572   0.000  0.00  0.00    -0.023 A 
HETATM   10  C   UNK N   1      -2.947  -0.550   0.000  0.00  0.00     0.012 A 
HETATM   11  C   UNK N   1      -0.826   0.644  -0.000  0.00  0.00    -0.015 A 
HETATM   12  C   UNK N   1      -3.630   0.669   0.000  0.00  0.00     0.001 A 
HETATM   13  C   UNK N   1      -2.920   1.872   0.000  0.00  0.00     0.001 A 
HETATM   14  C   UNK N   1      -1.524   1.861   0.000  0.00  0.00     0.013 A 
ENDROOT
BRANCH   7  15
HETATM   15  N   UNK N   1       1.169  -3.086   0.000  0.00  0.00    -0.398 N 
HETATM   16  H   UNK N   1       0.639  -3.915   0.000  0.00  0.00     0.156 HD
HETATM   17  H   UNK N   1       2.153  -3.130   0.000  0.00  0.00     0.156 HD
ENDBRANCH   7  15
TORSDOF 1
