MODEL 1
REMARK VINA RESULT:      -7.5      0.000      0.000
REMARK  2 active torsions:
REMARK  status: ('A' for Active; 'I' for Inactive)
REMARK    1  A    between atoms: C_13  and  C_19 
REMARK    2  A    between atoms: C_22  and  O_23 
ROOT
HETATM    1  C   UNK N   1      36.072  14.261  11.745  0.00  0.00     0.002 A 
HETATM    2  C   UNK N   1      36.433  14.029  10.403  0.00  0.00    -0.022 A 
HETATM    3  C   UNK N   1      36.014  14.919   9.411  0.00  0.00     0.029 A 
HETATM    4  C   UNK N   1      35.245  16.030   9.768  0.00  0.00     0.088 A 
HETATM    5  N   UNK N   1      34.907  16.243  11.068  0.00  0.00    -0.374 N 
ATOM      6  HN  UNK N   1      34.349  17.062  11.310  1.00  0.00     0.164 HD
HETATM    7  C   UNK N   1      35.298  15.392  12.053  0.00  0.00     0.100 A 
HETATM    8  C   UNK N   1      36.475  13.352  12.739  0.00  0.00     0.004 A 
HETATM    9  C   UNK N   1      37.245  12.222  12.388  0.00  0.00     0.043 A 
HETATM   10  C   UNK N   1      37.609  12.011  11.057  0.00  0.00     0.031 A 
HETATM   11  C   UNK N   1      37.201  12.910  10.064  0.00  0.00     0.014 A 
HETATM   12  C   UNK N   1      36.098  13.522  14.068  0.00  0.00     0.028 A 
HETATM   13  C   UNK N   1      36.459  12.585  15.037  0.00  0.00    -0.010 A 
HETATM   14  C   UNK N   1      37.233  11.480  14.649  0.00  0.00     0.100 A 
HETATM   15  N   UNK N   1      37.616  11.329  13.349  0.00  0.00    -0.364 N 
ATOM     16  HN  UNK N   1      38.194  10.529  13.091  1.00  0.00     0.165 HD
ENDROOT
BRANCH  13  17
HETATM   17  C   UNK N   1      35.923  12.718  16.411  0.00  0.00    -0.024 A 
HETATM   18  C   UNK N   1      35.755  11.573  17.209  0.00  0.00     0.015 A 
HETATM   19  C   UNK N   1      35.351  11.686  18.538  0.00  0.00     0.037 A 
HETATM   20  C   UNK N   1      35.120  12.946  19.090  0.00  0.00     0.065 A 
HETATM   21  C   UNK N   1      35.271  14.093  18.304  0.00  0.00     0.037 A 
HETATM   22  C   UNK N   1      35.671  13.981  16.969  0.00  0.00     0.015 A 
BRANCH  20  23
HETATM   23  O   UNK N   1      34.761  13.055  20.379  0.00  0.00    -0.361 OA
HETATM   24  H   UNK N   1      34.319  12.351  20.812  0.00  0.00     0.217 HD
ENDBRANCH  20  23
ENDBRANCH  13  17
TORSDOF 2
ENDMDL
MODEL 2
REMARK VINA RESULT:      -7.4     21.920     24.429
REMARK  2 active torsions:
REMARK  status: ('A' for Active; 'I' for Inactive)
REMARK    1  A    between atoms: C_13  and  C_19 
REMARK    2  A    between atoms: C_22  and  O_23 
ROOT
HETATM    1  C   UNK N   1      29.296  21.590  -6.331  0.00  0.00     0.002 A 
HETATM    2  C   UNK N   1      29.732  20.547  -7.172  0.00  0.00    -0.022 A 
HETATM    3  C   UNK N   1      30.939  19.900  -6.900  0.00  0.00     0.029 A 
HETATM    4  C   UNK N   1      31.695  20.296  -5.792  0.00  0.00     0.088 A 
HETATM    5  N   UNK N   1      31.258  21.302  -4.987  0.00  0.00    -0.374 N 
ATOM      6  HN  UNK N   1      31.821  21.574  -4.181  1.00  0.00     0.164 HD
HETATM    7  C   UNK N   1      30.089  21.952  -5.231  0.00  0.00     0.100 A 
HETATM    8  C   UNK N   1      28.092  22.257  -6.620  0.00  0.00     0.004 A 
HETATM    9  C   UNK N   1      27.325  21.871  -7.741  0.00  0.00     0.043 A 
HETATM   10  C   UNK N   1      27.761  20.825  -8.558  0.00  0.00     0.031 A 
HETATM   11  C   UNK N   1      28.965  20.167  -8.278  0.00  0.00     0.014 A 
HETATM   12  C   UNK N   1      27.651  23.323  -5.840  0.00  0.00     0.028 A 
HETATM   13  C   UNK N   1      26.482  24.011  -6.168  0.00  0.00    -0.010 A 
HETATM   14  C   UNK N   1      25.745  23.589  -7.285  0.00  0.00     0.100 A 
HETATM   15  N   UNK N   1      26.170  22.532  -8.034  0.00  0.00    -0.364 N 
ATOM     16  HN  UNK N   1      25.609  22.230  -8.831  1.00  0.00     0.165 HD
ENDROOT
BRANCH  13  17
HETATM   17  C   UNK N   1      26.118  25.227  -5.406  0.00  0.00    -0.024 A 
HETATM   18  C   UNK N   1      26.605  25.404  -4.099  0.00  0.00     0.015 A 
HETATM   19  C   UNK N   1      26.359  26.586  -3.403  0.00  0.00     0.037 A 
HETATM   20  C   UNK N   1      25.631  27.611  -4.008  0.00  0.00     0.065 A 
HETATM   21  C   UNK N   1      25.129  27.443  -5.302  0.00  0.00     0.037 A 
HETATM   22  C   UNK N   1      25.370  26.256  -6.001  0.00  0.00     0.015 A 
BRANCH  20  23
HETATM   23  O   UNK N   1      25.421  28.761  -3.348  0.00  0.00    -0.361 OA
HETATM   24  H   UNK N   1      25.000  29.483  -3.771  0.00  0.00     0.217 HD
ENDBRANCH  20  23
ENDBRANCH  13  17
TORSDOF 2
ENDMDL
MODEL 3
REMARK VINA RESULT:      -7.2      1.770      2.082
REMARK  2 active torsions:
REMARK  status: ('A' for Active; 'I' for Inactive)
REMARK    1  A    between atoms: C_13  and  C_19 
REMARK    2  A    between atoms: C_22  and  O_23 
ROOT
HETATM    1  C   UNK N   1      35.486  13.394  11.823  0.00  0.00     0.002 A 
HETATM    2  C   UNK N   1      35.186  13.136  10.471  0.00  0.00    -0.022 A 
HETATM    3  C   UNK N   1      35.476  14.100   9.504  0.00  0.00     0.029 A 
HETATM    4  C   UNK N   1      36.064  15.307   9.893  0.00  0.00     0.088 A 
HETATM    5  N   UNK N   1      36.352  15.540  11.201  0.00  0.00    -0.374 N 
ATOM      6  HN  UNK N   1      36.785  16.425  11.466  1.00  0.00     0.164 HD
HETATM    7  C   UNK N   1      36.077  14.621  12.165  0.00  0.00     0.100 A 
HETATM    8  C   UNK N   1      35.172  12.432  12.800  0.00  0.00     0.004 A 
HETATM    9  C   UNK N   1      34.571  11.213  12.419  0.00  0.00     0.043 A 
HETATM   10  C   UNK N   1      34.292  10.963  11.073  0.00  0.00     0.031 A 
HETATM   11  C   UNK N   1      34.595  11.924  10.101  0.00  0.00     0.014 A 
HETATM   12  C   UNK N   1      35.411  12.670  14.151  0.00  0.00     0.028 A 
HETATM   13  C   UNK N   1      35.046  11.730  15.115  0.00  0.00    -0.010 A 
HETATM   14  C   UNK N   1      34.459  10.527  14.694  0.00  0.00     0.100 A 
HETATM   15  N   UNK N   1      34.246  10.290  13.368  0.00  0.00    -0.364 N 
ATOM     16  HN  UNK N   1      33.835   9.402  13.081  1.00  0.00     0.165 HD
ENDROOT
BRANCH  13  17
HETATM   17  C   UNK N   1      35.180  12.072  16.550  0.00  0.00    -0.024 A 
HETATM   18  C   UNK N   1      35.119  13.416  16.956  0.00  0.00     0.015 A 
HETATM   19  C   UNK N   1      35.140  13.752  18.308  0.00  0.00     0.037 A 
HETATM   20  C   UNK N   1      35.212  12.747  19.274  0.00  0.00     0.065 A 
HETATM   21  C   UNK N   1      35.287  11.406  18.884  0.00  0.00     0.037 A 
HETATM   22  C   UNK N   1      35.271  11.068  17.527  0.00  0.00     0.015 A 
BRANCH  20  23
HETATM   23  O   UNK N   1      35.201  13.070  20.576  0.00  0.00    -0.361 OA
HETATM   24  H   UNK N   1      35.953  13.459  20.977  0.00  0.00     0.217 HD
ENDBRANCH  20  23
ENDBRANCH  13  17
TORSDOF 2
ENDMDL
MODEL 4
REMARK VINA RESULT:      -7.2      3.313      6.849
REMARK  2 active torsions:
REMARK  status: ('A' for Active; 'I' for Inactive)
REMARK    1  A    between atoms: C_13  and  C_19 
REMARK    2  A    between atoms: C_22  and  O_23 
ROOT
HETATM    1  C   UNK N   1      35.161  12.180  16.897  0.00  0.00     0.002 A 
HETATM    2  C   UNK N   1      35.228  11.081  17.777  0.00  0.00    -0.022 A 
HETATM    3  C   UNK N   1      35.321  11.302  19.152  0.00  0.00     0.029 A 
HETATM    4  C   UNK N   1      35.345  12.614  19.635  0.00  0.00     0.088 A 
HETATM    5  N   UNK N   1      35.275  13.665  18.775  0.00  0.00    -0.374 N 
ATOM      6  HN  UNK N   1      35.289  14.614  19.146  1.00  0.00     0.164 HD
HETATM    7  C   UNK N   1      35.187  13.478  17.431  0.00  0.00     0.100 A 
HETATM    8  C   UNK N   1      35.090  11.956  15.510  0.00  0.00     0.004 A 
HETATM    9  C   UNK N   1      35.075  10.635  15.011  0.00  0.00     0.043 A 
HETATM   10  C   UNK N   1      35.126   9.554  15.894  0.00  0.00     0.031 A 
HETATM   11  C   UNK N   1      35.207   9.776  17.274  0.00  0.00     0.014 A 
HETATM   12  C   UNK N   1      35.070  13.016  14.608  0.00  0.00     0.028 A 
HETATM   13  C   UNK N   1      35.053  12.780  13.233  0.00  0.00    -0.010 A 
HETATM   14  C   UNK N   1      35.029  11.453  12.778  0.00  0.00     0.100 A 
HETATM   15  N   UNK N   1      35.029  10.419  13.666  0.00  0.00    -0.364 N 
ATOM     16  HN  UNK N   1      34.993   9.462  13.315  1.00  0.00     0.165 HD
ENDROOT
BRANCH  13  17
HETATM   17  C   UNK N   1      35.177  13.923  12.299  0.00  0.00    -0.024 A 
HETATM   18  C   UNK N   1      34.397  13.957  11.130  0.00  0.00     0.015 A 
HETATM   19  C   UNK N   1      34.422  15.070  10.292  0.00  0.00     0.037 A 
HETATM   20  C   UNK N   1      35.220  16.168  10.616  0.00  0.00     0.065 A 
HETATM   21  C   UNK N   1      36.012  16.142  11.768  0.00  0.00     0.037 A 
HETATM   22  C   UNK N   1      35.992  15.024  12.609  0.00  0.00     0.015 A 
BRANCH  20  23
HETATM   23  O   UNK N   1      35.220  17.251   9.824  0.00  0.00    -0.361 OA
HETATM   24  H   UNK N   1      34.471  17.458   9.299  0.00  0.00     0.217 HD
ENDBRANCH  20  23
ENDBRANCH  13  17
TORSDOF 2
ENDMDL
MODEL 5
REMARK VINA RESULT:      -7.1     20.809     23.957
REMARK  2 active torsions:
REMARK  status: ('A' for Active; 'I' for Inactive)
REMARK    1  A    between atoms: C_13  and  C_19 
REMARK    2  A    between atoms: C_22  and  O_23 
ROOT
HETATM    1  C   UNK N   1      27.334  27.321  -4.267  0.00  0.00     0.002 A 
HETATM    2  C   UNK N   1      26.249  28.212  -4.387  0.00  0.00    -0.022 A 
HETATM    3  C   UNK N   1      26.321  29.472  -3.792  0.00  0.00     0.029 A 
HETATM    4  C   UNK N   1      27.473  29.832  -3.086  0.00  0.00     0.088 A 
HETATM    5  N   UNK N   1      28.514  28.964  -2.982  0.00  0.00    -0.374 N 
ATOM      6  HN  UNK N   1      29.349  29.246  -2.467  1.00  0.00     0.164 HD
HETATM    7  C   UNK N   1      28.470  27.729  -3.549  0.00  0.00     0.100 A 
HETATM    8  C   UNK N   1      27.251  26.043  -4.848  0.00  0.00     0.004 A 
HETATM    9  C   UNK N   1      26.088  25.666  -5.555  0.00  0.00     0.043 A 
HETATM   10  C   UNK N   1      25.026  26.564  -5.680  0.00  0.00     0.031 A 
HETATM   11  C   UNK N   1      25.103  27.833  -5.094  0.00  0.00     0.014 A 
HETATM   12  C   UNK N   1      28.283  25.119  -4.710  0.00  0.00     0.028 A 
HETATM   13  C   UNK N   1      28.166  23.835  -5.246  0.00  0.00    -0.010 A 
HETATM   14  C   UNK N   1      26.998  23.504  -5.950  0.00  0.00     0.100 A 
HETATM   15  N   UNK N   1      25.999  24.419  -6.099  0.00  0.00    -0.364 N 
ATOM     16  HN  UNK N   1      25.166  24.165  -6.630  1.00  0.00     0.165 HD
ENDROOT
BRANCH  13  17
HETATM   17  C   UNK N   1      29.217  22.832  -4.960  0.00  0.00    -0.024 A 
HETATM   18  C   UNK N   1      29.776  22.753  -3.673  0.00  0.00     0.015 A 
HETATM   19  C   UNK N   1      30.690  21.750  -3.356  0.00  0.00     0.037 A 
HETATM   20  C   UNK N   1      31.050  20.806  -4.318  0.00  0.00     0.065 A 
HETATM   21  C   UNK N   1      30.511  20.880  -5.607  0.00  0.00     0.037 A 
HETATM   22  C   UNK N   1      29.597  21.889  -5.929  0.00  0.00     0.015 A 
BRANCH  20  23
HETATM   23  O   UNK N   1      31.906  19.823  -4.001  0.00  0.00    -0.361 OA
HETATM   24  H   UNK N   1      31.717  19.234  -3.298  0.00  0.00     0.217 HD
ENDBRANCH  20  23
ENDBRANCH  13  17
TORSDOF 2
ENDMDL
MODEL 6
REMARK VINA RESULT:      -7.1      2.188      3.073
REMARK  2 active torsions:
REMARK  status: ('A' for Active; 'I' for Inactive)
REMARK    1  A    between atoms: C_13  and  C_19 
REMARK    2  A    between atoms: C_22  and  O_23 
ROOT
HETATM    1  C   UNK N   1      34.820  11.838  12.363  0.00  0.00     0.002 A 
HETATM    2  C   UNK N   1      35.102  12.190  11.029  0.00  0.00    -0.022 A 
HETATM    3  C   UNK N   1      34.552  11.443   9.986  0.00  0.00     0.029 A 
HETATM    4  C   UNK N   1      33.725  10.355  10.284  0.00  0.00     0.088 A 
HETATM    5  N   UNK N   1      33.458  10.030  11.577  0.00  0.00    -0.374 N 
ATOM      6  HN  UNK N   1      32.848   9.236  11.775  1.00  0.00     0.164 HD
HETATM    7  C   UNK N   1      33.983  10.738  12.612  0.00  0.00     0.100 A 
HETATM    8  C   UNK N   1      35.393  12.578  13.413  0.00  0.00     0.004 A 
HETATM    9  C   UNK N   1      36.237  13.672  13.123  0.00  0.00     0.043 A 
HETATM   10  C   UNK N   1      36.497  14.021  11.796  0.00  0.00     0.031 A 
HETATM   11  C   UNK N   1      35.935  13.279  10.750  0.00  0.00     0.014 A 
HETATM   12  C   UNK N   1      35.175  12.231  14.744  0.00  0.00     0.028 A 
HETATM   13  C   UNK N   1      35.793  12.940  15.775  0.00  0.00    -0.010 A 
HETATM   14  C   UNK N   1      36.616  14.028  15.444  0.00  0.00     0.100 A 
HETATM   15  N   UNK N   1      36.810  14.375  14.141  0.00  0.00    -0.364 N 
ATOM     16  HN  UNK N   1      37.398  15.180  13.922  1.00  0.00     0.165 HD
ENDROOT
BRANCH  13  17
HETATM   17  C   UNK N   1      35.656  12.460  17.169  0.00  0.00    -0.024 A 
HETATM   18  C   UNK N   1      35.280  13.358  18.183  0.00  0.00     0.015 A 
HETATM   19  C   UNK N   1      35.046  12.907  19.481  0.00  0.00     0.037 A 
HETATM   20  C   UNK N   1      35.175  11.550  19.780  0.00  0.00     0.065 A 
HETATM   21  C   UNK N   1      35.563  10.648  18.784  0.00  0.00     0.037 A 
HETATM   22  C   UNK N   1      35.803  11.099  17.482  0.00  0.00     0.015 A 
BRANCH  20  23
HETATM   23  O   UNK N   1      34.920  11.113  21.022  0.00  0.00    -0.361 OA
HETATM   24  H   UNK N   1      34.652  11.710  21.693  0.00  0.00     0.217 HD
ENDBRANCH  20  23
ENDBRANCH  13  17
TORSDOF 2
ENDMDL
MODEL 7
REMARK VINA RESULT:      -7.0      5.551      9.628
REMARK  2 active torsions:
REMARK  status: ('A' for Active; 'I' for Inactive)
REMARK    1  A    between atoms: C_13  and  C_19 
REMARK    2  A    between atoms: C_22  and  O_23 
ROOT
HETATM    1  C   UNK N   1      34.506  14.187  10.008  0.00  0.00     0.002 A 
HETATM    2  C   UNK N   1      35.162  14.077  11.250  0.00  0.00    -0.022 A 
HETATM    3  C   UNK N   1      35.233  12.837  11.887  0.00  0.00     0.029 A 
HETATM    4  C   UNK N   1      34.652  11.720  11.279  0.00  0.00     0.088 A 
HETATM    5  N   UNK N   1      34.025  11.840  10.078  0.00  0.00    -0.374 N 
ATOM      6  HN  UNK N   1      33.612  11.013   9.647  1.00  0.00     0.164 HD
HETATM    7  C   UNK N   1      33.939  13.036   9.437  0.00  0.00     0.100 A 
HETATM    8  C   UNK N   1      34.415  15.441   9.379  0.00  0.00     0.004 A 
HETATM    9  C   UNK N   1      34.991  16.577   9.989  0.00  0.00     0.043 A 
HETATM   10  C   UNK N   1      35.652  16.453  11.213  0.00  0.00     0.031 A 
HETATM   11  C   UNK N   1      35.734  15.206  11.845  0.00  0.00     0.014 A 
HETATM   12  C   UNK N   1      33.735  15.597   8.174  0.00  0.00     0.028 A 
HETATM   13  C   UNK N   1      33.606  16.856   7.587  0.00  0.00    -0.010 A 
HETATM   14  C   UNK N   1      34.201  17.958   8.220  0.00  0.00     0.100 A 
HETATM   15  N   UNK N   1      34.884  17.797   9.389  0.00  0.00    -0.364 N 
ATOM     16  HN  UNK N   1      35.324  18.607   9.824  1.00  0.00     0.165 HD
ENDROOT
BRANCH  13  17
HETATM   17  C   UNK N   1      32.756  17.013   6.384  0.00  0.00    -0.024 A 
HETATM   18  C   UNK N   1      33.321  17.484   5.187  0.00  0.00     0.015 A 
HETATM   19  C   UNK N   1      32.565  17.541   4.018  0.00  0.00     0.037 A 
HETATM   20  C   UNK N   1      31.235  17.117   4.028  0.00  0.00     0.065 A 
HETATM   21  C   UNK N   1      30.656  16.659   5.216  0.00  0.00     0.037 A 
HETATM   22  C   UNK N   1      31.413  16.605   6.391  0.00  0.00     0.015 A 
BRANCH  20  23
HETATM   23  O   UNK N   1      30.517  17.144   2.895  0.00  0.00    -0.361 OA
HETATM   24  H   UNK N   1      30.942  17.207   2.062  0.00  0.00     0.217 HD
ENDBRANCH  20  23
ENDBRANCH  13  17
TORSDOF 2
ENDMDL
MODEL 8
REMARK VINA RESULT:      -6.9     10.375     13.776
REMARK  2 active torsions:
REMARK  status: ('A' for Active; 'I' for Inactive)
REMARK    1  A    between atoms: C_13  and  C_19 
REMARK    2  A    between atoms: C_22  and  O_23 
ROOT
HETATM    1  C   UNK N   1      31.241  16.965   4.685  0.00  0.00     0.002 A 
HETATM    2  C   UNK N   1      32.236  16.311   5.437  0.00  0.00    -0.022 A 
HETATM    3  C   UNK N   1      33.341  15.757   4.787  0.00  0.00     0.029 A 
HETATM    4  C   UNK N   1      33.442  15.864   3.397  0.00  0.00     0.088 A 
HETATM    5  N   UNK N   1      32.476  16.502   2.684  0.00  0.00    -0.374 N 
ATOM      6  HN  UNK N   1      32.570  16.574   1.671  1.00  0.00     0.164 HD
HETATM    7  C   UNK N   1      31.388  17.048   3.291  0.00  0.00     0.100 A 
HETATM    8  C   UNK N   1      30.117  17.502   5.339  0.00  0.00     0.004 A 
HETATM    9  C   UNK N   1      30.000  17.393   6.741  0.00  0.00     0.043 A 
HETATM   10  C   UNK N   1      31.001  16.755   7.477  0.00  0.00     0.031 A 
HETATM   11  C   UNK N   1      32.116  16.211   6.827  0.00  0.00     0.014 A 
HETATM   12  C   UNK N   1      29.091  18.114   4.624  0.00  0.00     0.028 A 
HETATM   13  C   UNK N   1      27.956  18.596   5.279  0.00  0.00    -0.010 A 
HETATM   14  C   UNK N   1      27.884  18.476   6.675  0.00  0.00     0.100 A 
HETATM   15  N   UNK N   1      28.900  17.893   7.372  0.00  0.00    -0.364 N 
ATOM     16  HN  UNK N   1      28.836  17.832   8.388  1.00  0.00     0.165 HD
ENDROOT
BRANCH  13  17
HETATM   17  C   UNK N   1      26.821  19.111   4.480  0.00  0.00    -0.024 A 
HETATM   18  C   UNK N   1      25.520  18.642   4.733  0.00  0.00     0.015 A 
HETATM   19  C   UNK N   1      24.425  19.188   4.064  0.00  0.00     0.037 A 
HETATM   20  C   UNK N   1      24.616  20.216   3.141  0.00  0.00     0.065 A 
HETATM   21  C   UNK N   1      25.906  20.683   2.870  0.00  0.00     0.037 A 
HETATM   22  C   UNK N   1      27.006  20.133   3.536  0.00  0.00     0.015 A 
BRANCH  20  23
HETATM   23  O   UNK N   1      23.558  20.762   2.521  0.00  0.00    -0.361 OA
HETATM   24  H   UNK N   1      22.691  20.450   2.693  0.00  0.00     0.217 HD
ENDBRANCH  20  23
ENDBRANCH  13  17
TORSDOF 2
ENDMDL
MODEL 9
REMARK VINA RESULT:      -6.9     14.502     16.623
REMARK  2 active torsions:
REMARK  status: ('A' for Active; 'I' for Inactive)
REMARK    1  A    between atoms: C_13  and  C_19 
REMARK    2  A    between atoms: C_22  and  O_23 
ROOT
HETATM    1  C   UNK N   1      25.118  18.946   4.462  0.00  0.00     0.002 A 
HETATM    2  C   UNK N   1      25.569  19.922   3.552  0.00  0.00    -0.022 A 
HETATM    3  C   UNK N   1      26.932  20.213   3.468  0.00  0.00     0.029 A 
HETATM    4  C   UNK N   1      27.830  19.526   4.290  0.00  0.00     0.088 A 
HETATM    5  N   UNK N   1      27.382  18.583   5.162  0.00  0.00    -0.374 N 
ATOM      6  HN  UNK N   1      28.053  18.089   5.750  1.00  0.00     0.164 HD
HETATM    7  C   UNK N   1      26.060  18.283   5.266  0.00  0.00     0.100 A 
HETATM    8  C   UNK N   1      23.743  18.671   4.562  0.00  0.00     0.004 A 
HETATM    9  C   UNK N   1      22.826  19.365   3.742  0.00  0.00     0.043 A 
HETATM   10  C   UNK N   1      23.286  20.320   2.833  0.00  0.00     0.031 A 
HETATM   11  C   UNK N   1      24.654  20.602   2.740  0.00  0.00     0.014 A 
HETATM   12  C   UNK N   1      23.256  17.748   5.482  0.00  0.00     0.028 A 
HETATM   13  C   UNK N   1      21.884  17.523   5.609  0.00  0.00    -0.010 A 
HETATM   14  C   UNK N   1      21.007  18.226   4.768  0.00  0.00     0.100 A 
HETATM   15  N   UNK N   1      21.491  19.115   3.855  0.00  0.00    -0.364 N 
ATOM     16  HN  UNK N   1      20.838  19.602   3.242  1.00  0.00     0.165 HD
ENDROOT
BRANCH  13  17
HETATM   17  C   UNK N   1      21.390  16.643   6.692  0.00  0.00    -0.024 A 
HETATM   18  C   UNK N   1      20.424  17.122   7.594  0.00  0.00     0.015 A 
HETATM   19  C   UNK N   1      19.870  16.279   8.556  0.00  0.00     0.037 A 
HETATM   20  C   UNK N   1      20.267  14.943   8.623  0.00  0.00     0.065 A 
HETATM   21  C   UNK N   1      21.238  14.457   7.741  0.00  0.00     0.037 A 
HETATM   22  C   UNK N   1      21.798  15.303   6.778  0.00  0.00     0.015 A 
BRANCH  20  23
HETATM   23  O   UNK N   1      19.711  14.126   9.530  0.00  0.00    -0.361 OA
HETATM   24  H   UNK N   1      18.825  14.252   9.806  0.00  0.00     0.217 HD
ENDBRANCH  20  23
ENDBRANCH  13  17
TORSDOF 2
ENDMDL
