MODEL 1
REMARK VINA RESULT:      -7.8      0.000      0.000
REMARK  4 active torsions:
REMARK  status: ('A' for Active; 'I' for Inactive)
REMARK    1  A    between atoms: C_10  and  N_13 
REMARK       I    between atoms: N_11  and  C_12 
REMARK    2  A    between atoms: N_11  and  C_15 
REMARK       I    between atoms: C_12  and  N_13 
REMARK    3  A    between atoms: C_15  and  C_17 
REMARK    4  A    between atoms: C_20  and  N_22 
REMARK       I    between atoms: N_22  and  C_25 
REMARK       I    between atoms: C_25  and  N_26 
ROOT
HETATM    1  N   UNK N   1      34.746  13.361  11.843  0.00  0.00    -0.339 N 
HETATM    2  C   UNK N   1      34.726  13.966  10.638  0.00  0.00     0.317 C 
HETATM    3  N   UNK N   1      33.524  14.339  10.136  0.00  0.00    -0.334 N 
HETATM    4  O   UNK N   1      35.765  14.273  10.076  0.00  0.00    -0.247 OA
HETATM    5  H   UNK N   1      33.891  13.128  12.272  0.00  0.00     0.164 HD
HETATM    6  H   UNK N   1      32.719  13.873  10.459  0.00  0.00     0.165 HD
ENDROOT
BRANCH   1   7
HETATM    7  C   UNK N   1      35.975  13.041  12.524  0.00  0.00     0.162 C 
BRANCH   7   8
HETATM    8  C   UNK N   1      35.786  13.219  13.985  0.00  0.00    -0.040 A 
HETATM    9  C   UNK N   1      34.683  12.640  14.619  0.00  0.00     0.011 A 
HETATM   10  C   UNK N   1      34.498  12.794  15.978  0.00  0.00     0.030 A 
HETATM   11  C   UNK N   1      35.410  13.530  16.737  0.00  0.00     0.049 A 
HETATM   12  C   UNK N   1      36.516  14.119  16.107  0.00  0.00     0.030 A 
HETATM   13  C   UNK N   1      36.708  13.958  14.729  0.00  0.00     0.011 A 
BRANCH  11  14
HETATM   14  N   UNK N   1      35.229  13.698  18.134  0.00  0.00    -0.193 N 
HETATM   15  C   UNK N   1      35.271  12.648  19.098  0.00  0.00     0.669 C 
HETATM   16  N   UNK N   1      35.023  12.914  20.324  0.00  0.00    -0.235 N 
HETATM   17  N   UNK N   1      35.658  11.333  18.744  0.00  0.00    -0.235 N 
HETATM   18  H   UNK N   1      35.158  12.227  21.015  0.00  0.00     0.174 HD
ATOM     19  HN  UNK N   1      34.686  13.840  20.585  1.00  0.00     0.174 HD
HETATM   20  H   UNK N   1      35.842  11.108  17.803  0.00  0.00     0.174 HD
HETATM   21  H   UNK N   1      35.741  10.641  19.440  0.00  0.00     0.174 HD
HETATM   22  H   UNK N   1      35.062  14.611  18.463  0.00  0.00     0.184 HD
ENDBRANCH  11  14
ENDBRANCH   7   8
ENDBRANCH   1   7
BRANCH   3  23
HETATM   23  C   UNK N   1      33.364  15.379   9.153  0.00  0.00     0.035 C 
HETATM   24  C   UNK N   1      33.767  14.802   7.789  0.00  0.00     0.035 C 
HETATM   25  C   UNK N   1      33.455  15.811   6.679  0.00  0.00    -0.012 C 
HETATM   26  C   UNK N   1      34.258  17.096   6.932  0.00  0.00     0.009 C 
HETATM   27  C   UNK N   1      31.952  16.141   6.691  0.00  0.00     0.009 C 
HETATM   28  C   UNK N   1      33.885  17.690   8.303  0.00  0.00    -0.012 C 
HETATM   29  C   UNK N   1      34.191  16.657   9.419  0.00  0.00     0.035 C 
HETATM   30  C   UNK N   1      32.381  18.019   8.308  0.00  0.00     0.009 C 
HETATM   31  C   UNK N   1      31.562  16.746   8.047  0.00  0.00    -0.012 C 
HETATM   32  C   UNK N   1      31.866  15.730   9.129  0.00  0.00     0.035 C 
ENDBRANCH   3  23
TORSDOF 4
ENDMDL
MODEL 2
REMARK VINA RESULT:      -7.8      0.668      2.032
REMARK  4 active torsions:
REMARK  status: ('A' for Active; 'I' for Inactive)
REMARK    1  A    between atoms: C_10  and  N_13 
REMARK       I    between atoms: N_11  and  C_12 
REMARK    2  A    between atoms: N_11  and  C_15 
REMARK       I    between atoms: C_12  and  N_13 
REMARK    3  A    between atoms: C_15  and  C_17 
REMARK    4  A    between atoms: C_20  and  N_22 
REMARK       I    between atoms: N_22  and  C_25 
REMARK       I    between atoms: C_25  and  N_26 
ROOT
HETATM    1  N   UNK N   1      34.563  13.750  11.592  0.00  0.00    -0.339 N 
HETATM    2  C   UNK N   1      34.446  14.243  10.342  0.00  0.00     0.317 C 
HETATM    3  N   UNK N   1      33.216  14.630   9.926  0.00  0.00    -0.334 N 
HETATM    4  O   UNK N   1      35.435  14.441   9.655  0.00  0.00    -0.247 OA
HETATM    5  H   UNK N   1      33.748  13.603  12.123  0.00  0.00     0.164 HD
HETATM    6  H   UNK N   1      32.429  14.240  10.371  0.00  0.00     0.165 HD
ENDROOT
BRANCH   1   7
HETATM    7  C   UNK N   1      35.841  13.429  12.178  0.00  0.00     0.162 C 
BRANCH   7   8
HETATM    8  C   UNK N   1      35.661  13.155  13.625  0.00  0.00    -0.040 A 
HETATM    9  C   UNK N   1      36.541  13.717  14.554  0.00  0.00     0.011 A 
HETATM   10  C   UNK N   1      36.381  13.474  15.903  0.00  0.00     0.030 A 
HETATM   11  C   UNK N   1      35.339  12.663  16.357  0.00  0.00     0.049 A 
HETATM   12  C   UNK N   1      34.456  12.091  15.430  0.00  0.00     0.030 A 
HETATM   13  C   UNK N   1      34.613  12.342  14.062  0.00  0.00     0.011 A 
BRANCH  11  14
HETATM   14  N   UNK N   1      35.167  12.403  17.741  0.00  0.00    -0.193 N 
HETATM   15  C   UNK N   1      35.218  13.387  18.773  0.00  0.00     0.669 C 
HETATM   16  N   UNK N   1      35.118  13.019  19.993  0.00  0.00    -0.235 N 
HETATM   17  N   UNK N   1      35.300  14.768  18.475  0.00  0.00    -0.235 N 
HETATM   18  H   UNK N   1      35.038  13.692  20.707  0.00  0.00     0.174 HD
ATOM     19  HN  UNK N   1      35.119  12.026  20.227  1.00  0.00     0.174 HD
HETATM   20  H   UNK N   1      35.388  15.068  17.541  0.00  0.00     0.174 HD
HETATM   21  H   UNK N   1      35.269  15.431  19.203  0.00  0.00     0.174 HD
HETATM   22  H   UNK N   1      34.998  11.471  18.010  0.00  0.00     0.184 HD
ENDBRANCH  11  14
ENDBRANCH   7   8
ENDBRANCH   1   7
BRANCH   3  23
HETATM   23  C   UNK N   1      33.003  15.584   8.868  0.00  0.00     0.035 C 
HETATM   24  C   UNK N   1      31.539  16.039   8.935  0.00  0.00     0.035 C 
HETATM   25  C   UNK N   1      31.297  17.179   7.941  0.00  0.00    -0.012 C 
HETATM   26  C   UNK N   1      31.597  16.676   6.521  0.00  0.00     0.009 C 
HETATM   27  C   UNK N   1      32.233  18.356   8.272  0.00  0.00     0.009 C 
HETATM   28  C   UNK N   1      33.058  16.199   6.429  0.00  0.00    -0.012 C 
HETATM   29  C   UNK N   1      33.297  15.054   7.447  0.00  0.00     0.035 C 
HETATM   30  C   UNK N   1      33.989  17.380   6.759  0.00  0.00     0.009 C 
HETATM   31  C   UNK N   1      33.695  17.902   8.173  0.00  0.00    -0.012 C 
HETATM   32  C   UNK N   1      33.917  16.783   9.171  0.00  0.00     0.035 C 
ENDBRANCH   3  23
TORSDOF 4
ENDMDL
MODEL 3
REMARK VINA RESULT:      -7.7      2.584      8.775
REMARK  4 active torsions:
REMARK  status: ('A' for Active; 'I' for Inactive)
REMARK    1  A    between atoms: C_10  and  N_13 
REMARK       I    between atoms: N_11  and  C_12 
REMARK    2  A    between atoms: N_11  and  C_15 
REMARK       I    between atoms: C_12  and  N_13 
REMARK    3  A    between atoms: C_15  and  C_17 
REMARK    4  A    between atoms: C_20  and  N_22 
REMARK       I    between atoms: N_22  and  C_25 
REMARK       I    between atoms: C_25  and  N_26 
ROOT
HETATM    1  N   UNK N   1      35.739  15.527  11.676  0.00  0.00    -0.339 N 
HETATM    2  C   UNK N   1      36.153  14.393  12.278  0.00  0.00     0.317 C 
HETATM    3  N   UNK N   1      35.787  14.190  13.567  0.00  0.00    -0.334 N 
HETATM    4  O   UNK N   1      36.737  13.528  11.645  0.00  0.00    -0.247 OA
HETATM    5  H   UNK N   1      35.268  16.205  12.212  0.00  0.00     0.164 HD
HETATM    6  H   UNK N   1      35.554  14.974  14.115  0.00  0.00     0.165 HD
ENDROOT
BRANCH   1   7
HETATM    7  C   UNK N   1      35.962  15.781  10.275  0.00  0.00     0.162 C 
BRANCH   7   8
HETATM    8  C   UNK N   1      34.678  16.164   9.636  0.00  0.00    -0.040 A 
HETATM    9  C   UNK N   1      34.563  17.400   8.993  0.00  0.00     0.011 A 
HETATM   10  C   UNK N   1      33.376  17.765   8.390  0.00  0.00     0.030 A 
HETATM   11  C   UNK N   1      32.275  16.906   8.417  0.00  0.00     0.049 A 
HETATM   12  C   UNK N   1      32.382  15.667   9.067  0.00  0.00     0.030 A 
HETATM   13  C   UNK N   1      33.587  15.293   9.672  0.00  0.00     0.011 A 
BRANCH  11  14
HETATM   14  N   UNK N   1      31.049  17.272   7.805  0.00  0.00    -0.193 N 
HETATM   15  C   UNK N   1      29.954  17.897   8.471  0.00  0.00     0.669 C 
HETATM   16  N   UNK N   1      28.872  18.115   7.826  0.00  0.00    -0.235 N 
HETATM   17  N   UNK N   1      30.063  18.353   9.807  0.00  0.00    -0.235 N 
HETATM   18  H   UNK N   1      28.151  18.645   8.236  0.00  0.00     0.174 HD
ATOM     19  HN  UNK N   1      28.756  17.740   6.884  1.00  0.00     0.174 HD
HETATM   20  H   UNK N   1      30.886  18.184  10.321  0.00  0.00     0.174 HD
HETATM   21  H   UNK N   1      29.315  18.839  10.223  0.00  0.00     0.174 HD
HETATM   22  H   UNK N   1      30.947  17.079   6.844  0.00  0.00     0.184 HD
ENDBRANCH  11  14
ENDBRANCH   7   8
ENDBRANCH   1   7
BRANCH   3  23
HETATM   23  C   UNK N   1      35.723  12.886  14.175  0.00  0.00     0.035 C 
HETATM   24  C   UNK N   1      35.017  13.035  15.529  0.00  0.00     0.035 C 
HETATM   25  C   UNK N   1      34.767  11.654  16.146  0.00  0.00    -0.012 C 
HETATM   26  C   UNK N   1      36.116  10.953  16.363  0.00  0.00     0.009 C 
HETATM   27  C   UNK N   1      33.904  10.813  15.189  0.00  0.00     0.009 C 
HETATM   28  C   UNK N   1      36.854  10.804  15.020  0.00  0.00    -0.012 C 
HETATM   29  C   UNK N   1      37.091  12.204  14.397  0.00  0.00     0.035 C 
HETATM   30  C   UNK N   1      35.988   9.959  14.068  0.00  0.00     0.009 C 
HETATM   31  C   UNK N   1      34.630  10.642  13.847  0.00  0.00    -0.012 C 
HETATM   32  C   UNK N   1      34.857  12.016  13.248  0.00  0.00     0.035 C 
ENDBRANCH   3  23
TORSDOF 4
ENDMDL
MODEL 4
REMARK VINA RESULT:      -7.6      2.737      8.397
REMARK  4 active torsions:
REMARK  status: ('A' for Active; 'I' for Inactive)
REMARK    1  A    between atoms: C_10  and  N_13 
REMARK       I    between atoms: N_11  and  C_12 
REMARK    2  A    between atoms: N_11  and  C_15 
REMARK       I    between atoms: C_12  and  N_13 
REMARK    3  A    between atoms: C_15  and  C_17 
REMARK    4  A    between atoms: C_20  and  N_22 
REMARK       I    between atoms: N_22  and  C_25 
REMARK       I    between atoms: C_25  and  N_26 
ROOT
HETATM    1  N   UNK N   1      37.931  13.462  11.278  0.00  0.00    -0.339 N 
HETATM    2  C   UNK N   1      37.213  12.610  12.037  0.00  0.00     0.317 C 
HETATM    3  N   UNK N   1      37.401  12.643  13.378  0.00  0.00    -0.334 N 
HETATM    4  O   UNK N   1      36.340  11.916  11.541  0.00  0.00    -0.247 OA
HETATM    5  H   UNK N   1      38.627  14.010  11.707  0.00  0.00     0.164 HD
HETATM    6  H   UNK N   1      38.252  13.001  13.721  0.00  0.00     0.165 HD
ENDROOT
BRANCH   1   7
HETATM    7  C   UNK N   1      37.716  13.599   9.859  0.00  0.00     0.162 C 
BRANCH   7   8
HETATM    8  C   UNK N   1      36.628  14.579   9.621  0.00  0.00    -0.040 A 
HETATM    9  C   UNK N   1      36.338  15.546  10.588  0.00  0.00     0.011 A 
HETATM   10  C   UNK N   1      35.333  16.467  10.376  0.00  0.00     0.030 A 
HETATM   11  C   UNK N   1      34.591  16.444   9.194  0.00  0.00     0.049 A 
HETATM   12  C   UNK N   1      34.872  15.473   8.221  0.00  0.00     0.030 A 
HETATM   13  C   UNK N   1      35.896  14.543   8.432  0.00  0.00     0.011 A 
BRANCH  11  14
HETATM   14  N   UNK N   1      33.553  17.383   8.966  0.00  0.00    -0.193 N 
HETATM   15  C   UNK N   1      32.157  17.092   9.015  0.00  0.00     0.669 C 
HETATM   16  N   UNK N   1      31.316  18.009   8.722  0.00  0.00    -0.235 N 
HETATM   17  N   UNK N   1      31.680  15.834   9.456  0.00  0.00    -0.235 N 
HETATM   18  H   UNK N   1      30.353  17.858   8.860  0.00  0.00     0.174 HD
ATOM     19  HN  UNK N   1      31.643  18.898   8.346  1.00  0.00     0.174 HD
HETATM   20  H   UNK N   1      32.314  15.114   9.676  0.00  0.00     0.174 HD
HETATM   21  H   UNK N   1      30.711  15.679   9.543  0.00  0.00     0.174 HD
HETATM   22  H   UNK N   1      33.816  18.310   8.758  0.00  0.00     0.184 HD
ENDBRANCH  11  14
ENDBRANCH   7   8
ENDBRANCH   1   7
BRANCH   3  23
HETATM   23  C   UNK N   1      36.421  12.181  14.327  0.00  0.00     0.035 C 
HETATM   24  C   UNK N   1      36.798  10.750  14.733  0.00  0.00     0.035 C 
HETATM   25  C   UNK N   1      35.889  10.269  15.868  0.00  0.00    -0.012 C 
HETATM   26  C   UNK N   1      34.432  10.281  15.380  0.00  0.00     0.009 C 
HETATM   27  C   UNK N   1      36.029  11.214  17.074  0.00  0.00     0.009 C 
HETATM   28  C   UNK N   1      34.031  11.705  14.953  0.00  0.00    -0.012 C 
HETATM   29  C   UNK N   1      34.964  12.189  13.813  0.00  0.00     0.035 C 
HETATM   30  C   UNK N   1      34.171  12.645  16.164  0.00  0.00     0.009 C 
HETATM   31  C   UNK N   1      35.621  12.638  16.671  0.00  0.00    -0.012 C 
HETATM   32  C   UNK N   1      36.539  13.100  15.556  0.00  0.00     0.035 C 
ENDBRANCH   3  23
TORSDOF 4
ENDMDL
MODEL 5
REMARK VINA RESULT:      -7.4      3.002      9.491
REMARK  4 active torsions:
REMARK  status: ('A' for Active; 'I' for Inactive)
REMARK    1  A    between atoms: C_10  and  N_13 
REMARK       I    between atoms: N_11  and  C_12 
REMARK    2  A    between atoms: N_11  and  C_15 
REMARK       I    between atoms: C_12  and  N_13 
REMARK    3  A    between atoms: C_15  and  C_17 
REMARK    4  A    between atoms: C_20  and  N_22 
REMARK       I    between atoms: N_22  and  C_25 
REMARK       I    between atoms: C_25  and  N_26 
ROOT
HETATM    1  N   UNK N   1      34.835  14.785  10.834  0.00  0.00    -0.339 N 
HETATM    2  C   UNK N   1      35.100  14.220  12.030  0.00  0.00     0.317 C 
HETATM    3  N   UNK N   1      34.542  13.015  12.300  0.00  0.00    -0.334 N 
HETATM    4  O   UNK N   1      35.910  14.724  12.792  0.00  0.00    -0.247 OA
HETATM    5  H   UNK N   1      34.179  14.354  10.240  0.00  0.00     0.164 HD
HETATM    6  H   UNK N   1      33.726  12.759  11.812  0.00  0.00     0.165 HD
ENDROOT
BRANCH   1   7
HETATM    7  C   UNK N   1      35.477  15.999  10.396  0.00  0.00     0.162 C 
BRANCH   7   8
HETATM    8  C   UNK N   1      34.940  16.384   9.067  0.00  0.00    -0.040 A 
HETATM    9  C   UNK N   1      34.503  17.694   8.847  0.00  0.00     0.011 A 
HETATM   10  C   UNK N   1      34.007  18.066   7.614  0.00  0.00     0.030 A 
HETATM   11  C   UNK N   1      33.932  17.139   6.572  0.00  0.00     0.049 A 
HETATM   12  C   UNK N   1      34.362  15.822   6.788  0.00  0.00     0.030 A 
HETATM   13  C   UNK N   1      34.872  15.445   8.036  0.00  0.00     0.011 A 
BRANCH  11  14
HETATM   14  N   UNK N   1      33.421  17.509   5.302  0.00  0.00    -0.193 N 
HETATM   15  C   UNK N   1      32.052  17.418   4.911  0.00  0.00     0.669 C 
HETATM   16  N   UNK N   1      31.723  17.717   3.712  0.00  0.00    -0.235 N 
HETATM   17  N   UNK N   1      31.038  17.079   5.839  0.00  0.00    -0.235 N 
HETATM   18  H   UNK N   1      30.774  17.767   3.459  0.00  0.00     0.174 HD
ATOM     19  HN  UNK N   1      32.446  17.903   3.017  1.00  0.00     0.174 HD
HETATM   20  H   UNK N   1      31.275  16.837   6.763  0.00  0.00     0.174 HD
HETATM   21  H   UNK N   1      30.094  17.086   5.559  0.00  0.00     0.174 HD
HETATM   22  H   UNK N   1      34.061  17.857   4.639  0.00  0.00     0.184 HD
ENDBRANCH  11  14
ENDBRANCH   7   8
ENDBRANCH   1   7
BRANCH   3  23
HETATM   23  C   UNK N   1      35.081  12.091  13.264  0.00  0.00     0.035 C 
HETATM   24  C   UNK N   1      34.871  12.693  14.660  0.00  0.00     0.035 C 
HETATM   25  C   UNK N   1      35.270  11.677  15.735  0.00  0.00    -0.012 C 
HETATM   26  C   UNK N   1      36.756  11.327  15.563  0.00  0.00     0.009 C 
HETATM   27  C   UNK N   1      34.425  10.401  15.576  0.00  0.00     0.009 C 
HETATM   28  C   UNK N   1      36.999  10.733  14.164  0.00  0.00    -0.012 C 
HETATM   29  C   UNK N   1      36.580  11.761  13.082  0.00  0.00     0.035 C 
HETATM   30  C   UNK N   1      36.152   9.456  14.012  0.00  0.00     0.009 C 
HETATM   31  C   UNK N   1      34.663   9.787  14.190  0.00  0.00    -0.012 C 
HETATM   32  C   UNK N   1      34.251  10.801  13.141  0.00  0.00     0.035 C 
ENDBRANCH   3  23
TORSDOF 4
ENDMDL
MODEL 6
REMARK VINA RESULT:      -7.3     17.350     20.152
REMARK  4 active torsions:
REMARK  status: ('A' for Active; 'I' for Inactive)
REMARK    1  A    between atoms: C_10  and  N_13 
REMARK       I    between atoms: N_11  and  C_12 
REMARK    2  A    between atoms: N_11  and  C_15 
REMARK       I    between atoms: C_12  and  N_13 
REMARK    3  A    between atoms: C_15  and  C_17 
REMARK    4  A    between atoms: C_20  and  N_22 
REMARK       I    between atoms: N_22  and  C_25 
REMARK       I    between atoms: C_25  and  N_26 
ROOT
HETATM    1  N   UNK N   1      29.870  23.576  -3.405  0.00  0.00    -0.339 N 
HETATM    2  C   UNK N   1      28.792  24.386  -3.448  0.00  0.00     0.317 C 
HETATM    3  N   UNK N   1      28.981  25.673  -3.826  0.00  0.00    -0.334 N 
HETATM    4  O   UNK N   1      27.671  23.941  -3.265  0.00  0.00    -0.247 OA
HETATM    5  H   UNK N   1      30.762  23.964  -3.559  0.00  0.00     0.164 HD
HETATM    6  H   UNK N   1      29.879  26.064  -3.720  0.00  0.00     0.165 HD
ENDROOT
BRANCH   1   7
HETATM    7  C   UNK N   1      29.763  22.163  -3.141  0.00  0.00     0.162 C 
BRANCH   7   8
HETATM    8  C   UNK N   1      31.001  21.484  -3.597  0.00  0.00    -0.040 A 
HETATM    9  C   UNK N   1      32.185  21.634  -2.870  0.00  0.00     0.011 A 
HETATM   10  C   UNK N   1      33.342  21.004  -3.281  0.00  0.00     0.030 A 
HETATM   11  C   UNK N   1      33.345  20.209  -4.430  0.00  0.00     0.049 A 
HETATM   12  C   UNK N   1      32.162  20.060  -5.168  0.00  0.00     0.030 A 
HETATM   13  C   UNK N   1      30.986  20.694  -4.748  0.00  0.00     0.011 A 
BRANCH  11  14
HETATM   14  N   UNK N   1      34.528  19.559  -4.864  0.00  0.00    -0.193 N 
HETATM   15  C   UNK N   1      34.957  18.267  -4.439  0.00  0.00     0.669 C 
HETATM   16  N   UNK N   1      36.082  17.816  -4.848  0.00  0.00    -0.235 N 
HETATM   17  N   UNK N   1      34.134  17.440  -3.638  0.00  0.00    -0.235 N 
HETATM   18  H   UNK N   1      36.339  16.885  -4.657  0.00  0.00     0.174 HD
ATOM     19  HN  UNK N   1      36.711  18.420  -5.375  1.00  0.00     0.174 HD
HETATM   20  H   UNK N   1      33.270  17.776  -3.305  0.00  0.00     0.174 HD
HETATM   21  H   UNK N   1      34.426  16.527  -3.411  0.00  0.00     0.174 HD
HETATM   22  H   UNK N   1      35.098  20.038  -5.510  0.00  0.00     0.184 HD
ENDBRANCH  11  14
ENDBRANCH   7   8
ENDBRANCH   1   7
BRANCH   3  23
HETATM   23  C   UNK N   1      27.936  26.498  -4.375  0.00  0.00     0.035 C 
HETATM   24  C   UNK N   1      28.528  27.887  -4.647  0.00  0.00     0.035 C 
HETATM   25  C   UNK N   1      27.509  28.757  -5.390  0.00  0.00    -0.012 C 
HETATM   26  C   UNK N   1      26.256  28.913  -4.515  0.00  0.00     0.009 C 
HETATM   27  C   UNK N   1      27.123  28.078  -6.715  0.00  0.00     0.009 C 
HETATM   28  C   UNK N   1      25.647  27.531  -4.215  0.00  0.00    -0.012 C 
HETATM   29  C   UNK N   1      26.690  26.653  -3.475  0.00  0.00     0.035 C 
HETATM   30  C   UNK N   1      25.262  26.858  -5.544  0.00  0.00     0.009 C 
HETATM   31  C   UNK N   1      26.503  26.702  -6.435  0.00  0.00    -0.012 C 
HETATM   32  C   UNK N   1      27.529  25.853  -5.712  0.00  0.00     0.035 C 
ENDBRANCH   3  23
TORSDOF 4
ENDMDL
MODEL 7
REMARK VINA RESULT:      -7.1      8.675     13.989
REMARK  4 active torsions:
REMARK  status: ('A' for Active; 'I' for Inactive)
REMARK    1  A    between atoms: C_10  and  N_13 
REMARK       I    between atoms: N_11  and  C_12 
REMARK    2  A    between atoms: N_11  and  C_15 
REMARK       I    between atoms: C_12  and  N_13 
REMARK    3  A    between atoms: C_15  and  C_17 
REMARK    4  A    between atoms: C_20  and  N_22 
REMARK       I    between atoms: N_22  and  C_25 
REMARK       I    between atoms: C_25  and  N_26 
ROOT
HETATM    1  N   UNK N   1      27.091  18.217   3.835  0.00  0.00    -0.339 N 
HETATM    2  C   UNK N   1      28.121  18.042   4.688  0.00  0.00     0.317 C 
HETATM    3  N   UNK N   1      28.721  16.828   4.717  0.00  0.00    -0.334 N 
HETATM    4  O   UNK N   1      28.570  18.982   5.325  0.00  0.00    -0.247 OA
HETATM    5  H   UNK N   1      26.752  17.441   3.333  0.00  0.00     0.164 HD
HETATM    6  H   UNK N   1      28.207  16.046   4.408  0.00  0.00     0.165 HD
ENDROOT
BRANCH   1   7
HETATM    7  C   UNK N   1      26.468  19.501   3.632  0.00  0.00     0.162 C 
BRANCH   7   8
HETATM    8  C   UNK N   1      24.994  19.330   3.599  0.00  0.00    -0.040 A 
HETATM    9  C   UNK N   1      24.420  18.145   4.068  0.00  0.00     0.011 A 
HETATM   10  C   UNK N   1      23.051  17.976   4.047  0.00  0.00     0.030 A 
HETATM   11  C   UNK N   1      22.221  18.986   3.556  0.00  0.00     0.049 A 
HETATM   12  C   UNK N   1      22.790  20.175   3.077  0.00  0.00     0.030 A 
HETATM   13  C   UNK N   1      24.179  20.350   3.104  0.00  0.00     0.011 A 
BRANCH  11  14
HETATM   14  N   UNK N   1      20.812  18.822   3.526  0.00  0.00    -0.193 N 
HETATM   15  C   UNK N   1      20.003  18.887   2.353  0.00  0.00     0.669 C 
HETATM   16  N   UNK N   1      18.733  18.793   2.464  0.00  0.00    -0.235 N 
HETATM   17  N   UNK N   1      20.578  18.974   1.062  0.00  0.00    -0.235 N 
HETATM   18  H   UNK N   1      18.172  18.723   1.658  0.00  0.00     0.174 HD
ATOM     19  HN  UNK N   1      18.301  18.790   3.387  1.00  0.00     0.174 HD
HETATM   20  H   UNK N   1      21.554  19.058   0.960  0.00  0.00     0.174 HD
HETATM   21  H   UNK N   1      20.001  18.952   0.265  0.00  0.00     0.174 HD
HETATM   22  H   UNK N   1      20.357  18.650   4.383  0.00  0.00     0.184 HD
ENDBRANCH  11  14
ENDBRANCH   7   8
ENDBRANCH   1   7
BRANCH   3  23
HETATM   23  C   UNK N   1      30.070  16.622   5.177  0.00  0.00     0.035 C 
HETATM   24  C   UNK N   1      30.098  16.895   6.687  0.00  0.00     0.035 C 
HETATM   25  C   UNK N   1      31.469  16.526   7.262  0.00  0.00    -0.012 C 
HETATM   26  C   UNK N   1      32.544  17.387   6.581  0.00  0.00     0.009 C 
HETATM   27  C   UNK N   1      31.758  15.040   6.988  0.00  0.00     0.009 C 
HETATM   28  C   UNK N   1      32.529  17.143   5.061  0.00  0.00    -0.012 C 
HETATM   29  C   UNK N   1      31.134  17.506   4.489  0.00  0.00     0.035 C 
HETATM   30  C   UNK N   1      32.821  15.655   4.793  0.00  0.00     0.009 C 
HETATM   31  C   UNK N   1      31.760  14.779   5.476  0.00  0.00    -0.012 C 
HETATM   32  C   UNK N   1      30.393  15.138   4.928  0.00  0.00     0.035 C 
ENDBRANCH   3  23
TORSDOF 4
ENDMDL
MODEL 8
REMARK VINA RESULT:      -6.9      4.131      9.589
REMARK  4 active torsions:
REMARK  status: ('A' for Active; 'I' for Inactive)
REMARK    1  A    between atoms: C_10  and  N_13 
REMARK       I    between atoms: N_11  and  C_12 
REMARK    2  A    between atoms: N_11  and  C_15 
REMARK       I    between atoms: C_12  and  N_13 
REMARK    3  A    between atoms: C_15  and  C_17 
REMARK    4  A    between atoms: C_20  and  N_22 
REMARK       I    between atoms: N_22  and  C_25 
REMARK       I    between atoms: C_25  and  N_26 
ROOT
HETATM    1  N   UNK N   1      32.786  16.062   9.303  0.00  0.00    -0.339 N 
HETATM    2  C   UNK N   1      33.931  15.578   9.826  0.00  0.00     0.317 C 
HETATM    3  N   UNK N   1      33.921  14.312  10.310  0.00  0.00    -0.334 N 
HETATM    4  O   UNK N   1      34.968  16.218   9.757  0.00  0.00    -0.247 OA
HETATM    5  H   UNK N   1      31.966  15.521   9.371  0.00  0.00     0.164 HD
HETATM    6  H   UNK N   1      33.059  13.924  10.585  0.00  0.00     0.165 HD
ENDROOT
BRANCH   1   7
HETATM    7  C   UNK N   1      32.720  17.343   8.647  0.00  0.00     0.162 C 
BRANCH   7   8
HETATM    8  C   UNK N   1      31.335  17.578   8.168  0.00  0.00    -0.040 A 
HETATM    9  C   UNK N   1      30.898  16.982   6.981  0.00  0.00     0.011 A 
HETATM   10  C   UNK N   1      29.611  17.187   6.529  0.00  0.00     0.030 A 
HETATM   11  C   UNK N   1      28.728  17.995   7.249  0.00  0.00     0.049 A 
HETATM   12  C   UNK N   1      29.161  18.601   8.437  0.00  0.00     0.030 A 
HETATM   13  C   UNK N   1      30.465  18.388   8.901  0.00  0.00     0.011 A 
BRANCH  11  14
HETATM   14  N   UNK N   1      27.404  18.216   6.792  0.00  0.00    -0.193 N 
HETATM   15  C   UNK N   1      27.004  19.269   5.917  0.00  0.00     0.669 C 
HETATM   16  N   UNK N   1      25.765  19.408   5.632  0.00  0.00    -0.235 N 
HETATM   17  N   UNK N   1      27.953  20.116   5.296  0.00  0.00    -0.235 N 
HETATM   18  H   UNK N   1      25.487  20.055   4.944  0.00  0.00     0.174 HD
ATOM     19  HN  UNK N   1      25.065  18.846   6.116  1.00  0.00     0.174 HD
HETATM   20  H   UNK N   1      28.909  20.029   5.513  0.00  0.00     0.174 HD
HETATM   21  H   UNK N   1      27.656  20.794   4.646  0.00  0.00     0.174 HD
HETATM   22  H   UNK N   1      26.706  17.594   7.103  0.00  0.00     0.184 HD
ENDBRANCH  11  14
ENDBRANCH   7   8
ENDBRANCH   1   7
BRANCH   3  23
HETATM   23  C   UNK N   1      35.107  13.506  10.443  0.00  0.00     0.035 C 
HETATM   24  C   UNK N   1      35.829  13.941  11.726  0.00  0.00     0.035 C 
HETATM   25  C   UNK N   1      37.006  13.003  12.010  0.00  0.00    -0.012 C 
HETATM   26  C   UNK N   1      37.994  13.073  10.836  0.00  0.00     0.009 C 
HETATM   27  C   UNK N   1      36.491  11.560  12.155  0.00  0.00     0.009 C 
HETATM   28  C   UNK N   1      37.292  12.655   9.531  0.00  0.00    -0.012 C 
HETATM   29  C   UNK N   1      36.094  13.601   9.258  0.00  0.00     0.035 C 
HETATM   30  C   UNK N   1      36.781  11.211   9.682  0.00  0.00     0.009 C 
HETATM   31  C   UNK N   1      35.798  11.121  10.858  0.00  0.00    -0.012 C 
HETATM   32  C   UNK N   1      34.630  12.052  10.602  0.00  0.00     0.035 C 
ENDBRANCH   3  23
TORSDOF 4
ENDMDL
MODEL 9
REMARK VINA RESULT:      -6.9      1.868      2.336
REMARK  4 active torsions:
REMARK  status: ('A' for Active; 'I' for Inactive)
REMARK    1  A    between atoms: C_10  and  N_13 
REMARK       I    between atoms: N_11  and  C_12 
REMARK    2  A    between atoms: N_11  and  C_15 
REMARK       I    between atoms: C_12  and  N_13 
REMARK    3  A    between atoms: C_15  and  C_17 
REMARK    4  A    between atoms: C_20  and  N_22 
REMARK       I    between atoms: N_22  and  C_25 
REMARK       I    between atoms: C_25  and  N_26 
ROOT
HETATM    1  N   UNK N   1      35.823  14.528  11.768  0.00  0.00    -0.339 N 
HETATM    2  C   UNK N   1      35.455  15.489  10.896  0.00  0.00     0.317 C 
HETATM    3  N   UNK N   1      35.127  15.111   9.637  0.00  0.00    -0.334 N 
HETATM    4  O   UNK N   1      35.310  16.643  11.265  0.00  0.00    -0.247 OA
HETATM    5  H   UNK N   1      35.929  13.605  11.441  0.00  0.00     0.164 HD
HETATM    6  H   UNK N   1      35.483  14.258   9.299  0.00  0.00     0.165 HD
ENDROOT
BRANCH   1   7
HETATM    7  C   UNK N   1      36.068  14.804  13.161  0.00  0.00     0.162 C 
BRANCH   7   8
HETATM    8  C   UNK N   1      35.742  13.599  13.964  0.00  0.00    -0.040 A 
HETATM    9  C   UNK N   1      35.877  13.631  15.355  0.00  0.00     0.011 A 
HETATM   10  C   UNK N   1      35.572  12.519  16.112  0.00  0.00     0.030 A 
HETATM   11  C   UNK N   1      35.125  11.347  15.499  0.00  0.00     0.049 A 
HETATM   12  C   UNK N   1      34.993  11.305  14.104  0.00  0.00     0.030 A 
HETATM   13  C   UNK N   1      35.296  12.434  13.335  0.00  0.00     0.011 A 
BRANCH  11  14
HETATM   14  N   UNK N   1      34.811  10.196  16.267  0.00  0.00    -0.193 N 
HETATM   15  C   UNK N   1      35.731   9.159  16.604  0.00  0.00     0.669 C 
HETATM   16  N   UNK N   1      35.311   8.135  17.244  0.00  0.00    -0.235 N 
HETATM   17  N   UNK N   1      37.112   9.272  16.315  0.00  0.00    -0.235 N 
HETATM   18  H   UNK N   1      35.951   7.467  17.581  0.00  0.00     0.174 HD
ATOM     19  HN  UNK N   1      34.312   8.010  17.406  1.00  0.00     0.174 HD
HETATM   20  H   UNK N   1      37.450  10.049  15.814  0.00  0.00     0.174 HD
HETATM   21  H   UNK N   1      37.736   8.572  16.615  0.00  0.00     0.174 HD
HETATM   22  H   UNK N   1      33.886  10.107  16.594  0.00  0.00     0.184 HD
ENDBRANCH  11  14
ENDBRANCH   7   8
ENDBRANCH   1   7
BRANCH   3  23
HETATM   23  C   UNK N   1      34.283  15.893   8.770  0.00  0.00     0.035 C 
HETATM   24  C   UNK N   1      34.464  15.367   7.340  0.00  0.00     0.035 C 
HETATM   25  C   UNK N   1      33.464  16.047   6.400  0.00  0.00    -0.012 C 
HETATM   26  C   UNK N   1      33.721  17.561   6.409  0.00  0.00     0.009 C 
HETATM   27  C   UNK N   1      32.030  15.772   6.888  0.00  0.00     0.009 C 
HETATM   28  C   UNK N   1      33.561  18.115   7.837  0.00  0.00    -0.012 C 
HETATM   29  C   UNK N   1      34.567  17.412   8.784  0.00  0.00     0.035 C 
HETATM   30  C   UNK N   1      32.125  17.839   8.318  0.00  0.00     0.009 C 
HETATM   31  C   UNK N   1      31.847  16.328   8.307  0.00  0.00    -0.012 C 
HETATM   32  C   UNK N   1      32.835  15.635   9.223  0.00  0.00     0.035 C 
ENDBRANCH   3  23
TORSDOF 4
ENDMDL
