MODEL 1
REMARK VINA RESULT:      -7.9      0.000      0.000
REMARK  10 active torsions:
REMARK  status: ('A' for Active; 'I' for Inactive)
REMARK    1  A    between atoms: C_1  and  O_2 
REMARK    2  A    between atoms: O_2  and  C_13 
REMARK    3  A    between atoms: C_3  and  O_4 
REMARK    4  A    between atoms: C_5  and  O_6 
REMARK    5  A    between atoms: C_7  and  O_8 
REMARK    6  A    between atoms: C_9  and  C_11 
REMARK    7  A    between atoms: C_11  and  O_12 
REMARK    8  A    between atoms: C_17  and  C_19 
REMARK       I    between atoms: C_19  and  N_21 
REMARK    9  A    between atoms: N_21  and  C_22 
REMARK   10  A    between atoms: C_22  and  C_23 
ROOT
HETATM    1  C   UNK N   1      24.659  19.389   4.069  0.00  0.00     0.073 A 
HETATM    2  C   UNK N   1      25.437  20.557   4.111  0.00  0.00     0.037 A 
HETATM    3  C   UNK N   1      26.828  20.480   4.178  0.00  0.00     0.004 A 
HETATM    4  C   UNK N   1      27.457  19.234   4.218  0.00  0.00     0.017 A 
HETATM    5  C   UNK N   1      26.702  18.053   4.146  0.00  0.00     0.034 A 
HETATM    6  C   UNK N   1      25.304  18.149   4.072  0.00  0.00     0.054 A 
ENDROOT
BRANCH   1   7
HETATM    7  O   UNK N   1      23.297  19.406   4.068  0.00  0.00    -0.318 OA
BRANCH   7   8
HETATM    8  C   UNK N   1      22.403  19.171   3.027  0.00  0.00     0.298 C 
HETATM    9  C   UNK N   1      21.381  20.341   2.956  0.00  0.00     0.205 C 
HETATM   10  C   UNK N   1      20.315  19.997   1.907  0.00  0.00     0.183 C 
HETATM   11  C   UNK N   1      19.662  18.623   2.230  0.00  0.00     0.180 C 
HETATM   12  C   UNK N   1      20.434  17.880   3.349  0.00  0.00     0.179 C 
HETATM   13  O   UNK N   1      21.822  17.861   3.071  0.00  0.00    -0.348 OA
BRANCH   9  14
HETATM   14  O   UNK N   1      22.029  21.537   2.631  0.00  0.00    -0.388 OA
HETATM   15  H   UNK N   1      22.997  21.572   2.571  0.00  0.00     0.210 HD
ENDBRANCH   9  14
BRANCH  10  16
HETATM   16  O   UNK N   1      20.919  19.938   0.645  0.00  0.00    -0.390 OA
HETATM   17  H   UNK N   1      21.010  20.041  -0.316  0.00  0.00     0.210 HD
ENDBRANCH  10  16
BRANCH  11  18
HETATM   18  O   UNK N   1      18.335  18.803   2.630  0.00  0.00    -0.390 OA
HETATM   19  H   UNK N   1      17.736  19.346   3.165  0.00  0.00     0.210 HD
ENDBRANCH  11  18
BRANCH  12  20
HETATM   20  C   UNK N   1      19.926  16.453   3.540  0.00  0.00     0.198 C 
BRANCH  20  21
HETATM   21  O   UNK N   1      18.768  16.434   4.317  0.00  0.00    -0.398 OA
HETATM   22  H   UNK N   1      17.811  16.391   4.474  0.00  0.00     0.209 HD
ENDBRANCH  20  21
ENDBRANCH  12  20
ENDBRANCH   7   8
ENDBRANCH   1   7
BRANCH   5  23
HETATM   23  C   UNK N   1      27.396  16.734   4.229  0.00  0.00     0.252 C 
HETATM   24  O   UNK N   1      27.655  16.143   3.193  0.00  0.00    -0.268 OA
HETATM   25  N   UNK N   1      27.749  16.151   5.410  0.00  0.00    -0.353 N 
HETATM   26  H   UNK N   1      28.336  15.361   5.374  0.00  0.00     0.163 HD
BRANCH  25  27
HETATM   27  C   UNK N   1      27.321  16.611   6.709  0.00  0.00     0.161 C 
BRANCH  27  28
HETATM   28  C   UNK N   1      28.446  17.167   7.512  0.00  0.00    -0.041 A 
HETATM   29  C   UNK N   1      28.200  17.936   8.657  0.00  0.00     0.009 A 
HETATM   30  C   UNK N   1      29.270  18.488   9.370  0.00  0.00     0.001 A 
HETATM   31  C   UNK N   1      30.583  18.284   8.932  0.00  0.00     0.000 A 
HETATM   32  C   UNK N   1      30.827  17.523   7.785  0.00  0.00     0.001 A 
HETATM   33  C   UNK N   1      29.760  16.967   7.076  0.00  0.00     0.009 A 
ENDBRANCH  27  28
ENDBRANCH  25  27
ENDBRANCH   5  23
TORSDOF 10
ENDMDL
MODEL 2
REMARK VINA RESULT:      -7.8      1.868      2.357
REMARK  10 active torsions:
REMARK  status: ('A' for Active; 'I' for Inactive)
REMARK    1  A    between atoms: C_1  and  O_2 
REMARK    2  A    between atoms: O_2  and  C_13 
REMARK    3  A    between atoms: C_3  and  O_4 
REMARK    4  A    between atoms: C_5  and  O_6 
REMARK    5  A    between atoms: C_7  and  O_8 
REMARK    6  A    between atoms: C_9  and  C_11 
REMARK    7  A    between atoms: C_11  and  O_12 
REMARK    8  A    between atoms: C_17  and  C_19 
REMARK       I    between atoms: C_19  and  N_21 
REMARK    9  A    between atoms: N_21  and  C_22 
REMARK   10  A    between atoms: C_22  and  C_23 
ROOT
HETATM    1  C   UNK N   1      24.630  19.740   4.078  0.00  0.00     0.073 A 
HETATM    2  C   UNK N   1      25.295  20.324   2.988  0.00  0.00     0.037 A 
HETATM    3  C   UNK N   1      26.667  20.569   3.044  0.00  0.00     0.004 A 
HETATM    4  C   UNK N   1      27.387  20.246   4.196  0.00  0.00     0.017 A 
HETATM    5  C   UNK N   1      26.749  19.634   5.286  0.00  0.00     0.034 A 
HETATM    6  C   UNK N   1      25.370  19.388   5.210  0.00  0.00     0.054 A 
ENDROOT
BRANCH   1   7
HETATM    7  O   UNK N   1      23.283  19.538   4.102  0.00  0.00    -0.318 OA
BRANCH   7   8
HETATM    8  C   UNK N   1      22.403  19.271   3.056  0.00  0.00     0.298 C 
HETATM    9  C   UNK N   1      21.360  20.421   2.959  0.00  0.00     0.205 C 
HETATM   10  C   UNK N   1      20.310  20.041   1.905  0.00  0.00     0.183 C 
HETATM   11  C   UNK N   1      19.680  18.660   2.243  0.00  0.00     0.180 C 
HETATM   12  C   UNK N   1      20.455  17.947   3.380  0.00  0.00     0.179 C 
HETATM   13  O   UNK N   1      21.846  17.951   3.115  0.00  0.00    -0.348 OA
BRANCH   9  14
HETATM   14  O   UNK N   1      21.989  21.623   2.622  0.00  0.00    -0.388 OA
HETATM   15  H   UNK N   1      22.791  21.906   3.087  0.00  0.00     0.210 HD
ENDBRANCH   9  14
BRANCH  10  16
HETATM   16  O   UNK N   1      20.926  19.975   0.650  0.00  0.00    -0.390 OA
HETATM   17  H   UNK N   1      21.158  20.240  -0.254  0.00  0.00     0.210 HD
ENDBRANCH  10  16
BRANCH  11  18
HETATM   18  O   UNK N   1      18.347  18.820   2.629  0.00  0.00    -0.390 OA
HETATM   19  H   UNK N   1      17.599  19.437   2.660  0.00  0.00     0.210 HD
ENDBRANCH  11  18
BRANCH  12  20
HETATM   20  C   UNK N   1      19.973  16.514   3.587  0.00  0.00     0.198 C 
BRANCH  20  21
HETATM   21  O   UNK N   1      18.775  16.488   4.301  0.00  0.00    -0.398 OA
HETATM   22  H   UNK N   1      17.965  16.084   4.652  0.00  0.00     0.209 HD
ENDBRANCH  20  21
ENDBRANCH  12  20
ENDBRANCH   7   8
ENDBRANCH   1   7
BRANCH   5  23
HETATM   23  C   UNK N   1      27.534  19.335   6.521  0.00  0.00     0.252 C 
HETATM   24  O   UNK N   1      27.370  20.041   7.503  0.00  0.00    -0.268 OA
HETATM   25  N   UNK N   1      28.434  18.314   6.603  0.00  0.00    -0.353 N 
HETATM   26  H   UNK N   1      28.793  18.090   7.492  0.00  0.00     0.163 HD
BRANCH  25  27
HETATM   27  C   UNK N   1      28.897  17.540   5.476  0.00  0.00     0.161 C 
BRANCH  27  28
HETATM   28  C   UNK N   1      30.382  17.422   5.442  0.00  0.00    -0.041 A 
HETATM   29  C   UNK N   1      31.111  17.186   6.614  0.00  0.00     0.009 A 
HETATM   30  C   UNK N   1      32.508  17.126   6.568  0.00  0.00     0.001 A 
HETATM   31  C   UNK N   1      33.177  17.313   5.353  0.00  0.00     0.000 A 
HETATM   32  C   UNK N   1      32.449  17.556   4.185  0.00  0.00     0.001 A 
HETATM   33  C   UNK N   1      31.054  17.612   4.230  0.00  0.00     0.009 A 
ENDBRANCH  27  28
ENDBRANCH  25  27
ENDBRANCH   5  23
TORSDOF 10
ENDMDL
MODEL 3
REMARK VINA RESULT:      -7.6     10.364     14.918
REMARK  10 active torsions:
REMARK  status: ('A' for Active; 'I' for Inactive)
REMARK    1  A    between atoms: C_1  and  O_2 
REMARK    2  A    between atoms: O_2  and  C_13 
REMARK    3  A    between atoms: C_3  and  O_4 
REMARK    4  A    between atoms: C_5  and  O_6 
REMARK    5  A    between atoms: C_7  and  O_8 
REMARK    6  A    between atoms: C_9  and  C_11 
REMARK    7  A    between atoms: C_11  and  O_12 
REMARK    8  A    between atoms: C_17  and  C_19 
REMARK       I    between atoms: C_19  and  N_21 
REMARK    9  A    between atoms: N_21  and  C_22 
REMARK   10  A    between atoms: C_22  and  C_23 
ROOT
HETATM    1  C   UNK N   1      36.255  14.168  11.936  0.00  0.00     0.073 A 
HETATM    2  C   UNK N   1      36.671  12.841  11.744  0.00  0.00     0.037 A 
HETATM    3  C   UNK N   1      37.108  12.073  12.824  0.00  0.00     0.004 A 
HETATM    4  C   UNK N   1      37.149  12.628  14.104  0.00  0.00     0.017 A 
HETATM    5  C   UNK N   1      36.709  13.943  14.324  0.00  0.00     0.034 A 
HETATM    6  C   UNK N   1      36.266  14.698  13.228  0.00  0.00     0.054 A 
ENDROOT
BRANCH   1   7
HETATM    7  O   UNK N   1      35.881  14.982  10.909  0.00  0.00    -0.318 OA
BRANCH   7   8
HETATM    8  C   UNK N   1      34.627  15.496  10.591  0.00  0.00     0.298 C 
HETATM    9  C   UNK N   1      33.890  14.503   9.648  0.00  0.00     0.205 C 
HETATM   10  C   UNK N   1      32.577  15.150   9.187  0.00  0.00     0.183 C 
HETATM   11  C   UNK N   1      32.856  16.533   8.533  0.00  0.00     0.180 C 
HETATM   12  C   UNK N   1      34.322  16.980   8.759  0.00  0.00     0.179 C 
HETATM   13  O   UNK N   1      34.679  16.850  10.123  0.00  0.00    -0.348 OA
BRANCH   9  14
HETATM   14  O   UNK N   1      33.643  13.296  10.308  0.00  0.00    -0.388 OA
HETATM   15  H   UNK N   1      33.626  13.258  11.277  0.00  0.00     0.210 HD
ENDBRANCH   9  14
BRANCH  10  16
HETATM   16  O   UNK N   1      31.738  15.321  10.294  0.00  0.00    -0.390 OA
HETATM   17  H   UNK N   1      31.483  15.401  11.227  0.00  0.00     0.210 HD
ENDBRANCH  10  16
BRANCH  11  18
HETATM   18  O   UNK N   1      32.601  16.478   7.160  0.00  0.00    -0.390 OA
HETATM   19  H   UNK N   1      31.929  16.609   6.473  0.00  0.00     0.210 HD
ENDBRANCH  11  18
BRANCH  12  20
HETATM   20  C   UNK N   1      34.558  18.416   8.298  0.00  0.00     0.198 C 
BRANCH  20  21
HETATM   21  O   UNK N   1      35.591  19.010   9.023  0.00  0.00    -0.398 OA
HETATM   22  H   UNK N   1      36.516  19.201   9.246  0.00  0.00     0.209 HD
ENDBRANCH  20  21
ENDBRANCH  12  20
ENDBRANCH   7   8
ENDBRANCH   1   7
BRANCH   5  23
HETATM   23  C   UNK N   1      36.800  14.526  15.696  0.00  0.00     0.252 C 
HETATM   24  O   UNK N   1      37.685  15.333  15.931  0.00  0.00    -0.268 OA
HETATM   25  N   UNK N   1      35.945  14.195  16.704  0.00  0.00    -0.353 N 
HETATM   26  H   UNK N   1      35.975  14.734  17.527  0.00  0.00     0.163 HD
BRANCH  25  27
HETATM   27  C   UNK N   1      34.997  13.108  16.649  0.00  0.00     0.161 C 
BRANCH  27  28
HETATM   28  C   UNK N   1      35.331  12.015  17.606  0.00  0.00    -0.041 A 
HETATM   29  C   UNK N   1      35.293  12.236  18.988  0.00  0.00     0.009 A 
HETATM   30  C   UNK N   1      35.656  11.211  19.868  0.00  0.00     0.001 A 
HETATM   31  C   UNK N   1      36.068   9.971  19.368  0.00  0.00     0.000 A 
HETATM   32  C   UNK N   1      36.112   9.754  17.988  0.00  0.00     0.001 A 
HETATM   33  C   UNK N   1      35.746  10.776  17.108  0.00  0.00     0.009 A 
ENDBRANCH  27  28
ENDBRANCH  25  27
ENDBRANCH   5  23
TORSDOF 10
ENDMDL
MODEL 4
REMARK VINA RESULT:      -7.6      1.140      2.622
REMARK  10 active torsions:
REMARK  status: ('A' for Active; 'I' for Inactive)
REMARK    1  A    between atoms: C_1  and  O_2 
REMARK    2  A    between atoms: O_2  and  C_13 
REMARK    3  A    between atoms: C_3  and  O_4 
REMARK    4  A    between atoms: C_5  and  O_6 
REMARK    5  A    between atoms: C_7  and  O_8 
REMARK    6  A    between atoms: C_9  and  C_11 
REMARK    7  A    between atoms: C_11  and  O_12 
REMARK    8  A    between atoms: C_17  and  C_19 
REMARK       I    between atoms: C_19  and  N_21 
REMARK    9  A    between atoms: N_21  and  C_22 
REMARK   10  A    between atoms: C_22  and  C_23 
ROOT
HETATM    1  C   UNK N   1      23.943  18.894   4.244  0.00  0.00     0.073 A 
HETATM    2  C   UNK N   1      24.349  20.122   3.699  0.00  0.00     0.037 A 
HETATM    3  C   UNK N   1      25.658  20.300   3.249  0.00  0.00     0.004 A 
HETATM    4  C   UNK N   1      26.579  19.256   3.354  0.00  0.00     0.017 A 
HETATM    5  C   UNK N   1      26.187  18.010   3.868  0.00  0.00     0.034 A 
HETATM    6  C   UNK N   1      24.866  17.847   4.308  0.00  0.00     0.054 A 
ENDROOT
BRANCH   1   7
HETATM    7  O   UNK N   1      22.697  18.687   4.756  0.00  0.00    -0.318 OA
BRANCH   7   8
HETATM    8  C   UNK N   1      21.486  18.488   4.100  0.00  0.00     0.298 C 
HETATM    9  C   UNK N   1      21.585  17.209   3.220  0.00  0.00     0.205 C 
HETATM   10  C   UNK N   1      20.299  17.087   2.390  0.00  0.00     0.183 C 
HETATM   11  C   UNK N   1      20.059  18.387   1.570  0.00  0.00     0.180 C 
HETATM   12  C   UNK N   1      21.022  19.518   2.009  0.00  0.00     0.179 C 
HETATM   13  O   UNK N   1      21.019  19.658   3.418  0.00  0.00    -0.348 OA
BRANCH   9  14
HETATM   14  O   UNK N   1      21.767  16.078   4.020  0.00  0.00    -0.388 OA
HETATM   15  H   UNK N   1      22.277  15.321   3.693  0.00  0.00     0.210 HD
ENDBRANCH   9  14
BRANCH  10  16
HETATM   16  O   UNK N   1      19.217  16.876   3.252  0.00  0.00    -0.390 OA
HETATM   17  H   UNK N   1      18.493  16.399   3.689  0.00  0.00     0.210 HD
ENDBRANCH  10  16
BRANCH  11  18
HETATM   18  O   UNK N   1      20.238  18.137   0.206  0.00  0.00    -0.390 OA
HETATM   19  H   UNK N   1      20.859  18.199  -0.535  0.00  0.00     0.210 HD
ENDBRANCH  11  18
BRANCH  12  20
HETATM   20  C   UNK N   1      20.669  20.852   1.356  0.00  0.00     0.198 C 
BRANCH  20  21
HETATM   21  O   UNK N   1      20.812  20.783  -0.030  0.00  0.00    -0.398 OA
HETATM   22  H   UNK N   1      21.111  20.395  -0.868  0.00  0.00     0.209 HD
ENDBRANCH  20  21
ENDBRANCH  12  20
ENDBRANCH   7   8
ENDBRANCH   1   7
BRANCH   5  23
HETATM   23  C   UNK N   1      27.202  16.922   4.005  0.00  0.00     0.252 C 
HETATM   24  O   UNK N   1      27.421  16.203   3.044  0.00  0.00    -0.268 OA
HETATM   25  N   UNK N   1      27.892  16.688   5.157  0.00  0.00    -0.353 N 
HETATM   26  H   UNK N   1      28.648  16.058   5.119  0.00  0.00     0.163 HD
BRANCH  25  27
HETATM   27  C   UNK N   1      27.591  17.300   6.429  0.00  0.00     0.161 C 
BRANCH  27  28
HETATM   28  C   UNK N   1      28.820  17.603   7.217  0.00  0.00    -0.041 A 
HETATM   29  C   UNK N   1      30.061  17.074   6.841  0.00  0.00     0.009 A 
HETATM   30  C   UNK N   1      31.194  17.331   7.620  0.00  0.00     0.001 A 
HETATM   31  C   UNK N   1      31.085  18.106   8.780  0.00  0.00     0.000 A 
HETATM   32  C   UNK N   1      29.844  18.627   9.158  0.00  0.00     0.001 A 
HETATM   33  C   UNK N   1      28.714  18.374   8.378  0.00  0.00     0.009 A 
ENDBRANCH  27  28
ENDBRANCH  25  27
ENDBRANCH   5  23
TORSDOF 10
ENDMDL
MODEL 5
REMARK VINA RESULT:      -7.6      6.322     12.449
REMARK  10 active torsions:
REMARK  status: ('A' for Active; 'I' for Inactive)
REMARK    1  A    between atoms: C_1  and  O_2 
REMARK    2  A    between atoms: O_2  and  C_13 
REMARK    3  A    between atoms: C_3  and  O_4 
REMARK    4  A    between atoms: C_5  and  O_6 
REMARK    5  A    between atoms: C_7  and  O_8 
REMARK    6  A    between atoms: C_9  and  C_11 
REMARK    7  A    between atoms: C_11  and  O_12 
REMARK    8  A    between atoms: C_17  and  C_19 
REMARK       I    between atoms: C_19  and  N_21 
REMARK    9  A    between atoms: N_21  and  C_22 
REMARK   10  A    between atoms: C_22  and  C_23 
ROOT
HETATM    1  C   UNK N   1      33.621  16.605   7.731  0.00  0.00     0.073 A 
HETATM    2  C   UNK N   1      34.216  17.279   6.653  0.00  0.00     0.037 A 
HETATM    3  C   UNK N   1      33.499  17.508   5.478  0.00  0.00     0.004 A 
HETATM    4  C   UNK N   1      32.185  17.051   5.362  0.00  0.00     0.017 A 
HETATM    5  C   UNK N   1      31.560  16.403   6.439  0.00  0.00     0.034 A 
HETATM    6  C   UNK N   1      32.293  16.188   7.615  0.00  0.00     0.054 A 
ENDROOT
BRANCH   1   7
HETATM    7  O   UNK N   1      34.294  16.300   8.876  0.00  0.00    -0.318 OA
BRANCH   7   8
HETATM    8  C   UNK N   1      34.665  15.059   9.388  0.00  0.00     0.298 C 
HETATM    9  C   UNK N   1      34.313  15.005  10.901  0.00  0.00     0.205 C 
HETATM   10  C   UNK N   1      34.863  13.695  11.484  0.00  0.00     0.183 C 
HETATM   11  C   UNK N   1      36.387  13.574  11.198  0.00  0.00     0.180 C 
HETATM   12  C   UNK N   1      36.863  14.659  10.200  0.00  0.00     0.179 C 
HETATM   13  O   UNK N   1      36.016  14.702   9.067  0.00  0.00    -0.348 OA
BRANCH   9  14
HETATM   14  O   UNK N   1      32.930  15.086  11.084  0.00  0.00    -0.388 OA
HETATM   15  H   UNK N   1      32.523  14.780  11.909  0.00  0.00     0.210 HD
ENDBRANCH   9  14
BRANCH  10  16
HETATM   16  O   UNK N   1      34.193  12.616  10.895  0.00  0.00    -0.390 OA
HETATM   17  H   UNK N   1      33.923  11.696  10.747  0.00  0.00     0.210 HD
ENDBRANCH  10  16
BRANCH  11  18
HETATM   18  O   UNK N   1      37.112  13.695  12.387  0.00  0.00    -0.390 OA
HETATM   19  H   UNK N   1      37.280  14.258  13.158  0.00  0.00     0.210 HD
ENDBRANCH  11  18
BRANCH  12  20
HETATM   20  C   UNK N   1      38.306  14.433   9.759  0.00  0.00     0.198 C 
BRANCH  20  21
HETATM   21  O   UNK N   1      38.950  13.524  10.600  0.00  0.00    -0.398 OA
HETATM   22  H   UNK N   1      39.610  13.240  11.252  0.00  0.00     0.209 HD
ENDBRANCH  20  21
ENDBRANCH  12  20
ENDBRANCH   7   8
ENDBRANCH   1   7
BRANCH   5  23
HETATM   23  C   UNK N   1      30.166  15.891   6.276  0.00  0.00     0.252 C 
HETATM   24  O   UNK N   1      29.999  14.825   5.706  0.00  0.00    -0.268 OA
HETATM   25  N   UNK N   1      29.068  16.561   6.726  0.00  0.00    -0.353 N 
HETATM   26  H   UNK N   1      28.206  16.087   6.718  0.00  0.00     0.163 HD
BRANCH  25  27
HETATM   27  C   UNK N   1      29.083  17.919   7.217  0.00  0.00     0.161 C 
BRANCH  27  28
HETATM   28  C   UNK N   1      28.298  18.842   6.350  0.00  0.00    -0.041 A 
HETATM   29  C   UNK N   1      28.232  18.645   4.965  0.00  0.00     0.009 A 
HETATM   30  C   UNK N   1      27.529  19.550   4.164  0.00  0.00     0.001 A 
HETATM   31  C   UNK N   1      26.902  20.658   4.744  0.00  0.00     0.000 A 
HETATM   32  C   UNK N   1      26.973  20.859   6.125  0.00  0.00     0.001 A 
HETATM   33  C   UNK N   1      27.672  19.952   6.926  0.00  0.00     0.009 A 
ENDBRANCH  27  28
ENDBRANCH  25  27
ENDBRANCH   5  23
TORSDOF 10
ENDMDL
MODEL 6
REMARK VINA RESULT:      -7.4      1.977      3.923
REMARK  10 active torsions:
REMARK  status: ('A' for Active; 'I' for Inactive)
REMARK    1  A    between atoms: C_1  and  O_2 
REMARK    2  A    between atoms: O_2  and  C_13 
REMARK    3  A    between atoms: C_3  and  O_4 
REMARK    4  A    between atoms: C_5  and  O_6 
REMARK    5  A    between atoms: C_7  and  O_8 
REMARK    6  A    between atoms: C_9  and  C_11 
REMARK    7  A    between atoms: C_11  and  O_12 
REMARK    8  A    between atoms: C_17  and  C_19 
REMARK       I    between atoms: C_19  and  N_21 
REMARK    9  A    between atoms: N_21  and  C_22 
REMARK   10  A    between atoms: C_22  and  C_23 
ROOT
HETATM    1  C   UNK N   1      24.620  19.393   4.004  0.00  0.00     0.073 A 
HETATM    2  C   UNK N   1      25.382  20.455   3.491  0.00  0.00     0.037 A 
HETATM    3  C   UNK N   1      26.775  20.424   3.557  0.00  0.00     0.004 A 
HETATM    4  C   UNK N   1      27.421  19.339   4.152  0.00  0.00     0.017 A 
HETATM    5  C   UNK N   1      26.681  18.253   4.645  0.00  0.00     0.034 A 
HETATM    6  C   UNK N   1      25.282  18.297   4.563  0.00  0.00     0.054 A 
ENDROOT
BRANCH   1   7
HETATM    7  O   UNK N   1      23.257  19.401   4.023  0.00  0.00    -0.318 OA
BRANCH   7   8
HETATM    8  C   UNK N   1      22.350  19.155   2.996  0.00  0.00     0.298 C 
HETATM    9  C   UNK N   1      21.331  20.327   2.922  0.00  0.00     0.205 C 
HETATM   10  C   UNK N   1      20.252  19.971   1.889  0.00  0.00     0.183 C 
HETATM   11  C   UNK N   1      19.599  18.604   2.239  0.00  0.00     0.180 C 
HETATM   12  C   UNK N   1      20.381  17.873   3.359  0.00  0.00     0.179 C 
HETATM   13  O   UNK N   1      21.766  17.847   3.065  0.00  0.00    -0.348 OA
BRANCH   9  14
HETATM   14  O   UNK N   1      21.979  21.516   2.573  0.00  0.00    -0.388 OA
HETATM   15  H   UNK N   1      21.504  22.212   2.093  0.00  0.00     0.210 HD
ENDBRANCH   9  14
BRANCH  10  16
HETATM   16  O   UNK N   1      20.840  19.894   0.622  0.00  0.00    -0.390 OA
HETATM   17  H   UNK N   1      21.539  19.931  -0.051  0.00  0.00     0.210 HD
ENDBRANCH  10  16
BRANCH  11  18
HETATM   18  O   UNK N   1      18.277  18.793   2.653  0.00  0.00    -0.390 OA
HETATM   19  H   UNK N   1      17.367  18.469   2.570  0.00  0.00     0.210 HD
ENDBRANCH  11  18
BRANCH  12  20
HETATM   20  C   UNK N   1      19.872  16.451   3.575  0.00  0.00     0.198 C 
BRANCH  20  21
HETATM   21  O   UNK N   1      18.726  16.446   4.370  0.00  0.00    -0.398 OA
HETATM   22  H   UNK N   1      17.992  16.039   4.857  0.00  0.00     0.209 HD
ENDBRANCH  20  21
ENDBRANCH  12  20
ENDBRANCH   7   8
ENDBRANCH   1   7
BRANCH   5  23
HETATM   23  C   UNK N   1      27.395  17.123   5.312  0.00  0.00     0.252 C 
HETATM   24  O   UNK N   1      27.525  17.148   6.525  0.00  0.00    -0.268 OA
HETATM   25  N   UNK N   1      27.917  16.064   4.629  0.00  0.00    -0.353 N 
HETATM   26  H   UNK N   1      28.233  15.292   5.151  0.00  0.00     0.163 HD
BRANCH  25  27
HETATM   27  C   UNK N   1      28.038  15.998   3.192  0.00  0.00     0.161 C 
BRANCH  27  28
HETATM   28  C   UNK N   1      27.034  15.081   2.581  0.00  0.00    -0.041 A 
HETATM   29  C   UNK N   1      25.869  15.584   1.991  0.00  0.00     0.009 A 
HETATM   30  C   UNK N   1      24.917  14.704   1.465  0.00  0.00     0.001 A 
HETATM   31  C   UNK N   1      25.124  13.322   1.540  0.00  0.00     0.000 A 
HETATM   32  C   UNK N   1      26.284  12.821   2.136  0.00  0.00     0.001 A 
HETATM   33  C   UNK N   1      27.237  13.699   2.658  0.00  0.00     0.009 A 
ENDBRANCH  27  28
ENDBRANCH  25  27
ENDBRANCH   5  23
TORSDOF 10
ENDMDL
MODEL 7
REMARK VINA RESULT:      -7.4     10.956     15.742
REMARK  10 active torsions:
REMARK  status: ('A' for Active; 'I' for Inactive)
REMARK    1  A    between atoms: C_1  and  O_2 
REMARK    2  A    between atoms: O_2  and  C_13 
REMARK    3  A    between atoms: C_3  and  O_4 
REMARK    4  A    between atoms: C_5  and  O_6 
REMARK    5  A    between atoms: C_7  and  O_8 
REMARK    6  A    between atoms: C_9  and  C_11 
REMARK    7  A    between atoms: C_11  and  O_12 
REMARK    8  A    between atoms: C_17  and  C_19 
REMARK       I    between atoms: C_19  and  N_21 
REMARK    9  A    between atoms: N_21  and  C_22 
REMARK   10  A    between atoms: C_22  and  C_23 
ROOT
HETATM    1  C   UNK N   1      34.886  11.675  12.781  0.00  0.00     0.073 A 
HETATM    2  C   UNK N   1      34.209  10.617  12.153  0.00  0.00     0.037 A 
HETATM    3  C   UNK N   1      34.546   9.293  12.436  0.00  0.00     0.004 A 
HETATM    4  C   UNK N   1      35.574   9.012  13.338  0.00  0.00     0.017 A 
HETATM    5  C   UNK N   1      36.243  10.053  14.000  0.00  0.00     0.034 A 
HETATM    6  C   UNK N   1      35.886  11.378  13.709  0.00  0.00     0.054 A 
ENDROOT
BRANCH   1   7
HETATM    7  O   UNK N   1      34.641  12.984  12.495  0.00  0.00    -0.318 OA
BRANCH   7   8
HETATM    8  C   UNK N   1      35.227  13.813  11.543  0.00  0.00     0.298 C 
HETATM    9  C   UNK N   1      35.492  15.210  12.173  0.00  0.00     0.205 C 
HETATM   10  C   UNK N   1      35.997  16.155  11.074  0.00  0.00     0.183 C 
HETATM   11  C   UNK N   1      34.992  16.191   9.888  0.00  0.00     0.180 C 
HETATM   12  C   UNK N   1      33.912  15.088  10.028  0.00  0.00     0.179 C 
HETATM   13  O   UNK N   1      34.512  13.835  10.301  0.00  0.00    -0.348 OA
BRANCH   9  14
HETATM   14  O   UNK N   1      36.426  15.109  13.209  0.00  0.00    -0.388 OA
HETATM   15  H   UNK N   1      36.256  14.533  13.970  0.00  0.00     0.210 HD
ENDBRANCH   9  14
BRANCH  10  16
HETATM   16  O   UNK N   1      37.239  15.700  10.616  0.00  0.00    -0.390 OA
HETATM   17  H   UNK N   1      38.104  15.732  10.178  0.00  0.00     0.210 HD
ENDBRANCH  10  16
BRANCH  11  18
HETATM   18  O   UNK N   1      34.365  17.439   9.825  0.00  0.00    -0.390 OA
HETATM   19  H   UNK N   1      33.699  17.968   9.360  0.00  0.00     0.210 HD
ENDBRANCH  11  18
BRANCH  12  20
HETATM   20  C   UNK N   1      33.041  14.983   8.779  0.00  0.00     0.198 C 
BRANCH  20  21
HETATM   21  O   UNK N   1      32.015  15.929   8.805  0.00  0.00    -0.398 OA
HETATM   22  H   UNK N   1      31.271  16.433   8.440  0.00  0.00     0.209 HD
ENDBRANCH  20  21
ENDBRANCH  12  20
ENDBRANCH   7   8
ENDBRANCH   1   7
BRANCH   5  23
HETATM   23  C   UNK N   1      37.365   9.727  14.931  0.00  0.00     0.252 C 
HETATM   24  O   UNK N   1      38.474   9.525  14.461  0.00  0.00    -0.268 OA
HETATM   25  N   UNK N   1      37.210   9.635  16.282  0.00  0.00    -0.353 N 
HETATM   26  H   UNK N   1      38.023   9.570  16.834  0.00  0.00     0.163 HD
BRANCH  25  27
HETATM   27  C   UNK N   1      35.936   9.629  16.960  0.00  0.00     0.161 C 
BRANCH  27  28
HETATM   28  C   UNK N   1      35.697  10.883  17.728  0.00  0.00    -0.041 A 
HETATM   29  C   UNK N   1      35.748  10.889  19.128  0.00  0.00     0.009 A 
HETATM   30  C   UNK N   1      35.475  12.066  19.832  0.00  0.00     0.001 A 
HETATM   31  C   UNK N   1      35.138  13.234  19.139  0.00  0.00     0.000 A 
HETATM   32  C   UNK N   1      35.080  13.226  17.742  0.00  0.00     0.001 A 
HETATM   33  C   UNK N   1      35.357  12.052  17.039  0.00  0.00     0.009 A 
ENDBRANCH  27  28
ENDBRANCH  25  27
ENDBRANCH   5  23
TORSDOF 10
ENDMDL
MODEL 8
REMARK VINA RESULT:      -7.3     11.454     15.442
REMARK  10 active torsions:
REMARK  status: ('A' for Active; 'I' for Inactive)
REMARK    1  A    between atoms: C_1  and  O_2 
REMARK    2  A    between atoms: O_2  and  C_13 
REMARK    3  A    between atoms: C_3  and  O_4 
REMARK    4  A    between atoms: C_5  and  O_6 
REMARK    5  A    between atoms: C_7  and  O_8 
REMARK    6  A    between atoms: C_9  and  C_11 
REMARK    7  A    between atoms: C_11  and  O_12 
REMARK    8  A    between atoms: C_17  and  C_19 
REMARK       I    between atoms: C_19  and  N_21 
REMARK    9  A    between atoms: N_21  and  C_22 
REMARK   10  A    between atoms: C_22  and  C_23 
ROOT
HETATM    1  C   UNK N   1      36.044  12.680  12.103  0.00  0.00     0.073 A 
HETATM    2  C   UNK N   1      36.834  11.521  12.151  0.00  0.00     0.037 A 
HETATM    3  C   UNK N   1      37.561  11.206  13.300  0.00  0.00     0.004 A 
HETATM    4  C   UNK N   1      37.518  12.055  14.407  0.00  0.00     0.017 A 
HETATM    5  C   UNK N   1      36.711  13.203  14.393  0.00  0.00     0.034 A 
HETATM    6  C   UNK N   1      35.981  13.500  13.233  0.00  0.00     0.054 A 
ENDROOT
BRANCH   1   7
HETATM    7  O   UNK N   1      35.365  13.068  10.987  0.00  0.00    -0.318 OA
BRANCH   7   8
HETATM    8  C   UNK N   1      35.364  14.292  10.325  0.00  0.00     0.298 C 
HETATM    9  C   UNK N   1      33.896  14.762  10.120  0.00  0.00     0.205 C 
HETATM   10  C   UNK N   1      33.905  16.033   9.259  0.00  0.00     0.183 C 
HETATM   11  C   UNK N   1      34.666  15.778   7.927  0.00  0.00     0.180 C 
HETATM   12  C   UNK N   1      35.411  14.419   7.952  0.00  0.00     0.179 C 
HETATM   13  O   UNK N   1      36.170  14.289   9.139  0.00  0.00    -0.348 OA
BRANCH   9  14
HETATM   14  O   UNK N   1      33.284  15.003  11.353  0.00  0.00    -0.388 OA
HETATM   15  H   UNK N   1      33.005  14.265  11.917  0.00  0.00     0.210 HD
ENDBRANCH   9  14
BRANCH  10  16
HETATM   16  O   UNK N   1      34.541  17.060   9.967  0.00  0.00    -0.390 OA
HETATM   17  H   UNK N   1      34.677  17.943  10.344  0.00  0.00     0.210 HD
ENDBRANCH  10  16
BRANCH  11  18
HETATM   18  O   UNK N   1      33.772  15.789   6.852  0.00  0.00    -0.390 OA
HETATM   19  H   UNK N   1      33.692  15.729   5.887  0.00  0.00     0.210 HD
ENDBRANCH  11  18
BRANCH  12  20
HETATM   20  C   UNK N   1      36.317  14.245   6.737  0.00  0.00     0.198 C 
BRANCH  20  21
HETATM   21  O   UNK N   1      36.191  15.323   5.860  0.00  0.00    -0.398 OA
HETATM   22  H   UNK N   1      36.224  15.768   4.998  0.00  0.00     0.209 HD
ENDBRANCH  20  21
ENDBRANCH  12  20
ENDBRANCH   7   8
ENDBRANCH   1   7
BRANCH   5  23
HETATM   23  C   UNK N   1      36.713  14.114  15.576  0.00  0.00     0.252 C 
HETATM   24  O   UNK N   1      37.571  14.979  15.646  0.00  0.00    -0.268 OA
HETATM   25  N   UNK N   1      35.805  14.023  16.589  0.00  0.00    -0.353 N 
HETATM   26  H   UNK N   1      35.780  14.752  17.250  0.00  0.00     0.163 HD
BRANCH  25  27
HETATM   27  C   UNK N   1      34.878  12.929  16.760  0.00  0.00     0.161 C 
BRANCH  27  28
HETATM   28  C   UNK N   1      35.375  11.912  17.730  0.00  0.00    -0.041 A 
HETATM   29  C   UNK N   1      35.817  10.658  17.291  0.00  0.00     0.009 A 
HETATM   30  C   UNK N   1      36.235   9.701  18.221  0.00  0.00     0.001 A 
HETATM   31  C   UNK N   1      36.199   9.991  19.589  0.00  0.00     0.000 A 
HETATM   32  C   UNK N   1      35.751  11.241  20.027  0.00  0.00     0.001 A 
HETATM   33  C   UNK N   1      35.338  12.199  19.098  0.00  0.00     0.009 A 
ENDBRANCH  27  28
ENDBRANCH  25  27
ENDBRANCH   5  23
TORSDOF 10
ENDMDL
MODEL 9
REMARK VINA RESULT:      -7.3      7.345     12.381
REMARK  10 active torsions:
REMARK  status: ('A' for Active; 'I' for Inactive)
REMARK    1  A    between atoms: C_1  and  O_2 
REMARK    2  A    between atoms: O_2  and  C_13 
REMARK    3  A    between atoms: C_3  and  O_4 
REMARK    4  A    between atoms: C_5  and  O_6 
REMARK    5  A    between atoms: C_7  and  O_8 
REMARK    6  A    between atoms: C_9  and  C_11 
REMARK    7  A    between atoms: C_11  and  O_12 
REMARK    8  A    between atoms: C_17  and  C_19 
REMARK       I    between atoms: C_19  and  N_21 
REMARK    9  A    between atoms: N_21  and  C_22 
REMARK   10  A    between atoms: C_22  and  C_23 
ROOT
HETATM    1  C   UNK N   1      33.727  16.260   7.533  0.00  0.00     0.073 A 
HETATM    2  C   UNK N   1      34.254  17.063   6.508  0.00  0.00     0.037 A 
HETATM    3  C   UNK N   1      33.604  17.159   5.278  0.00  0.00     0.004 A 
HETATM    4  C   UNK N   1      32.428  16.441   5.052  0.00  0.00     0.017 A 
HETATM    5  C   UNK N   1      31.867  15.656   6.072  0.00  0.00     0.034 A 
HETATM    6  C   UNK N   1      32.530  15.578   7.305  0.00  0.00     0.054 A 
ENDROOT
BRANCH   1   7
HETATM    7  O   UNK N   1      34.353  16.081   8.730  0.00  0.00    -0.318 OA
BRANCH   7   8
HETATM    8  C   UNK N   1      34.727  14.904   9.373  0.00  0.00     0.298 C 
HETATM    9  C   UNK N   1      34.329  14.993  10.874  0.00  0.00     0.205 C 
HETATM   10  C   UNK N   1      34.880  13.758  11.599  0.00  0.00     0.183 C 
HETATM   11  C   UNK N   1      36.413  13.636  11.371  0.00  0.00     0.180 C 
HETATM   12  C   UNK N   1      36.904  14.626  10.285  0.00  0.00     0.179 C 
HETATM   13  O   UNK N   1      36.092  14.541   9.129  0.00  0.00    -0.348 OA
BRANCH   9  14
HETATM   14  O   UNK N   1      32.939  15.068  11.007  0.00  0.00    -0.388 OA
HETATM   15  H   UNK N   1      32.509  14.802  11.835  0.00  0.00     0.210 HD
ENDBRANCH   9  14
BRANCH  10  16
HETATM   16  O   UNK N   1      34.244  12.614  11.101  0.00  0.00    -0.390 OA
HETATM   17  H   UNK N   1      34.130  11.798  10.589  0.00  0.00     0.210 HD
ENDBRANCH  10  16
BRANCH  11  18
HETATM   18  O   UNK N   1      37.100  13.887  12.562  0.00  0.00    -0.390 OA
HETATM   19  H   UNK N   1      37.728  13.525  13.206  0.00  0.00     0.210 HD
ENDBRANCH  11  18
BRANCH  12  20
HETATM   20  C   UNK N   1      38.363  14.382   9.910  0.00  0.00     0.198 C 
BRANCH  20  21
HETATM   21  O   UNK N   1      38.914  13.360  10.684  0.00  0.00    -0.398 OA
HETATM   22  H   UNK N   1      38.972  12.463  11.049  0.00  0.00     0.209 HD
ENDBRANCH  20  21
ENDBRANCH  12  20
ENDBRANCH   7   8
ENDBRANCH   1   7
BRANCH   5  23
HETATM   23  C   UNK N   1      30.630  14.868   5.792  0.00  0.00     0.252 C 
HETATM   24  O   UNK N   1      30.737  13.674   5.560  0.00  0.00    -0.268 OA
HETATM   25  N   UNK N   1      29.383  15.418   5.774  0.00  0.00    -0.353 N 
HETATM   26  H   UNK N   1      28.612  14.807   5.736  0.00  0.00     0.163 HD
BRANCH  25  27
HETATM   27  C   UNK N   1      29.115  16.836   5.810  0.00  0.00     0.161 C 
BRANCH  27  28
HETATM   28  C   UNK N   1      29.125  17.380   7.197  0.00  0.00    -0.041 A 
HETATM   29  C   UNK N   1      30.234  18.084   7.684  0.00  0.00     0.009 A 
HETATM   30  C   UNK N   1      30.243  18.545   9.004  0.00  0.00     0.001 A 
HETATM   31  C   UNK N   1      29.151  18.293   9.842  0.00  0.00     0.000 A 
HETATM   32  C   UNK N   1      28.048  17.584   9.358  0.00  0.00     0.001 A 
HETATM   33  C   UNK N   1      28.036  17.127   8.038  0.00  0.00     0.009 A 
ENDBRANCH  27  28
ENDBRANCH  25  27
ENDBRANCH   5  23
TORSDOF 10
ENDMDL
