MODEL 1
REMARK VINA RESULT:      -7.0      0.000      0.000
REMARK  5 active torsions:
REMARK  status: ('A' for Active; 'I' for Inactive)
REMARK    1  A    between atoms: C_1  and  S_13 
REMARK    2  A    between atoms: C_4  and  O_2 
REMARK    3  A    between atoms: C_5  and  C_6 
REMARK    4  A    between atoms: C_5  and  N_21 
REMARK    5  A    between atoms: N_12  and  S_13 
ROOT
HETATM    1  C   UNK N   1      20.585  19.293   2.859  0.00  0.00     0.121 A 
HETATM    2  C   UNK N   1      21.862  15.858   6.010  0.00  0.00     0.144 C 
HETATM    3  C   UNK N   1      21.899  17.398   5.895  0.00  0.00     0.167 C 
HETATM    4  C   UNK N   1      21.489  19.045   3.919  0.00  0.00     0.044 A 
HETATM    5  C   UNK N   1      21.164  17.873   4.671  0.00  0.00     0.003 A 
HETATM    6  C   UNK N   1      20.055  17.205   4.185  0.00  0.00     0.125 A 
HETATM    7  S   UNK N   1      19.498  18.004   2.862  0.00  0.00    -0.063 SA
HETATM    8  S   UNK N   1      19.430  15.752   4.979  0.00  0.00     0.251 S 
HETATM    9  O   UNK N   1      18.058  15.964   5.634  0.00  0.00    -0.205 OA
HETATM   10  O   UNK N   1      19.271  14.503   4.096  0.00  0.00    -0.205 OA
HETATM   11  N   UNK N   1      20.519  15.341   6.322  0.00  0.00    -0.199 NA
ENDROOT
BRANCH   1  12
HETATM   12  S   UNK N   1      20.693  20.622   1.572  0.00  0.00     0.263 S 
HETATM   13  O   UNK N   1      21.497  20.956   0.306  0.00  0.00    -0.200 OA
HETATM   14  O   UNK N   1      22.145  20.346   1.986  0.00  0.00    -0.200 OA
BRANCH  12  15
HETATM   15  N   UNK N   1      20.437  19.200   0.550  0.00  0.00    -0.324 N 
HETATM   16  H   UNK N   1      19.637  18.960  -0.035  0.00  0.00     0.169 HD
HETATM   17  H   UNK N   1      21.200  18.523   0.546  0.00  0.00     0.169 HD
ENDBRANCH  12  15
ENDBRANCH   1  12
BRANCH   3  18
HETATM   18  O   UNK N   1      23.229  17.816   5.849  0.00  0.00    -0.390 OA
HETATM   19  H   UNK N   1      23.738  18.114   5.080  0.00  0.00     0.210 HD
ENDBRANCH   3  18
BRANCH  11  20
HETATM   20  C   UNK N   1      20.580  13.889   6.477  0.00  0.00     0.153 C 
BRANCH  20  21
HETATM   21  C   UNK N   1      21.095  13.506   7.828  0.00  0.00    -0.004 A 
HETATM   22  C   UNK N   1      20.657  14.016   9.045  0.00  0.00     0.016 A 
HETATM   23  C   UNK N   1      21.339  13.443  10.159  0.00  0.00     0.008 A 
HETATM   24  C   UNK N   1      22.299  12.483   9.811  0.00  0.00     0.050 A 
HETATM   25  S   UNK N   1      22.266  12.385   8.156  0.00  0.00    -0.105 SA
ENDBRANCH  20  21
ENDBRANCH  11  20
TORSDOF 5
ENDMDL
MODEL 2
REMARK VINA RESULT:      -6.6     14.030     15.998
REMARK  5 active torsions:
REMARK  status: ('A' for Active; 'I' for Inactive)
REMARK    1  A    between atoms: C_1  and  S_13 
REMARK    2  A    between atoms: C_4  and  O_2 
REMARK    3  A    between atoms: C_5  and  C_6 
REMARK    4  A    between atoms: C_5  and  N_21 
REMARK    5  A    between atoms: N_12  and  S_13 
ROOT
HETATM    1  C   UNK N   1      32.594  21.458  -4.759  0.00  0.00     0.121 A 
HETATM    2  C   UNK N   1      28.635  23.482  -2.865  0.00  0.00     0.144 C 
HETATM    3  C   UNK N   1      30.165  23.508  -2.654  0.00  0.00     0.167 C 
HETATM    4  C   UNK N   1      32.111  22.032  -3.559  0.00  0.00     0.044 A 
HETATM    5  C   UNK N   1      30.878  22.737  -3.731  0.00  0.00     0.003 A 
HETATM    6  C   UNK N   1      30.396  22.682  -5.026  0.00  0.00     0.125 A 
HETATM    7  S   UNK N   1      31.426  21.779  -5.932  0.00  0.00    -0.063 SA
HETATM    8  S   UNK N   1      28.909  23.519  -5.494  0.00  0.00     0.251 S 
HETATM    9  O   UNK N   1      29.154  24.691  -6.456  0.00  0.00    -0.205 OA
HETATM   10  O   UNK N   1      27.821  22.663  -6.163  0.00  0.00    -0.205 OA
HETATM   11  N   UNK N   1      28.207  24.262  -4.039  0.00  0.00    -0.199 NA
ENDROOT
BRANCH   1  12
HETATM   12  S   UNK N   1      34.078  20.368  -4.970  0.00  0.00     0.263 S 
HETATM   13  O   UNK N   1      35.039  19.529  -4.115  0.00  0.00    -0.200 OA
HETATM   14  O   UNK N   1      34.430  21.303  -3.806  0.00  0.00    -0.200 OA
BRANCH  12  15
HETATM   15  N   UNK N   1      32.991  19.271  -4.106  0.00  0.00    -0.324 N 
HETATM   16  H   UNK N   1      32.996  18.253  -4.069  0.00  0.00     0.169 HD
HETATM   17  H   UNK N   1      32.252  19.724  -3.568  0.00  0.00     0.169 HD
ENDBRANCH  12  15
ENDBRANCH   1  12
BRANCH   3  18
HETATM   18  O   UNK N   1      30.457  22.967  -1.402  0.00  0.00    -0.390 OA
HETATM   19  H   UNK N   1      31.182  22.372  -1.159  0.00  0.00     0.210 HD
ENDBRANCH   3  18
BRANCH  11  20
HETATM   20  C   UNK N   1      26.749  24.241  -4.133  0.00  0.00     0.153 C 
BRANCH  20  21
HETATM   21  C   UNK N   1      26.200  25.609  -4.384  0.00  0.00    -0.004 A 
HETATM   22  C   UNK N   1      25.416  25.990  -5.468  0.00  0.00     0.016 A 
HETATM   23  C   UNK N   1      25.040  27.365  -5.420  0.00  0.00     0.008 A 
HETATM   24  C   UNK N   1      25.523  28.051  -4.296  0.00  0.00     0.050 A 
HETATM   25  S   UNK N   1      26.387  26.940  -3.420  0.00  0.00    -0.105 SA
ENDBRANCH  20  21
ENDBRANCH  11  20
TORSDOF 5
ENDMDL
MODEL 3
REMARK VINA RESULT:      -6.4     11.890     14.657
REMARK  5 active torsions:
REMARK  status: ('A' for Active; 'I' for Inactive)
REMARK    1  A    between atoms: C_1  and  S_13 
REMARK    2  A    between atoms: C_4  and  O_2 
REMARK    3  A    between atoms: C_5  and  C_6 
REMARK    4  A    between atoms: C_5  and  N_21 
REMARK    5  A    between atoms: N_12  and  S_13 
ROOT
HETATM    1  C   UNK N   1      35.056  15.284  11.375  0.00  0.00     0.121 A 
HETATM    2  C   UNK N   1      32.518  14.907   7.280  0.00  0.00     0.144 C 
HETATM    3  C   UNK N   1      32.368  14.547   8.775  0.00  0.00     0.167 C 
HETATM    4  C   UNK N   1      34.040  14.506  10.771  0.00  0.00     0.044 A 
HETATM    5  C   UNK N   1      33.505  15.105   9.588  0.00  0.00     0.003 A 
HETATM    6  C   UNK N   1      34.114  16.301   9.259  0.00  0.00     0.125 A 
HETATM    7  S   UNK N   1      35.290  16.613  10.364  0.00  0.00    -0.063 SA
HETATM    8  S   UNK N   1      33.590  17.252   7.863  0.00  0.00     0.251 S 
HETATM    9  O   UNK N   1      32.930  18.583   8.251  0.00  0.00    -0.205 OA
HETATM   10  O   UNK N   1      34.675  17.620   6.837  0.00  0.00    -0.205 OA
HETATM   11  N   UNK N   1      32.319  16.342   7.015  0.00  0.00    -0.199 NA
ENDROOT
BRANCH   1  12
HETATM   12  S   UNK N   1      36.097  14.838  12.843  0.00  0.00     0.263 S 
HETATM   13  O   UNK N   1      36.679  13.590  13.522  0.00  0.00    -0.200 OA
HETATM   14  O   UNK N   1      34.911  13.864  12.881  0.00  0.00    -0.200 OA
BRANCH  12  15
HETATM   15  N   UNK N   1      37.022  14.072  11.544  0.00  0.00    -0.324 N 
HETATM   16  H   UNK N   1      36.756  13.307  10.925  0.00  0.00     0.169 HD
HETATM   17  H   UNK N   1      37.957  14.451  11.393  0.00  0.00     0.169 HD
ENDBRANCH  12  15
ENDBRANCH   1  12
BRANCH   3  18
HETATM   18  O   UNK N   1      32.321  13.159   8.902  0.00  0.00    -0.390 OA
HETATM   19  H   UNK N   1      31.871  12.633   9.581  0.00  0.00     0.210 HD
ENDBRANCH   3  18
BRANCH  11  20
HETATM   20  C   UNK N   1      32.413  16.590   5.579  0.00  0.00     0.153 C 
BRANCH  20  21
HETATM   21  C   UNK N   1      31.059  16.746   4.963  0.00  0.00    -0.004 A 
HETATM   22  C   UNK N   1      29.978  17.418   5.523  0.00  0.00     0.016 A 
HETATM   23  C   UNK N   1      28.825  17.399   4.685  0.00  0.00     0.008 A 
HETATM   24  C   UNK N   1      29.009  16.723   3.471  0.00  0.00     0.050 A 
HETATM   25  S   UNK N   1      30.576  16.180   3.487  0.00  0.00    -0.105 SA
ENDBRANCH  20  21
ENDBRANCH  11  20
TORSDOF 5
ENDMDL
MODEL 4
REMARK VINA RESULT:      -6.4      9.392     11.924
REMARK  5 active torsions:
REMARK  status: ('A' for Active; 'I' for Inactive)
REMARK    1  A    between atoms: C_1  and  S_13 
REMARK    2  A    between atoms: C_4  and  O_2 
REMARK    3  A    between atoms: C_5  and  C_6 
REMARK    4  A    between atoms: C_5  and  N_21 
REMARK    5  A    between atoms: N_12  and  S_13 
ROOT
HETATM    1  C   UNK N   1      33.529  16.680   8.497  0.00  0.00     0.121 A 
HETATM    2  C   UNK N   1      28.871  17.860   7.975  0.00  0.00     0.144 C 
HETATM    3  C   UNK N   1      30.157  18.456   8.590  0.00  0.00     0.167 C 
HETATM    4  C   UNK N   1      32.514  17.467   9.091  0.00  0.00     0.044 A 
HETATM    5  C   UNK N   1      31.361  17.618   8.257  0.00  0.00     0.003 A 
HETATM    6  C   UNK N   1      31.463  16.935   7.060  0.00  0.00     0.125 A 
HETATM    7  S   UNK N   1      32.905  16.148   7.024  0.00  0.00    -0.063 SA
HETATM    8  S   UNK N   1      30.181  17.010   5.842  0.00  0.00     0.251 S 
HETATM    9  O   UNK N   1      30.602  17.754   4.567  0.00  0.00    -0.205 OA
HETATM   10  O   UNK N   1      29.614  15.664   5.361  0.00  0.00    -0.205 OA
HETATM   11  N   UNK N   1      28.838  17.966   6.507  0.00  0.00    -0.199 NA
ENDROOT
BRANCH   1  12
HETATM   12  S   UNK N   1      35.126  16.134   9.263  0.00  0.00     0.263 S 
HETATM   13  O   UNK N   1      35.968  16.402  10.519  0.00  0.00    -0.200 OA
HETATM   14  O   UNK N   1      35.133  17.665   9.370  0.00  0.00    -0.200 OA
BRANCH  12  15
HETATM   15  N   UNK N   1      33.998  15.785  10.581  0.00  0.00    -0.324 N 
HETATM   16  H   UNK N   1      34.192  15.466  11.530  0.00  0.00     0.169 HD
HETATM   17  H   UNK N   1      33.013  15.923  10.360  0.00  0.00     0.169 HD
ENDBRANCH  12  15
ENDBRANCH   1  12
BRANCH   3  18
HETATM   18  O   UNK N   1      29.998  18.542   9.973  0.00  0.00    -0.390 OA
HETATM   19  H   UNK N   1      29.293  18.165  10.521  0.00  0.00     0.210 HD
ENDBRANCH   3  18
BRANCH  11  20
HETATM   20  C   UNK N   1      27.569  17.441   6.009  0.00  0.00     0.153 C 
BRANCH  20  21
HETATM   21  C   UNK N   1      26.946  18.371   5.017  0.00  0.00    -0.004 A 
HETATM   22  C   UNK N   1      27.522  19.529   4.508  0.00  0.00     0.016 A 
HETATM   23  C   UNK N   1      26.680  20.197   3.571  0.00  0.00     0.008 A 
HETATM   24  C   UNK N   1      25.454  19.556   3.344  0.00  0.00     0.050 A 
HETATM   25  S   UNK N   1      25.463  18.204   4.305  0.00  0.00    -0.105 SA
ENDBRANCH  20  21
ENDBRANCH  11  20
TORSDOF 5
ENDMDL
MODEL 5
REMARK VINA RESULT:      -6.3      1.406      2.462
REMARK  5 active torsions:
REMARK  status: ('A' for Active; 'I' for Inactive)
REMARK    1  A    between atoms: C_1  and  S_13 
REMARK    2  A    between atoms: C_4  and  O_2 
REMARK    3  A    between atoms: C_5  and  C_6 
REMARK    4  A    between atoms: C_5  and  N_21 
REMARK    5  A    between atoms: N_12  and  S_13 
ROOT
HETATM    1  C   UNK N   1      20.737  18.934   2.760  0.00  0.00     0.121 A 
HETATM    2  C   UNK N   1      19.696  14.963   5.309  0.00  0.00     0.144 C 
HETATM    3  C   UNK N   1      20.050  15.348   3.856  0.00  0.00     0.167 C 
HETATM    4  C   UNK N   1      20.211  17.629   2.609  0.00  0.00     0.044 A 
HETATM    5  C   UNK N   1      20.432  16.800   3.753  0.00  0.00     0.003 A 
HETATM    6  C   UNK N   1      21.083  17.454   4.782  0.00  0.00     0.125 A 
HETATM    7  S   UNK N   1      21.361  19.007   4.324  0.00  0.00    -0.063 SA
HETATM    8  S   UNK N   1      21.510  16.621   6.283  0.00  0.00     0.251 S 
HETATM    9  O   UNK N   1      23.024  16.448   6.468  0.00  0.00    -0.205 OA
HETATM   10  O   UNK N   1      21.011  17.261   7.589  0.00  0.00    -0.205 OA
HETATM   11  N   UNK N   1      20.867  14.965   6.202  0.00  0.00    -0.199 NA
ENDROOT
BRANCH   1  12
HETATM   12  S   UNK N   1      20.574  20.359   1.585  0.00  0.00     0.263 S 
HETATM   13  O   UNK N   1      21.252  20.912   0.323  0.00  0.00    -0.200 OA
HETATM   14  O   UNK N   1      22.070  20.284   1.919  0.00  0.00    -0.200 OA
BRANCH  12  15
HETATM   15  N   UNK N   1      20.489  18.998   0.458  0.00  0.00    -0.324 N 
HETATM   16  H   UNK N   1      19.924  18.151   0.509  0.00  0.00     0.169 HD
HETATM   17  H   UNK N   1      21.093  19.071  -0.361  0.00  0.00     0.169 HD
ENDBRANCH  12  15
ENDBRANCH   1  12
BRANCH   3  18
HETATM   18  O   UNK N   1      18.953  15.080   3.038  0.00  0.00    -0.390 OA
HETATM   19  H   UNK N   1      18.677  14.230   2.662  0.00  0.00     0.210 HD
ENDBRANCH   3  18
BRANCH  11  20
HETATM   20  C   UNK N   1      20.463  14.530   7.537  0.00  0.00     0.153 C 
BRANCH  20  21
HETATM   21  C   UNK N   1      21.586  13.848   8.251  0.00  0.00    -0.004 A 
HETATM   22  C   UNK N   1      21.766  13.793   9.629  0.00  0.00     0.016 A 
HETATM   23  C   UNK N   1      22.930  13.059  10.003  0.00  0.00     0.008 A 
HETATM   24  C   UNK N   1      23.650  12.536   8.920  0.00  0.00     0.050 A 
HETATM   25  S   UNK N   1      22.826  13.001   7.558  0.00  0.00    -0.105 SA
ENDBRANCH  20  21
ENDBRANCH  11  20
TORSDOF 5
ENDMDL
MODEL 6
REMARK VINA RESULT:      -6.2      3.193      7.957
REMARK  5 active torsions:
REMARK  status: ('A' for Active; 'I' for Inactive)
REMARK    1  A    between atoms: C_1  and  S_13 
REMARK    2  A    between atoms: C_4  and  O_2 
REMARK    3  A    between atoms: C_5  and  C_6 
REMARK    4  A    between atoms: C_5  and  N_21 
REMARK    5  A    between atoms: N_12  and  S_13 
ROOT
HETATM    1  C   UNK N   1      22.132  13.666   9.541  0.00  0.00     0.121 A 
HETATM    2  C   UNK N   1      19.753  16.353   6.304  0.00  0.00     0.144 C 
HETATM    3  C   UNK N   1      20.018  16.335   7.826  0.00  0.00     0.167 C 
HETATM    4  C   UNK N   1      21.038  14.556   9.433  0.00  0.00     0.044 A 
HETATM    5  C   UNK N   1      21.017  15.271   8.194  0.00  0.00     0.003 A 
HETATM    6  C   UNK N   1      22.049  14.918   7.344  0.00  0.00     0.125 A 
HETATM    7  S   UNK N   1      22.950  13.751   8.069  0.00  0.00    -0.063 SA
HETATM    8  S   UNK N   1      22.259  15.701   5.772  0.00  0.00     0.251 S 
HETATM    9  O   UNK N   1      23.522  16.571   5.695  0.00  0.00    -0.205 OA
HETATM   10  O   UNK N   1      22.328  14.774   4.548  0.00  0.00    -0.205 OA
HETATM   11  N   UNK N   1      20.909  16.833   5.529  0.00  0.00    -0.199 NA
ENDROOT
BRANCH   1  12
HETATM   12  S   UNK N   1      22.480  12.466  10.911  0.00  0.00     0.263 S 
HETATM   13  O   UNK N   1      23.342  11.224  11.181  0.00  0.00    -0.200 OA
HETATM   14  O   UNK N   1      22.260  11.598   9.664  0.00  0.00    -0.200 OA
BRANCH  12  15
HETATM   15  N   UNK N   1      24.117  13.032  10.551  0.00  0.00    -0.324 N 
HETATM   16  H   UNK N   1      24.941  13.050  11.152  0.00  0.00     0.169 HD
HETATM   17  H   UNK N   1      24.257  13.391   9.607  0.00  0.00     0.169 HD
ENDBRANCH  12  15
ENDBRANCH   1  12
BRANCH   3  18
HETATM   18  O   UNK N   1      18.812  16.113   8.491  0.00  0.00    -0.390 OA
HETATM   19  H   UNK N   1      17.922  16.041   8.114  0.00  0.00     0.210 HD
ENDBRANCH   3  18
BRANCH  11  20
HETATM   20  C   UNK N   1      20.560  16.881   4.111  0.00  0.00     0.153 C 
BRANCH  20  21
HETATM   21  C   UNK N   1      20.837  18.230   3.528  0.00  0.00    -0.004 A 
HETATM   22  C   UNK N   1      22.052  18.904   3.566  0.00  0.00     0.016 A 
HETATM   23  C   UNK N   1      22.001  20.170   2.912  0.00  0.00     0.008 A 
HETATM   24  C   UNK N   1      20.750  20.478   2.357  0.00  0.00     0.050 A 
HETATM   25  S   UNK N   1      19.770  19.184   2.699  0.00  0.00    -0.105 SA
ENDBRANCH  20  21
ENDBRANCH  11  20
TORSDOF 5
ENDMDL
MODEL 7
REMARK VINA RESULT:      -6.1     10.558     11.787
REMARK  5 active torsions:
REMARK  status: ('A' for Active; 'I' for Inactive)
REMARK    1  A    between atoms: C_1  and  S_13 
REMARK    2  A    between atoms: C_4  and  O_2 
REMARK    3  A    between atoms: C_5  and  C_6 
REMARK    4  A    between atoms: C_5  and  N_21 
REMARK    5  A    between atoms: N_12  and  S_13 
ROOT
HETATM    1  C   UNK N   1      29.093  17.552   5.067  0.00  0.00     0.121 A 
HETATM    2  C   UNK N   1      32.143  17.515   8.816  0.00  0.00     0.144 C 
HETATM    3  C   UNK N   1      30.720  17.021   8.474  0.00  0.00     0.167 C 
HETATM    4  C   UNK N   1      29.108  17.482   6.481  0.00  0.00     0.044 A 
HETATM    5  C   UNK N   1      30.409  17.220   7.015  0.00  0.00     0.003 A 
HETATM    6  C   UNK N   1      31.387  17.124   6.044  0.00  0.00     0.125 A 
HETATM    7  S   UNK N   1      30.696  17.376   4.575  0.00  0.00    -0.063 SA
HETATM    8  S   UNK N   1      33.068  16.757   6.459  0.00  0.00     0.251 S 
HETATM    9  O   UNK N   1      33.525  15.378   5.962  0.00  0.00    -0.205 OA
HETATM   10  O   UNK N   1      34.131  17.745   5.952  0.00  0.00    -0.205 OA
HETATM   11  N   UNK N   1      33.197  16.670   8.230  0.00  0.00    -0.199 NA
ENDROOT
BRANCH   1  12
HETATM   12  S   UNK N   1      27.661  17.987   3.974  0.00  0.00     0.263 S 
HETATM   13  O   UNK N   1      26.424  18.896   3.981  0.00  0.00    -0.200 OA
HETATM   14  O   UNK N   1      27.049  17.749   5.361  0.00  0.00    -0.200 OA
BRANCH  12  15
HETATM   15  N   UNK N   1      28.347  19.592   4.263  0.00  0.00    -0.324 N 
HETATM   16  H   UNK N   1      27.916  20.413   4.687  0.00  0.00     0.169 HD
HETATM   17  H   UNK N   1      29.314  19.713   3.961  0.00  0.00     0.169 HD
ENDBRANCH  12  15
ENDBRANCH   1  12
BRANCH   3  18
HETATM   18  O   UNK N   1      29.800  17.713   9.261  0.00  0.00    -0.390 OA
HETATM   19  H   UNK N   1      28.900  17.989   9.030  0.00  0.00     0.210 HD
ENDBRANCH   3  18
BRANCH  11  20
HETATM   20  C   UNK N   1      34.507  17.163   8.650  0.00  0.00     0.153 C 
BRANCH  20  21
HETATM   21  C   UNK N   1      35.142  16.242   9.643  0.00  0.00    -0.004 A 
HETATM   22  C   UNK N   1      35.282  16.480  11.006  0.00  0.00     0.016 A 
HETATM   23  C   UNK N   1      35.925  15.405  11.688  0.00  0.00     0.008 A 
HETATM   24  C   UNK N   1      36.276  14.329  10.861  0.00  0.00     0.050 A 
HETATM   25  S   UNK N   1      35.784  14.750   9.334  0.00  0.00    -0.105 SA
ENDBRANCH  20  21
ENDBRANCH  11  20
TORSDOF 5
ENDMDL
MODEL 8
REMARK VINA RESULT:      -6.1     13.062     15.951
REMARK  5 active torsions:
REMARK  status: ('A' for Active; 'I' for Inactive)
REMARK    1  A    between atoms: C_1  and  S_13 
REMARK    2  A    between atoms: C_4  and  O_2 
REMARK    3  A    between atoms: C_5  and  C_6 
REMARK    4  A    between atoms: C_5  and  N_21 
REMARK    5  A    between atoms: N_12  and  S_13 
ROOT
HETATM    1  C   UNK N   1      35.795  14.163  12.587  0.00  0.00     0.121 A 
HETATM    2  C   UNK N   1      33.587  15.928   8.667  0.00  0.00     0.144 C 
HETATM    3  C   UNK N   1      34.841  16.218   9.521  0.00  0.00     0.167 C 
HETATM    4  C   UNK N   1      35.651  15.357  11.842  0.00  0.00     0.044 A 
HETATM    5  C   UNK N   1      35.054  15.149  10.559  0.00  0.00     0.003 A 
HETATM    6  C   UNK N   1      34.710  13.831  10.326  0.00  0.00     0.125 A 
HETATM    7  S   UNK N   1      35.097  12.944  11.654  0.00  0.00    -0.063 SA
HETATM    8  S   UNK N   1      34.000  13.319   8.788  0.00  0.00     0.251 S 
HETATM    9  O   UNK N   1      34.930  12.416   7.965  0.00  0.00    -0.205 OA
HETATM   10  O   UNK N   1      32.664  12.563   8.868  0.00  0.00    -0.205 OA
HETATM   11  N   UNK N   1      33.756  14.764   7.781  0.00  0.00    -0.199 NA
ENDROOT
BRANCH   1  12
HETATM   12  S   UNK N   1      36.403  13.986  14.330  0.00  0.00     0.263 S 
HETATM   13  O   UNK N   1      36.480  12.922  15.434  0.00  0.00    -0.200 OA
HETATM   14  O   UNK N   1      34.998  13.367  14.330  0.00  0.00    -0.200 OA
BRANCH  12  15
HETATM   15  N   UNK N   1      37.273  12.659  13.546  0.00  0.00    -0.324 N 
HETATM   16  H   UNK N   1      37.546  12.554  12.570  0.00  0.00     0.169 HD
HETATM   17  H   UNK N   1      37.538  11.889  14.159  0.00  0.00     0.169 HD
ENDBRANCH  12  15
ENDBRANCH   1  12
BRANCH   3  18
HETATM   18  O   UNK N   1      34.692  17.461  10.134  0.00  0.00    -0.390 OA
HETATM   19  H   UNK N   1      33.873  17.896  10.419  0.00  0.00     0.210 HD
ENDBRANCH   3  18
BRANCH  11  20
HETATM   20  C   UNK N   1      32.556  14.594   6.964  0.00  0.00     0.153 C 
BRANCH  20  21
HETATM   21  C   UNK N   1      32.434  15.680   5.943  0.00  0.00    -0.004 A 
HETATM   22  C   UNK N   1      33.382  16.009   4.981  0.00  0.00     0.016 A 
HETATM   23  C   UNK N   1      32.968  17.088   4.146  0.00  0.00     0.008 A 
HETATM   24  C   UNK N   1      31.696  17.593   4.451  0.00  0.00     0.050 A 
HETATM   25  S   UNK N   1      31.144  16.693   5.730  0.00  0.00    -0.105 SA
ENDBRANCH  20  21
ENDBRANCH  11  20
TORSDOF 5
ENDMDL
MODEL 9
REMARK VINA RESULT:      -6.0      3.225      7.916
REMARK  5 active torsions:
REMARK  status: ('A' for Active; 'I' for Inactive)
REMARK    1  A    between atoms: C_1  and  S_13 
REMARK    2  A    between atoms: C_4  and  O_2 
REMARK    3  A    between atoms: C_5  and  C_6 
REMARK    4  A    between atoms: C_5  and  N_21 
REMARK    5  A    between atoms: N_12  and  S_13 
ROOT
HETATM    1  C   UNK N   1      22.453  12.928   9.149  0.00  0.00     0.121 A 
HETATM    2  C   UNK N   1      22.795  16.379   5.784  0.00  0.00     0.144 C 
HETATM    3  C   UNK N   1      22.977  14.849   5.899  0.00  0.00     0.167 C 
HETATM    4  C   UNK N   1      23.104  13.221   7.928  0.00  0.00     0.044 A 
HETATM    5  C   UNK N   1      22.542  14.347   7.249  0.00  0.00     0.003 A 
HETATM    6  C   UNK N   1      21.503  14.938   7.944  0.00  0.00     0.125 A 
HETATM    7  S   UNK N   1      21.288  14.129   9.357  0.00  0.00    -0.063 SA
HETATM    8  S   UNK N   1      20.618  16.321   7.283  0.00  0.00     0.251 S 
HETATM    9  O   UNK N   1      19.164  15.989   6.919  0.00  0.00    -0.205 OA
HETATM   10  O   UNK N   1      20.540  17.573   8.171  0.00  0.00    -0.205 OA
HETATM   11  N   UNK N   1      21.380  16.784   5.744  0.00  0.00    -0.199 NA
ENDROOT
BRANCH   1  12
HETATM   12  S   UNK N   1      22.923  11.640  10.398  0.00  0.00     0.263 S 
HETATM   13  O   UNK N   1      23.239  11.531  11.897  0.00  0.00    -0.200 OA
HETATM   14  O   UNK N   1      23.884  12.811  10.647  0.00  0.00    -0.200 OA
BRANCH  12  15
HETATM   15  N   UNK N   1      21.478  12.321  11.161  0.00  0.00    -0.324 N 
HETATM   16  H   UNK N   1      20.816  13.005  10.796  0.00  0.00     0.169 HD
HETATM   17  H   UNK N   1      21.280  11.979  12.101  0.00  0.00     0.169 HD
ENDBRANCH  12  15
ENDBRANCH   1  12
BRANCH   3  18
HETATM   18  O   UNK N   1      24.318  14.537   5.679  0.00  0.00    -0.390 OA
HETATM   19  H   UNK N   1      24.749  13.670   5.733  0.00  0.00     0.210 HD
ENDBRANCH   3  18
BRANCH  11  20
HETATM   20  C   UNK N   1      21.292  18.232   5.571  0.00  0.00     0.153 C 
BRANCH  20  21
HETATM   21  C   UNK N   1      20.968  18.593   4.156  0.00  0.00    -0.004 A 
HETATM   22  C   UNK N   1      21.017  19.869   3.606  0.00  0.00     0.016 A 
HETATM   23  C   UNK N   1      20.660  19.888   2.226  0.00  0.00     0.008 A 
HETATM   24  C   UNK N   1      20.341  18.627   1.699  0.00  0.00     0.050 A 
HETATM   25  S   UNK N   1      20.512  17.555   2.953  0.00  0.00    -0.105 SA
ENDBRANCH  20  21
ENDBRANCH  11  20
TORSDOF 5
ENDMDL
