REMARK  5 active torsions:
REMARK  status: ('A' for Active; 'I' for Inactive)
REMARK    1  A    between atoms: C_1  and  S_13 
REMARK    2  A    between atoms: C_4  and  O_2 
REMARK    3  A    between atoms: C_5  and  C_6 
REMARK    4  A    between atoms: C_5  and  N_21 
REMARK    5  A    between atoms: N_12  and  S_13 
ROOT
HETATM    1  C   UNK N   1      -3.889  -0.259   0.300  0.00  0.00     0.121 A 
HETATM    2  C   UNK N   1       0.921  -0.592   0.631  0.00  0.00     0.144 C 
HETATM    3  C   UNK N   1      -0.259  -1.395   0.040  0.00  0.00     0.167 C 
HETATM    4  C   UNK N   1      -2.844  -1.213   0.305  0.00  0.00     0.044 A 
HETATM    5  C   UNK N   1      -1.549  -0.627   0.145  0.00  0.00     0.003 A 
HETATM    6  C   UNK N   1      -1.583   0.752   0.054  0.00  0.00     0.125 A 
HETATM    7  S   UNK N   1      -3.143   1.249   0.189  0.00  0.00    -0.063 SA
HETATM    8  S   UNK N   1      -0.109   1.698  -0.196  0.00  0.00     0.251 S 
HETATM    9  O   UNK N   1      -0.054   2.379  -1.571  0.00  0.00    -0.205 OA
HETATM   10  O   UNK N   1       0.170   2.815   0.823  0.00  0.00    -0.205 OA
HETATM   11  N   UNK N   1       1.276   0.583  -0.182  0.00  0.00    -0.199 NA
ENDROOT
BRANCH   1  12
HETATM   12  S   UNK N   1      -5.694  -0.561   0.595  0.00  0.00     0.263 S 
HETATM   13  O   UNK N   1      -6.972  -0.855  -0.204  0.00  0.00    -0.200 OA
HETATM   14  O   UNK N   1      -5.640   0.455  -0.554  0.00  0.00    -0.200 OA
BRANCH  12  15
HETATM   15  N   UNK N   1      -5.267  -2.014  -0.320  0.00  0.00    -0.324 N 
HETATM   16  H   UNK N   1      -5.869  -2.646  -0.847  0.00  0.00     0.169 HD
HETATM   17  H   UNK N   1      -4.276  -2.254  -0.320  0.00  0.00     0.169 HD
ENDBRANCH  12  15
ENDBRANCH   1  12
BRANCH   3  18
HETATM   18  O   UNK N   1      -0.365  -2.608   0.720  0.00  0.00    -0.390 OA
HETATM   19  H   UNK N   1      -1.132  -2.967   1.192  0.00  0.00     0.210 HD
ENDBRANCH   3  18
BRANCH  11  20
HETATM   20  C   UNK N   1       2.436   1.250   0.405  0.00  0.00     0.153 C 
BRANCH  20  21
HETATM   21  C   UNK N   1       3.690   0.470   0.170  0.00  0.00    -0.004 A 
HETATM   22  C   UNK N   1       4.721   0.820  -0.695  0.00  0.00     0.016 A 
HETATM   23  C   UNK N   1       5.788  -0.126  -0.691  0.00  0.00     0.008 A 
HETATM   24  C   UNK N   1       5.593  -1.206   0.182  0.00  0.00     0.050 A 
HETATM   25  S   UNK N   1       4.122  -0.948   0.903  0.00  0.00    -0.105 SA
ENDBRANCH  20  21
ENDBRANCH  11  20
TORSDOF 5
