MODEL 1
REMARK VINA RESULT:      -6.6      0.000      0.000
REMARK  7 active torsions:
REMARK  status: ('A' for Active; 'I' for Inactive)
REMARK    1  A    between atoms: C_1  and  S_12 
REMARK    2  A    between atoms: C_2  and  C_3 
REMARK    3  A    between atoms: C_2  and  N_20 
REMARK    4  A    between atoms: C_6  and  O_21 
REMARK    5  A    between atoms: N_11  and  S_12 
REMARK    6  A    between atoms: C_15  and  S_17 
REMARK    7  A    between atoms: S_17  and  N_20 
ROOT
HETATM    1  S   UNK N   1      34.208  17.861   7.962  0.00  0.00     0.265 S 
HETATM    2  O   UNK N   1      35.052  19.059   8.422  0.00  0.00    -0.200 OA
HETATM    3  O   UNK N   1      34.385  17.918   6.436  0.00  0.00    -0.200 OA
ENDROOT
BRANCH   1   4
HETATM    4  C   UNK N   1      34.762  16.348   8.719  0.00  0.00     0.121 A 
HETATM    5  C   UNK N   1      34.892  15.106   8.095  0.00  0.00     0.035 A 
HETATM    6  C   UNK N   1      35.262  14.063   8.996  0.00  0.00     0.035 A 
HETATM    7  C   UNK N   1      35.414  14.495  10.322  0.00  0.00     0.121 A 
HETATM    8  S   UNK N   1      35.077  16.150  10.324  0.00  0.00    -0.063 SA
BRANCH   7   9
HETATM    9  S   UNK N   1      35.800  13.356  11.714  0.00  0.00     0.263 S 
HETATM   10  O   UNK N   1      36.361  13.914  13.030  0.00  0.00    -0.200 OA
HETATM   11  O   UNK N   1      34.667  14.291  12.162  0.00  0.00    -0.200 OA
BRANCH   9  12
HETATM   12  N   UNK N   1      37.217  14.301  11.244  0.00  0.00    -0.324 N 
HETATM   13  H   UNK N   1      37.839  14.939  10.748  0.00  0.00     0.169 HD
HETATM   14  H   UNK N   1      37.855  14.004  11.983  0.00  0.00     0.169 HD
ENDBRANCH   9  12
ENDBRANCH   7   9
ENDBRANCH   1   4
BRANCH   1  15
HETATM   15  N   UNK N   1      32.545  18.346   8.327  0.00  0.00    -0.311 N 
HETATM   16  H   UNK N   1      32.235  19.297   8.521  0.00  0.00     0.172 HD
BRANCH  15  17
HETATM   17  C   UNK N   1      31.691  17.168   8.305  0.00  0.00     0.170 C 
BRANCH  17  18
HETATM   18  C   UNK N   1      30.586  17.387   7.333  0.00  0.00    -0.040 A 
HETATM   19  C   UNK N   1      30.785  17.117   5.976  0.00  0.00     0.011 A 
HETATM   20  C   UNK N   1      29.764  17.365   5.055  0.00  0.00     0.037 A 
HETATM   21  C   UNK N   1      28.537  17.886   5.485  0.00  0.00     0.068 A 
HETATM   22  C   UNK N   1      28.338  18.146   6.852  0.00  0.00     0.037 A 
HETATM   23  C   UNK N   1      29.358  17.897   7.771  0.00  0.00     0.011 A 
BRANCH  21  24
HETATM   24  O   UNK N   1      27.571  18.132   4.569  0.00  0.00    -0.356 OA
HETATM   25  C   UNK N   1      27.364  19.374   4.011  0.00  0.00     0.210 C 
ENDBRANCH  21  24
ENDBRANCH  17  18
ENDBRANCH  15  17
ENDBRANCH   1  15
TORSDOF 7
ENDMDL
MODEL 2
REMARK VINA RESULT:      -6.5     14.245     17.403
REMARK  7 active torsions:
REMARK  status: ('A' for Active; 'I' for Inactive)
REMARK    1  A    between atoms: C_1  and  S_12 
REMARK    2  A    between atoms: C_2  and  C_3 
REMARK    3  A    between atoms: C_2  and  N_20 
REMARK    4  A    between atoms: C_6  and  O_21 
REMARK    5  A    between atoms: N_11  and  S_12 
REMARK    6  A    between atoms: C_15  and  S_17 
REMARK    7  A    between atoms: S_17  and  N_20 
ROOT
HETATM    1  S   UNK N   1      26.744  23.768  -7.568  0.00  0.00     0.265 S 
HETATM    2  O   UNK N   1      27.157  22.702  -8.594  0.00  0.00    -0.200 OA
HETATM    3  O   UNK N   1      25.232  23.518  -7.444  0.00  0.00    -0.200 OA
ENDROOT
BRANCH   1   4
HETATM    4  C   UNK N   1      27.654  23.592  -6.048  0.00  0.00     0.121 A 
HETATM    5  C   UNK N   1      27.330  24.162  -4.816  0.00  0.00     0.035 A 
HETATM    6  C   UNK N   1      28.314  23.919  -3.810  0.00  0.00     0.035 A 
HETATM    7  C   UNK N   1      29.406  23.164  -4.265  0.00  0.00     0.121 A 
HETATM    8  S   UNK N   1      29.109  22.835  -5.895  0.00  0.00    -0.063 SA
BRANCH   7   9
HETATM    9  S   UNK N   1      30.864  22.771  -3.216  0.00  0.00     0.263 S 
HETATM   10  O   UNK N   1      30.827  23.065  -1.709  0.00  0.00    -0.200 OA
HETATM   11  O   UNK N   1      29.693  21.890  -2.756  0.00  0.00    -0.200 OA
BRANCH   9  12
HETATM   12  N   UNK N   1      30.424  24.478  -3.093  0.00  0.00    -0.324 N 
HETATM   13  H   UNK N   1      29.999  25.352  -2.785  0.00  0.00     0.169 HD
HETATM   14  H   UNK N   1      30.983  24.839  -3.867  0.00  0.00     0.169 HD
ENDBRANCH   9  12
ENDBRANCH   7   9
ENDBRANCH   1   4
BRANCH   1  15
HETATM   15  N   UNK N   1      26.965  25.297  -8.430  0.00  0.00    -0.311 N 
HETATM   16  H   UNK N   1      27.772  25.543  -9.004  0.00  0.00     0.172 HD
BRANCH  15  17
HETATM   17  C   UNK N   1      25.811  26.150  -8.189  0.00  0.00     0.170 C 
BRANCH  17  18
HETATM   18  C   UNK N   1      26.036  26.933  -6.943  0.00  0.00    -0.040 A 
HETATM   19  C   UNK N   1      25.078  26.917  -5.926  0.00  0.00     0.011 A 
HETATM   20  C   UNK N   1      25.266  27.687  -4.775  0.00  0.00     0.037 A 
HETATM   21  C   UNK N   1      26.412  28.479  -4.635  0.00  0.00     0.068 A 
HETATM   22  C   UNK N   1      27.378  28.483  -5.657  0.00  0.00     0.037 A 
HETATM   23  C   UNK N   1      27.190  27.712  -6.804  0.00  0.00     0.011 A 
BRANCH  21  24
HETATM   24  O   UNK N   1      26.561  29.228  -3.517  0.00  0.00    -0.356 OA
HETATM   25  C   UNK N   1      26.488  30.603  -3.519  0.00  0.00     0.210 C 
ENDBRANCH  21  24
ENDBRANCH  17  18
ENDBRANCH  15  17
ENDBRANCH   1  15
TORSDOF 7
ENDMDL
MODEL 3
REMARK VINA RESULT:      -6.5      3.019      4.992
REMARK  7 active torsions:
REMARK  status: ('A' for Active; 'I' for Inactive)
REMARK    1  A    between atoms: C_1  and  S_12 
REMARK    2  A    between atoms: C_2  and  C_3 
REMARK    3  A    between atoms: C_2  and  N_20 
REMARK    4  A    between atoms: C_6  and  O_21 
REMARK    5  A    between atoms: N_11  and  S_12 
REMARK    6  A    between atoms: C_15  and  S_17 
REMARK    7  A    between atoms: S_17  and  N_20 
ROOT
HETATM    1  S   UNK N   1      34.043  17.641   8.067  0.00  0.00     0.265 S 
HETATM    2  O   UNK N   1      34.875  16.702   8.953  0.00  0.00    -0.200 OA
HETATM    3  O   UNK N   1      34.808  18.968   8.209  0.00  0.00    -0.200 OA
ENDROOT
BRANCH   1   4
HETATM    4  C   UNK N   1      33.925  17.026   6.401  0.00  0.00     0.121 A 
HETATM    5  C   UNK N   1      33.274  17.644   5.332  0.00  0.00     0.035 A 
HETATM    6  C   UNK N   1      33.269  16.850   4.145  0.00  0.00     0.035 A 
HETATM    7  C   UNK N   1      33.912  15.611   4.297  0.00  0.00     0.121 A 
HETATM    8  S   UNK N   1      34.454  15.550   5.895  0.00  0.00    -0.063 SA
BRANCH   7   9
HETATM    9  S   UNK N   1      33.983  14.346   2.964  0.00  0.00     0.263 S 
HETATM   10  O   UNK N   1      32.721  14.010   2.156  0.00  0.00    -0.200 OA
HETATM   11  O   UNK N   1      33.658  15.702   2.319  0.00  0.00    -0.200 OA
BRANCH   9  12
HETATM   12  N   UNK N   1      32.760  13.939   4.172  0.00  0.00    -0.324 N 
HETATM   13  H   UNK N   1      31.870  13.849   4.662  0.00  0.00     0.169 HD
HETATM   14  H   UNK N   1      33.360  13.465   4.848  0.00  0.00     0.169 HD
ENDBRANCH   9  12
ENDBRANCH   7   9
ENDBRANCH   1   4
BRANCH   1  15
HETATM   15  N   UNK N   1      32.514  17.809   8.941  0.00  0.00    -0.311 N 
HETATM   16  H   UNK N   1      32.303  18.527   9.634  0.00  0.00     0.172 HD
BRANCH  15  17
HETATM   17  C   UNK N   1      31.604  16.757   8.513  0.00  0.00     0.170 C 
BRANCH  17  18
HETATM   18  C   UNK N   1      30.431  17.374   7.836  0.00  0.00    -0.040 A 
HETATM   19  C   UNK N   1      29.670  18.341   8.498  0.00  0.00     0.011 A 
HETATM   20  C   UNK N   1      28.542  18.887   7.882  0.00  0.00     0.037 A 
HETATM   21  C   UNK N   1      28.166  18.469   6.599  0.00  0.00     0.068 A 
HETATM   22  C   UNK N   1      28.941  17.503   5.933  0.00  0.00     0.037 A 
HETATM   23  C   UNK N   1      30.068  16.960   6.549  0.00  0.00     0.011 A 
BRANCH  21  24
HETATM   24  O   UNK N   1      27.059  19.003   6.033  0.00  0.00    -0.356 OA
HETATM   25  C   UNK N   1      26.763  20.347   6.081  0.00  0.00     0.210 C 
ENDBRANCH  21  24
ENDBRANCH  17  18
ENDBRANCH  15  17
ENDBRANCH   1  15
TORSDOF 7
ENDMDL
MODEL 4
REMARK VINA RESULT:      -6.4      5.665     10.757
REMARK  7 active torsions:
REMARK  status: ('A' for Active; 'I' for Inactive)
REMARK    1  A    between atoms: C_1  and  S_12 
REMARK    2  A    between atoms: C_2  and  C_3 
REMARK    3  A    between atoms: C_2  and  N_20 
REMARK    4  A    between atoms: C_6  and  O_21 
REMARK    5  A    between atoms: N_11  and  S_12 
REMARK    6  A    between atoms: C_15  and  S_17 
REMARK    7  A    between atoms: S_17  and  N_20 
ROOT
HETATM    1  S   UNK N   1      26.947  18.248   4.756  0.00  0.00     0.265 S 
HETATM    2  O   UNK N   1      26.945  16.722   4.576  0.00  0.00    -0.200 OA
HETATM    3  O   UNK N   1      28.291  18.638   4.117  0.00  0.00    -0.200 OA
ENDROOT
BRANCH   1   4
HETATM    4  C   UNK N   1      25.520  18.993   3.997  0.00  0.00     0.121 A 
HETATM    5  C   UNK N   1      25.465  20.243   3.380  0.00  0.00     0.035 A 
HETATM    6  C   UNK N   1      24.149  20.603   2.958  0.00  0.00     0.035 A 
HETATM    7  C   UNK N   1      23.181  19.630   3.254  0.00  0.00     0.121 A 
HETATM    8  S   UNK N   1      23.994  18.371   4.031  0.00  0.00    -0.063 SA
BRANCH   7   9
HETATM    9  S   UNK N   1      21.389  19.858   2.907  0.00  0.00     0.263 S 
HETATM   10  O   UNK N   1      20.499  20.596   3.918  0.00  0.00    -0.200 OA
HETATM   11  O   UNK N   1      22.048  21.245   2.947  0.00  0.00    -0.200 OA
BRANCH   9  12
HETATM   12  N   UNK N   1      21.646  19.020   4.441  0.00  0.00    -0.324 N 
HETATM   13  H   UNK N   1      21.951  18.342   5.140  0.00  0.00     0.169 HD
HETATM   14  H   UNK N   1      21.135  19.657   5.054  0.00  0.00     0.169 HD
ENDBRANCH   9  12
ENDBRANCH   7   9
ENDBRANCH   1   4
BRANCH   1  15
HETATM   15  N   UNK N   1      27.100  18.471   6.504  0.00  0.00    -0.311 N 
HETATM   16  H   UNK N   1      26.912  19.337   7.010  0.00  0.00     0.172 HD
BRANCH  15  17
HETATM   17  C   UNK N   1      27.538  17.221   7.107  0.00  0.00     0.170 C 
BRANCH  17  18
HETATM   18  C   UNK N   1      28.982  17.326   7.451  0.00  0.00    -0.040 A 
HETATM   19  C   UNK N   1      29.926  16.577   6.744  0.00  0.00     0.011 A 
HETATM   20  C   UNK N   1      31.276  16.639   7.096  0.00  0.00     0.037 A 
HETATM   21  C   UNK N   1      31.692  17.450   8.158  0.00  0.00     0.068 A 
HETATM   22  C   UNK N   1      30.740  18.209   8.861  0.00  0.00     0.037 A 
HETATM   23  C   UNK N   1      29.392  18.148   8.507  0.00  0.00     0.011 A 
BRANCH  21  24
HETATM   24  O   UNK N   1      33.004  17.478   8.489  0.00  0.00    -0.356 OA
HETATM   25  C   UNK N   1      33.892  18.389   7.963  0.00  0.00     0.210 C 
ENDBRANCH  21  24
ENDBRANCH  17  18
ENDBRANCH  15  17
ENDBRANCH   1  15
TORSDOF 7
ENDMDL
MODEL 5
REMARK VINA RESULT:      -6.4     16.246     18.394
REMARK  7 active torsions:
REMARK  status: ('A' for Active; 'I' for Inactive)
REMARK    1  A    between atoms: C_1  and  S_12 
REMARK    2  A    between atoms: C_2  and  C_3 
REMARK    3  A    between atoms: C_2  and  N_20 
REMARK    4  A    between atoms: C_6  and  O_21 
REMARK    5  A    between atoms: N_11  and  S_12 
REMARK    6  A    between atoms: C_15  and  S_17 
REMARK    7  A    between atoms: S_17  and  N_20 
ROOT
HETATM    1  S   UNK N   1      25.479  23.445  -8.432  0.00  0.00     0.265 S 
HETATM    2  O   UNK N   1      24.335  22.432  -8.273  0.00  0.00    -0.200 OA
HETATM    3  O   UNK N   1      24.927  24.375  -9.524  0.00  0.00    -0.200 OA
ENDROOT
BRANCH   1   4
HETATM    4  C   UNK N   1      25.852  24.249  -6.888  0.00  0.00     0.121 A 
HETATM    5  C   UNK N   1      25.819  23.667  -5.620  0.00  0.00     0.035 A 
HETATM    6  C   UNK N   1      26.070  24.600  -4.569  0.00  0.00     0.035 A 
HETATM    7  C   UNK N   1      26.293  25.909  -5.023  0.00  0.00     0.121 A 
HETATM    8  S   UNK N   1      26.163  25.856  -6.707  0.00  0.00    -0.063 SA
BRANCH   7   9
HETATM    9  S   UNK N   1      26.555  27.336  -3.892  0.00  0.00     0.263 S 
HETATM   10  O   UNK N   1      25.424  27.793  -2.958  0.00  0.00    -0.200 OA
HETATM   11  O   UNK N   1      26.333  26.080  -3.036  0.00  0.00    -0.200 OA
BRANCH   9  12
HETATM   12  N   UNK N   1      25.165  27.601  -4.951  0.00  0.00    -0.324 N 
HETATM   13  H   UNK N   1      24.273  27.485  -5.432  0.00  0.00     0.169 HD
HETATM   14  H   UNK N   1      25.458  28.482  -5.375  0.00  0.00     0.169 HD
ENDBRANCH   9  12
ENDBRANCH   7   9
ENDBRANCH   1   4
BRANCH   1  15
HETATM   15  N   UNK N   1      26.791  22.497  -9.148  0.00  0.00    -0.311 N 
HETATM   16  H   UNK N   1      27.461  22.839  -9.836  0.00  0.00     0.172 HD
BRANCH  15  17
HETATM   17  C   UNK N   1      26.760  21.150  -8.598  0.00  0.00     0.170 C 
BRANCH  17  18
HETATM   18  C   UNK N   1      28.053  20.873  -7.916  0.00  0.00    -0.040 A 
HETATM   19  C   UNK N   1      28.683  19.637  -8.088  0.00  0.00     0.011 A 
HETATM   20  C   UNK N   1      29.873  19.358  -7.412  0.00  0.00     0.037 A 
HETATM   21  C   UNK N   1      30.442  20.312  -6.560  0.00  0.00     0.068 A 
HETATM   22  C   UNK N   1      29.810  21.558  -6.399  0.00  0.00     0.037 A 
HETATM   23  C   UNK N   1      28.622  21.836  -7.075  0.00  0.00     0.011 A 
BRANCH  21  24
HETATM   24  O   UNK N   1      31.587  20.008  -5.905  0.00  0.00    -0.356 OA
HETATM   25  C   UNK N   1      32.687  20.836  -5.893  0.00  0.00     0.210 C 
ENDBRANCH  21  24
ENDBRANCH  17  18
ENDBRANCH  15  17
ENDBRANCH   1  15
TORSDOF 7
ENDMDL
MODEL 6
REMARK VINA RESULT:      -6.2      2.497      3.229
REMARK  7 active torsions:
REMARK  status: ('A' for Active; 'I' for Inactive)
REMARK    1  A    between atoms: C_1  and  S_12 
REMARK    2  A    between atoms: C_2  and  C_3 
REMARK    3  A    between atoms: C_2  and  N_20 
REMARK    4  A    between atoms: C_6  and  O_21 
REMARK    5  A    between atoms: N_11  and  S_12 
REMARK    6  A    between atoms: C_15  and  S_17 
REMARK    7  A    between atoms: S_17  and  N_20 
ROOT
HETATM    1  S   UNK N   1      32.638  15.625   5.168  0.00  0.00     0.265 S 
HETATM    2  O   UNK N   1      33.513  16.021   3.969  0.00  0.00    -0.200 OA
HETATM    3  O   UNK N   1      32.616  14.092   5.050  0.00  0.00    -0.200 OA
ENDROOT
BRANCH   1   4
HETATM    4  C   UNK N   1      33.313  16.244   6.695  0.00  0.00     0.121 A 
HETATM    5  C   UNK N   1      33.712  17.556   6.955  0.00  0.00     0.035 A 
HETATM    6  C   UNK N   1      34.308  17.716   8.242  0.00  0.00     0.035 A 
HETATM    7  C   UNK N   1      34.377  16.523   8.980  0.00  0.00     0.121 A 
HETATM    8  S   UNK N   1      33.702  15.322   8.003  0.00  0.00    -0.063 SA
BRANCH   7   9
HETATM    9  S   UNK N   1      35.172  16.408  10.634  0.00  0.00     0.263 S 
HETATM   10  O   UNK N   1      36.704  16.362  10.747  0.00  0.00    -0.200 OA
HETATM   11  O   UNK N   1      35.571  17.751  10.003  0.00  0.00    -0.200 OA
BRANCH   9  12
HETATM   12  N   UNK N   1      35.670  15.075   9.586  0.00  0.00    -0.324 N 
HETATM   13  H   UNK N   1      36.096  14.540   8.830  0.00  0.00     0.169 HD
HETATM   14  H   UNK N   1      35.215  14.308  10.084  0.00  0.00     0.169 HD
ENDBRANCH   9  12
ENDBRANCH   7   9
ENDBRANCH   1   4
BRANCH   1  15
HETATM   15  N   UNK N   1      31.029  16.219   4.736  0.00  0.00    -0.311 N 
HETATM   16  H   UNK N   1      30.791  16.712   3.875  0.00  0.00     0.172 HD
BRANCH  15  17
HETATM   17  C   UNK N   1      30.098  15.892   5.805  0.00  0.00     0.170 C 
BRANCH  17  18
HETATM   18  C   UNK N   1      29.300  17.102   6.143  0.00  0.00    -0.040 A 
HETATM   19  C   UNK N   1      28.677  17.834   5.128  0.00  0.00     0.011 A 
HETATM   20  C   UNK N   1      27.966  18.996   5.438  0.00  0.00     0.037 A 
HETATM   21  C   UNK N   1      27.874  19.435   6.764  0.00  0.00     0.068 A 
HETATM   22  C   UNK N   1      28.495  18.689   7.783  0.00  0.00     0.037 A 
HETATM   23  C   UNK N   1      29.203  17.529   7.472  0.00  0.00     0.011 A 
BRANCH  21  24
HETATM   24  O   UNK N   1      27.194  20.573   7.034  0.00  0.00    -0.356 OA
HETATM   25  C   UNK N   1      27.144  21.642   6.168  0.00  0.00     0.210 C 
ENDBRANCH  21  24
ENDBRANCH  17  18
ENDBRANCH  15  17
ENDBRANCH   1  15
TORSDOF 7
ENDMDL
MODEL 7
REMARK VINA RESULT:      -6.1      3.480      5.901
REMARK  7 active torsions:
REMARK  status: ('A' for Active; 'I' for Inactive)
REMARK    1  A    between atoms: C_1  and  S_12 
REMARK    2  A    between atoms: C_2  and  C_3 
REMARK    3  A    between atoms: C_2  and  N_20 
REMARK    4  A    between atoms: C_6  and  O_21 
REMARK    5  A    between atoms: N_11  and  S_12 
REMARK    6  A    between atoms: C_15  and  S_17 
REMARK    7  A    between atoms: S_17  and  N_20 
ROOT
HETATM    1  S   UNK N   1      28.549  16.997   6.494  0.00  0.00     0.265 S 
HETATM    2  O   UNK N   1      28.310  15.769   5.603  0.00  0.00    -0.200 OA
HETATM    3  O   UNK N   1      27.465  16.821   7.571  0.00  0.00    -0.200 OA
ENDROOT
BRANCH   1   4
HETATM    4  C   UNK N   1      30.216  17.033   7.116  0.00  0.00     0.121 A 
HETATM    5  C   UNK N   1      30.689  17.803   8.180  0.00  0.00     0.035 A 
HETATM    6  C   UNK N   1      32.099  17.688   8.371  0.00  0.00     0.035 A 
HETATM    7  C   UNK N   1      32.721  16.832   7.449  0.00  0.00     0.121 A 
HETATM    8  S   UNK N   1      31.500  16.260   6.433  0.00  0.00    -0.063 SA
BRANCH   7   9
HETATM    9  S   UNK N   1      34.540  16.561   7.399  0.00  0.00     0.263 S 
HETATM   10  O   UNK N   1      35.220  16.160   6.081  0.00  0.00    -0.200 OA
HETATM   11  O   UNK N   1      34.211  17.763   6.501  0.00  0.00    -0.200 OA
BRANCH   9  12
HETATM   12  N   UNK N   1      33.660  15.132   6.845  0.00  0.00    -0.324 N 
HETATM   13  H   UNK N   1      33.337  14.171   6.737  0.00  0.00     0.169 HD
HETATM   14  H   UNK N   1      33.055  15.579   6.155  0.00  0.00     0.169 HD
ENDBRANCH   9  12
ENDBRANCH   7   9
ENDBRANCH   1   4
BRANCH   1  15
HETATM   15  N   UNK N   1      28.073  18.362   5.473  0.00  0.00    -0.311 N 
HETATM   16  H   UNK N   1      28.226  19.347   5.692  0.00  0.00     0.172 HD
BRANCH  15  17
HETATM   17  C   UNK N   1      27.427  17.856   4.272  0.00  0.00     0.170 C 
BRANCH  17  18
HETATM   18  C   UNK N   1      26.274  18.733   3.933  0.00  0.00    -0.040 A 
HETATM   19  C   UNK N   1      24.969  18.307   4.198  0.00  0.00     0.011 A 
HETATM   20  C   UNK N   1      23.884  19.109   3.838  0.00  0.00     0.037 A 
HETATM   21  C   UNK N   1      24.094  20.342   3.209  0.00  0.00     0.068 A 
HETATM   22  C   UNK N   1      25.409  20.771   2.954  0.00  0.00     0.037 A 
HETATM   23  C   UNK N   1      26.492  19.970   3.315  0.00  0.00     0.011 A 
BRANCH  21  24
HETATM   24  O   UNK N   1      23.024  21.091   2.856  0.00  0.00    -0.356 OA
HETATM   25  C   UNK N   1      21.785  20.552   2.588  0.00  0.00     0.210 C 
ENDBRANCH  21  24
ENDBRANCH  17  18
ENDBRANCH  15  17
ENDBRANCH   1  15
TORSDOF 7
ENDMDL
MODEL 8
REMARK VINA RESULT:      -6.1      2.234      2.925
REMARK  7 active torsions:
REMARK  status: ('A' for Active; 'I' for Inactive)
REMARK    1  A    between atoms: C_1  and  S_12 
REMARK    2  A    between atoms: C_2  and  C_3 
REMARK    3  A    between atoms: C_2  and  N_20 
REMARK    4  A    between atoms: C_6  and  O_21 
REMARK    5  A    between atoms: N_11  and  S_12 
REMARK    6  A    between atoms: C_15  and  S_17 
REMARK    7  A    between atoms: S_17  and  N_20 
ROOT
HETATM    1  S   UNK N   1      34.987  15.895  10.014  0.00  0.00     0.265 S 
HETATM    2  O   UNK N   1      35.698  17.216  10.346  0.00  0.00    -0.200 OA
HETATM    3  O   UNK N   1      35.625  15.524   8.665  0.00  0.00    -0.200 OA
ENDROOT
BRANCH   1   4
HETATM    4  C   UNK N   1      35.220  14.691  11.303  0.00  0.00     0.121 A 
HETATM    5  C   UNK N   1      34.709  13.392  11.329  0.00  0.00     0.035 A 
HETATM    6  C   UNK N   1      34.987  12.705  12.550  0.00  0.00     0.035 A 
HETATM    7  C   UNK N   1      35.710  13.475  13.474  0.00  0.00     0.121 A 
HETATM    8  S   UNK N   1      35.969  14.975  12.743  0.00  0.00    -0.063 SA
BRANCH   7   9
HETATM    9  S   UNK N   1      36.134  12.882  15.163  0.00  0.00     0.263 S 
HETATM   10  O   UNK N   1      35.952  13.812  16.371  0.00  0.00    -0.200 OA
HETATM   11  O   UNK N   1      34.623  13.157  15.117  0.00  0.00    -0.200 OA
BRANCH   9  12
HETATM   12  N   UNK N   1      37.030  14.348  14.752  0.00  0.00    -0.324 N 
HETATM   13  H   UNK N   1      37.786  15.020  14.617  0.00  0.00     0.169 HD
HETATM   14  H   UNK N   1      36.253  14.917  14.415  0.00  0.00     0.169 HD
ENDBRANCH   9  12
ENDBRANCH   7   9
ENDBRANCH   1   4
BRANCH   1  15
HETATM   15  N   UNK N   1      33.314  16.379   9.700  0.00  0.00    -0.311 N 
HETATM   16  H   UNK N   1      32.487  15.970  10.136  0.00  0.00     0.172 HD
BRANCH  15  17
HETATM   17  C   UNK N   1      33.305  17.454   8.720  0.00  0.00     0.170 C 
BRANCH  17  18
HETATM   18  C   UNK N   1      31.949  17.551   8.115  0.00  0.00    -0.040 A 
HETATM   19  C   UNK N   1      30.901  18.127   8.839  0.00  0.00     0.011 A 
HETATM   20  C   UNK N   1      29.617  18.177   8.292  0.00  0.00     0.037 A 
HETATM   21  C   UNK N   1      29.371  17.651   7.018  0.00  0.00     0.068 A 
HETATM   22  C   UNK N   1      30.431  17.081   6.290  0.00  0.00     0.037 A 
HETATM   23  C   UNK N   1      31.713  17.033   6.837  0.00  0.00     0.011 A 
BRANCH  21  24
HETATM   24  O   UNK N   1      28.113  17.697   6.519  0.00  0.00    -0.356 OA
HETATM   25  C   UNK N   1      27.835  17.616   5.173  0.00  0.00     0.210 C 
ENDBRANCH  21  24
ENDBRANCH  17  18
ENDBRANCH  15  17
ENDBRANCH   1  15
TORSDOF 7
ENDMDL
MODEL 9
REMARK VINA RESULT:      -6.1     10.163     11.543
REMARK  7 active torsions:
REMARK  status: ('A' for Active; 'I' for Inactive)
REMARK    1  A    between atoms: C_1  and  S_12 
REMARK    2  A    between atoms: C_2  and  C_3 
REMARK    3  A    between atoms: C_2  and  N_20 
REMARK    4  A    between atoms: C_6  and  O_21 
REMARK    5  A    between atoms: N_11  and  S_12 
REMARK    6  A    between atoms: C_15  and  S_17 
REMARK    7  A    between atoms: S_17  and  N_20 
ROOT
HETATM    1  S   UNK N   1      20.501  16.157   7.248  0.00  0.00     0.265 S 
HETATM    2  O   UNK N   1      18.983  16.084   7.028  0.00  0.00    -0.200 OA
HETATM    3  O   UNK N   1      20.664  17.560   7.857  0.00  0.00    -0.200 OA
ENDROOT
BRANCH   1   4
HETATM    4  C   UNK N   1      21.071  14.826   8.283  0.00  0.00     0.121 A 
HETATM    5  C   UNK N   1      20.526  14.433   9.506  0.00  0.00     0.035 A 
HETATM    6  C   UNK N   1      21.271  13.396  10.144  0.00  0.00     0.035 A 
HETATM    7  C   UNK N   1      22.400  12.989   9.417  0.00  0.00     0.121 A 
HETATM    8  S   UNK N   1      22.431  13.934   8.018  0.00  0.00    -0.063 SA
BRANCH   7   9
HETATM    9  S   UNK N   1      23.594  11.733  10.034  0.00  0.00     0.263 S 
HETATM   10  O   UNK N   1      24.233  11.899  11.422  0.00  0.00    -0.200 OA
HETATM   11  O   UNK N   1      22.361  11.710  10.949  0.00  0.00    -0.200 OA
BRANCH   9  12
HETATM   12  N   UNK N   1      24.309  13.349  10.020  0.00  0.00    -0.324 N 
HETATM   13  H   UNK N   1      24.762  14.209   9.711  0.00  0.00     0.169 HD
HETATM   14  H   UNK N   1      24.176  13.588  11.004  0.00  0.00     0.169 HD
ENDBRANCH   9  12
ENDBRANCH   7   9
ENDBRANCH   1   4
BRANCH   1  15
HETATM   15  N   UNK N   1      21.167  16.204   5.609  0.00  0.00    -0.311 N 
HETATM   16  H   UNK N   1      21.941  15.634   5.268  0.00  0.00     0.172 HD
BRANCH  15  17
HETATM   17  C   UNK N   1      20.435  17.188   4.826  0.00  0.00     0.170 C 
BRANCH  17  18
HETATM   18  C   UNK N   1      21.402  18.139   4.214  0.00  0.00    -0.040 A 
HETATM   19  C   UNK N   1      22.767  18.020   4.484  0.00  0.00     0.011 A 
HETATM   20  C   UNK N   1      23.671  18.940   3.948  0.00  0.00     0.037 A 
HETATM   21  C   UNK N   1      23.216  19.987   3.138  0.00  0.00     0.068 A 
HETATM   22  C   UNK N   1      21.841  20.097   2.860  0.00  0.00     0.037 A 
HETATM   23  C   UNK N   1      20.940  19.176   3.395  0.00  0.00     0.011 A 
BRANCH  21  24
HETATM   24  O   UNK N   1      24.111  20.874   2.645  0.00  0.00    -0.356 OA
HETATM   25  C   UNK N   1      25.468  20.642   2.630  0.00  0.00     0.210 C 
ENDBRANCH  21  24
ENDBRANCH  17  18
ENDBRANCH  15  17
ENDBRANCH   1  15
TORSDOF 7
ENDMDL
