MODEL 1
REMARK VINA RESULT:      -6.8      0.000      0.000
REMARK  10 active torsions:
REMARK  status: ('A' for Active; 'I' for Inactive)
REMARK    1  A    between atoms: C_2  and  S_3 
REMARK    2  A    between atoms: S_3  and  C_4 
REMARK    3  A    between atoms: C_4  and  C_5 
REMARK    4  A    between atoms: C_5  and  C_6 
REMARK    5  A    between atoms: C_6  and  C_7 
REMARK    6  A    between atoms: C_6  and  N_24 
REMARK    7  A    between atoms: C_7  and  C_8 
REMARK    8  A    between atoms: C_7  and  O_23 
REMARK       I    between atoms: C_8  and  N_9 
REMARK    9  A    between atoms: N_9  and  C_10 
REMARK   10  A    between atoms: C_10  and  C_11 
ROOT
HETATM    1  C   UNK N   1      35.451  15.372   9.123  0.00  0.00     0.249 C 
HETATM    2  N   UNK N   1      34.855  16.091   8.125  0.00  0.00    -0.350 N 
HETATM    3  O   UNK N   1      35.904  14.272   8.847  0.00  0.00    -0.271 OA
HETATM    4  H   UNK N   1      35.026  15.766   7.211  0.00  0.00     0.163 HD
ENDROOT
BRANCH   1   5
HETATM    5  C   UNK N   1      35.613  15.909  10.538  0.00  0.00     0.232 C 
BRANCH   5   6
HETATM    6  C   UNK N   1      35.019  15.028  11.658  0.00  0.00     0.112 C 
BRANCH   6   7
HETATM    7  C   UNK N   1      36.103  14.241  12.402  0.00  0.00     0.037 C 
BRANCH   7   8
HETATM    8  C   UNK N   1      35.559  13.531  13.634  0.00  0.00     0.076 C 
BRANCH   8   9
HETATM    9  S   UNK N   1      36.605  13.938  15.066  0.00  0.00    -0.169 SA
BRANCH   9  10
HETATM   10  C   UNK N   1      35.887  12.619  16.082  0.00  0.00     0.069 C 
HETATM   11  C   UNK N   1      35.079  13.238  17.204  0.00  0.00     0.016 C 
ENDBRANCH   9  10
ENDBRANCH   8   9
ENDBRANCH   7   8
ENDBRANCH   6   7
BRANCH   6  12
HETATM   12  N   UNK N   1      34.021  14.118  11.117  0.00  0.00    -0.423 N 
HETATM   13  H   UNK N   1      33.449  13.550  11.743  0.00  0.00     0.150 HD
HETATM   14  H   UNK N   1      33.892  14.049  10.108  0.00  0.00     0.150 HD
ENDBRANCH   6  12
ENDBRANCH   5   6
BRANCH   5  15
HETATM   15  O   UNK N   1      36.980  16.055  10.800  0.00  0.00    -0.384 OA
HETATM   16  H   UNK N   1      37.295  16.716  11.436  0.00  0.00     0.210 HD
ENDBRANCH   5  15
ENDBRANCH   1   5
BRANCH   2  17
HETATM   17  C   UNK N   1      34.001  17.270   8.218  0.00  0.00     0.114 C 
HETATM   18  C   UNK N   1      34.731  18.607   8.304  0.00  0.00     0.037 C 
BRANCH  17  19
HETATM   19  C   UNK N   1      33.076  17.294   7.016  0.00  0.00    -0.025 A 
HETATM   20  C   UNK N   1      33.639  17.254   5.727  0.00  0.00     0.010 A 
HETATM   21  C   UNK N   1      32.838  17.295   4.588  0.00  0.00     0.002 A 
HETATM   22  C   UNK N   1      31.452  17.352   4.710  0.00  0.00     0.012 A 
HETATM   23  C   UNK N   1      30.860  17.362   5.973  0.00  0.00    -0.025 A 
HETATM   24  C   UNK N   1      31.665  17.337   7.141  0.00  0.00    -0.018 A 
HETATM   25  C   UNK N   1      29.467  17.384   6.080  0.00  0.00     0.012 A 
HETATM   26  C   UNK N   1      31.038  17.330   8.397  0.00  0.00     0.013 A 
HETATM   27  C   UNK N   1      29.644  17.346   8.493  0.00  0.00     0.001 A 
HETATM   28  C   UNK N   1      28.860  17.374   7.337  0.00  0.00     0.001 A 
ENDBRANCH  17  19
ENDBRANCH   2  17
TORSDOF 10
ENDMDL
MODEL 2
REMARK VINA RESULT:      -6.6      3.069      9.822
REMARK  10 active torsions:
REMARK  status: ('A' for Active; 'I' for Inactive)
REMARK    1  A    between atoms: C_2  and  S_3 
REMARK    2  A    between atoms: S_3  and  C_4 
REMARK    3  A    between atoms: C_4  and  C_5 
REMARK    4  A    between atoms: C_5  and  C_6 
REMARK    5  A    between atoms: C_6  and  C_7 
REMARK    6  A    between atoms: C_6  and  N_24 
REMARK    7  A    between atoms: C_7  and  C_8 
REMARK    8  A    between atoms: C_7  and  O_23 
REMARK       I    between atoms: C_8  and  N_9 
REMARK    9  A    between atoms: N_9  and  C_10 
REMARK   10  A    between atoms: C_10  and  C_11 
ROOT
HETATM    1  C   UNK N   1      36.549  12.333  12.428  0.00  0.00     0.249 C 
HETATM    2  N   UNK N   1      36.125  11.399  13.331  0.00  0.00    -0.350 N 
HETATM    3  O   UNK N   1      37.744  12.397  12.185  0.00  0.00    -0.271 OA
HETATM    4  H   UNK N   1      36.783  10.702  13.558  0.00  0.00     0.163 HD
ENDROOT
BRANCH   1   5
HETATM    5  C   UNK N   1      35.590  13.252  11.684  0.00  0.00     0.232 C 
BRANCH   5   6
HETATM    6  C   UNK N   1      35.660  14.744  12.071  0.00  0.00     0.112 C 
BRANCH   6   7
HETATM    7  C   UNK N   1      36.251  15.600  10.946  0.00  0.00     0.037 C 
BRANCH   7   8
HETATM    8  C   UNK N   1      35.350  16.768  10.573  0.00  0.00     0.076 C 
BRANCH   8   9
HETATM    9  S   UNK N   1      34.223  16.251   9.241  0.00  0.00    -0.169 SA
BRANCH   9  10
HETATM   10  C   UNK N   1      34.334  17.852   8.399  0.00  0.00     0.069 C 
HETATM   11  C   UNK N   1      33.905  17.687   6.955  0.00  0.00     0.016 C 
ENDBRANCH   9  10
ENDBRANCH   8   9
ENDBRANCH   7   8
ENDBRANCH   6   7
BRANCH   6  12
HETATM   12  N   UNK N   1      36.433  14.920  13.292  0.00  0.00    -0.423 N 
HETATM   13  H   UNK N   1      36.952  15.783  13.453  0.00  0.00     0.150 HD
HETATM   14  H   UNK N   1      36.454  14.176  13.990  0.00  0.00     0.150 HD
ENDBRANCH   6  12
ENDBRANCH   5   6
BRANCH   5  15
HETATM   15  O   UNK N   1      35.862  13.160  10.315  0.00  0.00    -0.384 OA
HETATM   16  H   UNK N   1      36.687  12.761   9.998  0.00  0.00     0.210 HD
ENDBRANCH   5  15
ENDBRANCH   1   5
BRANCH   2  17
HETATM   17  C   UNK N   1      34.838  11.285  14.009  0.00  0.00     0.114 C 
HETATM   18  C   UNK N   1      33.791  10.437  13.295  0.00  0.00     0.037 C 
BRANCH  17  19
HETATM   19  C   UNK N   1      35.071  10.713  15.395  0.00  0.00    -0.025 A 
HETATM   20  C   UNK N   1      35.270   9.327  15.530  0.00  0.00     0.010 A 
HETATM   21  C   UNK N   1      35.466   8.744  16.781  0.00  0.00     0.002 A 
HETATM   22  C   UNK N   1      35.492   9.538  17.925  0.00  0.00     0.012 A 
HETATM   23  C   UNK N   1      35.329  10.920  17.822  0.00  0.00    -0.025 A 
HETATM   24  C   UNK N   1      35.112  11.523  16.556  0.00  0.00    -0.018 A 
HETATM   25  C   UNK N   1      35.391  11.707  18.974  0.00  0.00     0.012 A 
HETATM   26  C   UNK N   1      34.968  12.917  16.486  0.00  0.00     0.013 A 
HETATM   27  C   UNK N   1      35.040  13.697  17.643  0.00  0.00     0.001 A 
HETATM   28  C   UNK N   1      35.250  13.094  18.885  0.00  0.00     0.001 A 
ENDBRANCH  17  19
ENDBRANCH   2  17
TORSDOF 10
ENDMDL
MODEL 3
REMARK VINA RESULT:      -6.5      2.965      8.337
REMARK  10 active torsions:
REMARK  status: ('A' for Active; 'I' for Inactive)
REMARK    1  A    between atoms: C_2  and  S_3 
REMARK    2  A    between atoms: S_3  and  C_4 
REMARK    3  A    between atoms: C_4  and  C_5 
REMARK    4  A    between atoms: C_5  and  C_6 
REMARK    5  A    between atoms: C_6  and  C_7 
REMARK    6  A    between atoms: C_6  and  N_24 
REMARK    7  A    between atoms: C_7  and  C_8 
REMARK    8  A    between atoms: C_7  and  O_23 
REMARK       I    between atoms: C_8  and  N_9 
REMARK    9  A    between atoms: N_9  and  C_10 
REMARK   10  A    between atoms: C_10  and  C_11 
ROOT
HETATM    1  C   UNK N   1      35.412  15.993  10.607  0.00  0.00     0.249 C 
HETATM    2  N   UNK N   1      36.124  15.316  11.558  0.00  0.00    -0.350 N 
HETATM    3  O   UNK N   1      35.267  17.197  10.746  0.00  0.00    -0.271 OA
HETATM    4  H   UNK N   1      36.651  15.879  12.170  0.00  0.00     0.163 HD
ENDROOT
BRANCH   1   5
HETATM    5  C   UNK N   1      34.843  15.314   9.370  0.00  0.00     0.232 C 
BRANCH   5   6
HETATM    6  C   UNK N   1      33.307  15.160   9.339  0.00  0.00     0.112 C 
BRANCH   6   7
HETATM    7  C   UNK N   1      32.634  16.289   8.553  0.00  0.00     0.037 C 
BRANCH   7   8
HETATM    8  C   UNK N   1      31.655  15.767   7.512  0.00  0.00     0.076 C 
BRANCH   8   9
HETATM    9  S   UNK N   1      30.348  17.004   7.249  0.00  0.00    -0.169 SA
BRANCH   9  10
HETATM   10  C   UNK N   1      30.459  17.620   8.950  0.00  0.00     0.069 C 
HETATM   11  C   UNK N   1      29.246  18.477   9.250  0.00  0.00     0.016 C 
ENDBRANCH   9  10
ENDBRANCH   8   9
ENDBRANCH   7   8
ENDBRANCH   6   7
BRANCH   6  12
HETATM   12  N   UNK N   1      32.773  15.103  10.691  0.00  0.00    -0.423 N 
HETATM   13  H   UNK N   1      32.308  15.916  11.096  0.00  0.00     0.150 HD
HETATM   14  H   UNK N   1      32.863  14.245  11.236  0.00  0.00     0.150 HD
ENDBRANCH   6  12
ENDBRANCH   5   6
BRANCH   5  15
HETATM   15  O   UNK N   1      35.211  16.063   8.247  0.00  0.00    -0.384 OA
HETATM   16  H   UNK N   1      34.540  16.482   7.688  0.00  0.00     0.210 HD
ENDBRANCH   5  15
ENDBRANCH   1   5
BRANCH   2  17
HETATM   17  C   UNK N   1      36.215  13.880  11.798  0.00  0.00     0.114 C 
HETATM   18  C   UNK N   1      37.487  13.207  11.294  0.00  0.00     0.037 C 
BRANCH  17  19
HETATM   19  C   UNK N   1      36.085  13.630  13.289  0.00  0.00    -0.025 A 
HETATM   20  C   UNK N   1      36.715  14.518  14.181  0.00  0.00     0.010 A 
HETATM   21  C   UNK N   1      36.648  14.324  15.560  0.00  0.00     0.002 A 
HETATM   22  C   UNK N   1      35.928  13.251  16.080  0.00  0.00     0.012 A 
HETATM   23  C   UNK N   1      35.267  12.370  15.224  0.00  0.00    -0.025 A 
HETATM   24  C   UNK N   1      35.341  12.547  13.818  0.00  0.00    -0.018 A 
HETATM   25  C   UNK N   1      34.521  11.318  15.762  0.00  0.00     0.012 A 
HETATM   26  C   UNK N   1      34.650  11.653  12.985  0.00  0.00     0.013 A 
HETATM   27  C   UNK N   1      33.900  10.609  13.533  0.00  0.00     0.001 A 
HETATM   28  C   UNK N   1      33.837  10.441  14.918  0.00  0.00     0.001 A 
ENDBRANCH  17  19
ENDBRANCH   2  17
TORSDOF 10
ENDMDL
MODEL 4
REMARK VINA RESULT:      -6.5      5.662      9.224
REMARK  10 active torsions:
REMARK  status: ('A' for Active; 'I' for Inactive)
REMARK    1  A    between atoms: C_2  and  S_3 
REMARK    2  A    between atoms: S_3  and  C_4 
REMARK    3  A    between atoms: C_4  and  C_5 
REMARK    4  A    between atoms: C_5  and  C_6 
REMARK    5  A    between atoms: C_6  and  C_7 
REMARK    6  A    between atoms: C_6  and  N_24 
REMARK    7  A    between atoms: C_7  and  C_8 
REMARK    8  A    between atoms: C_7  and  O_23 
REMARK       I    between atoms: C_8  and  N_9 
REMARK    9  A    between atoms: N_9  and  C_10 
REMARK   10  A    between atoms: C_10  and  C_11 
ROOT
HETATM    1  C   UNK N   1      35.579  14.415  12.429  0.00  0.00     0.249 C 
HETATM    2  N   UNK N   1      35.602  14.189  13.777  0.00  0.00    -0.350 N 
HETATM    3  O   UNK N   1      34.508  14.330  11.850  0.00  0.00    -0.271 OA
HETATM    4  H   UNK N   1      34.721  14.188  14.219  0.00  0.00     0.163 HD
ENDROOT
BRANCH   1   5
HETATM    5  C   UNK N   1      36.820  14.814  11.643  0.00  0.00     0.232 C 
BRANCH   5   6
HETATM    6  C   UNK N   1      37.233  13.847  10.513  0.00  0.00     0.112 C 
BRANCH   6   7
HETATM    7  C   UNK N   1      37.333  12.400  11.006  0.00  0.00     0.037 C 
BRANCH   7   8
HETATM    8  C   UNK N   1      36.401  11.465  10.250  0.00  0.00     0.076 C 
BRANCH   8   9
HETATM    9  S   UNK N   1      35.972  10.056  11.320  0.00  0.00    -0.169 SA
BRANCH   9  10
HETATM   10  C   UNK N   1      34.368  10.769  11.773  0.00  0.00     0.069 C 
HETATM   11  C   UNK N   1      34.209  10.721  13.279  0.00  0.00     0.016 C 
ENDBRANCH   9  10
ENDBRANCH   8   9
ENDBRANCH   7   8
ENDBRANCH   6   7
BRANCH   6  12
HETATM   12  N   UNK N   1      38.496  14.263   9.921  0.00  0.00    -0.423 N 
HETATM   13  H   UNK N   1      38.644  14.181   8.915  0.00  0.00     0.150 HD
HETATM   14  H   UNK N   1      39.235  14.639  10.515  0.00  0.00     0.150 HD
ENDBRANCH   6  12
ENDBRANCH   5   6
BRANCH   5  15
HETATM   15  O   UNK N   1      36.590  16.065  11.060  0.00  0.00    -0.384 OA
HETATM   16  H   UNK N   1      37.329  16.625  10.778  0.00  0.00     0.210 HD
ENDBRANCH   5  15
ENDBRANCH   1   5
BRANCH   2  17
HETATM   17  C   UNK N   1      36.741  13.948  14.656  0.00  0.00     0.114 C 
HETATM   18  C   UNK N   1      37.211  15.150  15.469  0.00  0.00     0.037 C 
BRANCH  17  19
HETATM   19  C   UNK N   1      36.388  12.820  15.607  0.00  0.00    -0.025 A 
HETATM   20  C   UNK N   1      35.461  13.068  16.636  0.00  0.00     0.010 A 
HETATM   21  C   UNK N   1      35.117  12.075  17.552  0.00  0.00     0.002 A 
HETATM   22  C   UNK N   1      35.673  10.803  17.445  0.00  0.00     0.012 A 
HETATM   23  C   UNK N   1      36.572  10.515  16.417  0.00  0.00    -0.025 A 
HETATM   24  C   UNK N   1      36.943  11.522  15.489  0.00  0.00    -0.018 A 
HETATM   25  C   UNK N   1      37.095   9.225  16.302  0.00  0.00     0.012 A 
HETATM   26  C   UNK N   1      37.836  11.196  14.456  0.00  0.00     0.013 A 
HETATM   27  C   UNK N   1      38.349   9.900  14.345  0.00  0.00     0.001 A 
HETATM   28  C   UNK N   1      37.980   8.918  15.266  0.00  0.00     0.001 A 
ENDBRANCH  17  19
ENDBRANCH   2  17
TORSDOF 10
ENDMDL
MODEL 5
REMARK VINA RESULT:      -6.3      5.474      8.159
REMARK  10 active torsions:
REMARK  status: ('A' for Active; 'I' for Inactive)
REMARK    1  A    between atoms: C_2  and  S_3 
REMARK    2  A    between atoms: S_3  and  C_4 
REMARK    3  A    between atoms: C_4  and  C_5 
REMARK    4  A    between atoms: C_5  and  C_6 
REMARK    5  A    between atoms: C_6  and  C_7 
REMARK    6  A    between atoms: C_6  and  N_24 
REMARK    7  A    between atoms: C_7  and  C_8 
REMARK    8  A    between atoms: C_7  and  O_23 
REMARK       I    between atoms: C_8  and  N_9 
REMARK    9  A    between atoms: N_9  and  C_10 
REMARK   10  A    between atoms: C_10  and  C_11 
ROOT
HETATM    1  C   UNK N   1      29.810  17.511   9.218  0.00  0.00     0.249 C 
HETATM    2  N   UNK N   1      31.172  17.488   9.117  0.00  0.00    -0.350 N 
HETATM    3  O   UNK N   1      29.298  17.018  10.210  0.00  0.00    -0.271 OA
HETATM    4  H   UNK N   1      31.654  17.271   9.949  0.00  0.00     0.163 HD
ENDROOT
BRANCH   1   5
HETATM    5  C   UNK N   1      28.920  18.168   8.172  0.00  0.00     0.232 C 
BRANCH   5   6
HETATM    6  C   UNK N   1      28.461  17.253   7.017  0.00  0.00     0.112 C 
BRANCH   6   7
HETATM    7  C   UNK N   1      28.591  17.942   5.654  0.00  0.00     0.037 C 
BRANCH   7   8
HETATM    8  C   UNK N   1      27.239  18.237   5.023  0.00  0.00     0.076 C 
BRANCH   8   9
HETATM    9  S   UNK N   1      27.320  19.837   4.160  0.00  0.00    -0.169 SA
BRANCH   9  10
HETATM   10  C   UNK N   1      26.349  20.681   5.437  0.00  0.00     0.069 C 
HETATM   11  C   UNK N   1      27.280  21.481   6.325  0.00  0.00     0.016 C 
ENDBRANCH   9  10
ENDBRANCH   8   9
ENDBRANCH   7   8
ENDBRANCH   6   7
BRANCH   6  12
HETATM   12  N   UNK N   1      27.089  16.814   7.227  0.00  0.00    -0.423 N 
HETATM   13  H   UNK N   1      26.325  17.491   7.215  0.00  0.00     0.150 HD
HETATM   14  H   UNK N   1      26.891  15.827   7.386  0.00  0.00     0.150 HD
ENDBRANCH   6  12
ENDBRANCH   5   6
BRANCH   5  15
HETATM   15  O   UNK N   1      27.771  18.648   8.809  0.00  0.00    -0.384 OA
HETATM   16  H   UNK N   1      27.781  18.870   9.752  0.00  0.00     0.210 HD
ENDBRANCH   5  15
ENDBRANCH   1   5
BRANCH   2  17
HETATM   17  C   UNK N   1      32.019  17.737   7.955  0.00  0.00     0.114 C 
HETATM   18  C   UNK N   1      33.371  18.377   8.250  0.00  0.00     0.037 C 
BRANCH  17  19
HETATM   19  C   UNK N   1      32.246  16.423   7.231  0.00  0.00    -0.025 A 
HETATM   20  C   UNK N   1      32.324  15.239   7.987  0.00  0.00     0.010 A 
HETATM   21  C   UNK N   1      32.553  14.007   7.376  0.00  0.00     0.002 A 
HETATM   22  C   UNK N   1      32.685  13.927   5.992  0.00  0.00     0.012 A 
HETATM   23  C   UNK N   1      32.582  15.078   5.211  0.00  0.00    -0.025 A 
HETATM   24  C   UNK N   1      32.365  16.341   5.821  0.00  0.00    -0.018 A 
HETATM   25  C   UNK N   1      32.682  14.977   3.821  0.00  0.00     0.012 A 
HETATM   26  C   UNK N   1      32.249  17.477   5.006  0.00  0.00     0.013 A 
HETATM   27  C   UNK N   1      32.344  17.365   3.616  0.00  0.00     0.001 A 
HETATM   28  C   UNK N   1      32.560  16.118   3.025  0.00  0.00     0.001 A 
ENDBRANCH  17  19
ENDBRANCH   2  17
TORSDOF 10
ENDMDL
MODEL 6
REMARK VINA RESULT:      -6.2      0.820      2.298
REMARK  10 active torsions:
REMARK  status: ('A' for Active; 'I' for Inactive)
REMARK    1  A    between atoms: C_2  and  S_3 
REMARK    2  A    between atoms: S_3  and  C_4 
REMARK    3  A    between atoms: C_4  and  C_5 
REMARK    4  A    between atoms: C_5  and  C_6 
REMARK    5  A    between atoms: C_6  and  C_7 
REMARK    6  A    between atoms: C_6  and  N_24 
REMARK    7  A    between atoms: C_7  and  C_8 
REMARK    8  A    between atoms: C_7  and  O_23 
REMARK       I    between atoms: C_8  and  N_9 
REMARK    9  A    between atoms: N_9  and  C_10 
REMARK   10  A    between atoms: C_10  and  C_11 
ROOT
HETATM    1  C   UNK N   1      35.320  15.434   9.294  0.00  0.00     0.249 C 
HETATM    2  N   UNK N   1      34.633  16.209   8.403  0.00  0.00    -0.350 N 
HETATM    3  O   UNK N   1      35.652  14.313   8.944  0.00  0.00    -0.271 OA
HETATM    4  H   UNK N   1      34.643  15.891   7.470  0.00  0.00     0.163 HD
ENDROOT
BRANCH   1   5
HETATM    5  C   UNK N   1      35.726  15.932  10.673  0.00  0.00     0.232 C 
BRANCH   5   6
HETATM    6  C   UNK N   1      35.147  15.142  11.866  0.00  0.00     0.112 C 
BRANCH   6   7
HETATM    7  C   UNK N   1      36.248  14.506  12.720  0.00  0.00     0.037 C 
BRANCH   7   8
HETATM    8  C   UNK N   1      36.273  12.990  12.597  0.00  0.00     0.076 C 
BRANCH   8   9
HETATM    9  S   UNK N   1      36.596  12.264  14.234  0.00  0.00    -0.169 SA
BRANCH   9  10
HETATM   10  C   UNK N   1      34.844  12.301  14.699  0.00  0.00     0.069 C 
HETATM   11  C   UNK N   1      34.701  12.971  16.050  0.00  0.00     0.016 C 
ENDBRANCH   9  10
ENDBRANCH   8   9
ENDBRANCH   7   8
ENDBRANCH   6   7
BRANCH   6  12
HETATM   12  N   UNK N   1      34.222  14.120  11.400  0.00  0.00    -0.423 N 
HETATM   13  H   UNK N   1      34.563  13.323  10.862  0.00  0.00     0.150 HD
HETATM   14  H   UNK N   1      33.228  14.201  11.612  0.00  0.00     0.150 HD
ENDBRANCH   6  12
ENDBRANCH   5   6
BRANCH   5  15
HETATM   15  O   UNK N   1      37.121  15.875  10.771  0.00  0.00    -0.384 OA
HETATM   16  H   UNK N   1      37.668  16.635  10.523  0.00  0.00     0.210 HD
ENDBRANCH   5  15
ENDBRANCH   1   5
BRANCH   2  17
HETATM   17  C   UNK N   1      33.884  17.440   8.632  0.00  0.00     0.114 C 
HETATM   18  C   UNK N   1      34.567  18.723   8.169  0.00  0.00     0.037 C 
BRANCH  17  19
HETATM   19  C   UNK N   1      32.538  17.324   7.941  0.00  0.00    -0.025 A 
HETATM   20  C   UNK N   1      31.376  17.252   8.731  0.00  0.00     0.010 A 
HETATM   21  C   UNK N   1      30.116  17.122   8.151  0.00  0.00     0.002 A 
HETATM   22  C   UNK N   1      29.985  17.085   6.765  0.00  0.00     0.012 A 
HETATM   23  C   UNK N   1      31.114  17.185   5.952  0.00  0.00    -0.025 A 
HETATM   24  C   UNK N   1      32.405  17.301   6.531  0.00  0.00    -0.018 A 
HETATM   25  C   UNK N   1      30.965  17.181   4.563  0.00  0.00     0.012 A 
HETATM   26  C   UNK N   1      33.519  17.416   5.685  0.00  0.00     0.013 A 
HETATM   27  C   UNK N   1      33.358  17.419   4.297  0.00  0.00     0.001 A 
HETATM   28  C   UNK N   1      32.085  17.301   3.737  0.00  0.00     0.001 A 
ENDBRANCH  17  19
ENDBRANCH   2  17
TORSDOF 10
ENDMDL
MODEL 7
REMARK VINA RESULT:      -6.2     10.109     12.286
REMARK  10 active torsions:
REMARK  status: ('A' for Active; 'I' for Inactive)
REMARK    1  A    between atoms: C_2  and  S_3 
REMARK    2  A    between atoms: S_3  and  C_4 
REMARK    3  A    between atoms: C_4  and  C_5 
REMARK    4  A    between atoms: C_5  and  C_6 
REMARK    5  A    between atoms: C_6  and  C_7 
REMARK    6  A    between atoms: C_6  and  N_24 
REMARK    7  A    between atoms: C_7  and  C_8 
REMARK    8  A    between atoms: C_7  and  O_23 
REMARK       I    between atoms: C_8  and  N_9 
REMARK    9  A    between atoms: N_9  and  C_10 
REMARK   10  A    between atoms: C_10  and  C_11 
ROOT
HETATM    1  C   UNK N   1      21.181  17.998   6.700  0.00  0.00     0.249 C 
HETATM    2  N   UNK N   1      21.853  18.423   5.589  0.00  0.00    -0.350 N 
HETATM    3  O   UNK N   1      20.711  18.843   7.445  0.00  0.00    -0.271 OA
HETATM    4  H   UNK N   1      21.724  19.371   5.354  0.00  0.00     0.163 HD
ENDROOT
BRANCH   1   5
HETATM    5  C   UNK N   1      20.956  16.526   7.011  0.00  0.00     0.232 C 
BRANCH   5   6
HETATM    6  C   UNK N   1      20.730  16.184   8.499  0.00  0.00     0.112 C 
BRANCH   6   7
HETATM    7  C   UNK N   1      21.188  14.762   8.836  0.00  0.00     0.037 C 
BRANCH   7   8
HETATM    8  C   UNK N   1      20.227  14.053   9.780  0.00  0.00     0.076 C 
BRANCH   8   9
HETATM    9  S   UNK N   1      21.101  12.688  10.606  0.00  0.00    -0.169 SA
BRANCH   9  10
HETATM   10  C   UNK N   1      22.714  13.205   9.959  0.00  0.00     0.069 C 
HETATM   11  C   UNK N   1      23.578  11.980   9.738  0.00  0.00     0.016 C 
ENDBRANCH   9  10
ENDBRANCH   8   9
ENDBRANCH   7   8
ENDBRANCH   6   7
BRANCH   6  12
HETATM   12  N   UNK N   1      19.330  16.358   8.856  0.00  0.00    -0.423 N 
HETATM   13  H   UNK N   1      19.024  16.223   9.820  0.00  0.00     0.150 HD
HETATM   14  H   UNK N   1      18.653  16.617   8.139  0.00  0.00     0.150 HD
ENDBRANCH   6  12
ENDBRANCH   5   6
BRANCH   5  15
HETATM   15  O   UNK N   1      19.828  16.092   6.306  0.00  0.00    -0.384 OA
HETATM   16  H   UNK N   1      19.043  15.770   6.774  0.00  0.00     0.210 HD
ENDBRANCH   5  15
ENDBRANCH   1   5
BRANCH   2  17
HETATM   17  C   UNK N   1      22.736  17.676   4.699  0.00  0.00     0.114 C 
HETATM   18  C   UNK N   1      22.048  16.935   3.558  0.00  0.00     0.037 C 
BRANCH  17  19
HETATM   19  C   UNK N   1      23.759  18.634   4.116  0.00  0.00    -0.025 A 
HETATM   20  C   UNK N   1      23.303  19.746   3.385  0.00  0.00     0.010 A 
HETATM   21  C   UNK N   1      24.198  20.645   2.807  0.00  0.00     0.002 A 
HETATM   22  C   UNK N   1      25.570  20.468   2.970  0.00  0.00     0.012 A 
HETATM   23  C   UNK N   1      26.054  19.393   3.716  0.00  0.00    -0.025 A 
HETATM   24  C   UNK N   1      25.154  18.460   4.294  0.00  0.00    -0.018 A 
HETATM   25  C   UNK N   1      27.431  19.246   3.899  0.00  0.00     0.012 A 
HETATM   26  C   UNK N   1      25.671  17.399   5.053  0.00  0.00     0.013 A 
HETATM   27  C   UNK N   1      27.050  17.266   5.237  0.00  0.00     0.001 A 
HETATM   28  C   UNK N   1      27.928  18.186   4.661  0.00  0.00     0.001 A 
ENDBRANCH  17  19
ENDBRANCH   2  17
TORSDOF 10
ENDMDL
MODEL 8
REMARK VINA RESULT:      -6.2      1.703      2.072
REMARK  10 active torsions:
REMARK  status: ('A' for Active; 'I' for Inactive)
REMARK    1  A    between atoms: C_2  and  S_3 
REMARK    2  A    between atoms: S_3  and  C_4 
REMARK    3  A    between atoms: C_4  and  C_5 
REMARK    4  A    between atoms: C_5  and  C_6 
REMARK    5  A    between atoms: C_6  and  C_7 
REMARK    6  A    between atoms: C_6  and  N_24 
REMARK    7  A    between atoms: C_7  and  C_8 
REMARK    8  A    between atoms: C_7  and  O_23 
REMARK       I    between atoms: C_8  and  N_9 
REMARK    9  A    between atoms: N_9  and  C_10 
REMARK   10  A    between atoms: C_10  and  C_11 
ROOT
HETATM    1  C   UNK N   1      33.888  14.487   8.436  0.00  0.00     0.249 C 
HETATM    2  N   UNK N   1      33.575  15.525   7.604  0.00  0.00    -0.350 N 
HETATM    3  O   UNK N   1      34.032  13.379   7.944  0.00  0.00    -0.271 OA
HETATM    4  H   UNK N   1      33.700  15.348   6.643  0.00  0.00     0.163 HD
ENDROOT
BRANCH   1   5
HETATM    5  C   UNK N   1      34.112  14.671   9.930  0.00  0.00     0.232 C 
BRANCH   5   6
HETATM    6  C   UNK N   1      35.330  15.534  10.321  0.00  0.00     0.112 C 
BRANCH   6   7
HETATM    7  C   UNK N   1      36.312  14.767  11.212  0.00  0.00     0.037 C 
BRANCH   7   8
HETATM    8  C   UNK N   1      35.919  13.307  11.385  0.00  0.00     0.076 C 
BRANCH   8   9
HETATM    9  S   UNK N   1      35.338  13.043  13.089  0.00  0.00    -0.169 SA
BRANCH   9  10
HETATM   10  C   UNK N   1      36.377  14.374  13.749  0.00  0.00     0.069 C 
HETATM   11  C   UNK N   1      36.766  14.043  15.175  0.00  0.00     0.016 C 
ENDBRANCH   9  10
ENDBRANCH   8   9
ENDBRANCH   7   8
ENDBRANCH   6   7
BRANCH   6  12
HETATM   12  N   UNK N   1      34.899  16.754  10.985  0.00  0.00    -0.423 N 
HETATM   13  H   UNK N   1      34.786  17.618  10.453  0.00  0.00     0.150 HD
HETATM   14  H   UNK N   1      34.708  16.747  11.987  0.00  0.00     0.150 HD
ENDBRANCH   6  12
ENDBRANCH   5   6
BRANCH   5  15
HETATM   15  O   UNK N   1      32.975  15.278  10.475  0.00  0.00    -0.384 OA
HETATM   16  H   UNK N   1      33.031  15.787  11.298  0.00  0.00     0.210 HD
ENDBRANCH   5  15
ENDBRANCH   1   5
BRANCH   2  17
HETATM   17  C   UNK N   1      33.080  16.857   7.933  0.00  0.00     0.114 C 
HETATM   18  C   UNK N   1      34.060  18.001   7.694  0.00  0.00     0.037 C 
BRANCH  17  19
HETATM   19  C   UNK N   1      31.818  17.116   7.131  0.00  0.00    -0.025 A 
HETATM   20  C   UNK N   1      31.853  16.932   5.737  0.00  0.00     0.010 A 
HETATM   21  C   UNK N   1      30.730  17.177   4.948  0.00  0.00     0.002 A 
HETATM   22  C   UNK N   1      29.538  17.588   5.538  0.00  0.00     0.012 A 
HETATM   23  C   UNK N   1      29.461  17.751   6.922  0.00  0.00    -0.025 A 
HETATM   24  C   UNK N   1      30.602  17.521   7.734  0.00  0.00    -0.018 A 
HETATM   25  C   UNK N   1      28.249  18.131   7.504  0.00  0.00     0.012 A 
HETATM   26  C   UNK N   1      30.487  17.677   9.124  0.00  0.00     0.013 A 
HETATM   27  C   UNK N   1      29.268  18.050   9.697  0.00  0.00     0.001 A 
HETATM   28  C   UNK N   1      28.152  18.278   8.889  0.00  0.00     0.001 A 
ENDBRANCH  17  19
ENDBRANCH   2  17
TORSDOF 10
ENDMDL
MODEL 9
REMARK VINA RESULT:      -6.1     17.889     20.134
REMARK  10 active torsions:
REMARK  status: ('A' for Active; 'I' for Inactive)
REMARK    1  A    between atoms: C_2  and  S_3 
REMARK    2  A    between atoms: S_3  and  C_4 
REMARK    3  A    between atoms: C_4  and  C_5 
REMARK    4  A    between atoms: C_5  and  C_6 
REMARK    5  A    between atoms: C_6  and  C_7 
REMARK    6  A    between atoms: C_6  and  N_24 
REMARK    7  A    between atoms: C_7  and  C_8 
REMARK    8  A    between atoms: C_7  and  O_23 
REMARK       I    between atoms: C_8  and  N_9 
REMARK    9  A    between atoms: N_9  and  C_10 
REMARK   10  A    between atoms: C_10  and  C_11 
ROOT
HETATM    1  C   UNK N   1      25.910  23.190  -6.991  0.00  0.00     0.249 C 
HETATM    2  N   UNK N   1      25.441  24.418  -7.364  0.00  0.00    -0.350 N 
HETATM    3  O   UNK N   1      25.182  22.475  -6.322  0.00  0.00    -0.271 OA
HETATM    4  H   UNK N   1      24.471  24.551  -7.251  0.00  0.00     0.163 HD
ENDROOT
BRANCH   1   5
HETATM    5  C   UNK N   1      27.274  22.668  -7.419  0.00  0.00     0.232 C 
BRANCH   5   6
HETATM    6  C   UNK N   1      28.369  22.692  -6.332  0.00  0.00     0.112 C 
BRANCH   6   7
HETATM    7  C   UNK N   1      29.140  24.016  -6.324  0.00  0.00     0.037 C 
BRANCH   7   8
HETATM    8  C   UNK N   1      30.320  23.993  -5.364  0.00  0.00     0.076 C 
BRANCH   8   9
HETATM    9  S   UNK N   1      29.715  24.250  -3.668  0.00  0.00    -0.169 SA
BRANCH   9  10
HETATM   10  C   UNK N   1      28.802  25.748  -4.121  0.00  0.00     0.069 C 
HETATM   11  C   UNK N   1      29.707  26.952  -3.960  0.00  0.00     0.016 C 
ENDBRANCH   9  10
ENDBRANCH   8   9
ENDBRANCH   7   8
ENDBRANCH   6   7
BRANCH   6  12
HETATM   12  N   UNK N   1      29.289  21.578  -6.508  0.00  0.00    -0.423 N 
HETATM   13  H   UNK N   1      29.758  21.435  -7.403  0.00  0.00     0.150 HD
HETATM   14  H   UNK N   1      29.465  20.938  -5.734  0.00  0.00     0.150 HD
ENDBRANCH   6  12
ENDBRANCH   5   6
BRANCH   5  15
HETATM   15  O   UNK N   1      27.128  21.341  -7.837  0.00  0.00    -0.384 OA
HETATM   16  H   UNK N   1      27.775  20.934  -8.433  0.00  0.00     0.210 HD
ENDBRANCH   5  15
ENDBRANCH   1   5
BRANCH   2  17
HETATM   17  C   UNK N   1      26.168  25.562  -7.904  0.00  0.00     0.114 C 
HETATM   18  C   UNK N   1      25.600  26.156  -9.189  0.00  0.00     0.037 C 
BRANCH  17  19
HETATM   19  C   UNK N   1      26.221  26.646  -6.843  0.00  0.00    -0.025 A 
HETATM   20  C   UNK N   1      25.304  26.594  -5.777  0.00  0.00     0.010 A 
HETATM   21  C   UNK N   1      25.292  27.576  -4.787  0.00  0.00     0.002 A 
HETATM   22  C   UNK N   1      26.214  28.619  -4.827  0.00  0.00     0.012 A 
HETATM   23  C   UNK N   1      27.156  28.682  -5.853  0.00  0.00    -0.025 A 
HETATM   24  C   UNK N   1      27.168  27.699  -6.877  0.00  0.00    -0.018 A 
HETATM   25  C   UNK N   1      28.097  29.716  -5.862  0.00  0.00     0.012 A 
HETATM   26  C   UNK N   1      28.140  27.782  -7.886  0.00  0.00     0.013 A 
HETATM   27  C   UNK N   1      29.081  28.815  -7.881  0.00  0.00     0.001 A 
HETATM   28  C   UNK N   1      29.059  29.780  -6.872  0.00  0.00     0.001 A 
ENDBRANCH  17  19
ENDBRANCH   2  17
TORSDOF 10
ENDMDL
