REMARK  10 active torsions:
REMARK  status: ('A' for Active; 'I' for Inactive)
REMARK    1  A    between atoms: C_2  and  S_3 
REMARK    2  A    between atoms: S_3  and  C_4 
REMARK    3  A    between atoms: C_4  and  C_5 
REMARK    4  A    between atoms: C_5  and  C_6 
REMARK    5  A    between atoms: C_6  and  C_7 
REMARK    6  A    between atoms: C_6  and  N_24 
REMARK    7  A    between atoms: C_7  and  C_8 
REMARK    8  A    between atoms: C_7  and  O_23 
REMARK       I    between atoms: C_8  and  N_9 
REMARK    9  A    between atoms: N_9  and  C_10 
REMARK   10  A    between atoms: C_10  and  C_11 
ROOT
HETATM    1  C   UNK N   1      -0.424   0.363  -0.605  0.00  0.00     0.249 C 
HETATM    2  N   UNK N   1       0.908   0.062  -0.553  0.00  0.00    -0.350 N 
HETATM    3  O   UNK N   1      -0.871   0.815  -1.647  0.00  0.00    -0.271 OA
HETATM    4  H   UNK N   1       1.367   0.027  -1.424  0.00  0.00     0.163 HD
ENDROOT
BRANCH   1   5
HETATM    5  C   UNK N   1      -1.369   0.110   0.561  0.00  0.00     0.232 C 
BRANCH   5   6
HETATM    6  C   UNK N   1      -2.813   0.622   0.373  0.00  0.00     0.112 C 
BRANCH   6   7
HETATM    7  C   UNK N   1      -3.500  -0.032  -0.830  0.00  0.00     0.037 C 
BRANCH   7   8
HETATM    8  C   UNK N   1      -5.007   0.177  -0.820  0.00  0.00     0.076 C 
BRANCH   8   9
HETATM    9  S   UNK N   1      -5.771  -1.041   0.295  0.00  0.00    -0.169 SA
BRANCH   9  10
HETATM   10  C   UNK N   1      -7.346  -0.145   0.346  0.00  0.00     0.069 C 
HETATM   11  C   UNK N   1      -8.300  -0.756  -0.660  0.00  0.00     0.016 C 
ENDBRANCH   9  10
ENDBRANCH   8   9
ENDBRANCH   7   8
ENDBRANCH   6   7
BRANCH   6  12
HETATM   12  N   UNK N   1      -2.827   2.070   0.232  0.00  0.00    -0.423 N 
HETATM   13  H   UNK N   1      -1.952   2.586   0.132  0.00  0.00     0.150 HD
HETATM   14  H   UNK N   1      -3.715   2.571   0.232  0.00  0.00     0.150 HD
ENDBRANCH   6  12
ENDBRANCH   5   6
BRANCH   5  15
HETATM   15  O   UNK N   1      -1.439  -1.270   0.781  0.00  0.00    -0.384 OA
HETATM   16  H   UNK N   1      -2.291  -1.706   0.934  0.00  0.00     0.210 HD
ENDBRANCH   5  15
ENDBRANCH   1   5
BRANCH   2  17
HETATM   17  C   UNK N   1       1.750  -0.214   0.606  0.00  0.00     0.114 C 
HETATM   18  C   UNK N   1       1.107  -1.059   1.701  0.00  0.00     0.037 C 
BRANCH  17  19
HETATM   19  C   UNK N   1       3.015  -0.905   0.132  0.00  0.00    -0.025 A 
HETATM   20  C   UNK N   1       2.982  -2.293  -0.097  0.00  0.00     0.010 A 
HETATM   21  C   UNK N   1       4.120  -2.983  -0.511  0.00  0.00     0.002 A 
HETATM   22  C   UNK N   1       5.312  -2.297  -0.731  0.00  0.00     0.012 A 
HETATM   23  C   UNK N   1       5.370  -0.916  -0.543  0.00  0.00    -0.025 A 
HETATM   24  C   UNK N   1       4.223  -0.204  -0.105  0.00  0.00    -0.018 A 
HETATM   25  C   UNK N   1       6.563  -0.236  -0.800  0.00  0.00     0.012 A 
HETATM   26  C   UNK N   1       4.310   1.187   0.058  0.00  0.00     0.013 A 
HETATM   27  C   UNK N   1       5.506   1.859  -0.209  0.00  0.00     0.001 A 
HETATM   28  C   UNK N   1       6.630   1.149  -0.636  0.00  0.00     0.001 A 
ENDBRANCH  17  19
ENDBRANCH   2  17
TORSDOF 10
