REMARK  1 active torsions:
REMARK  status: ('A' for Active; 'I' for Inactive)
REMARK    1  A    between atoms: C_13  and  O_20 
ROOT
HETATM    1  C   UNK N   1      -2.722   0.862  -0.635  0.00  0.00     0.012 C 
HETATM    2  C   UNK N   1      -1.751   0.003   0.194  0.00  0.00    -0.036 C 
HETATM    3  C   UNK N   1       0.197   1.615  -0.241  0.00  0.00     0.007 C 
HETATM    4  C   UNK N   1       1.677   1.777  -0.640  0.00  0.00     0.012 C 
HETATM    5  C   UNK N   1       2.545   0.830   0.193  0.00  0.00    -0.014 C 
HETATM    6  C   UNK N   1       2.092  -0.611  -0.040  0.00  0.00     0.001 C 
HETATM    7  C   UNK N   1       3.187  -1.427   0.634  0.00  0.00     0.008 C 
HETATM    8  C   UNK N   1       4.462  -0.576   0.464  0.00  0.00     0.033 C 
HETATM    9  C   UNK N   1       4.021   0.745  -0.182  0.00  0.00     0.126 C 
HETATM   10  C   UNK N   1       2.452   1.246   1.675  0.00  0.00     0.018 C 
HETATM   11  C   UNK N   1      -1.817   0.471   1.658  0.00  0.00     0.016 C 
HETATM   12  C   UNK N   1      -4.167   0.690  -0.150  0.00  0.00     0.032 C 
HETATM   13  C   UNK N   1      -4.602  -0.777  -0.191  0.00  0.00     0.118 C 
HETATM   14  C   UNK N   1      -3.625  -1.657   0.595  0.00  0.00     0.037 C 
HETATM   15  C   UNK N   1      -2.196  -1.483   0.070  0.00  0.00    -0.004 C 
HETATM   16  C   UNK N   1      -1.243  -2.416   0.820  0.00  0.00     0.006 C 
HETATM   17  C   UNK N   1       0.183  -2.262   0.286  0.00  0.00     0.006 C 
HETATM   18  C   UNK N   1       0.651  -0.814   0.456  0.00  0.00    -0.005 C 
HETATM   19  C   UNK N   1      -0.295   0.147  -0.332  0.00  0.00    -0.002 C 
HETATM   20  O   UNK N   1       4.177   0.638  -1.569  0.00  0.00    -0.395 OA
HETATM   21  H   UNK N   1       4.167   0.507  -2.530  0.00  0.00     0.210 HD
ENDROOT
BRANCH  13  22
HETATM   22  O   UNK N   1      -5.873  -0.892   0.368  0.00  0.00    -0.396 OA
HETATM   23  H   UNK N   1      -6.385  -0.166   0.758  0.00  0.00     0.210 HD
ENDBRANCH  13  22
TORSDOF 1
