MODEL 1
REMARK VINA RESULT:      -7.3      0.000      0.000
REMARK  1 active torsions:
REMARK  status: ('A' for Active; 'I' for Inactive)
REMARK    1  A    between atoms: C_13  and  O_20 
ROOT
HETATM    1  C   UNK N   1      25.386  22.432  -6.699  0.00  0.00     0.012 C 
HETATM    2  C   UNK N   1      26.149  23.703  -7.113  0.00  0.00    -0.036 C 
HETATM    3  C   UNK N   1      26.409  24.457  -4.675  0.00  0.00     0.007 C 
HETATM    4  C   UNK N   1      26.303  25.612  -3.660  0.00  0.00     0.012 C 
HETATM    5  C   UNK N   1      27.033  26.845  -4.200  0.00  0.00    -0.014 C 
HETATM    6  C   UNK N   1      26.412  27.258  -5.534  0.00  0.00     0.001 C 
HETATM    7  C   UNK N   1      27.056  28.611  -5.806  0.00  0.00     0.008 C 
HETATM    8  C   UNK N   1      27.291  29.215  -4.407  0.00  0.00     0.033 C 
HETATM    9  C   UNK N   1      26.894  28.132  -3.393  0.00  0.00     0.126 C 
HETATM   10  C   UNK N   1      28.535  26.518  -4.323  0.00  0.00     0.018 C 
HETATM   11  C   UNK N   1      27.649  23.371  -7.176  0.00  0.00     0.016 C 
HETATM   12  C   UNK N   1      25.578  21.311  -7.727  0.00  0.00     0.032 C 
HETATM   13  C   UNK N   1      25.139  21.750  -9.126  0.00  0.00     0.118 C 
HETATM   14  C   UNK N   1      25.857  23.038  -9.543  0.00  0.00     0.037 C 
HETATM   15  C   UNK N   1      25.624  24.146  -8.510  0.00  0.00    -0.004 C 
HETATM   16  C   UNK N   1      26.291  25.444  -8.971  0.00  0.00     0.006 C 
HETATM   17  C   UNK N   1      26.045  26.560  -7.954  0.00  0.00     0.006 C 
HETATM   18  C   UNK N   1      26.609  26.157  -6.589  0.00  0.00    -0.005 C 
HETATM   19  C   UNK N   1      25.913  24.850  -6.090  0.00  0.00    -0.002 C 
HETATM   20  O   UNK N   1      25.563  28.341  -3.014  0.00  0.00    -0.395 OA
HETATM   21  H   UNK N   1      24.609  28.418  -2.859  0.00  0.00     0.210 HD
ENDROOT
BRANCH  13  22
HETATM   22  O   UNK N   1      25.443  20.742 -10.038  0.00  0.00    -0.396 OA
HETATM   23  H   UNK N   1      25.132  20.699 -10.956  0.00  0.00     0.210 HD
ENDBRANCH  13  22
TORSDOF 1
ENDMDL
MODEL 2
REMARK VINA RESULT:      -7.1     17.502     19.097
REMARK  1 active torsions:
REMARK  status: ('A' for Active; 'I' for Inactive)
REMARK    1  A    between atoms: C_13  and  O_20 
ROOT
HETATM    1  C   UNK N   1      32.371  14.737   5.501  0.00  0.00     0.012 C 
HETATM    2  C   UNK N   1      33.369  15.612   6.279  0.00  0.00    -0.036 C 
HETATM    3  C   UNK N   1      33.978  13.683   7.857  0.00  0.00     0.007 C 
HETATM    4  C   UNK N   1      34.215  13.227   9.310  0.00  0.00     0.012 C 
HETATM    5  C   UNK N   1      35.163  14.203  10.012  0.00  0.00    -0.014 C 
HETATM    6  C   UNK N   1      34.554  15.604   9.993  0.00  0.00     0.001 C 
HETATM    7  C   UNK N   1      35.466  16.386  10.929  0.00  0.00     0.008 C 
HETATM    8  C   UNK N   1      35.938  15.346  11.966  0.00  0.00     0.033 C 
HETATM    9  C   UNK N   1      35.382  13.990  11.506  0.00  0.00     0.126 C 
HETATM   10  C   UNK N   1      36.537  14.147   9.315  0.00  0.00     0.018 C 
HETATM   11  C   UNK N   1      34.745  15.498   5.602  0.00  0.00     0.016 C 
HETATM   12  C   UNK N   1      32.224  15.217   4.052  0.00  0.00     0.032 C 
HETATM   13  C   UNK N   1      31.792  16.685   3.988  0.00  0.00     0.118 C 
HETATM   14  C   UNK N   1      32.751  17.570   4.791  0.00  0.00     0.037 C 
HETATM   15  C   UNK N   1      32.855  17.081   6.239  0.00  0.00    -0.004 C 
HETATM   16  C   UNK N   1      33.764  18.012   7.044  0.00  0.00     0.006 C 
HETATM   17  C   UNK N   1      33.856  17.541   8.497  0.00  0.00     0.006 C 
HETATM   18  C   UNK N   1      34.414  16.117   8.550  0.00  0.00    -0.005 C 
HETATM   19  C   UNK N   1      33.478  15.148   7.759  0.00  0.00    -0.002 C 
HETATM   20  O   UNK N   1      34.166  13.761  12.160  0.00  0.00    -0.395 OA
HETATM   21  H   UNK N   1      33.269  13.674  12.518  0.00  0.00     0.210 HD
ENDROOT
BRANCH  13  22
HETATM   22  O   UNK N   1      31.789  17.102   2.658  0.00  0.00    -0.396 OA
HETATM   23  H   UNK N   1      32.249  17.883   2.312  0.00  0.00     0.210 HD
ENDBRANCH  13  22
TORSDOF 1
ENDMDL
MODEL 3
REMARK VINA RESULT:      -7.1      5.171      6.659
REMARK  1 active torsions:
REMARK  status: ('A' for Active; 'I' for Inactive)
REMARK    1  A    between atoms: C_13  and  O_20 
ROOT
HETATM    1  C   UNK N   1      32.688  21.312  -2.957  0.00  0.00     0.012 C 
HETATM    2  C   UNK N   1      31.961  21.654  -4.270  0.00  0.00    -0.036 C 
HETATM    3  C   UNK N   1      30.572  23.489  -3.136  0.00  0.00     0.007 C 
HETATM    4  C   UNK N   1      29.181  24.121  -2.937  0.00  0.00     0.012 C 
HETATM    5  C   UNK N   1      28.518  24.354  -4.298  0.00  0.00    -0.014 C 
HETATM    6  C   UNK N   1      28.390  23.021  -5.035  0.00  0.00     0.001 C 
HETATM    7  C   UNK N   1      27.504  23.370  -6.223  0.00  0.00     0.008 C 
HETATM    8  C   UNK N   1      26.585  24.493  -5.701  0.00  0.00     0.033 C 
HETATM    9  C   UNK N   1      27.069  24.828  -4.283  0.00  0.00     0.126 C 
HETATM   10  C   UNK N   1      29.351  25.386  -5.085  0.00  0.00     0.018 C 
HETATM   11  C   UNK N   1      32.777  22.725  -5.013  0.00  0.00     0.016 C 
HETATM   12  C   UNK N   1      34.083  20.737  -3.230  0.00  0.00     0.032 C 
HETATM   13  C   UNK N   1      34.014  19.498  -4.126  0.00  0.00     0.118 C 
HETATM   14  C   UNK N   1      33.258  19.805  -5.422  0.00  0.00     0.037 C 
HETATM   15  C   UNK N   1      31.859  20.353  -5.117  0.00  0.00    -0.004 C 
HETATM   16  C   UNK N   1      31.093  20.592  -6.420  0.00  0.00     0.006 C 
HETATM   17  C   UNK N   1      29.688  21.120  -6.122  0.00  0.00     0.006 C 
HETATM   18  C   UNK N   1      29.778  22.432  -5.336  0.00  0.00    -0.005 C 
HETATM   19  C   UNK N   1      30.530  22.194  -3.988  0.00  0.00    -0.002 C 
HETATM   20  O   UNK N   1      26.312  24.089  -3.366  0.00  0.00    -0.395 OA
HETATM   21  H   UNK N   1      25.873  23.480  -2.753  0.00  0.00     0.210 HD
ENDROOT
BRANCH  13  22
HETATM   22  O   UNK N   1      35.308  19.087  -4.438  0.00  0.00    -0.396 OA
HETATM   23  H   UNK N   1      35.917  18.635  -3.832  0.00  0.00     0.210 HD
ENDBRANCH  13  22
TORSDOF 1
ENDMDL
MODEL 4
REMARK VINA RESULT:      -7.0     26.148     28.150
REMARK  1 active torsions:
REMARK  status: ('A' for Active; 'I' for Inactive)
REMARK    1  A    between atoms: C_13  and  O_20 
ROOT
HETATM    1  C   UNK N   1      36.848   9.440  17.486  0.00  0.00     0.012 C 
HETATM    2  C   UNK N   1      35.985  10.583  16.923  0.00  0.00    -0.036 C 
HETATM    3  C   UNK N   1      36.799  10.147  14.529  0.00  0.00     0.007 C 
HETATM    4  C   UNK N   1      37.333  10.749  13.215  0.00  0.00     0.012 C 
HETATM    5  C   UNK N   1      36.446  11.920  12.783  0.00  0.00    -0.014 C 
HETATM    6  C   UNK N   1      36.435  12.982  13.883  0.00  0.00     0.001 C 
HETATM    7  C   UNK N   1      35.742  14.161  13.213  0.00  0.00     0.008 C 
HETATM    8  C   UNK N   1      36.132  14.043  11.726  0.00  0.00     0.033 C 
HETATM    9  C   UNK N   1      36.922  12.734  11.584  0.00  0.00     0.126 C 
HETATM   10  C   UNK N   1      35.036  11.383  12.467  0.00  0.00     0.018 C 
HETATM   11  C   UNK N   1      34.602  10.016  16.561  0.00  0.00     0.016 C 
HETATM   12  C   UNK N   1      36.229   8.855  18.762  0.00  0.00     0.032 C 
HETATM   13  C   UNK N   1      36.027   9.931  19.832  0.00  0.00     0.118 C 
HETATM   14  C   UNK N   1      35.204  11.100  19.279  0.00  0.00     0.037 C 
HETATM   15  C   UNK N   1      35.861  11.678  18.022  0.00  0.00    -0.004 C 
HETATM   16  C   UNK N   1      35.065  12.885  17.520  0.00  0.00     0.006 C 
HETATM   17  C   UNK N   1      35.727  13.480  16.276  0.00  0.00     0.006 C 
HETATM   18  C   UNK N   1      35.802  12.425  15.169  0.00  0.00    -0.005 C 
HETATM   19  C   UNK N   1      36.641  11.201  15.656  0.00  0.00    -0.002 C 
HETATM   20  O   UNK N   1      38.288  13.023  11.689  0.00  0.00    -0.395 OA
HETATM   21  H   UNK N   1      39.216  13.216  11.891  0.00  0.00     0.210 HD
ENDROOT
BRANCH  13  22
HETATM   22  O   UNK N   1      35.358   9.374  20.919  0.00  0.00    -0.396 OA
HETATM   23  H   UNK N   1      35.405   8.445  21.194  0.00  0.00     0.210 HD
ENDBRANCH  13  22
TORSDOF 1
ENDMDL
MODEL 5
REMARK VINA RESULT:      -6.9     26.500     28.399
REMARK  1 active torsions:
REMARK  status: ('A' for Active; 'I' for Inactive)
REMARK    1  A    between atoms: C_13  and  O_20 
ROOT
HETATM    1  C   UNK N   1      35.542  11.402  13.369  0.00  0.00     0.012 C 
HETATM    2  C   UNK N   1      36.002  11.916  14.745  0.00  0.00    -0.036 C 
HETATM    3  C   UNK N   1      35.512   9.658  15.860  0.00  0.00     0.007 C 
HETATM    4  C   UNK N   1      34.878   8.916  17.052  0.00  0.00     0.012 C 
HETATM    5  C   UNK N   1      35.345   9.550  18.365  0.00  0.00    -0.014 C 
HETATM    6  C   UNK N   1      34.941  11.024  18.389  0.00  0.00     0.001 C 
HETATM    7  C   UNK N   1      35.236  11.436  19.825  0.00  0.00     0.008 C 
HETATM    8  C   UNK N   1      34.989  10.158  20.652  0.00  0.00     0.033 C 
HETATM    9  C   UNK N   1      34.690   9.039  19.644  0.00  0.00     0.126 C 
HETATM   10  C   UNK N   1      36.869   9.353  18.497  0.00  0.00     0.018 C 
HETATM   11  C   UNK N   1      37.513  11.659  14.879  0.00  0.00     0.016 C 
HETATM   12  C   UNK N   1      36.251  12.149  12.232  0.00  0.00     0.032 C 
HETATM   13  C   UNK N   1      36.024  13.660  12.328  0.00  0.00     0.118 C 
HETATM   14  C   UNK N   1      36.437  14.187  13.705  0.00  0.00     0.037 C 
HETATM   15  C   UNK N   1      35.694  13.440  14.817  0.00  0.00    -0.004 C 
HETATM   16  C   UNK N   1      36.068  14.021  16.182  0.00  0.00     0.006 C 
HETATM   17  C   UNK N   1      35.312  13.292  17.296  0.00  0.00     0.006 C 
HETATM   18  C   UNK N   1      35.654  11.800  17.269  0.00  0.00    -0.005 C 
HETATM   19  C   UNK N   1      35.247  11.186  15.891  0.00  0.00    -0.002 C 
HETATM   20  O   UNK N   1      33.303   8.937  19.487  0.00  0.00    -0.395 OA
HETATM   21  H   UNK N   1      32.354   8.964  19.291  0.00  0.00     0.210 HD
ENDROOT
BRANCH  13  22
HETATM   22  O   UNK N   1      36.781  14.298  11.347  0.00  0.00    -0.396 OA
HETATM   23  H   UNK N   1      36.638  15.201  11.023  0.00  0.00     0.210 HD
ENDBRANCH  13  22
TORSDOF 1
ENDMDL
MODEL 6
REMARK VINA RESULT:      -6.9      3.077      4.603
REMARK  1 active torsions:
REMARK  status: ('A' for Active; 'I' for Inactive)
REMARK    1  A    between atoms: C_13  and  O_20 
ROOT
HETATM    1  C   UNK N   1      31.164  24.286  -4.002  0.00  0.00     0.012 C 
HETATM    2  C   UNK N   1      29.995  24.305  -5.003  0.00  0.00    -0.036 C 
HETATM    3  C   UNK N   1      29.270  26.651  -4.257  0.00  0.00     0.007 C 
HETATM    4  C   UNK N   1      28.106  27.575  -3.847  0.00  0.00     0.012 C 
HETATM    5  C   UNK N   1      26.972  27.465  -4.870  0.00  0.00    -0.014 C 
HETATM    6  C   UNK N   1      26.492  26.016  -4.941  0.00  0.00     0.001 C 
HETATM    7  C   UNK N   1      25.226  26.116  -5.782  0.00  0.00     0.008 C 
HETATM    8  C   UNK N   1      24.651  27.507  -5.449  0.00  0.00     0.033 C 
HETATM    9  C   UNK N   1      25.675  28.195  -4.535  0.00  0.00     0.126 C 
HETATM   10  C   UNK N   1      27.477  27.988  -6.230  0.00  0.00     0.018 C 
HETATM   11  C   UNK N   1      30.505  24.882  -6.335  0.00  0.00     0.016 C 
HETATM   12  C   UNK N   1      32.304  23.388  -4.499  0.00  0.00     0.032 C 
HETATM   13  C   UNK N   1      31.819  21.961  -4.763  0.00  0.00     0.118 C 
HETATM   14  C   UNK N   1      30.628  21.959  -5.726  0.00  0.00     0.037 C 
HETATM   15  C   UNK N   1      29.497  22.843  -5.191  0.00  0.00    -0.004 C 
HETATM   16  C   UNK N   1      28.290  22.780  -6.129  0.00  0.00     0.006 C 
HETATM   17  C   UNK N   1      27.149  23.644  -5.589  0.00  0.00     0.006 C 
HETATM   18  C   UNK N   1      27.613  25.097  -5.455  0.00  0.00    -0.005 C 
HETATM   19  C   UNK N   1      28.824  25.181  -4.473  0.00  0.00    -0.002 C 
HETATM   20  O   UNK N   1      25.306  27.971  -3.203  0.00  0.00    -0.395 OA
HETATM   21  H   UNK N   1      25.115  27.701  -2.292  0.00  0.00     0.210 HD
ENDROOT
BRANCH  13  22
HETATM   22  O   UNK N   1      32.860  21.221  -5.322  0.00  0.00    -0.396 OA
HETATM   23  H   UNK N   1      33.635  21.591  -5.773  0.00  0.00     0.210 HD
ENDBRANCH  13  22
TORSDOF 1
ENDMDL
MODEL 7
REMARK VINA RESULT:      -6.9      3.727      6.474
REMARK  1 active torsions:
REMARK  status: ('A' for Active; 'I' for Inactive)
REMARK    1  A    between atoms: C_13  and  O_20 
ROOT
HETATM    1  C   UNK N   1      29.591  23.056  -3.602  0.00  0.00     0.012 C 
HETATM    2  C   UNK N   1      29.785  22.606  -5.060  0.00  0.00    -0.036 C 
HETATM    3  C   UNK N   1      27.928  24.170  -5.890  0.00  0.00     0.007 C 
HETATM    4  C   UNK N   1      26.674  24.336  -6.770  0.00  0.00     0.012 C 
HETATM    5  C   UNK N   1      26.951  23.794  -8.175  0.00  0.00    -0.014 C 
HETATM    6  C   UNK N   1      27.338  22.318  -8.082  0.00  0.00     0.001 C 
HETATM    7  C   UNK N   1      27.328  21.870  -9.538  0.00  0.00     0.008 C 
HETATM    8  C   UNK N   1      26.240  22.739 -10.201  0.00  0.00     0.033 C 
HETATM    9  C   UNK N   1      25.766  23.734  -9.133  0.00  0.00     0.126 C 
HETATM   10  C   UNK N   1      28.052  24.653  -8.830  0.00  0.00     0.018 C 
HETATM   11  C   UNK N   1      30.844  23.510  -5.712  0.00  0.00     0.016 C 
HETATM   12  C   UNK N   1      30.891  22.912  -2.800  0.00  0.00     0.032 C 
HETATM   13  C   UNK N   1      31.418  21.475  -2.838  0.00  0.00     0.118 C 
HETATM   14  C   UNK N   1      31.578  20.992  -4.282  0.00  0.00     0.037 C 
HETATM   15  C   UNK N   1      30.258  21.123  -5.048  0.00  0.00    -0.004 C 
HETATM   16  C   UNK N   1      30.417  20.576  -6.468  0.00  0.00     0.006 C 
HETATM   17  C   UNK N   1      29.095  20.685  -7.232  0.00  0.00     0.006 C 
HETATM   18  C   UNK N   1      28.650  22.149  -7.299  0.00  0.00    -0.005 C 
HETATM   19  C   UNK N   1      28.452  22.711  -5.855  0.00  0.00    -0.002 C 
HETATM   20  O   UNK N   1      24.638  23.203  -8.497  0.00  0.00    -0.395 OA
HETATM   21  H   UNK N   1      23.941  22.770  -7.979  0.00  0.00     0.210 HD
ENDROOT
BRANCH  13  22
HETATM   22  O   UNK N   1      32.654  21.425  -2.198  0.00  0.00    -0.396 OA
HETATM   23  H   UNK N   1      32.954  22.032  -1.503  0.00  0.00     0.210 HD
ENDBRANCH  13  22
TORSDOF 1
ENDMDL
MODEL 8
REMARK VINA RESULT:      -6.8      3.630      6.118
REMARK  1 active torsions:
REMARK  status: ('A' for Active; 'I' for Inactive)
REMARK    1  A    between atoms: C_13  and  O_20 
ROOT
HETATM    1  C   UNK N   1      27.813  26.464  -4.639  0.00  0.00     0.012 C 
HETATM    2  C   UNK N   1      27.705  24.950  -4.895  0.00  0.00    -0.036 C 
HETATM    3  C   UNK N   1      29.974  24.505  -3.782  0.00  0.00     0.007 C 
HETATM    4  C   UNK N   1      31.334  23.783  -3.860  0.00  0.00     0.012 C 
HETATM    5  C   UNK N   1      31.116  22.303  -4.187  0.00  0.00    -0.014 C 
HETATM    6  C   UNK N   1      30.378  22.181  -5.520  0.00  0.00     0.001 C 
HETATM    7  C   UNK N   1      30.466  20.691  -5.824  0.00  0.00     0.008 C 
HETATM    8  C   UNK N   1      31.807  20.250  -5.203  0.00  0.00     0.033 C 
HETATM    9  C   UNK N   1      32.365  21.471  -4.459  0.00  0.00     0.126 C 
HETATM   10  C   UNK N   1      30.348  21.646  -3.023  0.00  0.00     0.018 C 
HETATM   11  C   UNK N   1      26.987  24.305  -3.697  0.00  0.00     0.016 C 
HETATM   12  C   UNK N   1      26.425  27.106  -4.521  0.00  0.00     0.032 C 
HETATM   13  C   UNK N   1      25.578  26.845  -5.770  0.00  0.00     0.118 C 
HETATM   14  C   UNK N   1      25.492  25.345  -6.066  0.00  0.00     0.037 C 
HETATM   15  C   UNK N   1      26.892  24.739  -6.204  0.00  0.00    -0.004 C 
HETATM   16  C   UNK N   1      26.790  23.255  -6.565  0.00  0.00     0.006 C 
HETATM   17  C   UNK N   1      28.186  22.649  -6.725  0.00  0.00     0.006 C 
HETATM   18  C   UNK N   1      28.974  22.801  -5.422  0.00  0.00    -0.005 C 
HETATM   19  C   UNK N   1      29.115  24.314  -5.059  0.00  0.00    -0.002 C 
HETATM   20  O   UNK N   1      33.242  22.152  -5.312  0.00  0.00    -0.395 OA
HETATM   21  H   UNK N   1      33.742  22.683  -5.952  0.00  0.00     0.210 HD
ENDROOT
BRANCH  13  22
HETATM   22  O   UNK N   1      24.294  27.345  -5.563  0.00  0.00    -0.396 OA
HETATM   23  H   UNK N   1      23.593  26.907  -5.054  0.00  0.00     0.210 HD
ENDBRANCH  13  22
TORSDOF 1
ENDMDL
MODEL 9
REMARK VINA RESULT:      -6.7     16.527     18.480
REMARK  1 active torsions:
REMARK  status: ('A' for Active; 'I' for Inactive)
REMARK    1  A    between atoms: C_13  and  O_20 
ROOT
HETATM    1  C   UNK N   1      23.992  13.031   9.070  0.00  0.00     0.012 C 
HETATM    2  C   UNK N   1      22.648  13.467   8.461  0.00  0.00    -0.036 C 
HETATM    3  C   UNK N   1      23.767  14.192   6.269  0.00  0.00     0.007 C 
HETATM    4  C   UNK N   1      23.893  15.273   5.177  0.00  0.00     0.012 C 
HETATM    5  C   UNK N   1      22.500  15.684   4.692  0.00  0.00    -0.014 C 
HETATM    6  C   UNK N   1      21.689  16.220   5.872  0.00  0.00     0.001 C 
HETATM    7  C   UNK N   1      20.458  16.812   5.199  0.00  0.00     0.008 C 
HETATM    8  C   UNK N   1      20.967  17.305   3.829  0.00  0.00     0.033 C 
HETATM    9  C   UNK N   1      22.432  16.859   3.722  0.00  0.00     0.126 C 
HETATM   10  C   UNK N   1      21.831  14.469   4.019  0.00  0.00     0.018 C 
HETATM   11  C   UNK N   1      22.023  12.256   7.746  0.00  0.00     0.016 C 
HETATM   12  C   UNK N   1      23.795  11.920  10.109  0.00  0.00     0.032 C 
HETATM   13  C   UNK N   1      22.835  12.353  11.219  0.00  0.00     0.118 C 
HETATM   14  C   UNK N   1      21.503  12.830  10.632  0.00  0.00     0.037 C 
HETATM   15  C   UNK N   1      21.730  13.957   9.618  0.00  0.00    -0.004 C 
HETATM   16  C   UNK N   1      20.388  14.467   9.089  0.00  0.00     0.006 C 
HETATM   17  C   UNK N   1      20.607  15.607   8.092  0.00  0.00     0.006 C 
HETATM   18  C   UNK N   1      21.463  15.118   6.920  0.00  0.00    -0.005 C 
HETATM   19  C   UNK N   1      22.849  14.624   7.442  0.00  0.00    -0.002 C 
HETATM   20  O   UNK N   1      23.251  17.909   4.153  0.00  0.00    -0.395 OA
HETATM   21  H   UNK N   1      23.798  18.591   4.573  0.00  0.00     0.210 HD
ENDROOT
BRANCH  13  22
HETATM   22  O   UNK N   1      22.600  11.272  12.067  0.00  0.00    -0.396 OA
HETATM   23  H   UNK N   1      22.428  11.331  13.020  0.00  0.00     0.210 HD
ENDBRANCH  13  22
TORSDOF 1
ENDMDL
