REMARK  1 active torsions:
REMARK  status: ('A' for Active; 'I' for Inactive)
REMARK    1  A    between atoms: C_13  and  O_20 
ROOT
HETATM    1  C   UNK N   1      -2.763   1.038  -0.293  0.00  0.00     0.012 C 
HETATM    2  C   UNK N   1      -1.791   0.040   0.374  0.00  0.00    -0.036 C 
HETATM    3  C   UNK N   1       0.138   1.687  -0.053  0.00  0.00     0.007 C 
HETATM    4  C   UNK N   1       1.592   1.870  -0.527  0.00  0.00     0.012 C 
HETATM    5  C   UNK N   1       2.500   0.886   0.214  0.00  0.00    -0.014 C 
HETATM    6  C   UNK N   1       2.036  -0.545  -0.057  0.00  0.00     0.001 C 
HETATM    7  C   UNK N   1       3.165  -1.384   0.529  0.00  0.00     0.008 C 
HETATM    8  C   UNK N   1       4.430  -0.524   0.326  0.00  0.00     0.033 C 
HETATM    9  C   UNK N   1       3.955   0.822  -0.241  0.00  0.00     0.126 C 
HETATM   10  C   UNK N   1       2.485   1.236   1.717  0.00  0.00     0.018 C 
HETATM   11  C   UNK N   1      -1.770   0.379   1.872  0.00  0.00     0.016 C 
HETATM   12  C   UNK N   1      -4.201   0.705   0.093  0.00  0.00     0.032 C 
HETATM   13  C   UNK N   1      -4.625  -0.654  -0.475  0.00  0.00     0.118 C 
HETATM   14  C   UNK N   1      -3.429  -1.551  -0.823  0.00  0.00     0.037 C 
HETATM   15  C   UNK N   1      -2.286  -1.453   0.195  0.00  0.00    -0.004 C 
HETATM   16  C   UNK N   1      -1.196  -2.402  -0.327  0.00  0.00     0.006 C 
HETATM   17  C   UNK N   1       0.171  -2.237   0.336  0.00  0.00     0.006 C 
HETATM   18  C   UNK N   1       0.616  -0.774   0.490  0.00  0.00    -0.005 C 
HETATM   19  C   UNK N   1      -0.360   0.227  -0.208  0.00  0.00    -0.002 C 
HETATM   20  O   UNK N   1       4.037   0.772  -1.638  0.00  0.00    -0.395 OA
HETATM   21  H   UNK N   1       4.034   0.705  -2.606  0.00  0.00     0.210 HD
ENDROOT
BRANCH  13  22
HETATM   22  O   UNK N   1      -5.447  -1.296   0.451  0.00  0.00    -0.396 OA
HETATM   23  H   UNK N   1      -6.120  -1.024   1.094  0.00  0.00     0.210 HD
ENDBRANCH  13  22
TORSDOF 1
