MODEL 1
REMARK VINA RESULT:      -7.2      0.000      0.000
REMARK  1 active torsions:
REMARK  status: ('A' for Active; 'I' for Inactive)
REMARK    1  A    between atoms: C_13  and  O_20 
ROOT
HETATM    1  C   UNK N   1      36.813   9.856  18.382  0.00  0.00     0.012 C 
HETATM    2  C   UNK N   1      35.754  10.611  17.548  0.00  0.00    -0.036 C 
HETATM    3  C   UNK N   1      37.070  10.030  15.415  0.00  0.00     0.007 C 
HETATM    4  C   UNK N   1      37.624  10.532  14.069  0.00  0.00     0.012 C 
HETATM    5  C   UNK N   1      36.508  11.220  13.280  0.00  0.00    -0.014 C 
HETATM    6  C   UNK N   1      35.954  12.392  14.090  0.00  0.00     0.001 C 
HETATM    7  C   UNK N   1      35.055  13.103  13.086  0.00  0.00     0.008 C 
HETATM    8  C   UNK N   1      35.735  12.863  11.721  0.00  0.00     0.033 C 
HETATM    9  C   UNK N   1      36.914  11.915  11.984  0.00  0.00     0.126 C 
HETATM   10  C   UNK N   1      35.425  10.174  12.942  0.00  0.00     0.018 C 
HETATM   11  C   UNK N   1      34.671   9.586  17.178  0.00  0.00     0.016 C 
HETATM   12  C   UNK N   1      36.254   9.525  19.762  0.00  0.00     0.032 C 
HETATM   13  C   UNK N   1      35.991  10.799  20.572  0.00  0.00     0.118 C 
HETATM   14  C   UNK N   1      35.852  12.046  19.687  0.00  0.00     0.037 C 
HETATM   15  C   UNK N   1      35.089  11.779  18.384  0.00  0.00    -0.004 C 
HETATM   16  C   UNK N   1      35.065  13.125  17.645  0.00  0.00     0.006 C 
HETATM   17  C   UNK N   1      34.646  13.045  16.177  0.00  0.00     0.006 C 
HETATM   18  C   UNK N   1      35.315  11.900  15.400  0.00  0.00    -0.005 C 
HETATM   19  C   UNK N   1      36.401  11.158  16.243  0.00  0.00    -0.002 C 
HETATM   20  O   UNK N   1      38.070  12.682  12.172  0.00  0.00    -0.395 OA
HETATM   21  H   UNK N   1      38.852  13.223  12.368  0.00  0.00     0.210 HD
ENDROOT
BRANCH  13  22
HETATM   22  O   UNK N   1      34.834  10.623  21.331  0.00  0.00    -0.396 OA
HETATM   23  H   UNK N   1      34.006  10.127  21.238  0.00  0.00     0.210 HD
ENDBRANCH  13  22
TORSDOF 1
ENDMDL
MODEL 2
REMARK VINA RESULT:      -7.1     22.381     25.676
REMARK  1 active torsions:
REMARK  status: ('A' for Active; 'I' for Inactive)
REMARK    1  A    between atoms: C_13  and  O_20 
ROOT
HETATM    1  C   UNK N   1      29.831  21.813  -4.353  0.00  0.00     0.012 C 
HETATM    2  C   UNK N   1      29.806  23.254  -3.798  0.00  0.00    -0.036 C 
HETATM    3  C   UNK N   1      27.720  23.731  -5.226  0.00  0.00     0.007 C 
HETATM    4  C   UNK N   1      27.005  24.716  -6.169  0.00  0.00     0.012 C 
HETATM    5  C   UNK N   1      26.973  26.106  -5.530  0.00  0.00    -0.014 C 
HETATM    6  C   UNK N   1      28.401  26.580  -5.260  0.00  0.00     0.001 C 
HETATM    7  C   UNK N   1      28.205  28.040  -4.870  0.00  0.00     0.008 C 
HETATM    8  C   UNK N   1      26.973  28.494  -5.680  0.00  0.00     0.033 C 
HETATM    9  C   UNK N   1      26.435  27.244  -6.392  0.00  0.00     0.126 C 
HETATM   10  C   UNK N   1      26.122  26.038  -4.244  0.00  0.00     0.018 C 
HETATM   11  C   UNK N   1      28.946  23.221  -2.525  0.00  0.00     0.016 C 
HETATM   12  C   UNK N   1      30.686  20.922  -3.457  0.00  0.00     0.032 C 
HETATM   13  C   UNK N   1      32.156  21.354  -3.490  0.00  0.00     0.118 C 
HETATM   14  C   UNK N   1      32.339  22.804  -3.958  0.00  0.00     0.037 C 
HETATM   15  C   UNK N   1      31.260  23.752  -3.419  0.00  0.00    -0.004 C 
HETATM   16  C   UNK N   1      31.607  25.132  -3.998  0.00  0.00     0.006 C 
HETATM   17  C   UNK N   1      30.500  26.178  -3.872  0.00  0.00     0.006 C 
HETATM   18  C   UNK N   1      29.104  25.657  -4.250  0.00  0.00    -0.005 C 
HETATM   19  C   UNK N   1      29.142  24.208  -4.833  0.00  0.00    -0.002 C 
HETATM   20  O   UNK N   1      26.983  27.193  -7.680  0.00  0.00    -0.395 OA
HETATM   21  H   UNK N   1      27.419  27.131  -8.544  0.00  0.00     0.210 HD
ENDROOT
BRANCH  13  22
HETATM   22  O   UNK N   1      32.705  21.192  -2.218  0.00  0.00    -0.396 OA
HETATM   23  H   UNK N   1      32.778  20.469  -1.575  0.00  0.00     0.210 HD
ENDBRANCH  13  22
TORSDOF 1
ENDMDL
MODEL 3
REMARK VINA RESULT:      -7.0     27.020     28.668
REMARK  1 active torsions:
REMARK  status: ('A' for Active; 'I' for Inactive)
REMARK    1  A    between atoms: C_13  and  O_20 
ROOT
HETATM    1  C   UNK N   1      25.669  23.306  -6.103  0.00  0.00     0.012 C 
HETATM    2  C   UNK N   1      26.592  24.417  -6.652  0.00  0.00    -0.036 C 
HETATM    3  C   UNK N   1      26.470  25.598  -4.371  0.00  0.00     0.007 C 
HETATM    4  C   UNK N   1      26.302  26.933  -3.621  0.00  0.00     0.012 C 
HETATM    5  C   UNK N   1      27.282  27.964  -4.184  0.00  0.00    -0.014 C 
HETATM    6  C   UNK N   1      27.017  28.164  -5.676  0.00  0.00     0.001 C 
HETATM    7  C   UNK N   1      27.882  29.371  -6.015  0.00  0.00     0.008 C 
HETATM    8  C   UNK N   1      27.893  30.214  -4.723  0.00  0.00     0.033 C 
HETATM    9  C   UNK N   1      27.149  29.391  -3.661  0.00  0.00     0.126 C 
HETATM   10  C   UNK N   1      28.721  27.484  -3.900  0.00  0.00     0.018 C 
HETATM   11  C   UNK N   1      28.034  23.974  -6.364  0.00  0.00     0.016 C 
HETATM   12  C   UNK N   1      25.765  22.064  -6.983  0.00  0.00     0.032 C 
HETATM   13  C   UNK N   1      25.214  22.337  -8.387  0.00  0.00     0.118 C 
HETATM   14  C   UNK N   1      25.187  23.832  -8.733  0.00  0.00     0.037 C 
HETATM   15  C   UNK N   1      26.414  24.593  -8.215  0.00  0.00    -0.004 C 
HETATM   16  C   UNK N   1      26.198  26.051  -8.648  0.00  0.00     0.006 C 
HETATM   17  C   UNK N   1      27.122  27.065  -7.973  0.00  0.00     0.006 C 
HETATM   18  C   UNK N   1      27.267  26.861  -6.456  0.00  0.00    -0.005 C 
HETATM   19  C   UNK N   1      26.313  25.753  -5.905  0.00  0.00    -0.002 C 
HETATM   20  O   UNK N   1      25.807  29.792  -3.645  0.00  0.00    -0.395 OA
HETATM   21  H   UNK N   1      24.867  30.028  -3.687  0.00  0.00     0.210 HD
ENDROOT
BRANCH  13  22
HETATM   22  O   UNK N   1      25.988  21.646  -9.320  0.00  0.00    -0.396 OA
HETATM   23  H   UNK N   1      25.853  20.897  -9.921  0.00  0.00     0.210 HD
ENDBRANCH  13  22
TORSDOF 1
ENDMDL
MODEL 4
REMARK VINA RESULT:      -6.9      6.215     11.120
REMARK  1 active torsions:
REMARK  status: ('A' for Active; 'I' for Inactive)
REMARK    1  A    between atoms: C_13  and  O_20 
ROOT
HETATM    1  C   UNK N   1      32.545  14.741   5.463  0.00  0.00     0.012 C 
HETATM    2  C   UNK N   1      33.477  15.690   6.248  0.00  0.00    -0.036 C 
HETATM    3  C   UNK N   1      34.033  13.759   7.854  0.00  0.00     0.007 C 
HETATM    4  C   UNK N   1      34.230  13.319   9.316  0.00  0.00     0.012 C 
HETATM    5  C   UNK N   1      35.204  14.273  10.012  0.00  0.00    -0.014 C 
HETATM    6  C   UNK N   1      34.651  15.697   9.962  0.00  0.00     0.001 C 
HETATM    7  C   UNK N   1      35.588  16.457  10.892  0.00  0.00     0.008 C 
HETATM    8  C   UNK N   1      36.005  15.418  11.954  0.00  0.00     0.033 C 
HETATM    9  C   UNK N   1      35.399  14.077  11.512  0.00  0.00     0.126 C 
HETATM   10  C   UNK N   1      36.584  14.153   9.331  0.00  0.00     0.018 C 
HETATM   11  C   UNK N   1      34.867  15.575   5.604  0.00  0.00     0.016 C 
HETATM   12  C   UNK N   1      32.263  15.313   4.077  0.00  0.00     0.032 C 
HETATM   13  C   UNK N   1      31.463  16.618   4.170  0.00  0.00     0.118 C 
HETATM   14  C   UNK N   1      31.581  17.289   5.546  0.00  0.00     0.037 C 
HETATM   15  C   UNK N   1      32.989  17.192   6.145  0.00  0.00    -0.004 C 
HETATM   16  C   UNK N   1      32.900  17.903   7.505  0.00  0.00     0.006 C 
HETATM   17  C   UNK N   1      34.088  17.659   8.436  0.00  0.00     0.006 C 
HETATM   18  C   UNK N   1      34.530  16.188   8.509  0.00  0.00    -0.005 C 
HETATM   19  C   UNK N   1      33.568  15.233   7.733  0.00  0.00    -0.002 C 
HETATM   20  O   UNK N   1      34.167  13.910  12.156  0.00  0.00    -0.395 OA
HETATM   21  H   UNK N   1      33.286  13.834  12.554  0.00  0.00     0.210 HD
ENDROOT
BRANCH  13  22
HETATM   22  O   UNK N   1      31.904  17.492   3.176  0.00  0.00    -0.396 OA
HETATM   23  H   UNK N   1      32.721  17.979   2.986  0.00  0.00     0.210 HD
ENDBRANCH  13  22
TORSDOF 1
ENDMDL
MODEL 5
REMARK VINA RESULT:      -6.8     22.993     26.161
REMARK  1 active torsions:
REMARK  status: ('A' for Active; 'I' for Inactive)
REMARK    1  A    between atoms: C_13  and  O_20 
ROOT
HETATM    1  C   UNK N   1      27.618  26.604  -4.296  0.00  0.00     0.012 C 
HETATM    2  C   UNK N   1      27.460  25.132  -4.737  0.00  0.00    -0.036 C 
HETATM    3  C   UNK N   1      29.785  24.627  -3.757  0.00  0.00     0.007 C 
HETATM    4  C   UNK N   1      31.139  23.921  -3.956  0.00  0.00     0.012 C 
HETATM    5  C   UNK N   1      30.902  22.458  -4.339  0.00  0.00    -0.014 C 
HETATM    6  C   UNK N   1      30.081  22.390  -5.626  0.00  0.00     0.001 C 
HETATM    7  C   UNK N   1      30.150  20.913  -5.994  0.00  0.00     0.008 C 
HETATM    8  C   UNK N   1      31.531  20.452  -5.481  0.00  0.00     0.033 C 
HETATM    9  C   UNK N   1      32.134  21.644  -4.724  0.00  0.00     0.126 C 
HETATM   10  C   UNK N   1      30.210  21.745  -3.158  0.00  0.00     0.018 C 
HETATM   11  C   UNK N   1      26.790  24.391  -3.570  0.00  0.00     0.016 C 
HETATM   12  C   UNK N   1      26.255  27.290  -4.270  0.00  0.00     0.032 C 
HETATM   13  C   UNK N   1      25.660  27.391  -5.679  0.00  0.00     0.118 C 
HETATM   14  C   UNK N   1      26.273  26.378  -6.656  0.00  0.00     0.037 C 
HETATM   15  C   UNK N   1      26.537  25.009  -6.017  0.00  0.00    -0.004 C 
HETATM   16  C   UNK N   1      27.150  24.151  -7.135  0.00  0.00     0.006 C 
HETATM   17  C   UNK N   1      27.799  22.850  -6.664  0.00  0.00     0.006 C 
HETATM   18  C   UNK N   1      28.688  23.011  -5.421  0.00  0.00    -0.005 C 
HETATM   19  C   UNK N   1      28.861  24.505  -4.996  0.00  0.00    -0.002 C 
HETATM   20  O   UNK N   1      32.951  22.365  -5.604  0.00  0.00    -0.395 OA
HETATM   21  H   UNK N   1      33.460  22.895  -6.237  0.00  0.00     0.210 HD
ENDROOT
BRANCH  13  22
HETATM   22  O   UNK N   1      24.280  27.203  -5.603  0.00  0.00    -0.396 OA
HETATM   23  H   UNK N   1      23.687  26.497  -5.304  0.00  0.00     0.210 HD
ENDBRANCH  13  22
TORSDOF 1
ENDMDL
MODEL 6
REMARK VINA RESULT:      -6.7     10.701     13.039
REMARK  1 active torsions:
REMARK  status: ('A' for Active; 'I' for Inactive)
REMARK    1  A    between atoms: C_13  and  O_20 
ROOT
HETATM    1  C   UNK N   1      28.142  15.135   5.158  0.00  0.00     0.012 C 
HETATM    2  C   UNK N   1      28.758  16.399   5.796  0.00  0.00    -0.036 C 
HETATM    3  C   UNK N   1      31.102  15.459   5.313  0.00  0.00     0.007 C 
HETATM    4  C   UNK N   1      32.527  15.219   5.847  0.00  0.00     0.012 C 
HETATM    5  C   UNK N   1      33.089  16.524   6.414  0.00  0.00    -0.014 C 
HETATM    6  C   UNK N   1      32.184  17.026   7.540  0.00  0.00     0.001 C 
HETATM    7  C   UNK N   1      32.998  18.163   8.147  0.00  0.00     0.008 C 
HETATM    8  C   UNK N   1      34.467  17.731   7.953  0.00  0.00     0.033 C 
HETATM    9  C   UNK N   1      34.435  16.438   7.126  0.00  0.00     0.126 C 
HETATM   10  C   UNK N   1      33.221  17.545   5.265  0.00  0.00     0.018 C 
HETATM   11  C   UNK N   1      28.921  17.429   4.668  0.00  0.00     0.016 C 
HETATM   12  C   UNK N   1      26.682  15.390   4.794  0.00  0.00     0.032 C 
HETATM   13  C   UNK N   1      25.832  15.618   6.049  0.00  0.00     0.118 C 
HETATM   14  C   UNK N   1      26.669  16.040   7.264  0.00  0.00     0.037 C 
HETATM   15  C   UNK N   1      27.806  17.005   6.907  0.00  0.00    -0.004 C 
HETATM   16  C   UNK N   1      28.522  17.298   8.235  0.00  0.00     0.006 C 
HETATM   17  C   UNK N   1      29.885  17.975   8.094  0.00  0.00     0.006 C 
HETATM   18  C   UNK N   1      30.779  17.357   7.008  0.00  0.00    -0.005 C 
HETATM   19  C   UNK N   1      30.159  16.065   6.384  0.00  0.00    -0.002 C 
HETATM   20  O   UNK N   1      34.465  15.346   8.003  0.00  0.00    -0.395 OA
HETATM   21  H   UNK N   1      34.418  14.598   8.619  0.00  0.00     0.210 HD
ENDROOT
BRANCH  13  22
HETATM   22  O   UNK N   1      24.869  16.589   5.774  0.00  0.00    -0.396 OA
HETATM   23  H   UNK N   1      24.760  17.535   5.956  0.00  0.00     0.210 HD
ENDBRANCH  13  22
TORSDOF 1
ENDMDL
MODEL 7
REMARK VINA RESULT:      -6.6      1.246      6.406
REMARK  1 active torsions:
REMARK  status: ('A' for Active; 'I' for Inactive)
REMARK    1  A    between atoms: C_13  and  O_20 
ROOT
HETATM    1  C   UNK N   1      35.313  13.008  14.875  0.00  0.00     0.012 C 
HETATM    2  C   UNK N   1      35.573  11.532  15.250  0.00  0.00    -0.036 C 
HETATM    3  C   UNK N   1      34.957  12.079  17.686  0.00  0.00     0.007 C 
HETATM    4  C   UNK N   1      35.313  11.900  19.174  0.00  0.00     0.012 C 
HETATM    5  C   UNK N   1      35.503  10.413  19.480  0.00  0.00    -0.014 C 
HETATM    6  C   UNK N   1      36.619   9.847  18.602  0.00  0.00     0.001 C 
HETATM    7  C   UNK N   1      36.847   8.461  19.194  0.00  0.00     0.008 C 
HETATM    8  C   UNK N   1      36.533   8.627  20.696  0.00  0.00     0.033 C 
HETATM    9  C   UNK N   1      36.010  10.060  20.875  0.00  0.00     0.126 C 
HETATM   10  C   UNK N   1      34.158   9.688  19.264  0.00  0.00     0.018 C 
HETATM   11  C   UNK N   1      34.242  10.789  15.063  0.00  0.00     0.016 C 
HETATM   12  C   UNK N   1      35.124  13.139  13.366  0.00  0.00     0.032 C 
HETATM   13  C   UNK N   1      36.414  12.793  12.616  0.00  0.00     0.118 C 
HETATM   14  C   UNK N   1      37.376  11.938  13.452  0.00  0.00     0.037 C 
HETATM   15  C   UNK N   1      36.660  10.880  14.301  0.00  0.00    -0.004 C 
HETATM   16  C   UNK N   1      37.775  10.146  15.061  0.00  0.00     0.006 C 
HETATM   17  C   UNK N   1      37.296   9.266  16.214  0.00  0.00     0.006 C 
HETATM   18  C   UNK N   1      36.243   9.935  17.112  0.00  0.00    -0.005 C 
HETATM   19  C   UNK N   1      36.004  11.434  16.742  0.00  0.00    -0.002 C 
HETATM   20  O   UNK N   1      37.082  10.885  21.237  0.00  0.00    -0.395 OA
HETATM   21  H   UNK N   1      37.842  11.460  21.422  0.00  0.00     0.210 HD
ENDROOT
BRANCH  13  22
HETATM   22  O   UNK N   1      36.087  12.124  11.436  0.00  0.00    -0.396 OA
HETATM   23  H   UNK N   1      36.578  11.718  10.705  0.00  0.00     0.210 HD
ENDBRANCH  13  22
TORSDOF 1
ENDMDL
MODEL 8
REMARK VINA RESULT:      -6.6      1.438      2.309
REMARK  1 active torsions:
REMARK  status: ('A' for Active; 'I' for Inactive)
REMARK    1  A    between atoms: C_13  and  O_20 
ROOT
HETATM    1  C   UNK N   1      36.159   8.092  19.445  0.00  0.00     0.012 C 
HETATM    2  C   UNK N   1      35.399   9.395  19.117  0.00  0.00    -0.036 C 
HETATM    3  C   UNK N   1      36.090   9.139  16.653  0.00  0.00     0.007 C 
HETATM    4  C   UNK N   1      36.627   9.835  15.388  0.00  0.00     0.012 C 
HETATM    5  C   UNK N   1      35.793  11.085  15.099  0.00  0.00    -0.014 C 
HETATM    6  C   UNK N   1      35.864  12.037  16.292  0.00  0.00     0.001 C 
HETATM    7  C   UNK N   1      35.209  13.304  15.755  0.00  0.00     0.008 C 
HETATM    8  C   UNK N   1      35.559  13.311  14.252  0.00  0.00     0.033 C 
HETATM    9  C   UNK N   1      36.279  11.985  13.966  0.00  0.00     0.126 C 
HETATM   10  C   UNK N   1      34.348  10.651  14.777  0.00  0.00     0.018 C 
HETATM   11  C   UNK N   1      33.958   8.991  18.771  0.00  0.00     0.016 C 
HETATM   12  C   UNK N   1      35.691   7.536  20.786  0.00  0.00     0.032 C 
HETATM   13  C   UNK N   1      36.067   8.478  21.936  0.00  0.00     0.118 C 
HETATM   14  C   UNK N   1      36.332   9.914  21.463  0.00  0.00     0.037 C 
HETATM   15  C   UNK N   1      35.370  10.374  20.361  0.00  0.00    -0.004 C 
HETATM   16  C   UNK N   1      35.798  11.810  20.022  0.00  0.00     0.006 C 
HETATM   17  C   UNK N   1      35.202  12.370  18.731  0.00  0.00     0.006 C 
HETATM   18  C   UNK N   1      35.251  11.391  17.547  0.00  0.00    -0.005 C 
HETATM   19  C   UNK N   1      36.042  10.085  17.879  0.00  0.00    -0.002 C 
HETATM   20  O   UNK N   1      37.660  12.198  14.059  0.00  0.00    -0.395 OA
HETATM   21  H   UNK N   1      38.611  12.340  14.191  0.00  0.00     0.210 HD
ENDROOT
BRANCH  13  22
HETATM   22  O   UNK N   1      35.042   8.470  22.882  0.00  0.00    -0.396 OA
HETATM   23  H   UNK N   1      34.360   7.843  23.167  0.00  0.00     0.210 HD
ENDBRANCH  13  22
TORSDOF 1
ENDMDL
MODEL 9
REMARK VINA RESULT:      -6.5      2.482      4.576
REMARK  1 active torsions:
REMARK  status: ('A' for Active; 'I' for Inactive)
REMARK    1  A    between atoms: C_13  and  O_20 
ROOT
HETATM    1  C   UNK N   1      35.769  12.609  15.538  0.00  0.00     0.012 C 
HETATM    2  C   UNK N   1      35.814  12.001  14.119  0.00  0.00    -0.036 C 
HETATM    3  C   UNK N   1      36.063  14.370  13.149  0.00  0.00     0.007 C 
HETATM    4  C   UNK N   1      35.620  15.368  12.062  0.00  0.00     0.012 C 
HETATM    5  C   UNK N   1      35.741  14.713  10.685  0.00  0.00    -0.014 C 
HETATM    6  C   UNK N   1      34.867  13.460  10.633  0.00  0.00     0.001 C 
HETATM    7  C   UNK N   1      34.903  13.082   9.158  0.00  0.00     0.008 C 
HETATM    8  C   UNK N   1      35.031  14.430   8.417  0.00  0.00     0.033 C 
HETATM    9  C   UNK N   1      35.200  15.507   9.500  0.00  0.00     0.126 C 
HETATM   10  C   UNK N   1      37.229  14.406  10.413  0.00  0.00     0.018 C 
HETATM   11  C   UNK N   1      37.289  11.703  13.813  0.00  0.00     0.016 C 
HETATM   12  C   UNK N   1      36.063  11.533  16.578  0.00  0.00     0.032 C 
HETATM   13  C   UNK N   1      34.958  10.470  16.601  0.00  0.00     0.118 C 
HETATM   14  C   UNK N   1      34.140  10.438  15.302  0.00  0.00     0.037 C 
HETATM   15  C   UNK N   1      34.994  10.649  14.046  0.00  0.00    -0.004 C 
HETATM   16  C   UNK N   1      34.006  10.593  12.870  0.00  0.00     0.006 C 
HETATM   17  C   UNK N   1      34.563  11.098  11.539  0.00  0.00     0.006 C 
HETATM   18  C   UNK N   1      35.350  12.413  11.652  0.00  0.00    -0.005 C 
HETATM   19  C   UNK N   1      35.280  13.034  13.084  0.00  0.00    -0.002 C 
HETATM   20  O   UNK N   1      33.941  16.044   9.795  0.00  0.00    -0.395 OA
HETATM   21  H   UNK N   1      33.058  16.363  10.041  0.00  0.00     0.210 HD
ENDROOT
BRANCH  13  22
HETATM   22  O   UNK N   1      35.535   9.221  16.830  0.00  0.00    -0.396 OA
HETATM   23  H   UNK N   1      35.951   8.772  17.582  0.00  0.00     0.210 HD
ENDBRANCH  13  22
TORSDOF 1
ENDMDL
