MODEL 1
REMARK VINA RESULT:      -6.2      0.000      0.000
REMARK  9 active torsions:
REMARK  status: ('A' for Active; 'I' for Inactive)
REMARK    1  A    between atoms: C_5  and  C_6 
REMARK    2  A    between atoms: C_6  and  N_7 
REMARK    3  A    between atoms: C_6  and  N_9 
REMARK    4  A    between atoms: N_9  and  C_10 
REMARK    5  A    between atoms: C_13  and  C_16 
REMARK    6  A    between atoms: C_16  and  C_17 
REMARK    7  A    between atoms: C_17  and  N_18 
REMARK    8  A    between atoms: N_18  and  C_19 
REMARK    9  A    between atoms: C_19  and  C_20 
ROOT
HETATM    1  C   UNK N   1      25.829  27.526  -3.907  0.00  0.00     0.033 A 
HETATM    2  C   UNK N   1      25.208  27.352  -5.143  0.00  0.00     0.030 A 
HETATM    3  C   UNK N   1      25.189  26.101  -5.751  0.00  0.00     0.009 A 
HETATM    4  C   UNK N   1      25.803  25.001  -5.132  0.00  0.00    -0.057 A 
HETATM    5  C   UNK N   1      26.441  25.174  -3.901  0.00  0.00     0.009 A 
HETATM    6  C   UNK N   1      26.452  26.430  -3.286  0.00  0.00     0.030 A 
ENDROOT
BRANCH   4   7
HETATM    7  C   UNK N   1      25.767  23.635  -5.752  0.00  0.00     0.057 C 
BRANCH   7   8
HETATM    8  C   UNK N   1      26.569  23.536  -7.044  0.00  0.00     0.118 C 
BRANCH   8   9
HETATM    9  N   UNK N   1      27.634  22.554  -6.903  0.00  0.00    -0.417 N 
HETATM   10  H   UNK N   1      27.510  21.563  -6.699  0.00  0.00     0.153 HD
BRANCH   9  11
HETATM   11  C   UNK N   1      28.908  23.234  -7.107  0.00  0.00     0.152 C 
BRANCH  11  12
HETATM   12  C   UNK N   1      29.378  23.936  -5.866  0.00  0.00    -0.039 A 
HETATM   13  C   UNK N   1      29.506  23.210  -4.679  0.00  0.00     0.032 A 
HETATM   14  C   UNK N   1      29.951  23.842  -3.513  0.00  0.00     0.034 A 
HETATM   15  C   UNK N   1      30.260  25.206  -3.530  0.00  0.00     0.024 A 
HETATM   16 Cl   UNK N   1      30.136  22.926  -2.035  0.00  0.00    -0.084 Cl
HETATM   17  C   UNK N   1      30.128  25.938  -4.711  0.00  0.00     0.002 A 
HETATM   18  C   UNK N   1      29.693  25.305  -5.876  0.00  0.00     0.009 A 
ENDBRANCH  11  12
ENDBRANCH   9  11
ENDBRANCH   8   9
ENDBRANCH   7   8
ENDBRANCH   4   7
BRANCH   1  19
HETATM   19  N   UNK N   1      25.793  28.816  -3.316  0.00  0.00    -0.342 N 
HETATM   20  H   UNK N   1      25.012  29.018  -2.751  0.00  0.00     0.167 HD
BRANCH  19  21
HETATM   21  C   UNK N   1      26.761  29.849  -3.450  0.00  0.00     0.116 C 
BRANCH  21  22
HETATM   22  C   UNK N   1      28.021  29.736  -2.705  0.00  0.00     0.048 A 
HETATM   23  S   UNK N   1      28.340  30.314  -1.190  0.00  0.00    -0.098 SA
HETATM   24  C   UNK N   1      29.919  29.824  -1.025  0.00  0.00     0.050 A 
HETATM   25  C   UNK N   1      30.244  29.163  -2.219  0.00  0.00     0.009 A 
HETATM   26  C   UNK N   1      29.181  29.113  -3.163  0.00  0.00     0.023 A 
ENDBRANCH  21  22
BRANCH  21  27
HETATM   27  N   UNK N   1      26.562  30.853  -4.228  0.00  0.00    -0.384 N 
HETATM   28  H   UNK N   1      27.261  31.538  -4.338  0.00  0.00     0.157 HD
ATOM     29  HN  UNK N   1      25.680  30.942  -4.732  1.00  0.00     0.157 HD
ENDBRANCH  21  27
ENDBRANCH  19  21
ENDBRANCH   1  19
TORSDOF 9
ENDMDL
MODEL 2
REMARK VINA RESULT:      -6.1      1.723      2.334
REMARK  9 active torsions:
REMARK  status: ('A' for Active; 'I' for Inactive)
REMARK    1  A    between atoms: C_5  and  C_6 
REMARK    2  A    between atoms: C_6  and  N_7 
REMARK    3  A    between atoms: C_6  and  N_9 
REMARK    4  A    between atoms: N_9  and  C_10 
REMARK    5  A    between atoms: C_13  and  C_16 
REMARK    6  A    between atoms: C_16  and  C_17 
REMARK    7  A    between atoms: C_17  and  N_18 
REMARK    8  A    between atoms: N_18  and  C_19 
REMARK    9  A    between atoms: C_19  and  C_20 
ROOT
HETATM    1  C   UNK N   1      25.810  27.725  -3.874  0.00  0.00     0.033 A 
HETATM    2  C   UNK N   1      26.516  26.669  -3.299  0.00  0.00     0.030 A 
HETATM    3  C   UNK N   1      26.513  25.413  -3.897  0.00  0.00     0.009 A 
HETATM    4  C   UNK N   1      25.789  25.190  -5.078  0.00  0.00    -0.057 A 
HETATM    5  C   UNK N   1      25.066  26.241  -5.649  0.00  0.00     0.009 A 
HETATM    6  C   UNK N   1      25.078  27.507  -5.053  0.00  0.00     0.030 A 
ENDROOT
BRANCH   4   7
HETATM    7  C   UNK N   1      25.797  23.853  -5.759  0.00  0.00     0.057 C 
BRANCH   7   8
HETATM    8  C   UNK N   1      25.980  23.944  -7.269  0.00  0.00     0.118 C 
BRANCH   8   9
HETATM    9  N   UNK N   1      27.376  23.729  -7.622  0.00  0.00    -0.417 N 
HETATM   10  H   UNK N   1      27.946  22.929  -7.347  0.00  0.00     0.153 HD
BRANCH   9  11
HETATM   11  C   UNK N   1      27.816  24.854  -8.437  0.00  0.00     0.152 C 
BRANCH  11  12
HETATM   12  C   UNK N   1      28.189  26.045  -7.602  0.00  0.00    -0.039 A 
HETATM   13  C   UNK N   1      29.103  25.885  -6.557  0.00  0.00     0.032 A 
HETATM   14  C   UNK N   1      29.473  26.983  -5.773  0.00  0.00     0.034 A 
HETATM   15  C   UNK N   1      28.919  28.242  -6.025  0.00  0.00     0.024 A 
HETATM   16 Cl   UNK N   1      30.637  26.786  -4.483  0.00  0.00    -0.084 Cl
HETATM   17  C   UNK N   1      28.000  28.407  -7.063  0.00  0.00     0.002 A 
HETATM   18  C   UNK N   1      27.640  27.314  -7.851  0.00  0.00     0.009 A 
ENDBRANCH  11  12
ENDBRANCH   9  11
ENDBRANCH   8   9
ENDBRANCH   7   8
ENDBRANCH   4   7
BRANCH   1  19
HETATM   19  N   UNK N   1      25.872  28.994  -3.241  0.00  0.00    -0.342 N 
HETATM   20  H   UNK N   1      25.153  29.200  -2.601  0.00  0.00     0.167 HD
BRANCH  19  21
HETATM   21  C   UNK N   1      26.859  30.001  -3.429  0.00  0.00     0.116 C 
BRANCH  21  22
HETATM   22  C   UNK N   1      27.986  30.068  -2.491  0.00  0.00     0.048 A 
HETATM   23  S   UNK N   1      28.121  31.039  -1.161  0.00  0.00    -0.098 SA
HETATM   24  C   UNK N   1      29.620  30.574  -0.619  0.00  0.00     0.050 A 
HETATM   25  C   UNK N   1      30.068  29.595  -1.518  0.00  0.00     0.009 A 
HETATM   26  C   UNK N   1      29.153  29.310  -2.569  0.00  0.00     0.023 A 
ENDBRANCH  21  22
BRANCH  21  27
HETATM   27  N   UNK N   1      26.794  30.823  -4.416  0.00  0.00    -0.384 N 
HETATM   28  H   UNK N   1      27.530  30.868  -5.068  0.00  0.00     0.157 HD
ATOM     29  HN  UNK N   1      25.980  31.429  -4.523  1.00  0.00     0.157 HD
ENDBRANCH  21  27
ENDBRANCH  19  21
ENDBRANCH   1  19
TORSDOF 9
ENDMDL
MODEL 3
REMARK VINA RESULT:      -6.0     13.899     16.255
REMARK  9 active torsions:
REMARK  status: ('A' for Active; 'I' for Inactive)
REMARK    1  A    between atoms: C_5  and  C_6 
REMARK    2  A    between atoms: C_6  and  N_7 
REMARK    3  A    between atoms: C_6  and  N_9 
REMARK    4  A    between atoms: N_9  and  C_10 
REMARK    5  A    between atoms: C_13  and  C_16 
REMARK    6  A    between atoms: C_16  and  C_17 
REMARK    7  A    between atoms: C_17  and  N_18 
REMARK    8  A    between atoms: N_18  and  C_19 
REMARK    9  A    between atoms: C_19  and  C_20 
ROOT
HETATM    1  C   UNK N   1      33.234  16.959   8.069  0.00  0.00     0.033 A 
HETATM    2  C   UNK N   1      31.893  16.693   7.796  0.00  0.00     0.030 A 
HETATM    3  C   UNK N   1      31.391  16.853   6.509  0.00  0.00     0.009 A 
HETATM    4  C   UNK N   1      32.226  17.294   5.471  0.00  0.00    -0.057 A 
HETATM    5  C   UNK N   1      33.567  17.578   5.741  0.00  0.00     0.009 A 
HETATM    6  C   UNK N   1      34.073  17.407   7.035  0.00  0.00     0.030 A 
ENDROOT
BRANCH   4   7
HETATM    7  C   UNK N   1      31.716  17.443   4.067  0.00  0.00     0.057 C 
BRANCH   7   8
HETATM    8  C   UNK N   1      30.581  16.483   3.731  0.00  0.00     0.118 C 
BRANCH   8   9
HETATM    9  N   UNK N   1      29.516  17.186   3.031  0.00  0.00    -0.417 N 
HETATM   10  H   UNK N   1      29.612  17.699   2.155  0.00  0.00     0.153 HD
BRANCH   9  11
HETATM   11  C   UNK N   1      28.287  17.028   3.800  0.00  0.00     0.152 C 
BRANCH  11  12
HETATM   12  C   UNK N   1      28.074  18.160   4.764  0.00  0.00    -0.039 A 
HETATM   13  C   UNK N   1      28.192  17.918   6.135  0.00  0.00     0.032 A 
HETATM   14  C   UNK N   1      28.008  18.959   7.050  0.00  0.00     0.034 A 
HETATM   15  C   UNK N   1      27.694  20.243   6.596  0.00  0.00     0.024 A 
HETATM   16 Cl   UNK N   1      28.183  18.660   8.765  0.00  0.00    -0.084 Cl
HETATM   17  C   UNK N   1      27.568  20.490   5.228  0.00  0.00     0.002 A 
HETATM   18  C   UNK N   1      27.762  19.453   4.315  0.00  0.00     0.009 A 
ENDBRANCH  11  12
ENDBRANCH   9  11
ENDBRANCH   8   9
ENDBRANCH   7   8
ENDBRANCH   4   7
BRANCH   1  19
HETATM   19  N   UNK N   1      33.702  16.750   9.391  0.00  0.00    -0.342 N 
HETATM   20  H   UNK N   1      33.771  17.549   9.963  0.00  0.00     0.167 HD
BRANCH  19  21
HETATM   21  C   UNK N   1      34.081  15.514   9.984  0.00  0.00     0.116 C 
BRANCH  21  22
HETATM   22  C   UNK N   1      35.342  14.889   9.565  0.00  0.00     0.048 A 
HETATM   23  S   UNK N   1      36.763  14.846  10.407  0.00  0.00    -0.098 SA
HETATM   24  C   UNK N   1      37.705  14.000   9.333  0.00  0.00     0.050 A 
HETATM   25  C   UNK N   1      36.880  13.719   8.233  0.00  0.00     0.009 A 
HETATM   26  C   UNK N   1      35.554  14.218   8.361  0.00  0.00     0.023 A 
ENDBRANCH  21  22
BRANCH  21  27
HETATM   27  N   UNK N   1      33.359  14.959  10.891  0.00  0.00    -0.384 N 
HETATM   28  H   UNK N   1      32.401  15.173  10.957  0.00  0.00     0.157 HD
ATOM     29  HN  UNK N   1      33.779  14.297  11.544  1.00  0.00     0.157 HD
ENDBRANCH  21  27
ENDBRANCH  19  21
ENDBRANCH   1  19
TORSDOF 9
ENDMDL
MODEL 4
REMARK VINA RESULT:      -6.0      3.127      6.246
REMARK  9 active torsions:
REMARK  status: ('A' for Active; 'I' for Inactive)
REMARK    1  A    between atoms: C_5  and  C_6 
REMARK    2  A    between atoms: C_6  and  N_7 
REMARK    3  A    between atoms: C_6  and  N_9 
REMARK    4  A    between atoms: N_9  and  C_10 
REMARK    5  A    between atoms: C_13  and  C_16 
REMARK    6  A    between atoms: C_16  and  C_17 
REMARK    7  A    between atoms: C_17  and  N_18 
REMARK    8  A    between atoms: N_18  and  C_19 
REMARK    9  A    between atoms: C_19  and  C_20 
ROOT
HETATM    1  C   UNK N   1      25.588  25.195  -5.241  0.00  0.00     0.033 A 
HETATM    2  C   UNK N   1      26.401  25.271  -4.111  0.00  0.00     0.030 A 
HETATM    3  C   UNK N   1      26.629  26.493  -3.489  0.00  0.00     0.009 A 
HETATM    4  C   UNK N   1      26.054  27.668  -3.997  0.00  0.00    -0.057 A 
HETATM    5  C   UNK N   1      25.251  27.601  -5.140  0.00  0.00     0.009 A 
HETATM    6  C   UNK N   1      25.014  26.369  -5.759  0.00  0.00     0.030 A 
ENDROOT
BRANCH   4   7
HETATM    7  C   UNK N   1      26.259  28.994  -3.325  0.00  0.00     0.057 C 
BRANCH   7   8
HETATM    8  C   UNK N   1      26.667  30.103  -4.288  0.00  0.00     0.118 C 
BRANCH   8   9
HETATM    9  N   UNK N   1      28.112  30.276  -4.276  0.00  0.00    -0.417 N 
HETATM   10  H   UNK N   1      28.691  30.413  -3.448  0.00  0.00     0.153 HD
BRANCH   9  11
HETATM   11  C   UNK N   1      28.587  30.217  -5.653  0.00  0.00     0.152 C 
BRANCH  11  12
HETATM   12  C   UNK N   1      28.651  28.809  -6.170  0.00  0.00    -0.039 A 
HETATM   13  C   UNK N   1      29.388  27.856  -5.462  0.00  0.00     0.032 A 
HETATM   14  C   UNK N   1      29.452  26.536  -5.920  0.00  0.00     0.034 A 
HETATM   15  C   UNK N   1      28.789  26.169  -7.094  0.00  0.00     0.024 A 
HETATM   16 Cl   UNK N   1      30.354  25.340  -5.017  0.00  0.00    -0.084 Cl
HETATM   17  C   UNK N   1      28.056  27.117  -7.810  0.00  0.00     0.002 A 
HETATM   18  C   UNK N   1      27.983  28.431  -7.347  0.00  0.00     0.009 A 
ENDBRANCH  11  12
ENDBRANCH   9  11
ENDBRANCH   8   9
ENDBRANCH   7   8
ENDBRANCH   4   7
BRANCH   1  19
HETATM   19  N   UNK N   1      25.362  23.919  -5.819  0.00  0.00    -0.342 N 
HETATM   20  H   UNK N   1      24.835  23.283  -5.283  0.00  0.00     0.167 HD
BRANCH  19  21
HETATM   21  C   UNK N   1      25.813  23.457  -7.086  0.00  0.00     0.116 C 
BRANCH  21  22
HETATM   22  C   UNK N   1      27.023  22.629  -7.144  0.00  0.00     0.048 A 
HETATM   23  S   UNK N   1      27.339  21.396  -8.198  0.00  0.00    -0.098 SA
HETATM   24  C   UNK N   1      28.848  20.948  -7.669  0.00  0.00     0.050 A 
HETATM   25  C   UNK N   1      29.150  21.802  -6.598  0.00  0.00     0.009 A 
HETATM   26  C   UNK N   1      28.127  22.745  -6.301  0.00  0.00     0.023 A 
ENDBRANCH  21  22
BRANCH  21  27
HETATM   27  N   UNK N   1      25.166  23.727  -8.164  0.00  0.00    -0.384 N 
HETATM   28  H   UNK N   1      24.401  23.167  -8.432  0.00  0.00     0.157 HD
ATOM     29  HN  UNK N   1      25.443  24.520  -8.741  1.00  0.00     0.157 HD
ENDBRANCH  21  27
ENDBRANCH  19  21
ENDBRANCH   1  19
TORSDOF 9
ENDMDL
MODEL 5
REMARK VINA RESULT:      -6.0      1.963      2.606
REMARK  9 active torsions:
REMARK  status: ('A' for Active; 'I' for Inactive)
REMARK    1  A    between atoms: C_5  and  C_6 
REMARK    2  A    between atoms: C_6  and  N_7 
REMARK    3  A    between atoms: C_6  and  N_9 
REMARK    4  A    between atoms: N_9  and  C_10 
REMARK    5  A    between atoms: C_13  and  C_16 
REMARK    6  A    between atoms: C_16  and  C_17 
REMARK    7  A    between atoms: C_17  and  N_18 
REMARK    8  A    between atoms: N_18  and  C_19 
REMARK    9  A    between atoms: C_19  and  C_20 
ROOT
HETATM    1  C   UNK N   1      25.383  25.953  -5.815  0.00  0.00     0.033 A 
HETATM    2  C   UNK N   1      25.464  24.807  -5.025  0.00  0.00     0.030 A 
HETATM    3  C   UNK N   1      25.811  23.585  -5.592  0.00  0.00     0.009 A 
HETATM    4  C   UNK N   1      26.072  23.488  -6.967  0.00  0.00    -0.057 A 
HETATM    5  C   UNK N   1      25.977  24.631  -7.767  0.00  0.00     0.009 A 
HETATM    6  C   UNK N   1      25.637  25.861  -7.194  0.00  0.00     0.030 A 
ENDROOT
BRANCH   4   7
HETATM    7  C   UNK N   1      26.480  22.188  -7.596  0.00  0.00     0.057 C 
BRANCH   7   8
HETATM    8  C   UNK N   1      27.847  22.243  -8.266  0.00  0.00     0.118 C 
BRANCH   8   9
HETATM    9  N   UNK N   1      28.856  21.641  -7.407  0.00  0.00    -0.417 N 
HETATM   10  H   UNK N   1      28.842  20.686  -7.046  0.00  0.00     0.153 HD
BRANCH   9  11
HETATM   11  C   UNK N   1      29.888  22.638  -7.151  0.00  0.00     0.152 C 
BRANCH  11  12
HETATM   12  C   UNK N   1      29.546  23.521  -5.986  0.00  0.00    -0.039 A 
HETATM   13  C   UNK N   1      29.368  22.946  -4.725  0.00  0.00     0.032 A 
HETATM   14  C   UNK N   1      29.059  23.750  -3.624  0.00  0.00     0.034 A 
HETATM   15  C   UNK N   1      28.916  25.132  -3.784  0.00  0.00     0.024 A 
HETATM   16 Cl   UNK N   1      28.863  23.032  -2.041  0.00  0.00    -0.084 Cl
HETATM   17  C   UNK N   1      29.086  25.712  -5.043  0.00  0.00     0.002 A 
HETATM   18  C   UNK N   1      29.404  24.909  -6.138  0.00  0.00     0.009 A 
ENDBRANCH  11  12
ENDBRANCH   9  11
ENDBRANCH   8   9
ENDBRANCH   7   8
ENDBRANCH   4   7
BRANCH   1  19
HETATM   19  N   UNK N   1      25.056  27.180  -5.182  0.00  0.00    -0.342 N 
HETATM   20  H   UNK N   1      24.182  27.572  -5.411  0.00  0.00     0.167 HD
BRANCH  19  21
HETATM   21  C   UNK N   1      25.850  27.906  -4.253  0.00  0.00     0.116 C 
BRANCH  21  22
HETATM   22  C   UNK N   1      26.786  28.915  -4.763  0.00  0.00     0.048 A 
HETATM   23  S   UNK N   1      27.139  30.382  -4.088  0.00  0.00    -0.098 SA
HETATM   24  C   UNK N   1      28.241  30.947  -5.193  0.00  0.00     0.050 A 
HETATM   25  C   UNK N   1      28.362  29.943  -6.166  0.00  0.00     0.009 A 
HETATM   26  C   UNK N   1      27.546  28.803  -5.926  0.00  0.00     0.023 A 
ENDBRANCH  21  22
BRANCH  21  27
HETATM   27  N   UNK N   1      25.739  27.714  -2.986  0.00  0.00    -0.384 N 
HETATM   28  H   UNK N   1      26.461  27.263  -2.491  0.00  0.00     0.157 HD
ATOM     29  HN  UNK N   1      24.904  28.029  -2.493  1.00  0.00     0.157 HD
ENDBRANCH  21  27
ENDBRANCH  19  21
ENDBRANCH   1  19
TORSDOF 9
ENDMDL
MODEL 6
REMARK VINA RESULT:      -5.9      3.049      7.027
REMARK  9 active torsions:
REMARK  status: ('A' for Active; 'I' for Inactive)
REMARK    1  A    between atoms: C_5  and  C_6 
REMARK    2  A    between atoms: C_6  and  N_7 
REMARK    3  A    between atoms: C_6  and  N_9 
REMARK    4  A    between atoms: N_9  and  C_10 
REMARK    5  A    between atoms: C_13  and  C_16 
REMARK    6  A    between atoms: C_16  and  C_17 
REMARK    7  A    between atoms: C_17  and  N_18 
REMARK    8  A    between atoms: N_18  and  C_19 
REMARK    9  A    between atoms: C_19  and  C_20 
ROOT
HETATM    1  C   UNK N   1      28.765  25.529  -7.221  0.00  0.00     0.033 A 
HETATM    2  C   UNK N   1      29.474  26.094  -6.162  0.00  0.00     0.030 A 
HETATM    3  C   UNK N   1      29.325  27.443  -5.855  0.00  0.00     0.009 A 
HETATM    4  C   UNK N   1      28.467  28.253  -6.614  0.00  0.00    -0.057 A 
HETATM    5  C   UNK N   1      27.766  27.695  -7.687  0.00  0.00     0.009 A 
HETATM    6  C   UNK N   1      27.909  26.337  -7.989  0.00  0.00     0.030 A 
ENDROOT
BRANCH   4   7
HETATM    7  C   UNK N   1      28.264  29.702  -6.283  0.00  0.00     0.057 C 
BRANCH   7   8
HETATM    8  C   UNK N   1      28.113  29.966  -4.789  0.00  0.00     0.118 C 
BRANCH   8   9
HETATM    9  N   UNK N   1      26.719  30.223  -4.460  0.00  0.00    -0.417 N 
HETATM   10  H   UNK N   1      26.130  30.945  -4.875  0.00  0.00     0.153 HD
BRANCH   9  11
HETATM   11  C   UNK N   1      26.311  29.269  -3.436  0.00  0.00     0.152 C 
BRANCH  11  12
HETATM   12  C   UNK N   1      26.041  27.907  -4.008  0.00  0.00    -0.039 A 
HETATM   13  C   UNK N   1      26.636  26.789  -3.417  0.00  0.00     0.032 A 
HETATM   14  C   UNK N   1      26.390  25.511  -3.927  0.00  0.00     0.034 A 
HETATM   15  C   UNK N   1      25.557  25.348  -5.038  0.00  0.00     0.024 A 
HETATM   16 Cl   UNK N   1      27.114  24.111  -3.169  0.00  0.00    -0.084 Cl
HETATM   17  C   UNK N   1      24.964  26.461  -5.637  0.00  0.00     0.002 A 
HETATM   18  C   UNK N   1      25.202  27.735  -5.121  0.00  0.00     0.009 A 
ENDBRANCH  11  12
ENDBRANCH   9  11
ENDBRANCH   8   9
ENDBRANCH   7   8
ENDBRANCH   4   7
BRANCH   1  19
HETATM   19  N   UNK N   1      28.930  24.142  -7.471  0.00  0.00    -0.342 N 
HETATM   20  H   UNK N   1      29.499  23.900  -8.238  0.00  0.00     0.167 HD
BRANCH  19  21
HETATM   21  C   UNK N   1      28.365  23.063  -6.738  0.00  0.00     0.116 C 
BRANCH  21  22
HETATM   22  C   UNK N   1      27.195  22.371  -7.292  0.00  0.00     0.048 A 
HETATM   23  S   UNK N   1      27.174  21.280  -8.532  0.00  0.00    -0.098 SA
HETATM   24  C   UNK N   1      25.549  20.945  -8.592  0.00  0.00     0.050 A 
HETATM   25  C   UNK N   1      24.958  21.723  -7.585  0.00  0.00     0.009 A 
HETATM   26  C   UNK N   1      25.879  22.525  -6.856  0.00  0.00     0.023 A 
ENDBRANCH  21  22
BRANCH  21  27
HETATM   27  N   UNK N   1      28.877  22.671  -5.626  0.00  0.00    -0.384 N 
HETATM   28  H   UNK N   1      28.346  22.119  -5.007  0.00  0.00     0.157 HD
ATOM     29  HN  UNK N   1      29.833  22.932  -5.383  1.00  0.00     0.157 HD
ENDBRANCH  21  27
ENDBRANCH  19  21
ENDBRANCH   1  19
TORSDOF 9
ENDMDL
MODEL 7
REMARK VINA RESULT:      -5.8      2.415      6.331
REMARK  9 active torsions:
REMARK  status: ('A' for Active; 'I' for Inactive)
REMARK    1  A    between atoms: C_5  and  C_6 
REMARK    2  A    between atoms: C_6  and  N_7 
REMARK    3  A    between atoms: C_6  and  N_9 
REMARK    4  A    between atoms: N_9  and  C_10 
REMARK    5  A    between atoms: C_13  and  C_16 
REMARK    6  A    between atoms: C_16  and  C_17 
REMARK    7  A    between atoms: C_17  and  N_18 
REMARK    8  A    between atoms: N_18  and  C_19 
REMARK    9  A    between atoms: C_19  and  C_20 
ROOT
HETATM    1  C   UNK N   1      29.445  25.853  -6.586  0.00  0.00     0.033 A 
HETATM    2  C   UNK N   1      29.948  26.596  -5.518  0.00  0.00     0.030 A 
HETATM    3  C   UNK N   1      29.575  27.925  -5.348  0.00  0.00     0.009 A 
HETATM    4  C   UNK N   1      28.697  28.538  -6.254  0.00  0.00    -0.057 A 
HETATM    5  C   UNK N   1      28.203  27.804  -7.336  0.00  0.00     0.009 A 
HETATM    6  C   UNK N   1      28.571  26.464  -7.501  0.00  0.00     0.030 A 
ENDROOT
BRANCH   4   7
HETATM    7  C   UNK N   1      28.254  29.961  -6.074  0.00  0.00     0.057 C 
BRANCH   7   8
HETATM    8  C   UNK N   1      27.951  30.320  -4.624  0.00  0.00     0.118 C 
BRANCH   8   9
HETATM    9  N   UNK N   1      26.521  30.229  -4.370  0.00  0.00    -0.417 N 
HETATM   10  H   UNK N   1      25.797  30.791  -4.817  0.00  0.00     0.153 HD
BRANCH   9  11
HETATM   11  C   UNK N   1      26.304  29.194  -3.365  0.00  0.00     0.152 C 
BRANCH  11  12
HETATM   12  C   UNK N   1      26.063  27.847  -3.984  0.00  0.00    -0.039 A 
HETATM   13  C   UNK N   1      26.630  26.715  -3.394  0.00  0.00     0.032 A 
HETATM   14  C   UNK N   1      26.411  25.450  -3.948  0.00  0.00     0.034 A 
HETATM   15  C   UNK N   1      25.631  25.315  -5.101  0.00  0.00     0.024 A 
HETATM   16 Cl   UNK N   1      27.100  24.031  -3.193  0.00  0.00    -0.084 Cl
HETATM   17  C   UNK N   1      25.067  26.444  -5.699  0.00  0.00     0.002 A 
HETATM   18  C   UNK N   1      25.278  27.704  -5.140  0.00  0.00     0.009 A 
ENDBRANCH  11  12
ENDBRANCH   9  11
ENDBRANCH   8   9
ENDBRANCH   7   8
ENDBRANCH   4   7
BRANCH   1  19
HETATM   19  N   UNK N   1      29.833  24.493  -6.696  0.00  0.00    -0.342 N 
HETATM   20  H   UNK N   1      30.599  24.302  -7.286  0.00  0.00     0.167 HD
BRANCH  19  21
HETATM   21  C   UNK N   1      29.239  23.375  -6.049  0.00  0.00     0.116 C 
BRANCH  21  22
HETATM   22  C   UNK N   1      29.980  22.707  -4.972  0.00  0.00     0.048 A 
HETATM   23  S   UNK N   1      30.793  23.425  -3.726  0.00  0.00    -0.098 SA
HETATM   24  C   UNK N   1      31.363  22.077  -2.942  0.00  0.00     0.050 A 
HETATM   25  C   UNK N   1      30.903  20.977  -3.682  0.00  0.00     0.009 A 
HETATM   26  C   UNK N   1      30.128  21.329  -4.822  0.00  0.00     0.023 A 
ENDBRANCH  21  22
BRANCH  21  27
HETATM   27  N   UNK N   1      28.063  22.965  -6.370  0.00  0.00    -0.384 N 
HETATM   28  H   UNK N   1      27.825  22.846  -7.317  0.00  0.00     0.157 HD
ATOM     29  HN  UNK N   1      27.376  22.763  -5.643  1.00  0.00     0.157 HD
ENDBRANCH  21  27
ENDBRANCH  19  21
ENDBRANCH   1  19
TORSDOF 9
ENDMDL
MODEL 8
REMARK VINA RESULT:      -5.7     24.494     26.696
REMARK  9 active torsions:
REMARK  status: ('A' for Active; 'I' for Inactive)
REMARK    1  A    between atoms: C_5  and  C_6 
REMARK    2  A    between atoms: C_6  and  N_7 
REMARK    3  A    between atoms: C_6  and  N_9 
REMARK    4  A    between atoms: N_9  and  C_10 
REMARK    5  A    between atoms: C_13  and  C_16 
REMARK    6  A    between atoms: C_16  and  C_17 
REMARK    7  A    between atoms: C_17  and  N_18 
REMARK    8  A    between atoms: N_18  and  C_19 
REMARK    9  A    between atoms: C_19  and  C_20 
ROOT
HETATM    1  C   UNK N   1      35.082  11.417  19.446  0.00  0.00     0.033 A 
HETATM    2  C   UNK N   1      35.158  10.585  18.330  0.00  0.00     0.030 A 
HETATM    3  C   UNK N   1      35.275  11.127  17.054  0.00  0.00     0.009 A 
HETATM    4  C   UNK N   1      35.306  12.518  16.874  0.00  0.00    -0.057 A 
HETATM    5  C   UNK N   1      35.214  13.357  17.987  0.00  0.00     0.009 A 
HETATM    6  C   UNK N   1      35.106  12.811  19.271  0.00  0.00     0.030 A 
ENDROOT
BRANCH   4   7
HETATM    7  C   UNK N   1      35.464  13.126  15.511  0.00  0.00     0.057 C 
BRANCH   7   8
HETATM    8  C   UNK N   1      36.693  14.019  15.386  0.00  0.00     0.118 C 
BRANCH   8   9
HETATM    9  N   UNK N   1      36.838  14.490  14.017  0.00  0.00    -0.417 N 
HETATM   10  H   UNK N   1      37.486  15.210  13.697  0.00  0.00     0.153 HD
BRANCH   9  11
HETATM   11  C   UNK N   1      35.899  13.751  13.181  0.00  0.00     0.152 C 
BRANCH  11  12
HETATM   12  C   UNK N   1      35.419  14.564  12.014  0.00  0.00    -0.039 A 
HETATM   13  C   UNK N   1      34.490  14.008  11.132  0.00  0.00     0.032 A 
HETATM   14  C   UNK N   1      34.022  14.752  10.043  0.00  0.00     0.034 A 
HETATM   15  C   UNK N   1      34.493  16.050   9.828  0.00  0.00     0.024 A 
HETATM   16 Cl   UNK N   1      32.839  14.063   8.956  0.00  0.00    -0.084 Cl
HETATM   17  C   UNK N   1      35.427  16.610  10.703  0.00  0.00     0.002 A 
HETATM   18  C   UNK N   1      35.885  15.871  11.794  0.00  0.00     0.009 A 
ENDBRANCH  11  12
ENDBRANCH   9  11
ENDBRANCH   8   9
ENDBRANCH   7   8
ENDBRANCH   4   7
BRANCH   1  19
HETATM   19  N   UNK N   1      34.996  10.813  20.726  0.00  0.00    -0.342 N 
HETATM   20  H   UNK N   1      35.846  10.672  21.203  0.00  0.00     0.167 HD
BRANCH  19  21
HETATM   21  C   UNK N   1      33.816  10.387  21.398  0.00  0.00     0.116 C 
BRANCH  21  22
HETATM   22  C   UNK N   1      33.101   9.211  20.889  0.00  0.00     0.048 A 
HETATM   23  S   UNK N   1      33.753   7.757  20.451  0.00  0.00    -0.098 SA
HETATM   24  C   UNK N   1      32.375   6.954  19.989  0.00  0.00     0.050 A 
HETATM   25  C   UNK N   1      31.319   7.858  20.179  0.00  0.00     0.009 A 
HETATM   26  C   UNK N   1      31.725   9.125  20.682  0.00  0.00     0.023 A 
ENDBRANCH  21  22
BRANCH  21  27
HETATM   27  N   UNK N   1      33.392  10.993  22.449  0.00  0.00    -0.384 N 
HETATM   28  H   UNK N   1      32.624  10.632  22.949  0.00  0.00     0.157 HD
ATOM     29  HN  UNK N   1      33.849  11.848  22.766  1.00  0.00     0.157 HD
ENDBRANCH  21  27
ENDBRANCH  19  21
ENDBRANCH   1  19
TORSDOF 9
ENDMDL
MODEL 9
REMARK VINA RESULT:      -5.7      1.931      2.676
REMARK  9 active torsions:
REMARK  status: ('A' for Active; 'I' for Inactive)
REMARK    1  A    between atoms: C_5  and  C_6 
REMARK    2  A    between atoms: C_6  and  N_7 
REMARK    3  A    between atoms: C_6  and  N_9 
REMARK    4  A    between atoms: N_9  and  C_10 
REMARK    5  A    between atoms: C_13  and  C_16 
REMARK    6  A    between atoms: C_16  and  C_17 
REMARK    7  A    between atoms: C_17  and  N_18 
REMARK    8  A    between atoms: N_18  and  C_19 
REMARK    9  A    between atoms: C_19  and  C_20 
ROOT
HETATM    1  C   UNK N   1      26.737  28.185  -5.713  0.00  0.00     0.033 A 
HETATM    2  C   UNK N   1      25.532  27.488  -5.789  0.00  0.00     0.030 A 
HETATM    3  C   UNK N   1      25.291  26.610  -6.840  0.00  0.00     0.009 A 
HETATM    4  C   UNK N   1      26.253  26.424  -7.845  0.00  0.00    -0.057 A 
HETATM    5  C   UNK N   1      27.456  27.133  -7.784  0.00  0.00     0.009 A 
HETATM    6  C   UNK N   1      27.701  28.008  -6.720  0.00  0.00     0.030 A 
ENDROOT
BRANCH   4   7
HETATM    7  C   UNK N   1      26.030  25.459  -8.972  0.00  0.00     0.057 C 
BRANCH   7   8
HETATM    8  C   UNK N   1      25.446  24.126  -8.520  0.00  0.00     0.118 C 
BRANCH   8   9
HETATM    9  N   UNK N   1      26.508  23.150  -8.324  0.00  0.00    -0.417 N 
HETATM   10  H   UNK N   1      27.222  22.897  -9.008  0.00  0.00     0.153 HD
BRANCH   9  11
HETATM   11  C   UNK N   1      26.376  22.598  -6.981  0.00  0.00     0.152 C 
BRANCH  11  12
HETATM   12  C   UNK N   1      26.998  23.486  -5.942  0.00  0.00    -0.039 A 
HETATM   13  C   UNK N   1      28.324  23.895  -6.100  0.00  0.00     0.032 A 
HETATM   14  C   UNK N   1      28.920  24.730  -5.150  0.00  0.00     0.034 A 
HETATM   15  C   UNK N   1      28.193  25.148  -4.031  0.00  0.00     0.024 A 
HETATM   16 Cl   UNK N   1      30.572  25.263  -5.364  0.00  0.00    -0.084 Cl
HETATM   17  C   UNK N   1      26.869  24.737  -3.863  0.00  0.00     0.002 A 
HETATM   18  C   UNK N   1      26.273  23.913  -4.817  0.00  0.00     0.009 A 
ENDBRANCH  11  12
ENDBRANCH   9  11
ENDBRANCH   8   9
ENDBRANCH   7   8
ENDBRANCH   4   7
BRANCH   1  19
HETATM   19  N   UNK N   1      26.945  29.043  -4.603  0.00  0.00    -0.342 N 
HETATM   20  H   UNK N   1      26.818  30.007  -4.764  0.00  0.00     0.167 HD
BRANCH  19  21
HETATM   21  C   UNK N   1      27.316  28.667  -3.283  0.00  0.00     0.116 C 
BRANCH  21  22
HETATM   22  C   UNK N   1      28.680  28.955  -2.825  0.00  0.00     0.048 A 
HETATM   23  S   UNK N   1      30.093  28.489  -3.543  0.00  0.00    -0.098 SA
HETATM   24  C   UNK N   1      31.185  29.158  -2.486  0.00  0.00     0.050 A 
HETATM   25  C   UNK N   1      30.422  29.794  -1.495  0.00  0.00     0.009 A 
HETATM   26  C   UNK N   1      29.017  29.680  -1.683  0.00  0.00     0.023 A 
ENDBRANCH  21  22
BRANCH  21  27
HETATM   27  N   UNK N   1      26.473  28.112  -2.485  0.00  0.00    -0.384 N 
HETATM   28  H   UNK N   1      26.686  27.247  -2.068  0.00  0.00     0.157 HD
ATOM     29  HN  UNK N   1      25.583  28.569  -2.285  1.00  0.00     0.157 HD
ENDBRANCH  21  27
ENDBRANCH  19  21
ENDBRANCH   1  19
TORSDOF 9
ENDMDL
