MODEL 1
REMARK VINA RESULT:      -6.2      0.000      0.000
REMARK  4 active torsions:
REMARK  status: ('A' for Active; 'I' for Inactive)
REMARK    1  A    between atoms: C_1  and  O_10 
REMARK    2  A    between atoms: C_7  and  C_11 
REMARK    3  A    between atoms: C_11  and  C_12 
REMARK    4  A    between atoms: C_12  and  N_13 
REMARK       I    between atoms: N_13  and  C_14 
ROOT
HETATM    1  C   UNK N   1      25.835  28.094  -3.811  0.00  0.00     0.066 A 
HETATM    2  C   UNK N   1      26.469  26.907  -3.387  0.00  0.00     0.050 A 
HETATM    3  C   UNK N   1      26.262  25.750  -4.146  0.00  0.00     0.001 A 
HETATM    4  C   UNK N   1      25.020  28.098  -4.964  0.00  0.00     0.039 A 
HETATM    5  C   UNK N   1      24.831  26.920  -5.705  0.00  0.00     0.033 A 
HETATM    6  C   UNK N   1      25.469  25.772  -5.262  0.00  0.00     0.043 A 
HETATM    7  C   UNK N   1      26.723  24.456  -4.016  0.00  0.00    -0.029 A 
HETATM    8  C   UNK N   1      26.179  23.742  -5.078  0.00  0.00     0.096 A 
HETATM    9  N   UNK N   1      25.412  24.555  -5.838  0.00  0.00    -0.365 N 
HETATM   10  H   UNK N   1      24.912  24.307  -6.648  0.00  0.00     0.165 HD
ENDROOT
BRANCH   7  11
HETATM   11  C   UNK N   1      27.616  23.810  -3.005  0.00  0.00     0.060 C 
BRANCH  11  12
HETATM   12  C   UNK N   1      29.120  23.910  -3.214  0.00  0.00     0.127 C 
BRANCH  12  13
HETATM   13  N   UNK N   1      29.727  22.683  -3.728  0.00  0.00    -0.361 N 
HETATM   14  C   UNK N   1      30.756  21.968  -3.182  0.00  0.00     0.213 C 
HETATM   15  C   UNK N   1      31.231  20.733  -3.864  0.00  0.00     0.117 C 
HETATM   16  O   UNK N   1      31.300  22.313  -2.145  0.00  0.00    -0.274 OA
HETATM   17  H   UNK N   1      29.350  22.329  -4.566  0.00  0.00     0.162 HD
ENDBRANCH  12  13
ENDBRANCH  11  12
ENDBRANCH   7  11
BRANCH   1  18
HETATM   18  O   UNK N   1      26.004  29.231  -3.116  0.00  0.00    -0.361 OA
HETATM   19  H   UNK N   1      25.540  29.362  -2.312  0.00  0.00     0.217 HD
ENDBRANCH   1  18
TORSDOF 4
ENDMDL
MODEL 2
REMARK VINA RESULT:      -6.1     10.894     12.773
REMARK  4 active torsions:
REMARK  status: ('A' for Active; 'I' for Inactive)
REMARK    1  A    between atoms: C_1  and  O_10 
REMARK    2  A    between atoms: C_7  and  C_11 
REMARK    3  A    between atoms: C_11  and  C_12 
REMARK    4  A    between atoms: C_12  and  N_13 
REMARK       I    between atoms: N_13  and  C_14 
ROOT
HETATM    1  C   UNK N   1      27.546  19.981   4.551  0.00  0.00     0.066 A 
HETATM    2  C   UNK N   1      28.333  18.908   5.020  0.00  0.00     0.050 A 
HETATM    3  C   UNK N   1      28.376  18.685   6.401  0.00  0.00     0.001 A 
HETATM    4  C   UNK N   1      26.832  20.795   5.458  0.00  0.00     0.039 A 
HETATM    5  C   UNK N   1      26.896  20.547   6.838  0.00  0.00     0.033 A 
HETATM    6  C   UNK N   1      27.677  19.484   7.265  0.00  0.00     0.043 A 
HETATM    7  C   UNK N   1      29.028  17.745   7.173  0.00  0.00    -0.029 A 
HETATM    8  C   UNK N   1      28.687  18.023   8.493  0.00  0.00     0.096 A 
HETATM    9  N   UNK N   1      27.859  19.090   8.542  0.00  0.00    -0.365 N 
HETATM   10  H   UNK N   1      27.467  19.497   9.347  0.00  0.00     0.165 HD
ENDROOT
BRANCH   7  11
HETATM   11  C   UNK N   1      29.937  16.614   6.814  0.00  0.00     0.060 C 
BRANCH  11  12
HETATM   12  C   UNK N   1      31.306  16.952   6.241  0.00  0.00     0.127 C 
BRANCH  12  13
HETATM   13  N   UNK N   1      32.255  17.452   7.234  0.00  0.00    -0.361 N 
HETATM   14  C   UNK N   1      33.558  17.815   7.036  0.00  0.00     0.213 C 
HETATM   15  C   UNK N   1      34.363  18.305   8.188  0.00  0.00     0.117 C 
HETATM   16  O   UNK N   1      34.084  17.749   5.937  0.00  0.00    -0.274 OA
HETATM   17  H   UNK N   1      31.916  17.536   8.155  0.00  0.00     0.162 HD
ENDBRANCH  12  13
ENDBRANCH  11  12
ENDBRANCH   7  11
BRANCH   1  18
HETATM   18  O   UNK N   1      27.472  20.234   3.235  0.00  0.00    -0.361 OA
HETATM   19  H   UNK N   1      26.680  20.577   2.867  0.00  0.00     0.217 HD
ENDBRANCH   1  18
TORSDOF 4
ENDMDL
MODEL 3
REMARK VINA RESULT:      -5.9     16.919     18.832
REMARK  4 active torsions:
REMARK  status: ('A' for Active; 'I' for Inactive)
REMARK    1  A    between atoms: C_1  and  O_10 
REMARK    2  A    between atoms: C_7  and  C_11 
REMARK    3  A    between atoms: C_11  and  C_12 
REMARK    4  A    between atoms: C_12  and  N_13 
REMARK       I    between atoms: N_13  and  C_14 
ROOT
HETATM    1  C   UNK N   1      21.781  12.216  11.096  0.00  0.00     0.066 A 
HETATM    2  C   UNK N   1      21.520  12.970   9.933  0.00  0.00     0.050 A 
HETATM    3  C   UNK N   1      22.606  13.317   9.122  0.00  0.00     0.001 A 
HETATM    4  C   UNK N   1      23.101  11.832  11.419  0.00  0.00     0.039 A 
HETATM    5  C   UNK N   1      24.171  12.196  10.586  0.00  0.00     0.033 A 
HETATM    6  C   UNK N   1      23.880  12.936   9.451  0.00  0.00     0.043 A 
HETATM    7  C   UNK N   1      22.700  14.028   7.943  0.00  0.00    -0.029 A 
HETATM    8  C   UNK N   1      24.049  14.044   7.605  0.00  0.00     0.096 A 
HETATM    9  N   UNK N   1      24.766  13.373   8.534  0.00  0.00    -0.365 N 
HETATM   10  H   UNK N   1      25.740  13.232   8.539  0.00  0.00     0.165 HD
ENDROOT
BRANCH   7  11
HETATM   11  C   UNK N   1      21.665  14.696   7.096  0.00  0.00     0.060 C 
BRANCH  11  12
HETATM   12  C   UNK N   1      21.310  16.143   7.409  0.00  0.00     0.127 C 
BRANCH  12  13
HETATM   13  N   UNK N   1      20.023  16.301   8.085  0.00  0.00    -0.361 N 
HETATM   14  C   UNK N   1      19.505  17.438   8.640  0.00  0.00     0.213 C 
HETATM   15  C   UNK N   1      18.165  17.392   9.285  0.00  0.00     0.117 C 
HETATM   16  O   UNK N   1      20.113  18.496   8.623  0.00  0.00    -0.274 OA
HETATM   17  H   UNK N   1      19.462  15.494   8.147  0.00  0.00     0.162 HD
ENDBRANCH  12  13
ENDBRANCH  11  12
ENDBRANCH   7  11
BRANCH   1  18
HETATM   18  O   UNK N   1      20.771  11.857  11.905  0.00  0.00    -0.361 OA
HETATM   19  H   UNK N   1      20.480  12.441  12.578  0.00  0.00     0.217 HD
ENDBRANCH   1  18
TORSDOF 4
ENDMDL
MODEL 4
REMARK VINA RESULT:      -5.8      2.027      6.727
REMARK  4 active torsions:
REMARK  status: ('A' for Active; 'I' for Inactive)
REMARK    1  A    between atoms: C_1  and  O_10 
REMARK    2  A    between atoms: C_7  and  C_11 
REMARK    3  A    between atoms: C_11  and  C_12 
REMARK    4  A    between atoms: C_12  and  N_13 
REMARK       I    between atoms: N_13  and  C_14 
ROOT
HETATM    1  C   UNK N   1      31.768  21.388  -3.119  0.00  0.00     0.066 A 
HETATM    2  C   UNK N   1      30.813  22.426  -3.104  0.00  0.00     0.050 A 
HETATM    3  C   UNK N   1      29.972  22.554  -4.215  0.00  0.00     0.001 A 
HETATM    4  C   UNK N   1      31.862  20.516  -4.226  0.00  0.00     0.039 A 
HETATM    5  C   UNK N   1      31.003  20.671  -5.327  0.00  0.00     0.033 A 
HETATM    6  C   UNK N   1      30.076  21.700  -5.279  0.00  0.00     0.043 A 
HETATM    7  C   UNK N   1      28.953  23.436  -4.515  0.00  0.00    -0.029 A 
HETATM    8  C   UNK N   1      28.478  23.067  -5.769  0.00  0.00     0.096 A 
HETATM    9  N   UNK N   1      29.171  22.003  -6.232  0.00  0.00    -0.365 N 
HETATM   10  H   UNK N   1      29.040  21.542  -7.091  0.00  0.00     0.165 HD
ENDROOT
BRANCH   7  11
HETATM   11  C   UNK N   1      28.374  24.588  -3.759  0.00  0.00     0.060 C 
BRANCH  11  12
HETATM   12  C   UNK N   1      26.867  24.620  -3.548  0.00  0.00     0.127 C 
BRANCH  12  13
HETATM   13  N   UNK N   1      26.209  25.771  -4.165  0.00  0.00    -0.361 N 
HETATM   14  C   UNK N   1      25.446  25.788  -5.299  0.00  0.00     0.213 C 
HETATM   15  C   UNK N   1      24.858  27.074  -5.764  0.00  0.00     0.117 C 
HETATM   16  O   UNK N   1      25.233  24.776  -5.946  0.00  0.00    -0.274 OA
HETATM   17  H   UNK N   1      26.329  26.635  -3.709  0.00  0.00     0.162 HD
ENDBRANCH  12  13
ENDBRANCH  11  12
ENDBRANCH   7  11
BRANCH   1  18
HETATM   18  O   UNK N   1      32.597  21.224  -2.075  0.00  0.00    -0.361 OA
HETATM   19  H   UNK N   1      33.477  20.930  -2.217  0.00  0.00     0.217 HD
ENDBRANCH   1  18
TORSDOF 4
ENDMDL
MODEL 5
REMARK VINA RESULT:      -5.8     11.248     14.265
REMARK  4 active torsions:
REMARK  status: ('A' for Active; 'I' for Inactive)
REMARK    1  A    between atoms: C_1  and  O_10 
REMARK    2  A    between atoms: C_7  and  C_11 
REMARK    3  A    between atoms: C_11  and  C_12 
REMARK    4  A    between atoms: C_12  and  N_13 
REMARK       I    between atoms: N_13  and  C_14 
ROOT
HETATM    1  C   UNK N   1      33.320  17.341   8.321  0.00  0.00     0.066 A 
HETATM    2  C   UNK N   1      31.921  17.273   8.157  0.00  0.00     0.050 A 
HETATM    3  C   UNK N   1      31.417  17.268   6.851  0.00  0.00     0.001 A 
HETATM    4  C   UNK N   1      34.172  17.403   7.196  0.00  0.00     0.039 A 
HETATM    5  C   UNK N   1      33.636  17.396   5.898  0.00  0.00     0.033 A 
HETATM    6  C   UNK N   1      32.257  17.328   5.772  0.00  0.00     0.043 A 
HETATM    7  C   UNK N   1      30.133  17.210   6.348  0.00  0.00    -0.029 A 
HETATM    8  C   UNK N   1      30.257  17.236   4.963  0.00  0.00     0.096 A 
HETATM    9  N   UNK N   1      31.561  17.309   4.617  0.00  0.00    -0.365 N 
HETATM   10  H   UNK N   1      31.929  17.341   3.705  0.00  0.00     0.165 HD
ENDROOT
BRANCH   7  11
HETATM   11  C   UNK N   1      28.800  17.132   7.021  0.00  0.00     0.060 C 
BRANCH  11  12
HETATM   12  C   UNK N   1      27.589  17.670   6.271  0.00  0.00     0.127 C 
BRANCH  12  13
HETATM   13  N   UNK N   1      27.285  19.069   6.567  0.00  0.00    -0.361 N 
HETATM   14  C   UNK N   1      27.578  20.167   5.807  0.00  0.00     0.213 C 
HETATM   15  C   UNK N   1      27.178  21.517   6.288  0.00  0.00     0.117 C 
HETATM   16  O   UNK N   1      28.162  20.072   4.739  0.00  0.00    -0.274 OA
HETATM   17  H   UNK N   1      26.814  19.242   7.414  0.00  0.00     0.162 HD
ENDBRANCH  12  13
ENDBRANCH  11  12
ENDBRANCH   7  11
BRANCH   1  18
HETATM   18  O   UNK N   1      33.852  17.346   9.554  0.00  0.00    -0.361 OA
HETATM   19  H   UNK N   1      33.599  16.693  10.177  0.00  0.00     0.217 HD
ENDBRANCH   1  18
TORSDOF 4
ENDMDL
MODEL 6
REMARK VINA RESULT:      -5.8      3.031      4.266
REMARK  4 active torsions:
REMARK  status: ('A' for Active; 'I' for Inactive)
REMARK    1  A    between atoms: C_1  and  O_10 
REMARK    2  A    between atoms: C_7  and  C_11 
REMARK    3  A    between atoms: C_11  and  C_12 
REMARK    4  A    between atoms: C_12  and  N_13 
REMARK       I    between atoms: N_13  and  C_14 
ROOT
HETATM    1  C   UNK N   1      28.538  29.658  -6.659  0.00  0.00     0.066 A 
HETATM    2  C   UNK N   1      27.688  28.532  -6.667  0.00  0.00     0.050 A 
HETATM    3  C   UNK N   1      26.825  28.358  -5.579  0.00  0.00     0.001 A 
HETATM    4  C   UNK N   1      28.509  30.569  -5.580  0.00  0.00     0.039 A 
HETATM    5  C   UNK N   1      27.632  30.367  -4.502  0.00  0.00     0.033 A 
HETATM    6  C   UNK N   1      26.810  29.252  -4.542  0.00  0.00     0.043 A 
HETATM    7  C   UNK N   1      25.887  27.391  -5.280  0.00  0.00    -0.029 A 
HETATM    8  C   UNK N   1      25.336  27.752  -4.055  0.00  0.00     0.096 A 
HETATM    9  N   UNK N   1      25.906  28.892  -3.609  0.00  0.00    -0.365 N 
HETATM   10  H   UNK N   1      25.703  29.366  -2.771  0.00  0.00     0.165 HD
ENDROOT
BRANCH   7  11
HETATM   11  C   UNK N   1      25.447  26.165  -6.014  0.00  0.00     0.060 C 
BRANCH  11  12
HETATM   12  C   UNK N   1      25.494  24.835  -5.276  0.00  0.00     0.127 C 
BRANCH  12  13
HETATM   13  N   UNK N   1      26.843  24.418  -4.895  0.00  0.00    -0.361 N 
HETATM   14  C   UNK N   1      27.342  24.254  -3.634  0.00  0.00     0.213 C 
HETATM   15  C   UNK N   1      28.754  23.817  -3.457  0.00  0.00     0.117 C 
HETATM   16  O   UNK N   1      26.661  24.457  -2.641  0.00  0.00    -0.274 OA
HETATM   17  H   UNK N   1      27.465  24.233  -5.636  0.00  0.00     0.162 HD
ENDBRANCH  12  13
ENDBRANCH  11  12
ENDBRANCH   7  11
BRANCH   1  18
HETATM   18  O   UNK N   1      29.383  29.869  -7.681  0.00  0.00    -0.361 OA
HETATM   19  H   UNK N   1      30.289  29.642  -7.595  0.00  0.00     0.217 HD
ENDBRANCH   1  18
TORSDOF 4
ENDMDL
MODEL 7
REMARK VINA RESULT:      -5.7     16.276     18.210
REMARK  4 active torsions:
REMARK  status: ('A' for Active; 'I' for Inactive)
REMARK    1  A    between atoms: C_1  and  O_10 
REMARK    2  A    between atoms: C_7  and  C_11 
REMARK    3  A    between atoms: C_11  and  C_12 
REMARK    4  A    between atoms: C_12  and  N_13 
REMARK       I    between atoms: N_13  and  C_14 
ROOT
HETATM    1  C   UNK N   1      21.770  12.246  11.154  0.00  0.00     0.066 A 
HETATM    2  C   UNK N   1      21.560  12.916   9.931  0.00  0.00     0.050 A 
HETATM    3  C   UNK N   1      22.684  13.238   9.162  0.00  0.00     0.001 A 
HETATM    4  C   UNK N   1      23.077  11.919  11.576  0.00  0.00     0.039 A 
HETATM    5  C   UNK N   1      24.185  12.255  10.783  0.00  0.00     0.033 A 
HETATM    6  C   UNK N   1      23.944  12.912   9.586  0.00  0.00     0.043 A 
HETATM    7  C   UNK N   1      22.830  13.873   7.945  0.00  0.00    -0.029 A 
HETATM    8  C   UNK N   1      24.196  13.902   7.684  0.00  0.00     0.096 A 
HETATM    9  N   UNK N   1      24.873  13.312   8.694  0.00  0.00    -0.365 N 
HETATM   10  H   UNK N   1      25.847  13.197   8.764  0.00  0.00     0.165 HD
ENDROOT
BRANCH   7  11
HETATM   11  C   UNK N   1      21.832  14.458   6.998  0.00  0.00     0.060 C 
BRANCH  11  12
HETATM   12  C   UNK N   1      21.323  15.865   7.276  0.00  0.00     0.127 C 
BRANCH  12  13
HETATM   13  N   UNK N   1      21.447  16.774   6.137  0.00  0.00    -0.361 N 
HETATM   14  C   UNK N   1      21.262  18.128   6.124  0.00  0.00     0.213 C 
HETATM   15  C   UNK N   1      21.440  18.878   4.851  0.00  0.00     0.117 C 
HETATM   16  O   UNK N   1      20.954  18.744   7.132  0.00  0.00    -0.274 OA
HETATM   17  H   UNK N   1      21.692  16.362   5.277  0.00  0.00     0.162 HD
ENDBRANCH  12  13
ENDBRANCH  11  12
ENDBRANCH   7  11
BRANCH   1  18
HETATM   18  O   UNK N   1      20.722  11.915  11.927  0.00  0.00    -0.361 OA
HETATM   19  H   UNK N   1      20.202  12.587  12.323  0.00  0.00     0.217 HD
ENDBRANCH   1  18
TORSDOF 4
ENDMDL
MODEL 8
REMARK VINA RESULT:      -5.7     14.081     15.481
REMARK  4 active torsions:
REMARK  status: ('A' for Active; 'I' for Inactive)
REMARK    1  A    between atoms: C_1  and  O_10 
REMARK    2  A    between atoms: C_7  and  C_11 
REMARK    3  A    between atoms: C_11  and  C_12 
REMARK    4  A    between atoms: C_12  and  N_13 
REMARK       I    between atoms: N_13  and  C_14 
ROOT
HETATM    1  C   UNK N   1      28.342  17.773   8.488  0.00  0.00     0.066 A 
HETATM    2  C   UNK N   1      29.716  18.044   8.656  0.00  0.00     0.050 A 
HETATM    3  C   UNK N   1      30.605  17.521   7.709  0.00  0.00     0.001 A 
HETATM    4  C   UNK N   1      27.893  16.998   7.396  0.00  0.00     0.039 A 
HETATM    5  C   UNK N   1      28.809  16.487   6.463  0.00  0.00     0.033 A 
HETATM    6  C   UNK N   1      30.152  16.772   6.657  0.00  0.00     0.043 A 
HETATM    7  C   UNK N   1      31.977  17.596   7.578  0.00  0.00    -0.029 A 
HETATM    8  C   UNK N   1      32.297  16.878   6.431  0.00  0.00     0.096 A 
HETATM    9  N   UNK N   1      31.174  16.375   5.872  0.00  0.00    -0.365 N 
HETATM   10  H   UNK N   1      31.114  15.829   5.056  0.00  0.00     0.165 HD
ENDROOT
BRANCH   7  11
HETATM   11  C   UNK N   1      33.024  18.266   8.408  0.00  0.00     0.060 C 
BRANCH  11  12
HETATM   12  C   UNK N   1      34.379  17.585   8.536  0.00  0.00     0.127 C 
BRANCH  12  13
HETATM   13  N   UNK N   1      34.687  17.133   9.891  0.00  0.00    -0.361 N 
HETATM   14  C   UNK N   1      35.369  16.008  10.262  0.00  0.00     0.213 C 
HETATM   15  C   UNK N   1      35.582  15.726  11.708  0.00  0.00     0.117 C 
HETATM   16  O   UNK N   1      35.811  15.223   9.438  0.00  0.00    -0.274 OA
HETATM   17  H   UNK N   1      34.366  17.707  10.624  0.00  0.00     0.162 HD
ENDBRANCH  12  13
ENDBRANCH  11  12
ENDBRANCH   7  11
BRANCH   1  18
HETATM   18  O   UNK N   1      27.450  18.254   9.369  0.00  0.00    -0.361 OA
HETATM   19  H   UNK N   1      26.735  18.783   9.071  0.00  0.00     0.217 HD
ENDBRANCH   1  18
TORSDOF 4
ENDMDL
MODEL 9
REMARK VINA RESULT:      -5.7     10.971     13.843
REMARK  4 active torsions:
REMARK  status: ('A' for Active; 'I' for Inactive)
REMARK    1  A    between atoms: C_1  and  O_10 
REMARK    2  A    between atoms: C_7  and  C_11 
REMARK    3  A    between atoms: C_11  and  C_12 
REMARK    4  A    between atoms: C_12  and  N_13 
REMARK       I    between atoms: N_13  and  C_14 
ROOT
HETATM    1  C   UNK N   1      28.489  18.002   8.791  0.00  0.00     0.066 A 
HETATM    2  C   UNK N   1      28.531  17.283   7.578  0.00  0.00     0.050 A 
HETATM    3  C   UNK N   1      29.784  17.048   7.002  0.00  0.00     0.001 A 
HETATM    4  C   UNK N   1      29.681  18.463   9.392  0.00  0.00     0.039 A 
HETATM    5  C   UNK N   1      30.924  18.211   8.789  0.00  0.00     0.033 A 
HETATM    6  C   UNK N   1      30.930  17.502   7.599  0.00  0.00     0.043 A 
HETATM    7  C   UNK N   1      30.172  16.393   5.851  0.00  0.00    -0.029 A 
HETATM    8  C   UNK N   1      31.559  16.481   5.803  0.00  0.00     0.096 A 
HETATM    9  N   UNK N   1      32.017  17.162   6.877  0.00  0.00    -0.365 N 
HETATM   10  H   UNK N   1      32.955  17.369   7.090  0.00  0.00     0.165 HD
ENDROOT
BRANCH   7  11
HETATM   11  C   UNK N   1      29.389  15.693   4.787  0.00  0.00     0.060 C 
BRANCH  11  12
HETATM   12  C   UNK N   1      29.016  16.480   3.539  0.00  0.00     0.127 C 
BRANCH  12  13
HETATM   13  N   UNK N   1      28.770  17.900   3.788  0.00  0.00    -0.361 N 
HETATM   14  C   UNK N   1      27.579  18.503   4.078  0.00  0.00     0.213 C 
HETATM   15  C   UNK N   1      27.539  19.974   4.302  0.00  0.00     0.117 C 
HETATM   16  O   UNK N   1      26.540  17.868   4.160  0.00  0.00    -0.274 OA
HETATM   17  H   UNK N   1      29.556  18.492   3.740  0.00  0.00     0.162 HD
ENDBRANCH  12  13
ENDBRANCH  11  12
ENDBRANCH   7  11
BRANCH   1  18
HETATM   18  O   UNK N   1      27.310  18.252   9.383  0.00  0.00    -0.361 OA
HETATM   19  H   UNK N   1      26.880  19.073   9.244  0.00  0.00     0.217 HD
ENDBRANCH   1  18
TORSDOF 4
ENDMDL
