MODEL 1
REMARK VINA RESULT:      -8.3      0.000      0.000
REMARK  1 active torsions:
REMARK  status: ('A' for Active; 'I' for Inactive)
REMARK    1  A    between atoms: C_18  and  N_20 
ROOT
HETATM    1  N   UNK N   1      27.110  16.916   7.454  0.00  0.00    -0.326 N 
HETATM    2  C   UNK N   1      27.969  17.239   8.450  0.00  0.00     0.226 A 
HETATM    3  C   UNK N   1      29.438  17.404   8.321  0.00  0.00     0.145 A 
HETATM    4  O   UNK N   1      27.506  17.415   9.564  0.00  0.00    -0.273 OA
HETATM    5  C   UNK N   1      28.400  16.626   5.277  0.00  0.00     0.018 A 
HETATM    6  C   UNK N   1      27.211  16.633   6.064  0.00  0.00     0.047 A 
HETATM    7  C   UNK N   1      25.993  16.336   5.436  0.00  0.00     0.030 A 
HETATM    8  C   UNK N   1      25.918  16.037   4.079  0.00  0.00     0.002 A 
HETATM    9  C   UNK N   1      27.073  16.028   3.312  0.00  0.00     0.001 A 
HETATM   10  C   UNK N   1      28.297  16.320   3.906  0.00  0.00     0.016 A 
HETATM   11  N   UNK N   1      30.840  16.882   4.931  0.00  0.00    -0.354 N 
HETATM   12  C   UNK N   1      30.167  17.235   7.049  0.00  0.00    -0.009 A 
HETATM   13  C   UNK N   1      29.760  16.912   5.764  0.00  0.00     0.053 A 
HETATM   14  C   UNK N   1      31.519  17.401   6.981  0.00  0.00     0.002 A 
HETATM   15  C   UNK N   1      31.902  17.184   5.696  0.00  0.00     0.043 A 
HETATM   16  C   UNK N   1      33.237  17.279   5.306  0.00  0.00     0.033 A 
HETATM   17  C   UNK N   1      34.185  17.612   6.299  0.00  0.00     0.038 A 
HETATM   18  C   UNK N   1      33.778  17.838   7.641  0.00  0.00     0.103 A 
HETATM   19  C   UNK N   1      32.420  17.729   7.980  0.00  0.00     0.050 A 
HETATM   20  H   UNK N   1      26.181  16.862   7.774  0.00  0.00     0.169 HD
HETATM   21  H   UNK N   1      30.841  16.681   3.967  0.00  0.00     0.166 HD
ENDROOT
BRANCH  18  22
HETATM   22  N   UNK N   1      34.723  18.172   8.648  0.00  0.00    -0.116 N 
HETATM   23  O   UNK N   1      34.887  17.448   9.583  0.00  0.00    -0.532 OA
HETATM   24  O   UNK N   1      35.426  19.280   8.557  0.00  0.00    -0.532 OA
ENDBRANCH  18  22
TORSDOF 1
ENDMDL
MODEL 2
REMARK VINA RESULT:      -7.8     12.662     14.600
REMARK  1 active torsions:
REMARK  status: ('A' for Active; 'I' for Inactive)
REMARK    1  A    between atoms: C_18  and  N_20 
ROOT
HETATM    1  N   UNK N   1      30.659  21.875  -3.639  0.00  0.00    -0.326 N 
HETATM    2  C   UNK N   1      30.253  22.904  -2.858  0.00  0.00     0.226 A 
HETATM    3  C   UNK N   1      29.280  23.959  -3.235  0.00  0.00     0.145 A 
HETATM    4  O   UNK N   1      30.723  22.985  -1.736  0.00  0.00    -0.273 OA
HETATM    5  C   UNK N   1      29.487  22.005  -5.897  0.00  0.00     0.018 A 
HETATM    6  C   UNK N   1      30.382  21.416  -4.956  0.00  0.00     0.047 A 
HETATM    7  C   UNK N   1      31.081  20.260  -5.333  0.00  0.00     0.030 A 
HETATM    8  C   UNK N   1      30.925  19.682  -6.589  0.00  0.00     0.002 A 
HETATM    9  C   UNK N   1      30.055  20.253  -7.506  0.00  0.00     0.001 A 
HETATM   10  C   UNK N   1      29.347  21.400  -7.161  0.00  0.00     0.016 A 
HETATM   11  N   UNK N   1      27.843  23.703  -6.641  0.00  0.00    -0.354 N 
HETATM   12  C   UNK N   1      28.609  24.015  -4.548  0.00  0.00    -0.009 A 
HETATM   13  C   UNK N   1      28.676  23.213  -5.676  0.00  0.00     0.053 A 
HETATM   14  C   UNK N   1      27.718  25.004  -4.846  0.00  0.00     0.002 A 
HETATM   15  C   UNK N   1      27.269  24.795  -6.110  0.00  0.00     0.043 A 
HETATM   16  C   UNK N   1      26.341  25.647  -6.706  0.00  0.00     0.033 A 
HETATM   17  C   UNK N   1      25.878  26.744  -5.944  0.00  0.00     0.038 A 
HETATM   18  C   UNK N   1      26.350  26.956  -4.621  0.00  0.00     0.103 A 
HETATM   19  C   UNK N   1      27.287  26.067  -4.069  0.00  0.00     0.050 A 
HETATM   20  H   UNK N   1      31.310  21.299  -3.178  0.00  0.00     0.169 HD
HETATM   21  H   UNK N   1      27.692  23.331  -7.540  0.00  0.00     0.166 HD
ENDROOT
BRANCH  18  22
HETATM   22  N   UNK N   1      25.892  28.056  -3.847  0.00  0.00    -0.116 N 
HETATM   23  O   UNK N   1      25.392  27.873  -2.779  0.00  0.00    -0.532 OA
HETATM   24  O   UNK N   1      26.016  29.284  -4.301  0.00  0.00    -0.532 OA
ENDBRANCH  18  22
TORSDOF 1
ENDMDL
MODEL 3
REMARK VINA RESULT:      -7.6      7.259     10.437
REMARK  1 active torsions:
REMARK  status: ('A' for Active; 'I' for Inactive)
REMARK    1  A    between atoms: C_18  and  N_20 
ROOT
HETATM    1  N   UNK N   1      23.582  20.549   2.767  0.00  0.00    -0.326 N 
HETATM    2  C   UNK N   1      22.268  20.238   2.682  0.00  0.00     0.226 A 
HETATM    3  C   UNK N   1      21.583  19.125   3.385  0.00  0.00     0.145 A 
HETATM    4  O   UNK N   1      21.566  20.930   1.963  0.00  0.00    -0.273 OA
HETATM    5  C   UNK N   1      24.743  18.918   4.343  0.00  0.00     0.018 A 
HETATM    6  C   UNK N   1      24.716  20.034   3.455  0.00  0.00     0.047 A 
HETATM    7  C   UNK N   1      25.913  20.721   3.209  0.00  0.00     0.030 A 
HETATM    8  C   UNK N   1      27.114  20.343   3.803  0.00  0.00     0.002 A 
HETATM    9  C   UNK N   1      27.143  19.259   4.666  0.00  0.00     0.001 A 
HETATM   10  C   UNK N   1      25.971  18.557   4.931  0.00  0.00     0.016 A 
HETATM   11  N   UNK N   1      23.714  17.032   5.578  0.00  0.00    -0.354 N 
HETATM   12  C   UNK N   1      22.273  18.192   4.297  0.00  0.00    -0.009 A 
HETATM   13  C   UNK N   1      23.590  18.083   4.715  0.00  0.00     0.053 A 
HETATM   14  C   UNK N   1      21.598  17.185   4.922  0.00  0.00     0.002 A 
HETATM   15  C   UNK N   1      22.486  16.501   5.689  0.00  0.00     0.043 A 
HETATM   16  C   UNK N   1      22.095  15.405   6.456  0.00  0.00     0.033 A 
HETATM   17  C   UNK N   1      20.735  15.026   6.410  0.00  0.00     0.038 A 
HETATM   18  C   UNK N   1      19.811  15.747   5.607  0.00  0.00     0.103 A 
HETATM   19  C   UNK N   1      20.258  16.845   4.853  0.00  0.00     0.050 A 
HETATM   20  H   UNK N   1      23.812  21.329   2.213  0.00  0.00     0.169 HD
HETATM   21  H   UNK N   1      24.536  16.728   6.028  0.00  0.00     0.166 HD
ENDROOT
BRANCH  18  22
HETATM   22  N   UNK N   1      18.441  15.375   5.552  0.00  0.00    -0.116 N 
HETATM   23  O   UNK N   1      17.610  16.063   6.063  0.00  0.00    -0.532 OA
HETATM   24  O   UNK N   1      18.078  14.270   4.938  0.00  0.00    -0.532 OA
ENDBRANCH  18  22
TORSDOF 1
ENDMDL
MODEL 4
REMARK VINA RESULT:      -7.4      6.467      9.211
REMARK  1 active torsions:
REMARK  status: ('A' for Active; 'I' for Inactive)
REMARK    1  A    between atoms: C_18  and  N_20 
ROOT
HETATM    1  N   UNK N   1      36.324  13.581  14.791  0.00  0.00    -0.326 N 
HETATM    2  C   UNK N   1      36.565  14.810  14.277  0.00  0.00     0.226 A 
HETATM    3  C   UNK N   1      36.119  15.309  12.953  0.00  0.00     0.145 A 
HETATM    4  O   UNK N   1      37.207  15.593  14.956  0.00  0.00    -0.273 OA
HETATM    5  C   UNK N   1      34.965  12.213  13.126  0.00  0.00     0.018 A 
HETATM    6  C   UNK N   1      35.648  12.405  14.363  0.00  0.00     0.047 A 
HETATM    7  C   UNK N   1      35.677  11.345  15.281  0.00  0.00     0.030 A 
HETATM    8  C   UNK N   1      35.064  10.124  15.016  0.00  0.00     0.002 A 
HETATM    9  C   UNK N   1      34.400   9.935  13.813  0.00  0.00     0.001 A 
HETATM   10  C   UNK N   1      34.353  10.968  12.882  0.00  0.00     0.016 A 
HETATM   11  N   UNK N   1      34.157  12.931  10.896  0.00  0.00    -0.354 N 
HETATM   12  C   UNK N   1      35.330  14.501  12.003  0.00  0.00    -0.009 A 
HETATM   13  C   UNK N   1      34.834  13.208  12.049  0.00  0.00     0.053 A 
HETATM   14  C   UNK N   1      34.941  15.007  10.797  0.00  0.00     0.002 A 
HETATM   15  C   UNK N   1      34.236  14.044  10.149  0.00  0.00     0.043 A 
HETATM   16  C   UNK N   1      33.702  14.260   8.880  0.00  0.00     0.033 A 
HETATM   17  C   UNK N   1      33.919  15.524   8.285  0.00  0.00     0.038 A 
HETATM   18  C   UNK N   1      34.657  16.527   8.969  0.00  0.00     0.103 A 
HETATM   19  C   UNK N   1      35.174  16.256  10.247  0.00  0.00     0.050 A 
HETATM   20  H   UNK N   1      36.716  13.474  15.687  0.00  0.00     0.169 HD
HETATM   21  H   UNK N   1      33.703  12.089  10.662  0.00  0.00     0.166 HD
ENDROOT
BRANCH  18  22
HETATM   22  N   UNK N   1      34.883  17.800   8.381  0.00  0.00    -0.116 N 
HETATM   23  O   UNK N   1      34.588  17.997   7.241  0.00  0.00    -0.532 OA
HETATM   24  O   UNK N   1      35.418  18.772   9.088  0.00  0.00    -0.532 OA
ENDBRANCH  18  22
TORSDOF 1
ENDMDL
MODEL 5
REMARK VINA RESULT:      -7.3     12.898     14.350
REMARK  1 active torsions:
REMARK  status: ('A' for Active; 'I' for Inactive)
REMARK    1  A    between atoms: C_18  and  N_20 
ROOT
HETATM    1  N   UNK N   1      25.396  24.910  -6.513  0.00  0.00    -0.326 N 
HETATM    2  C   UNK N   1      25.909  23.735  -6.947  0.00  0.00     0.226 A 
HETATM    3  C   UNK N   1      27.166  23.101  -6.478  0.00  0.00     0.145 A 
HETATM    4  O   UNK N   1      25.291  23.127  -7.804  0.00  0.00    -0.273 OA
HETATM    5  C   UNK N   1      26.925  25.903  -4.734  0.00  0.00     0.018 A 
HETATM    6  C   UNK N   1      25.768  25.906  -5.568  0.00  0.00     0.047 A 
HETATM    7  C   UNK N   1      24.880  26.987  -5.475  0.00  0.00     0.030 A 
HETATM    8  C   UNK N   1      25.099  28.045  -4.598  0.00  0.00     0.002 A 
HETATM    9  C   UNK N   1      26.223  28.045  -3.787  0.00  0.00     0.001 A 
HETATM   10  C   UNK N   1      27.123  26.986  -3.857  0.00  0.00     0.016 A 
HETATM   11  N   UNK N   1      29.037  24.944  -3.863  0.00  0.00    -0.354 N 
HETATM   12  C   UNK N   1      28.038  23.692  -5.443  0.00  0.00    -0.009 A 
HETATM   13  C   UNK N   1      27.961  24.858  -4.699  0.00  0.00     0.053 A 
HETATM   14  C   UNK N   1      29.183  23.068  -5.043  0.00  0.00     0.002 A 
HETATM   15  C   UNK N   1      29.767  23.840  -4.090  0.00  0.00     0.043 A 
HETATM   16  C   UNK N   1      30.964  23.467  -3.482  0.00  0.00     0.033 A 
HETATM   17  C   UNK N   1      31.555  22.251  -3.891  0.00  0.00     0.038 A 
HETATM   18  C   UNK N   1      30.938  21.447  -4.888  0.00  0.00     0.103 A 
HETATM   19  C   UNK N   1      29.731  21.870  -5.469  0.00  0.00     0.050 A 
HETATM   20  H   UNK N   1      24.551  25.132  -6.967  0.00  0.00     0.169 HD
HETATM   21  H   UNK N   1      29.235  25.666  -3.223  0.00  0.00     0.166 HD
ENDROOT
BRANCH  18  22
HETATM   22  N   UNK N   1      31.523  20.223  -5.308  0.00  0.00    -0.116 N 
HETATM   23  O   UNK N   1      32.222  19.604  -4.564  0.00  0.00    -0.532 OA
HETATM   24  O   UNK N   1      31.299  19.761  -6.519  0.00  0.00    -0.532 OA
ENDBRANCH  18  22
TORSDOF 1
ENDMDL
MODEL 6
REMARK VINA RESULT:      -7.2      3.975      7.100
REMARK  1 active torsions:
REMARK  status: ('A' for Active; 'I' for Inactive)
REMARK    1  A    between atoms: C_18  and  N_20 
ROOT
HETATM    1  N   UNK N   1      30.433  15.334   4.685  0.00  0.00    -0.326 N 
HETATM    2  C   UNK N   1      29.584  15.675   3.687  0.00  0.00     0.226 A 
HETATM    3  C   UNK N   1      28.605  16.790   3.712  0.00  0.00     0.145 A 
HETATM    4  O   UNK N   1      29.616  15.013   2.664  0.00  0.00    -0.273 OA
HETATM    5  C   UNK N   1      30.106  16.914   6.658  0.00  0.00     0.018 A 
HETATM    6  C   UNK N   1      30.721  15.811   5.994  0.00  0.00     0.047 A 
HETATM    7  C   UNK N   1      31.720  15.097   6.671  0.00  0.00     0.030 A 
HETATM    8  C   UNK N   1      32.120  15.434   7.961  0.00  0.00     0.002 A 
HETATM    9  C   UNK N   1      31.523  16.505   8.608  0.00  0.00     0.001 A 
HETATM   10  C   UNK N   1      30.530  17.234   7.962  0.00  0.00     0.016 A 
HETATM   11  N   UNK N   1      28.518  18.809   6.818  0.00  0.00    -0.354 N 
HETATM   12  C   UNK N   1      28.433  17.696   4.864  0.00  0.00    -0.009 A 
HETATM   13  C   UNK N   1      29.046  17.771   6.104  0.00  0.00     0.053 A 
HETATM   14  C   UNK N   1      27.520  18.709   4.837  0.00  0.00     0.002 A 
HETATM   15  C   UNK N   1      27.590  19.366   6.023  0.00  0.00     0.043 A 
HETATM   16  C   UNK N   1      26.772  20.459   6.302  0.00  0.00     0.033 A 
HETATM   17  C   UNK N   1      25.861  20.866   5.301  0.00  0.00     0.038 A 
HETATM   18  C   UNK N   1      25.793  20.175   4.062  0.00  0.00     0.103 A 
HETATM   19  C   UNK N   1      26.641  19.079   3.833  0.00  0.00     0.050 A 
HETATM   20  H   UNK N   1      30.991  14.561   4.444  0.00  0.00     0.169 HD
HETATM   21  H   UNK N   1      28.768  19.091   7.728  0.00  0.00     0.166 HD
ENDROOT
BRANCH  18  22
HETATM   22  N   UNK N   1      24.880  20.574   3.049  0.00  0.00    -0.116 N 
HETATM   23  O   UNK N   1      25.283  20.946   1.988  0.00  0.00    -0.532 OA
HETATM   24  O   UNK N   1      23.584  20.537   3.272  0.00  0.00    -0.532 OA
ENDBRANCH  18  22
TORSDOF 1
ENDMDL
MODEL 7
REMARK VINA RESULT:      -7.2     13.543     15.270
REMARK  1 active torsions:
REMARK  status: ('A' for Active; 'I' for Inactive)
REMARK    1  A    between atoms: C_18  and  N_20 
ROOT
HETATM    1  N   UNK N   1      25.304  25.067  -7.249  0.00  0.00    -0.326 N 
HETATM    2  C   UNK N   1      25.605  24.028  -8.064  0.00  0.00     0.226 A 
HETATM    3  C   UNK N   1      26.701  23.047  -7.864  0.00  0.00     0.145 A 
HETATM    4  O   UNK N   1      24.920  23.871  -9.060  0.00  0.00    -0.273 OA
HETATM    5  C   UNK N   1      26.918  25.100  -5.278  0.00  0.00     0.018 A 
HETATM    6  C   UNK N   1      25.817  25.600  -6.035  0.00  0.00     0.047 A 
HETATM    7  C   UNK N   1      25.144  26.737  -5.563  0.00  0.00     0.030 A 
HETATM    8  C   UNK N   1      25.521  27.381  -4.388  0.00  0.00     0.002 A 
HETATM    9  C   UNK N   1      26.591  26.896  -3.652  0.00  0.00     0.001 A 
HETATM   10  C   UNK N   1      27.279  25.770  -4.093  0.00  0.00     0.016 A 
HETATM   11  N   UNK N   1      28.774  23.521  -4.829  0.00  0.00    -0.354 N 
HETATM   12  C   UNK N   1      27.624  23.082  -6.713  0.00  0.00    -0.009 A 
HETATM   13  C   UNK N   1      27.737  23.926  -5.620  0.00  0.00     0.053 A 
HETATM   14  C   UNK N   1      28.614  22.154  -6.573  0.00  0.00     0.002 A 
HETATM   15  C   UNK N   1      29.293  22.439  -5.431  0.00  0.00     0.043 A 
HETATM   16  C   UNK N   1      30.372  21.663  -5.012  0.00  0.00     0.033 A 
HETATM   17  C   UNK N   1      30.741  20.564  -5.819  0.00  0.00     0.038 A 
HETATM   18  C   UNK N   1      30.026  20.272  -7.012  0.00  0.00     0.103 A 
HETATM   19  C   UNK N   1      28.945  21.086  -7.389  0.00  0.00     0.050 A 
HETATM   20  H   UNK N   1      24.535  25.584  -7.582  0.00  0.00     0.169 HD
HETATM   21  H   UNK N   1      29.077  23.937  -3.990  0.00  0.00     0.166 HD
ENDROOT
BRANCH  18  22
HETATM   22  N   UNK N   1      30.388  19.169  -7.832  0.00  0.00    -0.116 N 
HETATM   23  O   UNK N   1      29.605  18.292  -8.041  0.00  0.00    -0.532 OA
HETATM   24  O   UNK N   1      31.587  19.107  -8.369  0.00  0.00    -0.532 OA
ENDBRANCH  18  22
TORSDOF 1
ENDMDL
MODEL 8
REMARK VINA RESULT:      -7.2      2.571      2.775
REMARK  1 active torsions:
REMARK  status: ('A' for Active; 'I' for Inactive)
REMARK    1  A    between atoms: C_18  and  N_20 
ROOT
HETATM    1  N   UNK N   1      27.754  19.047   7.714  0.00  0.00    -0.326 N 
HETATM    2  C   UNK N   1      28.736  18.393   8.377  0.00  0.00     0.226 A 
HETATM    3  C   UNK N   1      29.912  17.725   7.765  0.00  0.00     0.145 A 
HETATM    4  O   UNK N   1      28.663  18.340   9.593  0.00  0.00    -0.273 OA
HETATM    5  C   UNK N   1      28.217  18.970   5.210  0.00  0.00     0.018 A 
HETATM    6  C   UNK N   1      27.452  19.340   6.356  0.00  0.00     0.047 A 
HETATM    7  C   UNK N   1      26.271  20.071   6.162  0.00  0.00     0.030 A 
HETATM    8  C   UNK N   1      25.833  20.439   4.893  0.00  0.00     0.002 A 
HETATM    9  C   UNK N   1      26.575  20.079   3.779  0.00  0.00     0.001 A 
HETATM   10  C   UNK N   1      27.752  19.354   3.938  0.00  0.00     0.016 A 
HETATM   11  N   UNK N   1      30.139  17.899   4.071  0.00  0.00    -0.354 N 
HETATM   12  C   UNK N   1      30.164  17.694   6.312  0.00  0.00    -0.009 A 
HETATM   13  C   UNK N   1      29.475  18.205   5.223  0.00  0.00     0.053 A 
HETATM   14  C   UNK N   1      31.262  17.069   5.797  0.00  0.00     0.002 A 
HETATM   15  C   UNK N   1      31.226  17.206   4.447  0.00  0.00     0.043 A 
HETATM   16  C   UNK N   1      32.220  16.668   3.632  0.00  0.00     0.033 A 
HETATM   17  C   UNK N   1      33.275  15.970   4.261  0.00  0.00     0.038 A 
HETATM   18  C   UNK N   1      33.307  15.832   5.675  0.00  0.00     0.103 A 
HETATM   19  C   UNK N   1      32.280  16.393   6.450  0.00  0.00     0.050 A 
HETATM   20  H   UNK N   1      27.076  19.412   8.328  0.00  0.00     0.169 HD
HETATM   21  H   UNK N   1      29.875  18.138   3.152  0.00  0.00     0.166 HD
ENDROOT
BRANCH  18  22
HETATM   22  N   UNK N   1      34.363  15.131   6.319  0.00  0.00    -0.116 N 
HETATM   23  O   UNK N   1      34.120  14.299   7.139  0.00  0.00    -0.532 OA
HETATM   24  O   UNK N   1      35.616  15.394   6.015  0.00  0.00    -0.532 OA
ENDBRANCH  18  22
TORSDOF 1
ENDMDL
MODEL 9
REMARK VINA RESULT:      -7.0     12.386     14.579
REMARK  1 active torsions:
REMARK  status: ('A' for Active; 'I' for Inactive)
REMARK    1  A    between atoms: C_18  and  N_20 
ROOT
HETATM    1  N   UNK N   1      31.565  19.833  -6.517  0.00  0.00    -0.326 N 
HETATM    2  C   UNK N   1      30.465  20.186  -7.222  0.00  0.00     0.226 A 
HETATM    3  C   UNK N   1      29.493  21.247  -6.857  0.00  0.00     0.145 A 
HETATM    4  O   UNK N   1      30.238  19.585  -8.259  0.00  0.00    -0.273 OA
HETATM    5  C   UNK N   1      31.739  21.281  -4.428  0.00  0.00     0.018 A 
HETATM    6  C   UNK N   1      32.185  20.249  -5.307  0.00  0.00     0.047 A 
HETATM    7  C   UNK N   1      33.355  19.550  -4.976  0.00  0.00     0.030 A 
HETATM    8  C   UNK N   1      34.081  19.834  -3.824  0.00  0.00     0.002 A 
HETATM    9  C   UNK N   1      33.649  20.836  -2.968  0.00  0.00     0.001 A 
HETATM   10  C   UNK N   1      32.493  21.549  -3.269  0.00  0.00     0.016 A 
HETATM   11  N   UNK N   1      30.194  23.081  -3.715  0.00  0.00    -0.354 N 
HETATM   12  C   UNK N   1      29.613  22.077  -5.643  0.00  0.00    -0.009 A 
HETATM   13  C   UNK N   1      30.540  22.114  -4.614  0.00  0.00     0.053 A 
HETATM   14  C   UNK N   1      28.694  23.043  -5.353  0.00  0.00     0.002 A 
HETATM   15  C   UNK N   1      29.065  23.634  -4.188  0.00  0.00     0.043 A 
HETATM   16  C   UNK N   1      28.319  24.668  -3.625  0.00  0.00     0.033 A 
HETATM   17  C   UNK N   1      27.155  25.083  -4.311  0.00  0.00     0.038 A 
HETATM   18  C   UNK N   1      26.774  24.460  -5.529  0.00  0.00     0.103 A 
HETATM   19  C   UNK N   1      27.562  23.423  -6.053  0.00  0.00     0.050 A 
HETATM   20  H   UNK N   1      32.062  19.104  -6.953  0.00  0.00     0.169 HD
HETATM   21  H   UNK N   1      30.674  23.325  -2.890  0.00  0.00     0.166 HD
ENDROOT
BRANCH  18  22
HETATM   22  N   UNK N   1      25.605  24.869  -6.227  0.00  0.00    -0.116 N 
HETATM   23  O   UNK N   1      24.893  25.709  -5.767  0.00  0.00    -0.532 OA
HETATM   24  O   UNK N   1      25.300  24.326  -7.385  0.00  0.00    -0.532 OA
ENDBRANCH  18  22
TORSDOF 1
ENDMDL
