MODEL 1
REMARK VINA RESULT:      -7.0      0.000      0.000
REMARK  13 active torsions:
REMARK  status: ('A' for Active; 'I' for Inactive)
REMARK    1  A    between atoms: C_1  and  C_2 
REMARK    2  A    between atoms: C_1  and  C_3 
REMARK    3  A    between atoms: C_1  and  C_8 
REMARK       I    between atoms: C_2  and  N_24 
REMARK    4  A    between atoms: C_3  and  S_31 
REMARK    5  A    between atoms: C_4  and  S_31 
REMARK    6  A    between atoms: C_8  and  C_9 
REMARK    7  A    between atoms: C_8  and  C_13 
REMARK    8  A    between atoms: C_9  and  C_10 
REMARK       I    between atoms: C_13  and  N_25 
REMARK    9  A    between atoms: C_14  and  C_15 
REMARK   10  A    between atoms: C_14  and  C_17 
REMARK   11  A    between atoms: C_14  and  N_25 
REMARK       I    between atoms: C_15  and  N_26 
REMARK   12  A    between atoms: C_17  and  C_18 
REMARK   13  A    between atoms: N_24  and  O_28 
ROOT
HETATM    1  C   UNK N   1      31.928  17.194   8.285  0.00  0.00     0.092 C 
ENDROOT
BRANCH   1   2
HETATM    2  C   UNK N   1      33.263  16.445   8.579  0.00  0.00     0.102 C 
BRANCH   2   3
HETATM    3  C   UNK N   1      34.357  17.401   9.033  0.00  0.00     0.246 C 
HETATM    4  N   UNK N   1      34.586  18.536   8.331  0.00  0.00    -0.237 N 
HETATM    5  H   UNK N   1      34.059  18.721   7.521  0.00  0.00     0.197 HD
HETATM    6  O   UNK N   1      35.005  17.168  10.043  0.00  0.00    -0.271 OA
BRANCH   4   7
HETATM    7  O   UNK N   1      35.522  19.410   8.726  0.00  0.00    -0.287 OA
HETATM    8  H   UNK N   1      35.459  19.994   9.498  0.00  0.00     0.244 HD
ENDBRANCH   4   7
ENDBRANCH   2   3
BRANCH   2   9
HETATM    9  C   UNK N   1      33.109  15.308   9.599  0.00  0.00     0.095 C 
BRANCH   9  10
HETATM   10  S   UNK N   1      33.471  13.646   8.926  0.00  0.00    -0.122 SA
BRANCH  10  11
HETATM   11  C   UNK N   1      35.195  13.753   9.375  0.00  0.00     0.041 A 
HETATM   12  C   UNK N   1      35.717  13.728  10.663  0.00  0.00     0.026 A 
HETATM   13  C   UNK N   1      37.137  13.844  10.678  0.00  0.00     0.009 A 
HETATM   14  C   UNK N   1      37.716  13.955   9.404  0.00  0.00     0.051 A 
HETATM   15  S   UNK N   1      36.457  13.902   8.326  0.00  0.00    -0.095 SA
ENDBRANCH  10  11
ENDBRANCH   9  10
ENDBRANCH   2   9
ENDBRANCH   1   2
BRANCH   1  16
HETATM   16  C   UNK N   1      30.680  16.596   8.967  0.00  0.00     0.018 C 
BRANCH  16  17
HETATM   17  C   UNK N   1      29.704  17.536   9.682  0.00  0.00    -0.022 C 
HETATM   18  C   UNK N   1      30.026  19.000   9.488  0.00  0.00     0.009 C 
HETATM   19  C   UNK N   1      28.240  17.222   9.426  0.00  0.00     0.009 C 
ENDBRANCH  16  17
ENDBRANCH   1  16
BRANCH   1  20
HETATM   20  C   UNK N   1      31.646  17.174   6.807  0.00  0.00     0.223 C 
HETATM   21  N   UNK N   1      30.434  16.729   6.391  0.00  0.00    -0.347 N 
HETATM   22  H   UNK N   1      29.846  16.363   7.091  0.00  0.00     0.163 HD
HETATM   23  O   UNK N   1      32.479  17.587   6.012  0.00  0.00    -0.273 OA
BRANCH  21  24
HETATM   24  C   UNK N   1      29.896  16.722   5.046  0.00  0.00     0.180 C 
BRANCH  24  25
HETATM   25  C   UNK N   1      30.441  15.513   4.302  0.00  0.00     0.240 C 
HETATM   26  N   UNK N   1      31.316  15.610   3.266  0.00  0.00    -0.364 N 
HETATM   27  C   UNK N   1      31.894  16.847   2.808  0.00  0.00     0.149 C 
HETATM   28  H   UNK N   1      31.571  14.782   2.800  0.00  0.00     0.161 HD
HETATM   29  O   UNK N   1      30.064  14.404   4.644  0.00  0.00    -0.271 OA
ENDBRANCH  24  25
BRANCH  24  30
HETATM   30  C   UNK N   1      28.367  16.872   4.980  0.00  0.00     0.073 C 
BRANCH  30  31
HETATM   31  C   UNK N   1      27.932  18.297   5.089  0.00  0.00    -0.056 A 
HETATM   32  C   UNK N   1      27.502  18.994   3.954  0.00  0.00     0.007 A 
HETATM   33  C   UNK N   1      27.094  20.326   4.065  0.00  0.00     0.001 A 
HETATM   34  C   UNK N   1      27.111  20.962   5.310  0.00  0.00     0.000 A 
HETATM   35  C   UNK N   1      27.543  20.266   6.445  0.00  0.00     0.001 A 
HETATM   36  C   UNK N   1      27.957  18.936   6.332  0.00  0.00     0.007 A 
ENDBRANCH  30  31
ENDBRANCH  24  30
ENDBRANCH  21  24
ENDBRANCH   1  20
TORSDOF 13
ENDMDL
MODEL 2
REMARK VINA RESULT:      -6.9     12.558     15.565
REMARK  13 active torsions:
REMARK  status: ('A' for Active; 'I' for Inactive)
REMARK    1  A    between atoms: C_1  and  C_2 
REMARK    2  A    between atoms: C_1  and  C_3 
REMARK    3  A    between atoms: C_1  and  C_8 
REMARK       I    between atoms: C_2  and  N_24 
REMARK    4  A    between atoms: C_3  and  S_31 
REMARK    5  A    between atoms: C_4  and  S_31 
REMARK    6  A    between atoms: C_8  and  C_9 
REMARK    7  A    between atoms: C_8  and  C_13 
REMARK    8  A    between atoms: C_9  and  C_10 
REMARK       I    between atoms: C_13  and  N_25 
REMARK    9  A    between atoms: C_14  and  C_15 
REMARK   10  A    between atoms: C_14  and  C_17 
REMARK   11  A    between atoms: C_14  and  N_25 
REMARK       I    between atoms: C_15  and  N_26 
REMARK   12  A    between atoms: C_17  and  C_18 
REMARK   13  A    between atoms: N_24  and  O_28 
ROOT
HETATM    1  C   UNK N   1      29.614  24.294  -4.010  0.00  0.00     0.092 C 
ENDROOT
BRANCH   1   2
HETATM    2  C   UNK N   1      30.802  23.322  -4.276  0.00  0.00     0.102 C 
BRANCH   2   3
HETATM    3  C   UNK N   1      31.292  22.667  -2.992  0.00  0.00     0.246 C 
HETATM    4  N   UNK N   1      32.286  21.749  -3.047  0.00  0.00    -0.237 N 
HETATM    5  H   UNK N   1      32.666  21.497  -3.919  0.00  0.00     0.197 HD
HETATM    6  O   UNK N   1      30.820  22.989  -1.912  0.00  0.00    -0.271 OA
BRANCH   4   7
HETATM    7  O   UNK N   1      32.758  21.180  -1.930  0.00  0.00    -0.287 OA
HETATM    8  H   UNK N   1      32.689  20.240  -1.702  0.00  0.00     0.244 HD
ENDBRANCH   4   7
ENDBRANCH   2   3
BRANCH   2   9
HETATM    9  C   UNK N   1      30.481  22.244  -5.320  0.00  0.00     0.095 C 
BRANCH   9  10
HETATM   10  S   UNK N   1      31.720  22.107  -6.659  0.00  0.00    -0.122 SA
BRANCH  10  11
HETATM   11  C   UNK N   1      30.925  20.671  -7.357  0.00  0.00     0.041 A 
HETATM   12  C   UNK N   1      29.641  20.218  -7.076  0.00  0.00     0.026 A 
HETATM   13  C   UNK N   1      29.310  19.033  -7.795  0.00  0.00     0.009 A 
HETATM   14  C   UNK N   1      30.334  18.570  -8.636  0.00  0.00     0.051 A 
HETATM   15  S   UNK N   1      31.590  19.638  -8.455  0.00  0.00    -0.095 SA
ENDBRANCH  10  11
ENDBRANCH   9  10
ENDBRANCH   2   9
ENDBRANCH   1   2
BRANCH   1  16
HETATM   16  C   UNK N   1      28.477  24.236  -5.050  0.00  0.00     0.018 C 
BRANCH  16  17
HETATM   17  C   UNK N   1      27.028  24.375  -4.574  0.00  0.00    -0.022 C 
HETATM   18  C   UNK N   1      26.044  23.574  -5.395  0.00  0.00     0.009 C 
HETATM   19  C   UNK N   1      26.842  24.170  -3.079  0.00  0.00     0.009 C 
ENDBRANCH  16  17
ENDBRANCH   1  16
BRANCH   1  20
HETATM   20  C   UNK N   1      30.108  25.716  -4.009  0.00  0.00     0.223 C 
HETATM   21  N   UNK N   1      29.705  26.535  -5.013  0.00  0.00    -0.347 N 
HETATM   22  H   UNK N   1      29.177  26.112  -5.729  0.00  0.00     0.163 HD
HETATM   23  O   UNK N   1      30.822  26.123  -3.104  0.00  0.00    -0.273 OA
BRANCH  21  24
HETATM   24  C   UNK N   1      29.953  27.954  -5.163  0.00  0.00     0.180 C 
BRANCH  24  25
HETATM   25  C   UNK N   1      31.401  28.161  -5.577  0.00  0.00     0.240 C 
HETATM   26  N   UNK N   1      32.292  28.871  -4.834  0.00  0.00    -0.364 N 
HETATM   27  C   UNK N   1      32.001  29.432  -3.540  0.00  0.00     0.149 C 
HETATM   28  H   UNK N   1      33.194  29.009  -5.204  0.00  0.00     0.161 HD
HETATM   29  O   UNK N   1      31.778  27.679  -6.632  0.00  0.00    -0.271 OA
ENDBRANCH  24  25
BRANCH  24  30
HETATM   30  C   UNK N   1      28.929  28.680  -6.053  0.00  0.00     0.073 C 
BRANCH  30  31
HETATM   31  C   UNK N   1      27.543  28.158  -5.863  0.00  0.00    -0.056 A 
HETATM   32  C   UNK N   1      26.926  27.404  -6.868  0.00  0.00     0.007 A 
HETATM   33  C   UNK N   1      25.630  26.917  -6.681  0.00  0.00     0.001 A 
HETATM   34  C   UNK N   1      24.950  27.178  -5.487  0.00  0.00     0.000 A 
HETATM   35  C   UNK N   1      25.565  27.933  -4.483  0.00  0.00     0.001 A 
HETATM   36  C   UNK N   1      26.859  28.426  -4.673  0.00  0.00     0.007 A 
ENDBRANCH  30  31
ENDBRANCH  24  30
ENDBRANCH  21  24
ENDBRANCH   1  20
TORSDOF 13
ENDMDL
MODEL 3
REMARK VINA RESULT:      -6.7      3.052      8.806
REMARK  13 active torsions:
REMARK  status: ('A' for Active; 'I' for Inactive)
REMARK    1  A    between atoms: C_1  and  C_2 
REMARK    2  A    between atoms: C_1  and  C_3 
REMARK    3  A    between atoms: C_1  and  C_8 
REMARK       I    between atoms: C_2  and  N_24 
REMARK    4  A    between atoms: C_3  and  S_31 
REMARK    5  A    between atoms: C_4  and  S_31 
REMARK    6  A    between atoms: C_8  and  C_9 
REMARK    7  A    between atoms: C_8  and  C_13 
REMARK    8  A    between atoms: C_9  and  C_10 
REMARK       I    between atoms: C_13  and  N_25 
REMARK    9  A    between atoms: C_14  and  C_15 
REMARK   10  A    between atoms: C_14  and  C_17 
REMARK   11  A    between atoms: C_14  and  N_25 
REMARK       I    between atoms: C_15  and  N_26 
REMARK   12  A    between atoms: C_17  and  C_18 
REMARK   13  A    between atoms: N_24  and  O_28 
ROOT
HETATM    1  C   UNK N   1      33.519  15.287   7.095  0.00  0.00     0.092 C 
ENDROOT
BRANCH   1   2
HETATM    2  C   UNK N   1      33.007  16.648   7.653  0.00  0.00     0.102 C 
BRANCH   2   3
HETATM    3  C   UNK N   1      34.071  17.733   7.555  0.00  0.00     0.246 C 
HETATM    4  N   UNK N   1      34.511  18.341   8.681  0.00  0.00    -0.237 N 
HETATM    5  H   UNK N   1      34.123  18.093   9.551  0.00  0.00     0.197 HD
HETATM    6  O   UNK N   1      34.553  18.032   6.472  0.00  0.00    -0.271 OA
BRANCH   4   7
HETATM    7  O   UNK N   1      35.469  19.277   8.626  0.00  0.00    -0.287 OA
HETATM    8  H   UNK N   1      36.396  19.153   8.886  0.00  0.00     0.244 HD
ENDBRANCH   4   7
ENDBRANCH   2   3
BRANCH   2   9
HETATM    9  C   UNK N   1      31.710  17.129   6.987  0.00  0.00     0.095 C 
BRANCH   9  10
HETATM   10  S   UNK N   1      30.258  17.142   8.099  0.00  0.00    -0.122 SA
BRANCH  10  11
HETATM   11  C   UNK N   1      29.112  17.182   6.732  0.00  0.00     0.041 A 
HETATM   12  C   UNK N   1      29.378  17.627   5.443  0.00  0.00     0.026 A 
HETATM   13  C   UNK N   1      28.241  17.536   4.589  0.00  0.00     0.009 A 
HETATM   14  C   UNK N   1      27.096  17.017   5.214  0.00  0.00     0.051 A 
HETATM   15  S   UNK N   1      27.539  16.695   6.779  0.00  0.00    -0.095 SA
ENDBRANCH  10  11
ENDBRANCH   9  10
ENDBRANCH   2   9
ENDBRANCH   1   2
BRANCH   1  16
HETATM   16  C   UNK N   1      32.456  14.171   7.018  0.00  0.00     0.018 C 
BRANCH  16  17
HETATM   17  C   UNK N   1      32.029  13.646   5.644  0.00  0.00    -0.022 C 
HETATM   18  C   UNK N   1      30.625  14.048   5.254  0.00  0.00     0.009 C 
HETATM   19  C   UNK N   1      33.038  13.908   4.538  0.00  0.00     0.009 C 
ENDBRANCH  16  17
ENDBRANCH   1  16
BRANCH   1  20
HETATM   20  C   UNK N   1      34.619  14.755   7.974  0.00  0.00     0.223 C 
HETATM   21  N   UNK N   1      34.501  14.915   9.316  0.00  0.00    -0.347 N 
HETATM   22  H   UNK N   1      33.734  15.451   9.620  0.00  0.00     0.163 HD
HETATM   23  O   UNK N   1      35.571  14.163   7.484  0.00  0.00    -0.273 OA
BRANCH  21  24
HETATM   24  C   UNK N   1      35.364  14.396  10.357  0.00  0.00     0.180 C 
BRANCH  24  25
HETATM   25  C   UNK N   1      36.596  15.281  10.465  0.00  0.00     0.240 C 
HETATM   26  N   UNK N   1      37.864  14.808  10.331  0.00  0.00    -0.364 N 
HETATM   27  C   UNK N   1      38.189  13.447   9.991  0.00  0.00     0.149 C 
HETATM   28  H   UNK N   1      38.607  15.437  10.476  0.00  0.00     0.161 HD
HETATM   29  O   UNK N   1      36.439  16.469  10.694  0.00  0.00    -0.271 OA
ENDBRANCH  24  25
BRANCH  24  30
HETATM   30  C   UNK N   1      34.649  14.139  11.695  0.00  0.00     0.073 C 
BRANCH  30  31
HETATM   31  C   UNK N   1      35.516  13.411  12.670  0.00  0.00    -0.056 A 
HETATM   32  C   UNK N   1      35.870  12.076  12.443  0.00  0.00     0.007 A 
HETATM   33  C   UNK N   1      36.683  11.404  13.358  0.00  0.00     0.001 A 
HETATM   34  C   UNK N   1      37.148  12.065  14.499  0.00  0.00     0.000 A 
HETATM   35  C   UNK N   1      36.794  13.399  14.727  0.00  0.00     0.001 A 
HETATM   36  C   UNK N   1      35.975  14.070  13.815  0.00  0.00     0.007 A 
ENDBRANCH  30  31
ENDBRANCH  24  30
ENDBRANCH  21  24
ENDBRANCH   1  20
TORSDOF 13
ENDMDL
MODEL 4
REMARK VINA RESULT:      -6.7      8.590     11.509
REMARK  13 active torsions:
REMARK  status: ('A' for Active; 'I' for Inactive)
REMARK    1  A    between atoms: C_1  and  C_2 
REMARK    2  A    between atoms: C_1  and  C_3 
REMARK    3  A    between atoms: C_1  and  C_8 
REMARK       I    between atoms: C_2  and  N_24 
REMARK    4  A    between atoms: C_3  and  S_31 
REMARK    5  A    between atoms: C_4  and  S_31 
REMARK    6  A    between atoms: C_8  and  C_9 
REMARK    7  A    between atoms: C_8  and  C_13 
REMARK    8  A    between atoms: C_9  and  C_10 
REMARK       I    between atoms: C_13  and  N_25 
REMARK    9  A    between atoms: C_14  and  C_15 
REMARK   10  A    between atoms: C_14  and  C_17 
REMARK   11  A    between atoms: C_14  and  N_25 
REMARK       I    between atoms: C_15  and  N_26 
REMARK   12  A    between atoms: C_17  and  C_18 
REMARK   13  A    between atoms: N_24  and  O_28 
ROOT
HETATM    1  C   UNK N   1      21.511  18.051   4.104  0.00  0.00     0.092 C 
ENDROOT
BRANCH   1   2
HETATM    2  C   UNK N   1      22.246  19.068   3.180  0.00  0.00     0.102 C 
BRANCH   2   3
HETATM    3  C   UNK N   1      21.286  20.098   2.600  0.00  0.00     0.246 C 
HETATM    4  N   UNK N   1      21.079  20.141   1.263  0.00  0.00    -0.237 N 
HETATM    5  H   UNK N   1      21.569  19.521   0.676  0.00  0.00     0.197 HD
HETATM    6  O   UNK N   1      20.678  20.862   3.336  0.00  0.00    -0.271 OA
BRANCH   4   7
HETATM    7  O   UNK N   1      20.217  21.017   0.729  0.00  0.00    -0.287 OA
HETATM    8  H   UNK N   1      19.983  21.079  -0.210  0.00  0.00     0.244 HD
ENDBRANCH   4   7
ENDBRANCH   2   3
BRANCH   2   9
HETATM    9  C   UNK N   1      23.418  19.779   3.871  0.00  0.00     0.095 C 
BRANCH   9  10
HETATM   10  S   UNK N   1      24.721  20.359   2.727  0.00  0.00    -0.122 SA
BRANCH  10  11
HETATM   11  C   UNK N   1      25.922  19.218   3.388  0.00  0.00     0.041 A 
HETATM   12  C   UNK N   1      25.825  17.831   3.403  0.00  0.00     0.026 A 
HETATM   13  C   UNK N   1      26.952  17.211   4.014  0.00  0.00     0.009 A 
HETATM   14  C   UNK N   1      27.924  18.115   4.471  0.00  0.00     0.051 A 
HETATM   15  S   UNK N   1      27.352  19.626   4.098  0.00  0.00    -0.095 SA
ENDBRANCH  10  11
ENDBRANCH   9  10
ENDBRANCH   2   9
ENDBRANCH   1   2
BRANCH   1  16
HETATM   16  C   UNK N   1      22.431  17.066   4.853  0.00  0.00     0.018 C 
BRANCH  16  17
HETATM   17  C   UNK N   1      22.165  16.784   6.335  0.00  0.00    -0.022 C 
HETATM   18  C   UNK N   1      20.952  17.504   6.877  0.00  0.00     0.009 C 
HETATM   19  C   UNK N   1      22.178  15.308   6.699  0.00  0.00     0.009 C 
ENDBRANCH  16  17
ENDBRANCH   1  16
BRANCH   1  20
HETATM   20  C   UNK N   1      20.570  17.206   3.287  0.00  0.00     0.223 C 
HETATM   21  N   UNK N   1      21.072  16.541   2.216  0.00  0.00    -0.347 N 
HETATM   22  H   UNK N   1      22.013  16.728   1.995  0.00  0.00     0.163 HD
HETATM   23  O   UNK N   1      19.396  17.098   3.610  0.00  0.00    -0.273 OA
BRANCH  21  24
HETATM   24  C   UNK N   1      20.396  15.590   1.357  0.00  0.00     0.180 C 
BRANCH  24  25
HETATM   25  C   UNK N   1      19.719  16.343   0.223  0.00  0.00     0.240 C 
HETATM   26  N   UNK N   1      18.604  15.887  -0.409  0.00  0.00    -0.364 N 
HETATM   27  C   UNK N   1      17.889  14.697  -0.032  0.00  0.00     0.149 C 
HETATM   28  H   UNK N   1      18.265  16.406  -1.174  0.00  0.00     0.161 HD
HETATM   29  O   UNK N   1      20.206  17.399  -0.144  0.00  0.00    -0.271 OA
ENDBRANCH  24  25
BRANCH  24  30
HETATM   30  C   UNK N   1      21.281  14.417   0.901  0.00  0.00     0.073 C 
BRANCH  30  31
HETATM   31  C   UNK N   1      22.525  14.295   1.719  0.00  0.00    -0.056 A 
HETATM   32  C   UNK N   1      22.465  13.813   3.031  0.00  0.00     0.007 A 
HETATM   33  C   UNK N   1      23.633  13.699   3.789  0.00  0.00     0.001 A 
HETATM   34  C   UNK N   1      24.865  14.061   3.234  0.00  0.00     0.000 A 
HETATM   35  C   UNK N   1      24.926  14.543   1.922  0.00  0.00     0.001 A 
HETATM   36  C   UNK N   1      23.756  14.664   1.167  0.00  0.00     0.007 A 
ENDBRANCH  30  31
ENDBRANCH  24  30
ENDBRANCH  21  24
ENDBRANCH   1  20
TORSDOF 13
ENDMDL
MODEL 5
REMARK VINA RESULT:      -6.7      8.982     12.306
REMARK  13 active torsions:
REMARK  status: ('A' for Active; 'I' for Inactive)
REMARK    1  A    between atoms: C_1  and  C_2 
REMARK    2  A    between atoms: C_1  and  C_3 
REMARK    3  A    between atoms: C_1  and  C_8 
REMARK       I    between atoms: C_2  and  N_24 
REMARK    4  A    between atoms: C_3  and  S_31 
REMARK    5  A    between atoms: C_4  and  S_31 
REMARK    6  A    between atoms: C_8  and  C_9 
REMARK    7  A    between atoms: C_8  and  C_13 
REMARK    8  A    between atoms: C_9  and  C_10 
REMARK       I    between atoms: C_13  and  N_25 
REMARK    9  A    between atoms: C_14  and  C_15 
REMARK   10  A    between atoms: C_14  and  C_17 
REMARK   11  A    between atoms: C_14  and  N_25 
REMARK       I    between atoms: C_15  and  N_26 
REMARK   12  A    between atoms: C_17  and  C_18 
REMARK   13  A    between atoms: N_24  and  O_28 
ROOT
HETATM    1  C   UNK N   1      20.801  17.581   4.841  0.00  0.00     0.092 C 
ENDROOT
BRANCH   1   2
HETATM    2  C   UNK N   1      21.686  16.404   4.331  0.00  0.00     0.102 C 
BRANCH   2   3
HETATM    3  C   UNK N   1      20.969  15.577   3.273  0.00  0.00     0.246 C 
HETATM    4  N   UNK N   1      19.622  15.448   3.326  0.00  0.00    -0.237 N 
HETATM    5  H   UNK N   1      19.122  15.870   4.060  0.00  0.00     0.197 HD
HETATM    6  O   UNK N   1      21.595  15.060   2.360  0.00  0.00    -0.271 OA
BRANCH   4   7
HETATM    7  O   UNK N   1      18.962  14.751   2.390  0.00  0.00    -0.287 OA
HETATM    8  H   UNK N   1      18.053  14.920   2.097  0.00  0.00     0.244 HD
ENDBRANCH   4   7
ENDBRANCH   2   3
BRANCH   2   9
HETATM    9  C   UNK N   1      23.052  16.859   3.799  0.00  0.00     0.095 C 
BRANCH   9  10
HETATM   10  S   UNK N   1      24.415  16.703   5.008  0.00  0.00    -0.122 SA
BRANCH  10  11
HETATM   11  C   UNK N   1      25.246  18.151   4.378  0.00  0.00     0.041 A 
HETATM   12  C   UNK N   1      24.682  19.155   3.600  0.00  0.00     0.026 A 
HETATM   13  C   UNK N   1      25.621  20.169   3.253  0.00  0.00     0.009 A 
HETATM   14  C   UNK N   1      26.911  19.954   3.763  0.00  0.00     0.051 A 
HETATM   15  S   UNK N   1      26.831  18.533   4.615  0.00  0.00    -0.095 SA
ENDBRANCH  10  11
ENDBRANCH   9  10
ENDBRANCH   2   9
ENDBRANCH   1   2
BRANCH   1  16
HETATM   16  C   UNK N   1      21.157  18.965   4.260  0.00  0.00     0.018 C 
BRANCH  16  17
HETATM   17  C   UNK N   1      20.673  19.325   2.852  0.00  0.00    -0.022 C 
HETATM   18  C   UNK N   1      19.214  19.008   2.616  0.00  0.00     0.009 C 
HETATM   19  C   UNK N   1      21.043  20.730   2.408  0.00  0.00     0.009 C 
ENDBRANCH  16  17
ENDBRANCH   1  16
BRANCH   1  20
HETATM   20  C   UNK N   1      20.931  17.708   6.335  0.00  0.00     0.223 C 
HETATM   21  N   UNK N   1      20.132  16.939   7.116  0.00  0.00    -0.347 N 
HETATM   22  H   UNK N   1      19.453  16.405   6.644  0.00  0.00     0.163 HD
HETATM   23  O   UNK N   1      21.765  18.459   6.822  0.00  0.00    -0.273 OA
BRANCH  21  24
HETATM   24  C   UNK N   1      20.153  16.805   8.558  0.00  0.00     0.180 C 
BRANCH  24  25
HETATM   25  C   UNK N   1      19.433  17.993   9.176  0.00  0.00     0.240 C 
HETATM   26  N   UNK N   1      18.078  18.093   9.231  0.00  0.00    -0.364 N 
HETATM   27  C   UNK N   1      17.172  17.063   8.796  0.00  0.00     0.149 C 
HETATM   28  H   UNK N   1      17.692  18.924   9.592  0.00  0.00     0.161 HD
HETATM   29  O   UNK N   1      20.103  18.905   9.631  0.00  0.00    -0.271 OA
ENDBRANCH  24  25
BRANCH  24  30
HETATM   30  C   UNK N   1      19.672  15.436   9.069  0.00  0.00     0.073 C 
BRANCH  30  31
HETATM   31  C   UNK N   1      20.788  14.448   9.179  0.00  0.00    -0.056 A 
HETATM   32  C   UNK N   1      21.864  14.493   8.285  0.00  0.00     0.007 A 
HETATM   33  C   UNK N   1      22.905  13.568   8.396  0.00  0.00     0.001 A 
HETATM   34  C   UNK N   1      22.875  12.599   9.405  0.00  0.00     0.000 A 
HETATM   35  C   UNK N   1      21.799  12.553  10.298  0.00  0.00     0.001 A 
HETATM   36  C   UNK N   1      20.755  13.475  10.181  0.00  0.00     0.007 A 
ENDBRANCH  30  31
ENDBRANCH  24  30
ENDBRANCH  21  24
ENDBRANCH   1  20
TORSDOF 13
ENDMDL
MODEL 6
REMARK VINA RESULT:      -6.7     13.263     16.181
REMARK  13 active torsions:
REMARK  status: ('A' for Active; 'I' for Inactive)
REMARK    1  A    between atoms: C_1  and  C_2 
REMARK    2  A    between atoms: C_1  and  C_3 
REMARK    3  A    between atoms: C_1  and  C_8 
REMARK       I    between atoms: C_2  and  N_24 
REMARK    4  A    between atoms: C_3  and  S_31 
REMARK    5  A    between atoms: C_4  and  S_31 
REMARK    6  A    between atoms: C_8  and  C_9 
REMARK    7  A    between atoms: C_8  and  C_13 
REMARK    8  A    between atoms: C_9  and  C_10 
REMARK       I    between atoms: C_13  and  N_25 
REMARK    9  A    between atoms: C_14  and  C_15 
REMARK   10  A    between atoms: C_14  and  C_17 
REMARK   11  A    between atoms: C_14  and  N_25 
REMARK       I    between atoms: C_15  and  N_26 
REMARK   12  A    between atoms: C_17  and  C_18 
REMARK   13  A    between atoms: N_24  and  O_28 
ROOT
HETATM    1  C   UNK N   1      28.251  23.677  -4.927  0.00  0.00     0.092 C 
ENDROOT
BRANCH   1   2
HETATM    2  C   UNK N   1      29.794  23.611  -4.722  0.00  0.00     0.102 C 
BRANCH   2   3
HETATM    3  C   UNK N   1      30.180  23.846  -3.268  0.00  0.00     0.246 C 
HETATM    4  N   UNK N   1      29.995  22.860  -2.359  0.00  0.00    -0.237 N 
HETATM    5  H   UNK N   1      29.591  22.008  -2.642  0.00  0.00     0.197 HD
HETATM    6  O   UNK N   1      30.685  24.904  -2.924  0.00  0.00    -0.271 OA
BRANCH   4   7
HETATM    7  O   UNK N   1      30.354  23.029  -1.079  0.00  0.00    -0.287 OA
HETATM    8  H   UNK N   1      30.817  23.803  -0.720  0.00  0.00     0.244 HD
ENDBRANCH   4   7
ENDBRANCH   2   3
BRANCH   2   9
HETATM    9  C   UNK N   1      30.416  22.298  -5.219  0.00  0.00     0.095 C 
BRANCH   9  10
HETATM   10  S   UNK N   1      31.428  22.476  -6.732  0.00  0.00    -0.122 SA
BRANCH  10  11
HETATM   11  C   UNK N   1      30.599  21.120  -7.542  0.00  0.00     0.041 A 
HETATM   12  C   UNK N   1      29.791  20.165  -6.937  0.00  0.00     0.026 A 
HETATM   13  C   UNK N   1      29.287  19.209  -7.866  0.00  0.00     0.009 A 
HETATM   14  C   UNK N   1      29.702  19.423  -9.189  0.00  0.00     0.051 A 
HETATM   15  S   UNK N   1      30.660  20.776  -9.152  0.00  0.00    -0.095 SA
ENDBRANCH  10  11
ENDBRANCH   9  10
ENDBRANCH   2   9
ENDBRANCH   1   2
BRANCH   1  16
HETATM   16  C   UNK N   1      27.791  23.767  -6.396  0.00  0.00     0.018 C 
BRANCH  16  17
HETATM   17  C   UNK N   1      26.986  22.608  -6.993  0.00  0.00    -0.022 C 
HETATM   18  C   UNK N   1      25.524  22.628  -6.609  0.00  0.00     0.009 C 
HETATM   19  C   UNK N   1      27.193  22.411  -8.486  0.00  0.00     0.009 C 
ENDBRANCH  16  17
ENDBRANCH   1  16
BRANCH   1  20
HETATM   20  C   UNK N   1      27.697  24.897  -4.240  0.00  0.00     0.223 C 
HETATM   21  N   UNK N   1      28.197  26.109  -4.585  0.00  0.00    -0.347 N 
HETATM   22  H   UNK N   1      28.959  26.100  -5.208  0.00  0.00     0.163 HD
HETATM   23  O   UNK N   1      26.793  24.790  -3.423  0.00  0.00    -0.273 OA
BRANCH  21  24
HETATM   24  C   UNK N   1      27.751  27.417  -4.151  0.00  0.00     0.180 C 
BRANCH  24  25
HETATM   25  C   UNK N   1      28.966  28.273  -3.831  0.00  0.00     0.240 C 
HETATM   26  N   UNK N   1      28.967  29.233  -2.868  0.00  0.00    -0.364 N 
HETATM   27  C   UNK N   1      27.860  29.495  -1.986  0.00  0.00     0.149 C 
HETATM   28  H   UNK N   1      29.776  29.784  -2.767  0.00  0.00     0.161 HD
HETATM   29  O   UNK N   1      29.985  28.099  -4.479  0.00  0.00    -0.271 OA
ENDBRANCH  24  25
BRANCH  24  30
HETATM   30  C   UNK N   1      26.738  28.082  -5.099  0.00  0.00     0.073 C 
BRANCH  30  31
HETATM   31  C   UNK N   1      26.759  27.477  -6.464  0.00  0.00    -0.056 A 
HETATM   32  C   UNK N   1      27.824  27.732  -7.336  0.00  0.00     0.007 A 
HETATM   33  C   UNK N   1      27.837  27.160  -8.610  0.00  0.00     0.001 A 
HETATM   34  C   UNK N   1      26.788  26.327  -9.015  0.00  0.00     0.000 A 
HETATM   35  C   UNK N   1      25.723  26.073  -8.145  0.00  0.00     0.001 A 
HETATM   36  C   UNK N   1      25.707  26.651  -6.872  0.00  0.00     0.007 A 
ENDBRANCH  30  31
ENDBRANCH  24  30
ENDBRANCH  21  24
ENDBRANCH   1  20
TORSDOF 13
ENDMDL
MODEL 7
REMARK VINA RESULT:      -6.6      1.700      2.344
REMARK  13 active torsions:
REMARK  status: ('A' for Active; 'I' for Inactive)
REMARK    1  A    between atoms: C_1  and  C_2 
REMARK    2  A    between atoms: C_1  and  C_3 
REMARK    3  A    between atoms: C_1  and  C_8 
REMARK       I    between atoms: C_2  and  N_24 
REMARK    4  A    between atoms: C_3  and  S_31 
REMARK    5  A    between atoms: C_4  and  S_31 
REMARK    6  A    between atoms: C_8  and  C_9 
REMARK    7  A    between atoms: C_8  and  C_13 
REMARK    8  A    between atoms: C_9  and  C_10 
REMARK       I    between atoms: C_13  and  N_25 
REMARK    9  A    between atoms: C_14  and  C_15 
REMARK   10  A    between atoms: C_14  and  C_17 
REMARK   11  A    between atoms: C_14  and  N_25 
REMARK       I    between atoms: C_15  and  N_26 
REMARK   12  A    between atoms: C_17  and  C_18 
REMARK   13  A    between atoms: N_24  and  O_28 
ROOT
HETATM    1  C   UNK N   1      31.496  17.335   6.913  0.00  0.00     0.092 C 
ENDROOT
BRANCH   1   2
HETATM    2  C   UNK N   1      32.814  16.731   7.484  0.00  0.00     0.102 C 
BRANCH   2   3
HETATM    3  C   UNK N   1      33.962  17.730   7.429  0.00  0.00     0.246 C 
HETATM    4  N   UNK N   1      34.320  18.398   8.550  0.00  0.00    -0.237 N 
HETATM    5  H   UNK N   1      33.821  18.248   9.385  0.00  0.00     0.197 HD
HETATM    6  O   UNK N   1      34.581  17.907   6.390  0.00  0.00    -0.271 OA
BRANCH   4   7
HETATM    7  O   UNK N   1      35.346  19.260   8.537  0.00  0.00    -0.287 OA
HETATM    8  H   UNK N   1      36.230  19.081   8.181  0.00  0.00     0.244 HD
ENDBRANCH   4   7
ENDBRANCH   2   3
BRANCH   2   9
HETATM    9  C   UNK N   1      32.664  16.188   8.912  0.00  0.00     0.095 C 
BRANCH   9  10
HETATM   10  S   UNK N   1      32.840  14.373   9.045  0.00  0.00    -0.122 SA
BRANCH  10  11
HETATM   11  C   UNK N   1      34.235  14.508  10.148  0.00  0.00     0.041 A 
HETATM   12  C   UNK N   1      34.658  15.656  10.809  0.00  0.00     0.026 A 
HETATM   13  C   UNK N   1      35.814  15.429  11.611  0.00  0.00     0.009 A 
HETATM   14  C   UNK N   1      36.285  14.107  11.575  0.00  0.00     0.051 A 
HETATM   15  S   UNK N   1      35.257  13.285  10.566  0.00  0.00    -0.095 SA
ENDBRANCH  10  11
ENDBRANCH   9  10
ENDBRANCH   2   9
ENDBRANCH   1   2
BRANCH   1  16
HETATM   16  C   UNK N   1      30.208  16.888   7.634  0.00  0.00     0.018 C 
BRANCH  16  17
HETATM   17  C   UNK N   1      29.373  17.935   8.377  0.00  0.00    -0.022 C 
HETATM   18  C   UNK N   1      28.188  17.351   9.112  0.00  0.00     0.009 C 
HETATM   19  C   UNK N   1      30.189  18.879   9.244  0.00  0.00     0.009 C 
ENDBRANCH  16  17
ENDBRANCH   1  16
BRANCH   1  20
HETATM   20  C   UNK N   1      31.331  16.930   5.472  0.00  0.00     0.223 C 
HETATM   21  N   UNK N   1      30.985  15.646   5.203  0.00  0.00    -0.347 N 
HETATM   22  H   UNK N   1      30.949  15.038   5.976  0.00  0.00     0.163 HD
HETATM   23  O   UNK N   1      31.469  17.753   4.578  0.00  0.00    -0.273 OA
BRANCH  21  24
HETATM   24  C   UNK N   1      30.662  15.057   3.919  0.00  0.00     0.180 C 
BRANCH  24  25
HETATM   25  C   UNK N   1      31.629  13.917   3.641  0.00  0.00     0.240 C 
HETATM   26  N   UNK N   1      32.868  14.106   3.113  0.00  0.00    -0.364 N 
HETATM   27  C   UNK N   1      33.441  15.397   2.835  0.00  0.00     0.149 C 
HETATM   28  H   UNK N   1      33.406  13.308   2.907  0.00  0.00     0.161 HD
HETATM   29  O   UNK N   1      31.271  12.779   3.893  0.00  0.00    -0.271 OA
ENDBRANCH  24  25
BRANCH  24  30
HETATM   30  C   UNK N   1      29.178  14.686   3.754  0.00  0.00     0.073 C 
BRANCH  30  31
HETATM   31  C   UNK N   1      28.267  15.745   4.282  0.00  0.00    -0.056 A 
HETATM   32  C   UNK N   1      27.506  15.515   5.434  0.00  0.00     0.007 A 
HETATM   33  C   UNK N   1      26.658  16.512   5.923  0.00  0.00     0.001 A 
HETATM   34  C   UNK N   1      26.573  17.743   5.264  0.00  0.00     0.000 A 
HETATM   35  C   UNK N   1      27.332  17.973   4.111  0.00  0.00     0.001 A 
HETATM   36  C   UNK N   1      28.175  16.973   3.619  0.00  0.00     0.007 A 
ENDBRANCH  30  31
ENDBRANCH  24  30
ENDBRANCH  21  24
ENDBRANCH   1  20
TORSDOF 13
ENDMDL
MODEL 8
REMARK VINA RESULT:      -6.4      2.165      3.129
REMARK  13 active torsions:
REMARK  status: ('A' for Active; 'I' for Inactive)
REMARK    1  A    between atoms: C_1  and  C_2 
REMARK    2  A    between atoms: C_1  and  C_3 
REMARK    3  A    between atoms: C_1  and  C_8 
REMARK       I    between atoms: C_2  and  N_24 
REMARK    4  A    between atoms: C_3  and  S_31 
REMARK    5  A    between atoms: C_4  and  S_31 
REMARK    6  A    between atoms: C_8  and  C_9 
REMARK    7  A    between atoms: C_8  and  C_13 
REMARK    8  A    between atoms: C_9  and  C_10 
REMARK       I    between atoms: C_13  and  N_25 
REMARK    9  A    between atoms: C_14  and  C_15 
REMARK   10  A    between atoms: C_14  and  C_17 
REMARK   11  A    between atoms: C_14  and  N_25 
REMARK       I    between atoms: C_15  and  N_26 
REMARK   12  A    between atoms: C_17  and  C_18 
REMARK   13  A    between atoms: N_24  and  O_28 
ROOT
HETATM    1  C   UNK N   1      31.269  17.215   7.095  0.00  0.00     0.092 C 
ENDROOT
BRANCH   1   2
HETATM    2  C   UNK N   1      32.679  16.578   6.909  0.00  0.00     0.102 C 
BRANCH   2   3
HETATM    3  C   UNK N   1      33.787  17.613   7.047  0.00  0.00     0.246 C 
HETATM    4  N   UNK N   1      33.984  18.226   8.237  0.00  0.00    -0.237 N 
HETATM    5  H   UNK N   1      33.395  18.014   8.996  0.00  0.00     0.197 HD
HETATM    6  O   UNK N   1      34.519  17.867   6.101  0.00  0.00    -0.271 OA
BRANCH   4   7
HETATM    7  O   UNK N   1      34.972  19.118   8.394  0.00  0.00    -0.287 OA
HETATM    8  H   UNK N   1      35.611  19.130   9.124  0.00  0.00     0.244 HD
ENDBRANCH   4   7
ENDBRANCH   2   3
BRANCH   2   9
HETATM    9  C   UNK N   1      32.943  15.403   7.861  0.00  0.00     0.095 C 
BRANCH   9  10
HETATM   10  S   UNK N   1      34.140  14.176   7.221  0.00  0.00    -0.122 SA
BRANCH  10  11
HETATM   11  C   UNK N   1      33.424  14.213   5.587  0.00  0.00     0.041 A 
HETATM   12  C   UNK N   1      34.006  14.746   4.442  0.00  0.00     0.026 A 
HETATM   13  C   UNK N   1      33.166  14.624   3.297  0.00  0.00     0.009 A 
HETATM   14  C   UNK N   1      31.938  13.995   3.552  0.00  0.00     0.051 A 
HETATM   15  S   UNK N   1      31.946  13.618   5.167  0.00  0.00    -0.095 SA
ENDBRANCH  10  11
ENDBRANCH   9  10
ENDBRANCH   2   9
ENDBRANCH   1   2
BRANCH   1  16
HETATM   16  C   UNK N   1      30.417  16.599   8.224  0.00  0.00     0.018 C 
BRANCH  16  17
HETATM   17  C   UNK N   1      29.812  17.523   9.284  0.00  0.00    -0.022 C 
HETATM   18  C   UNK N   1      30.277  18.957   9.170  0.00  0.00     0.009 C 
HETATM   19  C   UNK N   1      28.303  17.409   9.420  0.00  0.00     0.009 C 
ENDBRANCH  16  17
ENDBRANCH   1  16
BRANCH   1  20
HETATM   20  C   UNK N   1      30.466  17.055   5.831  0.00  0.00     0.223 C 
HETATM   21  N   UNK N   1      29.270  16.420   5.908  0.00  0.00    -0.347 N 
HETATM   22  H   UNK N   1      29.045  16.028   6.783  0.00  0.00     0.163 HD
HETATM   23  O   UNK N   1      30.873  17.522   4.776  0.00  0.00    -0.273 OA
BRANCH  21  24
HETATM   24  C   UNK N   1      28.280  16.248   4.864  0.00  0.00     0.180 C 
BRANCH  24  25
HETATM   25  C   UNK N   1      28.204  14.775   4.494  0.00  0.00     0.240 C 
HETATM   26  N   UNK N   1      28.378  14.317   3.226  0.00  0.00    -0.364 N 
HETATM   27  C   UNK N   1      28.738  15.149   2.108  0.00  0.00     0.149 C 
HETATM   28  H   UNK N   1      28.251  13.355   3.062  0.00  0.00     0.161 HD
HETATM   29  O   UNK N   1      27.961  13.968   5.376  0.00  0.00    -0.271 OA
ENDBRANCH  24  25
BRANCH  24  30
HETATM   30  C   UNK N   1      26.920  16.896   5.174  0.00  0.00     0.073 C 
BRANCH  30  31
HETATM   31  C   UNK N   1      27.005  18.386   5.243  0.00  0.00    -0.056 A 
HETATM   32  C   UNK N   1      26.667  19.166   4.131  0.00  0.00     0.007 A 
HETATM   33  C   UNK N   1      26.746  20.559   4.204  0.00  0.00     0.001 A 
HETATM   34  C   UNK N   1      27.159  21.175   5.389  0.00  0.00     0.000 A 
HETATM   35  C   UNK N   1      27.499  20.396   6.500  0.00  0.00     0.001 A 
HETATM   36  C   UNK N   1      27.426  19.002   6.425  0.00  0.00     0.007 A 
ENDBRANCH  30  31
ENDBRANCH  24  30
ENDBRANCH  21  24
ENDBRANCH   1  20
TORSDOF 13
ENDMDL
MODEL 9
REMARK VINA RESULT:      -6.4      4.084      9.702
REMARK  13 active torsions:
REMARK  status: ('A' for Active; 'I' for Inactive)
REMARK    1  A    between atoms: C_1  and  C_2 
REMARK    2  A    between atoms: C_1  and  C_3 
REMARK    3  A    between atoms: C_1  and  C_8 
REMARK       I    between atoms: C_2  and  N_24 
REMARK    4  A    between atoms: C_3  and  S_31 
REMARK    5  A    between atoms: C_4  and  S_31 
REMARK    6  A    between atoms: C_8  and  C_9 
REMARK    7  A    between atoms: C_8  and  C_13 
REMARK    8  A    between atoms: C_9  and  C_10 
REMARK       I    between atoms: C_13  and  N_25 
REMARK    9  A    between atoms: C_14  and  C_15 
REMARK   10  A    between atoms: C_14  and  C_17 
REMARK   11  A    between atoms: C_14  and  N_25 
REMARK       I    between atoms: C_15  and  N_26 
REMARK   12  A    between atoms: C_17  and  C_18 
REMARK   13  A    between atoms: N_24  and  O_28 
ROOT
HETATM    1  C   UNK N   1      35.442  14.724   9.720  0.00  0.00     0.092 C 
ENDROOT
BRANCH   1   2
HETATM    2  C   UNK N   1      34.396  15.870   9.570  0.00  0.00     0.102 C 
BRANCH   2   3
HETATM    3  C   UNK N   1      35.056  17.241   9.596  0.00  0.00     0.246 C 
HETATM    4  N   UNK N   1      34.780  18.134   8.617  0.00  0.00    -0.237 N 
HETATM    5  H   UNK N   1      34.174  17.880   7.884  0.00  0.00     0.197 HD
HETATM    6  O   UNK N   1      35.804  17.552  10.511  0.00  0.00    -0.271 OA
BRANCH   4   7
HETATM    7  O   UNK N   1      35.323  19.360   8.632  0.00  0.00    -0.287 OA
HETATM    8  H   UNK N   1      36.272  19.557   8.599  0.00  0.00     0.244 HD
ENDBRANCH   4   7
ENDBRANCH   2   3
BRANCH   2   9
HETATM    9  C   UNK N   1      33.525  15.735   8.312  0.00  0.00     0.095 C 
BRANCH   9  10
HETATM   10  S   UNK N   1      31.782  16.231   8.553  0.00  0.00    -0.122 SA
BRANCH  10  11
HETATM   11  C   UNK N   1      31.608  16.741   6.853  0.00  0.00     0.041 A 
HETATM   12  C   UNK N   1      32.637  17.093   5.986  0.00  0.00     0.026 A 
HETATM   13  C   UNK N   1      32.160  17.463   4.695  0.00  0.00     0.009 A 
HETATM   14  C   UNK N   1      30.765  17.394   4.559  0.00  0.00     0.051 A 
HETATM   15  S   UNK N   1      30.189  16.881   6.028  0.00  0.00    -0.095 SA
ENDBRANCH  10  11
ENDBRANCH   9  10
ENDBRANCH   2   9
ENDBRANCH   1   2
BRANCH   1  16
HETATM   16  C   UNK N   1      35.435  13.680   8.584  0.00  0.00     0.018 C 
BRANCH  16  17
HETATM   17  C   UNK N   1      36.604  13.652   7.596  0.00  0.00    -0.022 C 
HETATM   18  C   UNK N   1      37.283  12.305   7.503  0.00  0.00     0.009 C 
HETATM   19  C   UNK N   1      36.278  14.235   6.231  0.00  0.00     0.009 C 
ENDBRANCH  16  17
ENDBRANCH   1  16
BRANCH   1  20
HETATM   20  C   UNK N   1      35.183  13.961  10.991  0.00  0.00     0.223 C 
HETATM   21  N   UNK N   1      35.895  12.828  11.215  0.00  0.00    -0.347 N 
HETATM   22  H   UNK N   1      36.479  12.533  10.479  0.00  0.00     0.163 HD
HETATM   23  O   UNK N   1      34.379  14.379  11.812  0.00  0.00    -0.273 OA
BRANCH  21  24
HETATM   24  C   UNK N   1      35.903  11.996  12.401  0.00  0.00     0.180 C 
BRANCH  24  25
HETATM   25  C   UNK N   1      36.107  10.547  11.987  0.00  0.00     0.240 C 
HETATM   26  N   UNK N   1      35.081   9.670  11.825  0.00  0.00    -0.364 N 
HETATM   27  C   UNK N   1      33.690  10.021  11.939  0.00  0.00     0.149 C 
HETATM   28  H   UNK N   1      35.305   8.734  11.616  0.00  0.00     0.161 HD
HETATM   29  O   UNK N   1      37.247  10.151  11.805  0.00  0.00    -0.271 OA
ENDBRANCH  24  25
BRANCH  24  30
HETATM   30  C   UNK N   1      36.861  12.483  13.502  0.00  0.00     0.073 C 
BRANCH  30  31
HETATM   31  C   UNK N   1      36.290  12.301  14.871  0.00  0.00    -0.056 A 
HETATM   32  C   UNK N   1      35.418  13.256  15.406  0.00  0.00     0.007 A 
HETATM   33  C   UNK N   1      34.886  13.078  16.686  0.00  0.00     0.001 A 
HETATM   34  C   UNK N   1      35.220  11.942  17.430  0.00  0.00     0.000 A 
HETATM   35  C   UNK N   1      36.092  10.988  16.896  0.00  0.00     0.001 A 
HETATM   36  C   UNK N   1      36.630  11.170  15.619  0.00  0.00     0.007 A 
ENDBRANCH  30  31
ENDBRANCH  24  30
ENDBRANCH  21  24
ENDBRANCH   1  20
TORSDOF 13
ENDMDL
