REMARK  13 active torsions:
REMARK  status: ('A' for Active; 'I' for Inactive)
REMARK    1  A    between atoms: C_1  and  C_2 
REMARK    2  A    between atoms: C_1  and  C_6 
REMARK       I    between atoms: C_2  and  N_4 
REMARK    3  A    between atoms: N_4  and  O_5 
REMARK    4  A    between atoms: C_6  and  C_7 
REMARK    5  A    between atoms: C_6  and  C_9 
REMARK       I    between atoms: C_7  and  N_14 
REMARK    6  A    between atoms: C_9  and  C_10 
REMARK    7  A    between atoms: C_10  and  C_11 
REMARK    8  A    between atoms: C_11  and  C_12 
REMARK    9  A    between atoms: C_15  and  N_14 
REMARK   10  A    between atoms: C_15  and  C_16 
REMARK   11  A    between atoms: C_15  and  C_19 
REMARK       I    between atoms: C_19  and  N_21 
REMARK   12  A    between atoms: C_22  and  C_26 
REMARK   13  A    between atoms: C_26  and  O_27 
ROOT
HETATM    1  C   UNK N   1       0.804   0.125  -0.556  0.00  0.00     0.223 C 
HETATM    2  O   UNK N   1       1.485  -0.015  -1.561  0.00  0.00    -0.273 OA
HETATM    3  N   UNK N   1      -0.464   0.603  -0.706  0.00  0.00    -0.347 N 
HETATM    4  H   UNK N   1      -0.732   0.821  -1.628  0.00  0.00     0.163 HD
ENDROOT
BRANCH   3   5
HETATM    5  C   UNK N   1      -1.475   0.834   0.317  0.00  0.00     0.180 C 
BRANCH   5   6
HETATM    6  C   UNK N   1      -1.876   2.326   0.313  0.00  0.00     0.009 C 
HETATM    7  C   UNK N   1      -0.777   3.175   0.932  0.00  0.00     0.012 C 
HETATM    8  C   UNK N   1      -2.157   2.869  -1.082  0.00  0.00     0.012 C 
ENDBRANCH   5   6
BRANCH   5   9
HETATM    9  C   UNK N   1      -2.544  -0.257   0.202  0.00  0.00     0.243 C 
HETATM   10  O   UNK N   1      -2.157  -1.403   0.397  0.00  0.00    -0.271 OA
HETATM   11  N   UNK N   1      -3.882  -0.044  -0.038  0.00  0.00    -0.344 N 
HETATM   12  C   UNK N   1      -4.873  -1.102   0.012  0.00  0.00     0.111 C 
HETATM   13  C   UNK N   1      -4.440   1.257  -0.275  0.00  0.00     0.126 C 
HETATM   14  C   UNK N   1      -6.198  -0.422  -0.278  0.00  0.00     0.029 C 
HETATM   15  C   UNK N   1      -5.943   1.076  -0.275  0.00  0.00     0.022 C 
BRANCH  12  16
HETATM   16  C   UNK N   1      -4.684  -2.187  -1.050  0.00  0.00     0.189 C 
BRANCH  16  17
HETATM   17  O   UNK N   1      -3.750  -3.145  -0.654  0.00  0.00    -0.399 OA
HETATM   18  H   UNK N   1      -4.002  -4.040  -0.379  0.00  0.00     0.209 HD
ENDBRANCH  16  17
ENDBRANCH  12  16
ENDBRANCH   5   9
ENDBRANCH   3   5
BRANCH   1  19
HETATM   19  C   UNK N   1       1.403  -0.274   0.791  0.00  0.00     0.086 C 
BRANCH  19  20
HETATM   20  C   UNK N   1       1.609  -1.792   0.976  0.00  0.00     0.119 C 
BRANCH  20  21
HETATM   21  C   UNK N   1       1.647  -2.632  -0.273  0.00  0.00     0.241 C 
HETATM   22  O   UNK N   1       0.601  -2.973  -0.803  0.00  0.00    -0.271 OA
HETATM   23  N   UNK N   1       2.823  -3.037  -0.797  0.00  0.00    -0.237 N 
HETATM   24  H   UNK N   1       2.826  -3.595  -1.608  0.00  0.00     0.197 HD
BRANCH  23  25
HETATM   25  O   UNK N   1       3.986  -2.690  -0.229  0.00  0.00    -0.287 OA
HETATM   26  H   UNK N   1       4.624  -3.294   0.182  0.00  0.00     0.244 HD
ENDBRANCH  23  25
ENDBRANCH  20  21
ENDBRANCH  19  20
BRANCH  19  27
HETATM   27  C   UNK N   1       2.684   0.509   1.102  0.00  0.00     0.014 C 
BRANCH  27  28
HETATM   28  C   UNK N   1       3.862   0.222   0.187  0.00  0.00     0.001 C 
BRANCH  28  29
HETATM   29  C   UNK N   1       5.092   0.897   0.766  0.00  0.00    -0.000 C 
BRANCH  29  30
HETATM   30  C   UNK N   1       6.357   0.394   0.095  0.00  0.00    -0.005 C 
HETATM   31  C   UNK N   1       6.577   1.106  -1.224  0.00  0.00     0.005 C 
ENDBRANCH  29  30
ENDBRANCH  28  29
ENDBRANCH  27  28
ENDBRANCH  19  27
ENDBRANCH   1  19
TORSDOF 13
