MODEL 1
REMARK VINA RESULT:      -6.5      0.000      0.000
REMARK  13 active torsions:
REMARK  status: ('A' for Active; 'I' for Inactive)
REMARK    1  A    between atoms: C_1  and  C_2 
REMARK    2  A    between atoms: C_1  and  C_6 
REMARK       I    between atoms: C_2  and  N_4 
REMARK    3  A    between atoms: N_4  and  O_5 
REMARK    4  A    between atoms: C_6  and  C_7 
REMARK    5  A    between atoms: C_6  and  C_9 
REMARK       I    between atoms: C_7  and  N_14 
REMARK    6  A    between atoms: C_9  and  C_10 
REMARK    7  A    between atoms: C_10  and  C_11 
REMARK    8  A    between atoms: C_11  and  C_12 
REMARK    9  A    between atoms: C_15  and  N_14 
REMARK   10  A    between atoms: C_15  and  C_16 
REMARK   11  A    between atoms: C_15  and  C_19 
REMARK       I    between atoms: C_19  and  N_21 
REMARK   12  A    between atoms: C_22  and  C_26 
REMARK   13  A    between atoms: C_26  and  O_27 
ROOT
HETATM    1  C   UNK N   1      27.112  24.269  -4.309  0.00  0.00     0.223 C 
HETATM    2  O   UNK N   1      26.050  24.220  -3.707  0.00  0.00    -0.273 OA
HETATM    3  N   UNK N   1      28.230  24.600  -3.603  0.00  0.00    -0.347 N 
HETATM    4  H   UNK N   1      28.091  24.797  -2.648  0.00  0.00     0.163 HD
ENDROOT
BRANCH   3   5
HETATM    5  C   UNK N   1      29.605  24.702  -4.074  0.00  0.00     0.180 C 
BRANCH   5   6
HETATM    6  C   UNK N   1      30.139  26.124  -3.794  0.00  0.00     0.009 C 
HETATM    7  C   UNK N   1      31.573  26.261  -4.280  0.00  0.00     0.012 C 
HETATM    8  C   UNK N   1      29.313  27.217  -4.461  0.00  0.00     0.012 C 
ENDBRANCH   5   6
BRANCH   5   9
HETATM    9  C   UNK N   1      30.380  23.473  -3.586  0.00  0.00     0.243 C 
HETATM   10  O   UNK N   1      30.769  23.516  -2.425  0.00  0.00    -0.271 OA
HETATM   11  N   UNK N   1      30.612  22.331  -4.318  0.00  0.00    -0.344 N 
HETATM   12  C   UNK N   1      31.221  21.141  -3.756  0.00  0.00     0.111 C 
HETATM   13  C   UNK N   1      30.196  22.175  -5.683  0.00  0.00     0.126 C 
HETATM   14  C   UNK N   1      31.252  20.134  -4.891  0.00  0.00     0.029 C 
HETATM   15  C   UNK N   1      30.446  20.725  -6.036  0.00  0.00     0.022 C 
BRANCH  12  16
HETATM   16  C   UNK N   1      32.666  21.338  -3.292  0.00  0.00     0.189 C 
BRANCH  16  17
HETATM   17  O   UNK N   1      32.793  21.187  -1.911  0.00  0.00    -0.399 OA
HETATM   18  H   UNK N   1      32.180  21.595  -1.280  0.00  0.00     0.209 HD
ENDBRANCH  16  17
ENDBRANCH  12  16
ENDBRANCH   5   9
ENDBRANCH   3   5
BRANCH   1  19
HETATM   19  C   UNK N   1      27.123  23.926  -5.797  0.00  0.00     0.086 C 
BRANCH  19  20
HETATM   20  C   UNK N   1      25.968  23.008  -6.251  0.00  0.00     0.119 C 
BRANCH  20  21
HETATM   21  C   UNK N   1      26.219  22.143  -7.457  0.00  0.00     0.241 C 
HETATM   22  O   UNK N   1      27.353  21.758  -7.699  0.00  0.00    -0.271 OA
HETATM   23  N   UNK N   1      25.211  21.813  -8.292  0.00  0.00    -0.237 N 
HETATM   24  H   UNK N   1      25.398  21.256  -9.081  0.00  0.00     0.197 HD
BRANCH  23  25
HETATM   25  O   UNK N   1      23.960  22.233  -8.060  0.00  0.00    -0.287 OA
HETATM   26  H   UNK N   1      23.527  22.290  -7.193  0.00  0.00     0.244 HD
ENDBRANCH  23  25
ENDBRANCH  20  21
ENDBRANCH  19  20
BRANCH  19  27
HETATM   27  C   UNK N   1      27.220  25.181  -6.673  0.00  0.00     0.014 C 
BRANCH  27  28
HETATM   28  C   UNK N   1      25.920  25.940  -6.872  0.00  0.00     0.001 C 
BRANCH  28  29
HETATM   29  C   UNK N   1      26.044  27.288  -6.186  0.00  0.00    -0.000 C 
BRANCH  29  30
HETATM   30  C   UNK N   1      25.003  27.442  -5.092  0.00  0.00    -0.005 C 
HETATM   31  C   UNK N   1      25.665  27.787  -3.774  0.00  0.00     0.005 C 
ENDBRANCH  29  30
ENDBRANCH  28  29
ENDBRANCH  27  28
ENDBRANCH  19  27
ENDBRANCH   1  19
TORSDOF 13
ENDMDL
MODEL 2
REMARK VINA RESULT:      -6.3     14.147     16.157
REMARK  13 active torsions:
REMARK  status: ('A' for Active; 'I' for Inactive)
REMARK    1  A    between atoms: C_1  and  C_2 
REMARK    2  A    between atoms: C_1  and  C_6 
REMARK       I    between atoms: C_2  and  N_4 
REMARK    3  A    between atoms: N_4  and  O_5 
REMARK    4  A    between atoms: C_6  and  C_7 
REMARK    5  A    between atoms: C_6  and  C_9 
REMARK       I    between atoms: C_7  and  N_14 
REMARK    6  A    between atoms: C_9  and  C_10 
REMARK    7  A    between atoms: C_10  and  C_11 
REMARK    8  A    between atoms: C_11  and  C_12 
REMARK    9  A    between atoms: C_15  and  N_14 
REMARK   10  A    between atoms: C_15  and  C_16 
REMARK   11  A    between atoms: C_15  and  C_19 
REMARK       I    between atoms: C_19  and  N_21 
REMARK   12  A    between atoms: C_22  and  C_26 
REMARK   13  A    between atoms: C_26  and  O_27 
ROOT
HETATM    1  C   UNK N   1      19.019  16.143   5.798  0.00  0.00     0.223 C 
HETATM    2  O   UNK N   1      17.906  15.996   6.281  0.00  0.00    -0.273 OA
HETATM    3  N   UNK N   1      19.111  16.322   4.449  0.00  0.00    -0.347 N 
HETATM    4  H   UNK N   1      18.259  16.299   3.957  0.00  0.00     0.163 HD
ENDROOT
BRANCH   3   5
HETATM    5  C   UNK N   1      20.302  16.543   3.641  0.00  0.00     0.180 C 
BRANCH   5   6
HETATM    6  C   UNK N   1      20.481  15.363   2.659  0.00  0.00     0.009 C 
HETATM    7  C   UNK N   1      21.872  14.764   2.795  0.00  0.00     0.012 C 
HETATM    8  C   UNK N   1      19.467  14.247   2.871  0.00  0.00     0.012 C 
ENDBRANCH   5   6
BRANCH   5   9
HETATM    9  C   UNK N   1      20.281  17.985   3.125  0.00  0.00     0.243 C 
HETATM   10  O   UNK N   1      19.186  18.409   2.776  0.00  0.00    -0.271 OA
HETATM   11  N   UNK N   1      21.362  18.835   3.083  0.00  0.00    -0.344 N 
HETATM   12  C   UNK N   1      21.253  20.237   2.725  0.00  0.00     0.111 C 
HETATM   13  C   UNK N   1      22.687  18.442   3.472  0.00  0.00     0.126 C 
HETATM   14  C   UNK N   1      22.661  20.789   2.841  0.00  0.00     0.029 C 
HETATM   15  C   UNK N   1      23.515  19.709   3.483  0.00  0.00     0.022 C 
BRANCH  12  16
HETATM   16  C   UNK N   1      20.793  20.481   1.286  0.00  0.00     0.189 C 
BRANCH  16  17
HETATM   17  O   UNK N   1      20.620  21.840   1.019  0.00  0.00    -0.399 OA
HETATM   18  H   UNK N   1      20.761  22.223   0.140  0.00  0.00     0.209 HD
ENDBRANCH  16  17
ENDBRANCH  12  16
ENDBRANCH   5   9
ENDBRANCH   3   5
BRANCH   1  19
HETATM   19  C   UNK N   1      20.225  16.151   6.735  0.00  0.00     0.086 C 
BRANCH  19  20
HETATM   20  C   UNK N   1      19.870  16.253   8.234  0.00  0.00     0.119 C 
BRANCH  20  21
HETATM   21  C   UNK N   1      19.303  17.563   8.712  0.00  0.00     0.241 C 
HETATM   22  O   UNK N   1      20.032  18.538   8.807  0.00  0.00    -0.271 OA
HETATM   23  N   UNK N   1      18.005  17.665   9.066  0.00  0.00    -0.237 N 
HETATM   24  H   UNK N   1      17.656  18.527   9.387  0.00  0.00     0.197 HD
BRANCH  23  25
HETATM   25  O   UNK N   1      17.184  16.608   8.987  0.00  0.00    -0.287 OA
HETATM   26  H   UNK N   1      16.758  16.158   9.733  0.00  0.00     0.244 HD
ENDBRANCH  23  25
ENDBRANCH  20  21
ENDBRANCH  19  20
BRANCH  19  27
HETATM   27  C   UNK N   1      21.171  14.977   6.460  0.00  0.00     0.014 C 
BRANCH  27  28
HETATM   28  C   UNK N   1      20.629  13.604   6.821  0.00  0.00     0.001 C 
BRANCH  28  29
HETATM   29  C   UNK N   1      21.654  12.900   7.692  0.00  0.00    -0.000 C 
BRANCH  29  30
HETATM   30  C   UNK N   1      21.249  12.945   9.154  0.00  0.00    -0.005 C 
HETATM   31  C   UNK N   1      22.427  13.348  10.018  0.00  0.00     0.005 C 
ENDBRANCH  29  30
ENDBRANCH  28  29
ENDBRANCH  27  28
ENDBRANCH  19  27
ENDBRANCH   1  19
TORSDOF 13
ENDMDL
MODEL 3
REMARK VINA RESULT:      -5.8      2.282      3.624
REMARK  13 active torsions:
REMARK  status: ('A' for Active; 'I' for Inactive)
REMARK    1  A    between atoms: C_1  and  C_2 
REMARK    2  A    between atoms: C_1  and  C_6 
REMARK       I    between atoms: C_2  and  N_4 
REMARK    3  A    between atoms: N_4  and  O_5 
REMARK    4  A    between atoms: C_6  and  C_7 
REMARK    5  A    between atoms: C_6  and  C_9 
REMARK       I    between atoms: C_7  and  N_14 
REMARK    6  A    between atoms: C_9  and  C_10 
REMARK    7  A    between atoms: C_10  and  C_11 
REMARK    8  A    between atoms: C_11  and  C_12 
REMARK    9  A    between atoms: C_15  and  N_14 
REMARK   10  A    between atoms: C_15  and  C_16 
REMARK   11  A    between atoms: C_15  and  C_19 
REMARK       I    between atoms: C_19  and  N_21 
REMARK   12  A    between atoms: C_22  and  C_26 
REMARK   13  A    between atoms: C_26  and  O_27 
ROOT
HETATM    1  C   UNK N   1      27.157  24.463  -3.665  0.00  0.00     0.223 C 
HETATM    2  O   UNK N   1      26.505  23.966  -2.759  0.00  0.00    -0.273 OA
HETATM    3  N   UNK N   1      28.307  23.835  -4.042  0.00  0.00    -0.347 N 
HETATM    4  H   UNK N   1      28.538  23.025  -3.532  0.00  0.00     0.163 HD
ENDROOT
BRANCH   3   5
HETATM    5  C   UNK N   1      29.240  24.204  -5.098  0.00  0.00     0.180 C 
BRANCH   5   6
HETATM    6  C   UNK N   1      30.671  24.269  -4.518  0.00  0.00     0.009 C 
HETATM    7  C   UNK N   1      31.198  25.695  -4.559  0.00  0.00     0.012 C 
HETATM    8  C   UNK N   1      30.759  23.780  -3.079  0.00  0.00     0.012 C 
ENDBRANCH   5   6
BRANCH   5   9
HETATM    9  C   UNK N   1      28.942  23.349  -6.333  0.00  0.00     0.243 C 
HETATM   10  O   UNK N   1      28.326  23.910  -7.232  0.00  0.00    -0.271 OA
HETATM   11  N   UNK N   1      29.357  22.052  -6.527  0.00  0.00    -0.344 N 
HETATM   12  C   UNK N   1      29.173  21.341  -7.779  0.00  0.00     0.111 C 
HETATM   13  C   UNK N   1      30.087  21.305  -5.543  0.00  0.00     0.126 C 
HETATM   14  C   UNK N   1      29.801  19.977  -7.559  0.00  0.00     0.029 C 
HETATM   15  C   UNK N   1      30.528  20.028  -6.226  0.00  0.00     0.022 C 
BRANCH  12  16
HETATM   16  C   UNK N   1      27.710  21.106  -8.156  0.00  0.00     0.189 C 
BRANCH  16  17
HETATM   17  O   UNK N   1      27.209  22.130  -8.961  0.00  0.00    -0.399 OA
HETATM   18  H   UNK N   1      26.705  22.878  -8.604  0.00  0.00     0.209 HD
ENDBRANCH  16  17
ENDBRANCH  12  16
ENDBRANCH   5   9
ENDBRANCH   3   5
BRANCH   1  19
HETATM   19  C   UNK N   1      26.627  25.729  -4.335  0.00  0.00     0.086 C 
BRANCH  19  20
HETATM   20  C   UNK N   1      25.376  25.513  -5.212  0.00  0.00     0.119 C 
BRANCH  20  21
HETATM   21  C   UNK N   1      25.584  25.496  -6.703  0.00  0.00     0.241 C 
HETATM   22  O   UNK N   1      25.767  26.546  -7.299  0.00  0.00    -0.271 OA
HETATM   23  N   UNK N   1      25.541  24.337  -7.393  0.00  0.00    -0.237 N 
HETATM   24  H   UNK N   1      25.669  24.348  -8.369  0.00  0.00     0.197 HD
BRANCH  23  25
HETATM   25  O   UNK N   1      25.328  23.171  -6.768  0.00  0.00    -0.287 OA
HETATM   26  H   UNK N   1      25.749  22.323  -6.981  0.00  0.00     0.244 HD
ENDBRANCH  23  25
ENDBRANCH  20  21
ENDBRANCH  19  20
BRANCH  19  27
HETATM   27  C   UNK N   1      26.417  26.865  -3.327  0.00  0.00     0.014 C 
BRANCH  27  28
HETATM   28  C   UNK N   1      25.737  28.107  -3.876  0.00  0.00     0.001 C 
BRANCH  28  29
HETATM   29  C   UNK N   1      26.529  29.322  -3.430  0.00  0.00    -0.000 C 
BRANCH  29  30
HETATM   30  C   UNK N   1      27.046  30.105  -4.623  0.00  0.00    -0.005 C 
HETATM   31  C   UNK N   1      27.532  29.162  -5.705  0.00  0.00     0.005 C 
ENDBRANCH  29  30
ENDBRANCH  28  29
ENDBRANCH  27  28
ENDBRANCH  19  27
ENDBRANCH   1  19
TORSDOF 13
ENDMDL
MODEL 4
REMARK VINA RESULT:      -5.7     13.105     17.072
REMARK  13 active torsions:
REMARK  status: ('A' for Active; 'I' for Inactive)
REMARK    1  A    between atoms: C_1  and  C_2 
REMARK    2  A    between atoms: C_1  and  C_6 
REMARK       I    between atoms: C_2  and  N_4 
REMARK    3  A    between atoms: N_4  and  O_5 
REMARK    4  A    between atoms: C_6  and  C_7 
REMARK    5  A    between atoms: C_6  and  C_9 
REMARK       I    between atoms: C_7  and  N_14 
REMARK    6  A    between atoms: C_9  and  C_10 
REMARK    7  A    between atoms: C_10  and  C_11 
REMARK    8  A    between atoms: C_11  and  C_12 
REMARK    9  A    between atoms: C_15  and  N_14 
REMARK   10  A    between atoms: C_15  and  C_16 
REMARK   11  A    between atoms: C_15  and  C_19 
REMARK       I    between atoms: C_19  and  N_21 
REMARK   12  A    between atoms: C_22  and  C_26 
REMARK   13  A    between atoms: C_26  and  O_27 
ROOT
HETATM    1  C   UNK N   1      34.246  16.382   6.726  0.00  0.00     0.223 C 
HETATM    2  O   UNK N   1      34.655  17.465   6.336  0.00  0.00    -0.273 OA
HETATM    3  N   UNK N   1      34.969  15.272   6.403  0.00  0.00    -0.347 N 
HETATM    4  H   UNK N   1      35.771  15.430   5.854  0.00  0.00     0.163 HD
ENDROOT
BRANCH   3   5
HETATM    5  C   UNK N   1      34.713  13.884   6.763  0.00  0.00     0.180 C 
BRANCH   5   6
HETATM    6  C   UNK N   1      34.990  12.979   5.541  0.00  0.00     0.009 C 
HETATM    7  C   UNK N   1      33.694  12.387   5.012  0.00  0.00     0.012 C 
HETATM    8  C   UNK N   1      35.673  13.712   4.394  0.00  0.00     0.012 C 
ENDBRANCH   5   6
BRANCH   5   9
HETATM    9  C   UNK N   1      35.384  13.597   8.109  0.00  0.00     0.243 C 
HETATM   10  O   UNK N   1      34.625  13.365   9.043  0.00  0.00    -0.271 OA
HETATM   11  N   UNK N   1      36.740  13.523   8.328  0.00  0.00    -0.344 N 
HETATM   12  C   UNK N   1      37.317  13.100   9.590  0.00  0.00     0.111 C 
HETATM   13  C   UNK N   1      37.715  13.771   7.304  0.00  0.00     0.126 C 
HETATM   14  C   UNK N   1      38.818  13.134   9.375  0.00  0.00     0.029 C 
HETATM   15  C   UNK N   1      39.053  13.378   7.893  0.00  0.00     0.022 C 
BRANCH  12  16
HETATM   16  C   UNK N   1      37.010  14.035  10.762  0.00  0.00     0.189 C 
BRANCH  16  17
HETATM   17  O   UNK N   1      37.331  15.361  10.467  0.00  0.00    -0.399 OA
HETATM   18  H   UNK N   1      37.627  15.991  11.142  0.00  0.00     0.209 HD
ENDBRANCH  16  17
ENDBRANCH  12  16
ENDBRANCH   5   9
ENDBRANCH   3   5
BRANCH   1  19
HETATM   19  C   UNK N   1      32.975  16.346   7.573  0.00  0.00     0.086 C 
BRANCH  19  20
HETATM   20  C   UNK N   1      33.068  17.125   8.901  0.00  0.00     0.119 C 
BRANCH  20  21
HETATM   21  C   UNK N   1      34.224  16.793   9.807  0.00  0.00     0.241 C 
HETATM   22  O   UNK N   1      35.271  17.412   9.701  0.00  0.00    -0.271 OA
HETATM   23  N   UNK N   1      34.126  15.799  10.715  0.00  0.00    -0.237 N 
HETATM   24  H   UNK N   1      34.897  15.589  11.290  0.00  0.00     0.197 HD
BRANCH  23  25
HETATM   25  O   UNK N   1      32.994  15.093  10.844  0.00  0.00    -0.287 OA
HETATM   26  H   UNK N   1      32.864  14.168  10.581  0.00  0.00     0.244 HD
ENDBRANCH  23  25
ENDBRANCH  20  21
ENDBRANCH  19  20
BRANCH  19  27
HETATM   27  C   UNK N   1      31.738  16.757   6.766  0.00  0.00     0.014 C 
BRANCH  27  28
HETATM   28  C   UNK N   1      31.686  16.234   5.341  0.00  0.00     0.001 C 
BRANCH  28  29
HETATM   29  C   UNK N   1      31.544  17.419   4.402  0.00  0.00    -0.000 C 
BRANCH  29  30
HETATM   30  C   UNK N   1      32.194  17.133   3.061  0.00  0.00    -0.005 C 
HETATM   31  C   UNK N   1      33.134  15.950   3.168  0.00  0.00     0.005 C 
ENDBRANCH  29  30
ENDBRANCH  28  29
ENDBRANCH  27  28
ENDBRANCH  19  27
ENDBRANCH   1  19
TORSDOF 13
ENDMDL
MODEL 5
REMARK VINA RESULT:      -5.6     12.362     13.900
REMARK  13 active torsions:
REMARK  status: ('A' for Active; 'I' for Inactive)
REMARK    1  A    between atoms: C_1  and  C_2 
REMARK    2  A    between atoms: C_1  and  C_6 
REMARK       I    between atoms: C_2  and  N_4 
REMARK    3  A    between atoms: N_4  and  O_5 
REMARK    4  A    between atoms: C_6  and  C_7 
REMARK    5  A    between atoms: C_6  and  C_9 
REMARK       I    between atoms: C_7  and  N_14 
REMARK    6  A    between atoms: C_9  and  C_10 
REMARK    7  A    between atoms: C_10  and  C_11 
REMARK    8  A    between atoms: C_11  and  C_12 
REMARK    9  A    between atoms: C_15  and  N_14 
REMARK   10  A    between atoms: C_15  and  C_16 
REMARK   11  A    between atoms: C_15  and  C_19 
REMARK       I    between atoms: C_19  and  N_21 
REMARK   12  A    between atoms: C_22  and  C_26 
REMARK   13  A    between atoms: C_26  and  O_27 
ROOT
HETATM    1  C   UNK N   1      21.590  18.243   5.415  0.00  0.00     0.223 C 
HETATM    2  O   UNK N   1      21.171  19.087   6.194  0.00  0.00    -0.273 OA
HETATM    3  N   UNK N   1      21.649  16.951   5.845  0.00  0.00    -0.347 N 
HETATM    4  H   UNK N   1      21.362  16.797   6.774  0.00  0.00     0.163 HD
ENDROOT
BRANCH   3   5
HETATM    5  C   UNK N   1      22.080  15.768   5.112  0.00  0.00     0.180 C 
BRANCH   5   6
HETATM    6  C   UNK N   1      23.121  14.996   5.953  0.00  0.00     0.009 C 
HETATM    7  C   UNK N   1      23.321  13.595   5.398  0.00  0.00     0.012 C 
HETATM    8  C   UNK N   1      24.482  15.679   5.999  0.00  0.00     0.012 C 
ENDBRANCH   5   6
BRANCH   5   9
HETATM    9  C   UNK N   1      20.840  15.054   4.566  0.00  0.00     0.243 C 
HETATM   10  O   UNK N   1      19.963  14.809   5.386  0.00  0.00    -0.271 OA
HETATM   11  N   UNK N   1      20.619  14.729   3.248  0.00  0.00    -0.344 N 
HETATM   12  C   UNK N   1      19.363  14.188   2.766  0.00  0.00     0.111 C 
HETATM   13  C   UNK N   1      21.577  14.974   2.207  0.00  0.00     0.126 C 
HETATM   14  C   UNK N   1      19.550  14.014   1.270  0.00  0.00     0.029 C 
HETATM   15  C   UNK N   1      20.868  14.677   0.904  0.00  0.00     0.022 C 
BRANCH  12  16
HETATM   16  C   UNK N   1      19.015  12.812   3.336  0.00  0.00     0.189 C 
BRANCH  16  17
HETATM   17  O   UNK N   1      17.992  12.885   4.283  0.00  0.00    -0.399 OA
HETATM   18  H   UNK N   1      18.029  12.417   5.132  0.00  0.00     0.209 HD
ENDBRANCH  16  17
ENDBRANCH  12  16
ENDBRANCH   5   9
ENDBRANCH   3   5
BRANCH   1  19
HETATM   19  C   UNK N   1      21.986  18.685   4.007  0.00  0.00     0.086 C 
BRANCH  19  20
HETATM   20  C   UNK N   1      21.111  19.811   3.419  0.00  0.00     0.119 C 
BRANCH  20  21
HETATM   21  C   UNK N   1      20.129  19.422   2.346  0.00  0.00     0.241 C 
HETATM   22  O   UNK N   1      19.165  18.730   2.633  0.00  0.00    -0.271 OA
HETATM   23  N   UNK N   1      20.318  19.806   1.066  0.00  0.00    -0.237 N 
HETATM   24  H   UNK N   1      19.670  19.532   0.378  0.00  0.00     0.197 HD
BRANCH  23  25
HETATM   25  O   UNK N   1      21.374  20.554   0.720  0.00  0.00    -0.287 OA
HETATM   26  H   UNK N   1      21.911  20.448  -0.081  0.00  0.00     0.244 HD
ENDBRANCH  23  25
ENDBRANCH  20  21
ENDBRANCH  19  20
BRANCH  19  27
HETATM   27  C   UNK N   1      23.478  19.024   3.913  0.00  0.00     0.014 C 
BRANCH  27  28
HETATM   28  C   UNK N   1      23.812  20.287   3.137  0.00  0.00     0.001 C 
BRANCH  28  29
HETATM   29  C   UNK N   1      25.318  20.356   2.961  0.00  0.00    -0.000 C 
BRANCH  29  30
HETATM   30  C   UNK N   1      26.027  20.275   4.301  0.00  0.00    -0.005 C 
HETATM   31  C   UNK N   1      27.474  19.868   4.111  0.00  0.00     0.005 C 
ENDBRANCH  29  30
ENDBRANCH  28  29
ENDBRANCH  27  28
ENDBRANCH  19  27
ENDBRANCH   1  19
TORSDOF 13
ENDMDL
MODEL 6
REMARK VINA RESULT:      -5.6     14.893     17.398
REMARK  13 active torsions:
REMARK  status: ('A' for Active; 'I' for Inactive)
REMARK    1  A    between atoms: C_1  and  C_2 
REMARK    2  A    between atoms: C_1  and  C_6 
REMARK       I    between atoms: C_2  and  N_4 
REMARK    3  A    between atoms: N_4  and  O_5 
REMARK    4  A    between atoms: C_6  and  C_7 
REMARK    5  A    between atoms: C_6  and  C_9 
REMARK       I    between atoms: C_7  and  N_14 
REMARK    6  A    between atoms: C_9  and  C_10 
REMARK    7  A    between atoms: C_10  and  C_11 
REMARK    8  A    between atoms: C_11  and  C_12 
REMARK    9  A    between atoms: C_15  and  N_14 
REMARK   10  A    between atoms: C_15  and  C_16 
REMARK   11  A    between atoms: C_15  and  C_19 
REMARK       I    between atoms: C_19  and  N_21 
REMARK   12  A    between atoms: C_22  and  C_26 
REMARK   13  A    between atoms: C_26  and  O_27 
ROOT
HETATM    1  C   UNK N   1      34.315  16.310   6.834  0.00  0.00     0.223 C 
HETATM    2  O   UNK N   1      34.681  17.409   6.445  0.00  0.00    -0.273 OA
HETATM    3  N   UNK N   1      35.017  15.219   6.413  0.00  0.00    -0.347 N 
HETATM    4  H   UNK N   1      35.766  15.402   5.802  0.00  0.00     0.163 HD
ENDROOT
BRANCH   3   5
HETATM    5  C   UNK N   1      34.804  13.817   6.749  0.00  0.00     0.180 C 
BRANCH   5   6
HETATM    6  C   UNK N   1      35.087  12.944   5.506  0.00  0.00     0.009 C 
HETATM    7  C   UNK N   1      33.874  12.095   5.163  0.00  0.00     0.012 C 
HETATM    8  C   UNK N   1      35.452  13.758   4.271  0.00  0.00     0.012 C 
ENDBRANCH   5   6
BRANCH   5   9
HETATM    9  C   UNK N   1      35.504  13.522   8.079  0.00  0.00     0.243 C 
HETATM   10  O   UNK N   1      34.764  13.295   9.030  0.00  0.00    -0.271 OA
HETATM   11  N   UNK N   1      36.864  13.436   8.266  0.00  0.00    -0.344 N 
HETATM   12  C   UNK N   1      37.466  13.007   9.514  0.00  0.00     0.111 C 
HETATM   13  C   UNK N   1      37.817  13.678   7.221  0.00  0.00     0.126 C 
HETATM   14  C   UNK N   1      38.962  13.028   9.265  0.00  0.00     0.029 C 
HETATM   15  C   UNK N   1      39.165  13.272   7.778  0.00  0.00     0.022 C 
BRANCH  12  16
HETATM   16  C   UNK N   1      37.194  13.942  10.694  0.00  0.00     0.189 C 
BRANCH  16  17
HETATM   17  O   UNK N   1      37.514  15.266  10.391  0.00  0.00    -0.399 OA
HETATM   18  H   UNK N   1      38.044  15.514   9.618  0.00  0.00     0.209 HD
ENDBRANCH  16  17
ENDBRANCH  12  16
ENDBRANCH   5   9
ENDBRANCH   3   5
BRANCH   1  19
HETATM   19  C   UNK N   1      33.124  16.233   7.786  0.00  0.00     0.086 C 
BRANCH  19  20
HETATM   20  C   UNK N   1      33.271  17.083   9.066  0.00  0.00     0.119 C 
BRANCH  20  21
HETATM   21  C   UNK N   1      34.419  16.746   9.979  0.00  0.00     0.241 C 
HETATM   22  O   UNK N   1      35.461  17.379   9.898  0.00  0.00    -0.271 OA
HETATM   23  N   UNK N   1      34.322  15.734  10.867  0.00  0.00    -0.237 N 
HETATM   24  H   UNK N   1      35.088  15.523  11.448  0.00  0.00     0.197 HD
BRANCH  23  25
HETATM   25  O   UNK N   1      33.196  15.013  10.968  0.00  0.00    -0.287 OA
HETATM   26  H   UNK N   1      32.463  15.182  11.580  0.00  0.00     0.244 HD
ENDBRANCH  23  25
ENDBRANCH  20  21
ENDBRANCH  19  20
BRANCH  19  27
HETATM   27  C   UNK N   1      31.799  16.520   7.069  0.00  0.00     0.014 C 
BRANCH  27  28
HETATM   28  C   UNK N   1      30.959  17.632   7.674  0.00  0.00     0.001 C 
BRANCH  28  29
HETATM   29  C   UNK N   1      29.504  17.201   7.643  0.00  0.00    -0.000 C 
BRANCH  29  30
HETATM   30  C   UNK N   1      28.698  17.928   8.704  0.00  0.00    -0.005 C 
HETATM   31  C   UNK N   1      29.617  18.553   9.733  0.00  0.00     0.005 C 
ENDBRANCH  29  30
ENDBRANCH  28  29
ENDBRANCH  27  28
ENDBRANCH  19  27
ENDBRANCH   1  19
TORSDOF 13
ENDMDL
MODEL 7
REMARK VINA RESULT:      -5.6     11.108     12.398
REMARK  13 active torsions:
REMARK  status: ('A' for Active; 'I' for Inactive)
REMARK    1  A    between atoms: C_1  and  C_2 
REMARK    2  A    between atoms: C_1  and  C_6 
REMARK       I    between atoms: C_2  and  N_4 
REMARK    3  A    between atoms: N_4  and  O_5 
REMARK    4  A    between atoms: C_6  and  C_7 
REMARK    5  A    between atoms: C_6  and  C_9 
REMARK       I    between atoms: C_7  and  N_14 
REMARK    6  A    between atoms: C_9  and  C_10 
REMARK    7  A    between atoms: C_10  and  C_11 
REMARK    8  A    between atoms: C_11  and  C_12 
REMARK    9  A    between atoms: C_15  and  N_14 
REMARK   10  A    between atoms: C_15  and  C_16 
REMARK   11  A    between atoms: C_15  and  C_19 
REMARK       I    between atoms: C_19  and  N_21 
REMARK   12  A    between atoms: C_22  and  C_26 
REMARK   13  A    between atoms: C_26  and  O_27 
ROOT
HETATM    1  C   UNK N   1      21.864  18.866   4.171  0.00  0.00     0.223 C 
HETATM    2  O   UNK N   1      21.039  19.427   4.876  0.00  0.00    -0.273 OA
HETATM    3  N   UNK N   1      22.120  17.549   4.413  0.00  0.00    -0.347 N 
HETATM    4  H   UNK N   1      21.625  17.149   5.164  0.00  0.00     0.163 HD
ENDROOT
BRANCH   3   5
HETATM    5  C   UNK N   1      23.029  16.656   3.708  0.00  0.00     0.180 C 
BRANCH   5   6
HETATM    6  C   UNK N   1      24.365  16.570   4.480  0.00  0.00     0.009 C 
HETATM    7  C   UNK N   1      24.513  15.209   5.140  0.00  0.00     0.012 C 
HETATM    8  C   UNK N   1      25.585  16.797   3.597  0.00  0.00     0.012 C 
ENDBRANCH   5   6
BRANCH   5   9
HETATM    9  C   UNK N   1      22.267  15.381   3.333  0.00  0.00     0.243 C 
HETATM   10  O   UNK N   1      21.262  15.149   3.993  0.00  0.00    -0.271 OA
HETATM   11  N   UNK N   1      22.587  14.533   2.297  0.00  0.00    -0.344 N 
HETATM   12  C   UNK N   1      21.744  13.423   1.894  0.00  0.00     0.111 C 
HETATM   13  C   UNK N   1      23.739  14.716   1.460  0.00  0.00     0.126 C 
HETATM   14  C   UNK N   1      22.455  12.792   0.711  0.00  0.00     0.029 C 
HETATM   15  C   UNK N   1      23.602  13.713   0.334  0.00  0.00     0.022 C 
BRANCH  12  16
HETATM   16  C   UNK N   1      21.592  12.335   2.959  0.00  0.00     0.189 C 
BRANCH  16  17
HETATM   17  O   UNK N   1      22.713  12.256   3.785  0.00  0.00    -0.399 OA
HETATM   18  H   UNK N   1      23.382  12.956   3.830  0.00  0.00     0.209 HD
ENDBRANCH  16  17
ENDBRANCH  12  16
ENDBRANCH   5   9
ENDBRANCH   3   5
BRANCH   1  19
HETATM   19  C   UNK N   1      22.527  19.664   3.050  0.00  0.00     0.086 C 
BRANCH  19  20
HETATM   20  C   UNK N   1      21.631  20.752   2.422  0.00  0.00     0.119 C 
BRANCH  20  21
HETATM   21  C   UNK N   1      20.892  20.383   1.162  0.00  0.00     0.241 C 
HETATM   22  O   UNK N   1      20.799  19.209   0.839  0.00  0.00    -0.271 OA
HETATM   23  N   UNK N   1      20.358  21.337   0.371  0.00  0.00    -0.237 N 
HETATM   24  H   UNK N   1      19.889  21.076  -0.454  0.00  0.00     0.197 HD
BRANCH  23  25
HETATM   25  O   UNK N   1      20.458  22.634   0.692  0.00  0.00    -0.287 OA
HETATM   26  H   UNK N   1      21.108  23.024   1.297  0.00  0.00     0.244 HD
ENDBRANCH  23  25
ENDBRANCH  20  21
ENDBRANCH  19  20
BRANCH  19  27
HETATM   27  C   UNK N   1      23.885  20.233   3.478  0.00  0.00     0.014 C 
BRANCH  27  28
HETATM   28  C   UNK N   1      24.955  20.248   2.400  0.00  0.00     0.001 C 
BRANCH  28  29
HETATM   29  C   UNK N   1      26.256  20.716   3.025  0.00  0.00    -0.000 C 
BRANCH  29  30
HETATM   30  C   UNK N   1      26.353  20.278   4.474  0.00  0.00    -0.005 C 
HETATM   31  C   UNK N   1      27.787  19.941   4.832  0.00  0.00     0.005 C 
ENDBRANCH  29  30
ENDBRANCH  28  29
ENDBRANCH  27  28
ENDBRANCH  19  27
ENDBRANCH   1  19
TORSDOF 13
ENDMDL
MODEL 8
REMARK VINA RESULT:      -5.6     15.072     16.945
REMARK  13 active torsions:
REMARK  status: ('A' for Active; 'I' for Inactive)
REMARK    1  A    between atoms: C_1  and  C_2 
REMARK    2  A    between atoms: C_1  and  C_6 
REMARK       I    between atoms: C_2  and  N_4 
REMARK    3  A    between atoms: N_4  and  O_5 
REMARK    4  A    between atoms: C_6  and  C_7 
REMARK    5  A    between atoms: C_6  and  C_9 
REMARK       I    between atoms: C_7  and  N_14 
REMARK    6  A    between atoms: C_9  and  C_10 
REMARK    7  A    between atoms: C_10  and  C_11 
REMARK    8  A    between atoms: C_11  and  C_12 
REMARK    9  A    between atoms: C_15  and  N_14 
REMARK   10  A    between atoms: C_15  and  C_16 
REMARK   11  A    between atoms: C_15  and  C_19 
REMARK       I    between atoms: C_19  and  N_21 
REMARK   12  A    between atoms: C_22  and  C_26 
REMARK   13  A    between atoms: C_26  and  O_27 
ROOT
HETATM    1  C   UNK N   1      20.706  14.514   6.700  0.00  0.00     0.223 C 
HETATM    2  O   UNK N   1      20.000  13.517   6.674  0.00  0.00    -0.273 OA
HETATM    3  N   UNK N   1      21.576  14.707   5.669  0.00  0.00    -0.347 N 
HETATM    4  H   UNK N   1      21.583  14.005   4.979  0.00  0.00     0.163 HD
ENDROOT
BRANCH   3   5
HETATM    5  C   UNK N   1      22.498  15.815   5.453  0.00  0.00     0.180 C 
BRANCH   5   6
HETATM    6  C   UNK N   1      23.869  15.260   5.007  0.00  0.00     0.009 C 
HETATM    7  C   UNK N   1      24.942  16.331   5.126  0.00  0.00     0.012 C 
HETATM    8  C   UNK N   1      24.322  14.052   5.817  0.00  0.00     0.012 C 
ENDBRANCH   5   6
BRANCH   5   9
HETATM    9  C   UNK N   1      21.787  16.886   4.621  0.00  0.00     0.243 C 
HETATM   10  O   UNK N   1      21.748  18.006   5.118  0.00  0.00    -0.271 OA
HETATM   11  N   UNK N   1      21.256  16.703   3.365  0.00  0.00    -0.344 N 
HETATM   12  C   UNK N   1      20.727  17.790   2.563  0.00  0.00     0.111 C 
HETATM   13  C   UNK N   1      21.253  15.435   2.691  0.00  0.00     0.126 C 
HETATM   14  C   UNK N   1      20.287  17.147   1.261  0.00  0.00     0.029 C 
HETATM   15  C   UNK N   1      20.785  15.712   1.278  0.00  0.00     0.022 C 
BRANCH  12  16
HETATM   16  C   UNK N   1      19.497  18.471   3.166  0.00  0.00     0.189 C 
BRANCH  16  17
HETATM   17  O   UNK N   1      18.414  18.461   2.286  0.00  0.00    -0.399 OA
HETATM   18  H   UNK N   1      17.498  18.579   2.582  0.00  0.00     0.209 HD
ENDBRANCH  16  17
ENDBRANCH  12  16
ENDBRANCH   5   9
ENDBRANCH   3   5
BRANCH   1  19
HETATM   19  C   UNK N   1      20.543  15.491   7.863  0.00  0.00     0.086 C 
BRANCH  19  20
HETATM   20  C   UNK N   1      19.441  16.551   7.660  0.00  0.00     0.119 C 
BRANCH  20  21
HETATM   21  C   UNK N   1      19.154  17.467   8.820  0.00  0.00     0.241 C 
HETATM   22  O   UNK N   1      20.005  18.263   9.185  0.00  0.00    -0.271 OA
HETATM   23  N   UNK N   1      17.979  17.399   9.480  0.00  0.00    -0.237 N 
HETATM   24  H   UNK N   1      17.815  17.999  10.243  0.00  0.00     0.197 HD
BRANCH  23  25
HETATM   25  O   UNK N   1      17.032  16.525   9.111  0.00  0.00    -0.287 OA
HETATM   26  H   UNK N   1      16.170  16.746   8.724  0.00  0.00     0.244 HD
ENDBRANCH  23  25
ENDBRANCH  20  21
ENDBRANCH  19  20
BRANCH  19  27
HETATM   27  C   UNK N   1      20.383  14.763   9.203  0.00  0.00     0.014 C 
BRANCH  27  28
HETATM   28  C   UNK N   1      21.593  13.967   9.661  0.00  0.00     0.001 C 
BRANCH  28  29
HETATM   29  C   UNK N   1      21.105  12.784  10.477  0.00  0.00    -0.000 C 
BRANCH  29  30
HETATM   30  C   UNK N   1      22.261  12.082  11.167  0.00  0.00    -0.005 C 
HETATM   31  C   UNK N   1      23.580  12.505  10.553  0.00  0.00     0.005 C 
ENDBRANCH  29  30
ENDBRANCH  28  29
ENDBRANCH  27  28
ENDBRANCH  19  27
ENDBRANCH   1  19
TORSDOF 13
ENDMDL
MODEL 9
REMARK VINA RESULT:      -5.5      2.158      3.655
REMARK  13 active torsions:
REMARK  status: ('A' for Active; 'I' for Inactive)
REMARK    1  A    between atoms: C_1  and  C_2 
REMARK    2  A    between atoms: C_1  and  C_6 
REMARK       I    between atoms: C_2  and  N_4 
REMARK    3  A    between atoms: N_4  and  O_5 
REMARK    4  A    between atoms: C_6  and  C_7 
REMARK    5  A    between atoms: C_6  and  C_9 
REMARK       I    between atoms: C_7  and  N_14 
REMARK    6  A    between atoms: C_9  and  C_10 
REMARK    7  A    between atoms: C_10  and  C_11 
REMARK    8  A    between atoms: C_11  and  C_12 
REMARK    9  A    between atoms: C_15  and  N_14 
REMARK   10  A    between atoms: C_15  and  C_16 
REMARK   11  A    between atoms: C_15  and  C_19 
REMARK       I    between atoms: C_19  and  N_21 
REMARK   12  A    between atoms: C_22  and  C_26 
REMARK   13  A    between atoms: C_26  and  O_27 
ROOT
HETATM    1  C   UNK N   1      25.769  24.066  -7.161  0.00  0.00     0.223 C 
HETATM    2  O   UNK N   1      24.848  23.447  -7.672  0.00  0.00    -0.273 OA
HETATM    3  N   UNK N   1      25.593  24.544  -5.897  0.00  0.00    -0.347 N 
HETATM    4  H   UNK N   1      24.713  24.367  -5.492  0.00  0.00     0.163 HD
ENDROOT
BRANCH   3   5
HETATM    5  C   UNK N   1      26.533  25.282  -5.065  0.00  0.00     0.180 C 
BRANCH   5   6
HETATM    6  C   UNK N   1      25.858  26.573  -4.549  0.00  0.00     0.009 C 
HETATM    7  C   UNK N   1      26.904  27.628  -4.223  0.00  0.00     0.012 C 
HETATM    8  C   UNK N   1      24.878  27.177  -5.547  0.00  0.00     0.012 C 
ENDBRANCH   5   6
BRANCH   5   9
HETATM    9  C   UNK N   1      27.189  24.305  -4.084  0.00  0.00     0.243 C 
HETATM   10  O   UNK N   1      26.494  23.956  -3.137  0.00  0.00    -0.271 OA
HETATM   11  N   UNK N   1      28.444  23.759  -4.218  0.00  0.00    -0.344 N 
HETATM   12  C   UNK N   1      28.955  22.724  -3.338  0.00  0.00     0.111 C 
HETATM   13  C   UNK N   1      29.337  24.095  -5.290  0.00  0.00     0.126 C 
HETATM   14  C   UNK N   1      30.341  22.401  -3.864  0.00  0.00     0.029 C 
HETATM   15  C   UNK N   1      30.499  23.130  -5.189  0.00  0.00     0.022 C 
BRANCH  12  16
HETATM   16  C   UNK N   1      29.120  23.166  -1.883  0.00  0.00     0.189 C 
BRANCH  16  17
HETATM   17  O   UNK N   1      30.440  23.041  -1.448  0.00  0.00    -0.399 OA
HETATM   18  H   UNK N   1      30.765  22.258  -0.978  0.00  0.00     0.209 HD
ENDBRANCH  16  17
ENDBRANCH  12  16
ENDBRANCH   5   9
ENDBRANCH   3   5
BRANCH   1  19
HETATM   19  C   UNK N   1      27.063  24.233  -7.955  0.00  0.00     0.086 C 
BRANCH  19  20
HETATM   20  C   UNK N   1      27.394  23.057  -8.897  0.00  0.00     0.119 C 
BRANCH  20  21
HETATM   21  C   UNK N   1      27.317  21.672  -8.310  0.00  0.00     0.241 C 
HETATM   22  O   UNK N   1      28.214  21.274  -7.584  0.00  0.00    -0.271 OA
HETATM   23  N   UNK N   1      26.283  20.855  -8.602  0.00  0.00    -0.237 N 
HETATM   24  H   UNK N   1      26.256  19.950  -8.218  0.00  0.00     0.197 HD
BRANCH  23  25
HETATM   25  O   UNK N   1      25.291  21.260  -9.408  0.00  0.00    -0.287 OA
HETATM   26  H   UNK N   1      25.265  22.091  -9.908  0.00  0.00     0.244 HD
ENDBRANCH  23  25
ENDBRANCH  20  21
ENDBRANCH  19  20
BRANCH  19  27
HETATM   27  C   UNK N   1      27.111  25.576  -8.695  0.00  0.00     0.014 C 
BRANCH  27  28
HETATM   28  C   UNK N   1      27.363  25.487 -10.190  0.00  0.00     0.001 C 
BRANCH  28  29
HETATM   29  C   UNK N   1      26.375  26.398 -10.896  0.00  0.00    -0.000 C 
BRANCH  29  30
HETATM   30  C   UNK N   1      24.953  26.113 -10.447  0.00  0.00    -0.005 C 
HETATM   31  C   UNK N   1      23.960  26.782 -11.374  0.00  0.00     0.005 C 
ENDBRANCH  29  30
ENDBRANCH  28  29
ENDBRANCH  27  28
ENDBRANCH  19  27
ENDBRANCH   1  19
TORSDOF 13
ENDMDL
