MODEL 1
REMARK VINA RESULT:      -7.5      0.000      0.000
REMARK  7 active torsions:
REMARK  status: ('A' for Active; 'I' for Inactive)
REMARK    1  A    between atoms: C_1  and  S_9 
REMARK    2  A    between atoms: C_4  and  O_7 
REMARK    3  A    between atoms: S_9  and  N_12 
REMARK    4  A    between atoms: C_13  and  C_19 
REMARK    5  A    between atoms: N_16  and  C_23 
REMARK       I    between atoms: C_19  and  N_20 
REMARK    6  A    between atoms: N_20  and  O_21 
REMARK    7  A    between atoms: C_23  and  C_26 
ROOT
HETATM    1  N   UNK N   1      29.844  24.624  -4.093  0.00  0.00    -0.175 NA
HETATM    2  C   UNK N   1      29.300  23.413  -3.395  0.00  0.00     0.179 C 
HETATM    3  C   UNK N   1      27.998  23.705  -2.612  0.00  0.00     0.133 C 
HETATM    4  C   UNK N   1      27.122  24.531  -3.492  0.00  0.00     0.223 C 
HETATM    5  N   UNK N   1      27.677  25.612  -4.096  0.00  0.00    -0.335 N 
HETATM    6  C   UNK N   1      29.077  25.862  -3.859  0.00  0.00     0.236 C 
HETATM    7  O   UNK N   1      25.964  24.206  -3.702  0.00  0.00    -0.273 OA
ENDROOT
BRANCH   1   8
HETATM    8  S   UNK N   1      30.043  24.372  -5.856  0.00  0.00     0.245 S 
HETATM    9  O   UNK N   1      31.473  23.833  -6.043  0.00  0.00    -0.206 OA
HETATM   10  O   UNK N   1      30.141  25.756  -6.520  0.00  0.00    -0.206 OA
BRANCH   8  11
HETATM   11  C   UNK N   1      28.865  23.270  -6.610  0.00  0.00     0.074 A 
HETATM   12  C   UNK N   1      27.617  23.751  -7.018  0.00  0.00     0.027 A 
HETATM   13  C   UNK N   1      26.737  22.913  -7.709  0.00  0.00     0.038 A 
HETATM   14  C   UNK N   1      27.106  21.597  -8.007  0.00  0.00     0.068 A 
HETATM   15  C   UNK N   1      28.355  21.115  -7.576  0.00  0.00     0.038 A 
HETATM   16  C   UNK N   1      29.227  21.951  -6.880  0.00  0.00     0.027 A 
BRANCH  14  17
HETATM   17  O   UNK N   1      26.257  20.821  -8.720  0.00  0.00    -0.356 OA
HETATM   18  C   UNK N   1      25.926  21.078 -10.031  0.00  0.00     0.210 C 
ENDBRANCH  14  17
ENDBRANCH   8  11
ENDBRANCH   1   8
BRANCH   2  19
HETATM   19  C   UNK N   1      30.352  22.820  -2.485  0.00  0.00     0.260 C 
HETATM   20  N   UNK N   1      31.283  21.985  -2.997  0.00  0.00    -0.236 N 
HETATM   21  H   UNK N   1      31.283  21.790  -3.961  0.00  0.00     0.197 HD
HETATM   22  O   UNK N   1      30.352  23.071  -1.287  0.00  0.00    -0.270 OA
BRANCH  20  23
HETATM   23  O   UNK N   1      32.207  21.417  -2.209  0.00  0.00    -0.287 OA
HETATM   24  H   UNK N   1      33.069  21.815  -2.015  0.00  0.00     0.244 HD
ENDBRANCH  20  23
ENDBRANCH   2  19
BRANCH   5  25
HETATM   25  C   UNK N   1      26.956  26.413  -5.065  0.00  0.00     0.165 C 
BRANCH  25  26
HETATM   26  C   UNK N   1      27.023  27.888  -4.797  0.00  0.00    -0.040 A 
HETATM   27  C   UNK N   1      27.766  28.690  -5.667  0.00  0.00     0.009 A 
HETATM   28  C   UNK N   1      27.830  30.072  -5.470  0.00  0.00     0.001 A 
HETATM   29  C   UNK N   1      27.152  30.657  -4.398  0.00  0.00     0.000 A 
HETATM   30  C   UNK N   1      26.412  29.860  -3.520  0.00  0.00     0.001 A 
HETATM   31  C   UNK N   1      26.346  28.479  -3.717  0.00  0.00     0.009 A 
ENDBRANCH  25  26
ENDBRANCH   5  25
TORSDOF 7
ENDMDL
MODEL 2
REMARK VINA RESULT:      -7.2     12.131     13.781
REMARK  7 active torsions:
REMARK  status: ('A' for Active; 'I' for Inactive)
REMARK    1  A    between atoms: C_1  and  S_9 
REMARK    2  A    between atoms: C_4  and  O_7 
REMARK    3  A    between atoms: S_9  and  N_12 
REMARK    4  A    between atoms: C_13  and  C_19 
REMARK    5  A    between atoms: N_16  and  C_23 
REMARK       I    between atoms: C_19  and  N_20 
REMARK    6  A    between atoms: N_20  and  O_21 
REMARK    7  A    between atoms: C_23  and  C_26 
ROOT
HETATM    1  N   UNK N   1      31.773  17.073   6.172  0.00  0.00    -0.175 NA
HETATM    2  C   UNK N   1      32.362  17.218   7.545  0.00  0.00     0.179 C 
HETATM    3  C   UNK N   1      31.455  18.021   8.506  0.00  0.00     0.133 C 
HETATM    4  C   UNK N   1      30.061  17.524   8.327  0.00  0.00     0.223 C 
HETATM    5  N   UNK N   1      29.590  17.414   7.059  0.00  0.00    -0.335 N 
HETATM    6  C   UNK N   1      30.484  17.764   5.983  0.00  0.00     0.236 C 
HETATM    7  O   UNK N   1      29.395  17.175   9.289  0.00  0.00    -0.273 OA
ENDROOT
BRANCH   1   8
HETATM    8  S   UNK N   1      31.612  15.361   5.668  0.00  0.00     0.245 S 
HETATM    9  O   UNK N   1      31.507  14.550   6.973  0.00  0.00    -0.206 OA
HETATM   10  O   UNK N   1      32.975  14.902   5.123  0.00  0.00    -0.206 OA
BRANCH   8  11
HETATM   11  C   UNK N   1      30.229  15.003   4.605  0.00  0.00     0.074 A 
HETATM   12  C   UNK N   1      30.136  15.608   3.348  0.00  0.00     0.027 A 
HETATM   13  C   UNK N   1      29.112  15.242   2.471  0.00  0.00     0.038 A 
HETATM   14  C   UNK N   1      28.186  14.260   2.840  0.00  0.00     0.068 A 
HETATM   15  C   UNK N   1      28.275  13.670   4.114  0.00  0.00     0.038 A 
HETATM   16  C   UNK N   1      29.293  14.043   4.989  0.00  0.00     0.027 A 
BRANCH  14  17
HETATM   17  O   UNK N   1      27.233  13.888   1.954  0.00  0.00    -0.356 OA
HETATM   18  C   UNK N   1      25.991  14.476   1.897  0.00  0.00     0.210 C 
ENDBRANCH  14  17
ENDBRANCH   8  11
ENDBRANCH   1   8
BRANCH   2  19
HETATM   19  C   UNK N   1      33.738  17.840   7.458  0.00  0.00     0.260 C 
HETATM   20  N   UNK N   1      34.188  18.608   8.474  0.00  0.00    -0.236 N 
HETATM   21  H   UNK N   1      33.627  18.736   9.272  0.00  0.00     0.197 HD
HETATM   22  O   UNK N   1      34.435  17.672   6.466  0.00  0.00    -0.270 OA
BRANCH  20  23
HETATM   23  O   UNK N   1      35.389  19.201   8.410  0.00  0.00    -0.287 OA
HETATM   24  H   UNK N   1      36.154  18.928   8.940  0.00  0.00     0.244 HD
ENDBRANCH  20  23
ENDBRANCH   2  19
BRANCH   5  25
HETATM   25  C   UNK N   1      28.298  16.829   6.761  0.00  0.00     0.165 C 
BRANCH  25  26
HETATM   26  C   UNK N   1      27.469  17.648   5.815  0.00  0.00    -0.040 A 
HETATM   27  C   UNK N   1      27.332  19.016   6.063  0.00  0.00     0.009 A 
HETATM   28  C   UNK N   1      26.592  19.820   5.191  0.00  0.00     0.001 A 
HETATM   29  C   UNK N   1      25.983  19.254   4.068  0.00  0.00     0.000 A 
HETATM   30  C   UNK N   1      26.110  17.885   3.818  0.00  0.00     0.001 A 
HETATM   31  C   UNK N   1      26.851  17.082   4.688  0.00  0.00     0.009 A 
ENDBRANCH  25  26
ENDBRANCH   5  25
TORSDOF 7
ENDMDL
MODEL 3
REMARK VINA RESULT:      -7.1      2.130      3.504
REMARK  7 active torsions:
REMARK  status: ('A' for Active; 'I' for Inactive)
REMARK    1  A    between atoms: C_1  and  S_9 
REMARK    2  A    between atoms: C_4  and  O_7 
REMARK    3  A    between atoms: S_9  and  N_12 
REMARK    4  A    between atoms: C_13  and  C_19 
REMARK    5  A    between atoms: N_16  and  C_23 
REMARK       I    between atoms: C_19  and  N_20 
REMARK    6  A    between atoms: N_20  and  O_21 
REMARK    7  A    between atoms: C_23  and  C_26 
ROOT
HETATM    1  N   UNK N   1      29.840  24.424  -4.215  0.00  0.00    -0.175 NA
HETATM    2  C   UNK N   1      29.330  23.286  -3.380  0.00  0.00     0.179 C 
HETATM    3  C   UNK N   1      28.096  23.671  -2.530  0.00  0.00     0.133 C 
HETATM    4  C   UNK N   1      27.170  24.443  -3.407  0.00  0.00     0.223 C 
HETATM    5  N   UNK N   1      27.696  25.458  -4.139  0.00  0.00    -0.335 N 
HETATM    6  C   UNK N   1      29.114  25.694  -4.028  0.00  0.00     0.236 C 
HETATM    7  O   UNK N   1      25.994  24.128  -3.503  0.00  0.00    -0.273 OA
ENDROOT
BRANCH   1   8
HETATM    8  S   UNK N   1      29.900  24.024  -5.961  0.00  0.00     0.245 S 
HETATM    9  O   UNK N   1      28.716  23.073  -6.213  0.00  0.00    -0.206 OA
HETATM   10  O   UNK N   1      31.104  23.093  -6.187  0.00  0.00    -0.206 OA
BRANCH   8  11
HETATM   11  C   UNK N   1      29.822  25.416  -7.068  0.00  0.00     0.074 A 
HETATM   12  C   UNK N   1      28.780  25.516  -7.996  0.00  0.00     0.027 A 
HETATM   13  C   UNK N   1      28.658  26.661  -8.787  0.00  0.00     0.038 A 
HETATM   14  C   UNK N   1      29.564  27.717  -8.644  0.00  0.00     0.068 A 
HETATM   15  C   UNK N   1      30.621  27.601  -7.722  0.00  0.00     0.038 A 
HETATM   16  C   UNK N   1      30.745  26.454  -6.940  0.00  0.00     0.027 A 
BRANCH  14  17
HETATM   17  O   UNK N   1      29.395  28.836  -9.387  0.00  0.00    -0.356 OA
HETATM   18  C   UNK N   1      30.275  29.893  -9.363  0.00  0.00     0.210 C 
ENDBRANCH  14  17
ENDBRANCH   8  11
ENDBRANCH   1   8
BRANCH   2  19
HETATM   19  C   UNK N   1      30.438  22.745  -2.505  0.00  0.00     0.260 C 
HETATM   20  N   UNK N   1      31.372  21.928  -3.040  0.00  0.00    -0.236 N 
HETATM   21  H   UNK N   1      31.337  21.713  -3.999  0.00  0.00     0.197 HD
HETATM   22  O   UNK N   1      30.481  23.021  -1.314  0.00  0.00    -0.270 OA
BRANCH  20  23
HETATM   23  O   UNK N   1      32.346  21.405  -2.282  0.00  0.00    -0.287 OA
HETATM   24  H   UNK N   1      33.271  21.693  -2.318  0.00  0.00     0.244 HD
ENDBRANCH  20  23
ENDBRANCH   2  19
BRANCH   5  25
HETATM   25  C   UNK N   1      26.917  26.194  -5.114  0.00  0.00     0.165 C 
BRANCH  25  26
HETATM   26  C   UNK N   1      26.954  27.681  -4.917  0.00  0.00    -0.040 A 
HETATM   27  C   UNK N   1      26.248  28.229  -3.842  0.00  0.00     0.009 A 
HETATM   28  C   UNK N   1      26.280  29.606  -3.606  0.00  0.00     0.001 A 
HETATM   29  C   UNK N   1      27.017  30.442  -4.449  0.00  0.00     0.000 A 
HETATM   30  C   UNK N   1      27.718  29.902  -5.530  0.00  0.00     0.001 A 
HETATM   31  C   UNK N   1      27.689  28.525  -5.765  0.00  0.00     0.009 A 
ENDBRANCH  25  26
ENDBRANCH   5  25
TORSDOF 7
ENDMDL
MODEL 4
REMARK VINA RESULT:      -7.0     12.911     15.725
REMARK  7 active torsions:
REMARK  status: ('A' for Active; 'I' for Inactive)
REMARK    1  A    between atoms: C_1  and  S_9 
REMARK    2  A    between atoms: C_4  and  O_7 
REMARK    3  A    between atoms: S_9  and  N_12 
REMARK    4  A    between atoms: C_13  and  C_19 
REMARK    5  A    between atoms: N_16  and  C_23 
REMARK       I    between atoms: C_19  and  N_20 
REMARK    6  A    between atoms: N_20  and  O_21 
REMARK    7  A    between atoms: C_23  and  C_26 
ROOT
HETATM    1  N   UNK N   1      33.437  16.018   7.410  0.00  0.00    -0.175 NA
HETATM    2  C   UNK N   1      33.532  17.515   7.342  0.00  0.00     0.179 C 
HETATM    3  C   UNK N   1      33.890  18.030   5.928  0.00  0.00     0.133 C 
HETATM    4  C   UNK N   1      33.051  17.277   4.951  0.00  0.00     0.223 C 
HETATM    5  N   UNK N   1      33.006  15.927   5.070  0.00  0.00    -0.335 N 
HETATM    6  C   UNK N   1      33.754  15.326   6.147  0.00  0.00     0.236 C 
HETATM    7  O   UNK N   1      32.386  17.868   4.116  0.00  0.00    -0.273 OA
ENDROOT
BRANCH   1   8
HETATM    8  S   UNK N   1      31.846  15.457   8.014  0.00  0.00     0.245 S 
HETATM    9  O   UNK N   1      32.071  15.067   9.487  0.00  0.00    -0.206 OA
HETATM   10  O   UNK N   1      31.556  14.090   7.370  0.00  0.00    -0.206 OA
BRANCH   8  11
HETATM   11  C   UNK N   1      30.517  16.634   7.883  0.00  0.00     0.074 A 
HETATM   12  C   UNK N   1      30.202  17.460   8.966  0.00  0.00     0.027 A 
HETATM   13  C   UNK N   1      29.235  18.458   8.825  0.00  0.00     0.038 A 
HETATM   14  C   UNK N   1      28.591  18.647   7.598  0.00  0.00     0.068 A 
HETATM   15  C   UNK N   1      28.900  17.800   6.518  0.00  0.00     0.038 A 
HETATM   16  C   UNK N   1      29.859  16.800   6.664  0.00  0.00     0.027 A 
BRANCH  14  17
HETATM   17  O   UNK N   1      27.694  19.653   7.473  0.00  0.00    -0.356 OA
HETATM   18  C   UNK N   1      27.414  20.264   6.272  0.00  0.00     0.210 C 
ENDBRANCH  14  17
ENDBRANCH   8  11
ENDBRANCH   1   8
BRANCH   2  19
HETATM   19  C   UNK N   1      34.524  18.020   8.366  0.00  0.00     0.260 C 
HETATM   20  N   UNK N   1      34.820  17.258   9.441  0.00  0.00    -0.236 N 
HETATM   21  H   UNK N   1      34.408  16.370   9.536  0.00  0.00     0.197 HD
HETATM   22  O   UNK N   1      35.040  19.123   8.240  0.00  0.00    -0.270 OA
BRANCH  20  23
HETATM   23  O   UNK N   1      35.669  17.695  10.382  0.00  0.00    -0.287 OA
HETATM   24  H   UNK N   1      36.338  18.380  10.229  0.00  0.00     0.244 HD
ENDBRANCH  20  23
ENDBRANCH   2  19
BRANCH   5  25
HETATM   25  C   UNK N   1      32.131  15.107   4.256  0.00  0.00     0.165 C 
BRANCH  25  26
HETATM   26  C   UNK N   1      32.844  14.362   3.166  0.00  0.00    -0.040 A 
HETATM   27  C   UNK N   1      34.099  14.820   2.756  0.00  0.00     0.009 A 
HETATM   28  C   UNK N   1      34.809  14.139   1.764  0.00  0.00     0.001 A 
HETATM   29  C   UNK N   1      34.263  12.996   1.174  0.00  0.00     0.000 A 
HETATM   30  C   UNK N   1      33.005  12.537   1.573  0.00  0.00     0.001 A 
HETATM   31  C   UNK N   1      32.296  13.216   2.567  0.00  0.00     0.009 A 
ENDBRANCH  25  26
ENDBRANCH   5  25
TORSDOF 7
ENDMDL
MODEL 5
REMARK VINA RESULT:      -7.0     12.798     14.933
REMARK  7 active torsions:
REMARK  status: ('A' for Active; 'I' for Inactive)
REMARK    1  A    between atoms: C_1  and  S_9 
REMARK    2  A    between atoms: C_4  and  O_7 
REMARK    3  A    between atoms: S_9  and  N_12 
REMARK    4  A    between atoms: C_13  and  C_19 
REMARK    5  A    between atoms: N_16  and  C_23 
REMARK       I    between atoms: C_19  and  N_20 
REMARK    6  A    between atoms: N_20  and  O_21 
REMARK    7  A    between atoms: C_23  and  C_26 
ROOT
HETATM    1  N   UNK N   1      28.159  16.291   4.863  0.00  0.00    -0.175 NA
HETATM    2  C   UNK N   1      27.608  15.948   6.216  0.00  0.00     0.179 C 
HETATM    3  C   UNK N   1      26.216  15.277   6.146  0.00  0.00     0.133 C 
HETATM    4  C   UNK N   1      26.268  14.250   5.066  0.00  0.00     0.223 C 
HETATM    5  N   UNK N   1      26.781  14.624   3.867  0.00  0.00    -0.335 N 
HETATM    6  C   UNK N   1      27.258  15.978   3.738  0.00  0.00     0.236 C 
HETATM    7  O   UNK N   1      25.914  13.102   5.280  0.00  0.00    -0.273 OA
ENDROOT
BRANCH   1   8
HETATM    8  S   UNK N   1      29.763  15.548   4.565  0.00  0.00     0.245 S 
HETATM    9  O   UNK N   1      29.908  15.468   3.034  0.00  0.00    -0.206 OA
HETATM   10  O   UNK N   1      29.670  14.062   4.949  0.00  0.00    -0.206 OA
BRANCH   8  11
HETATM   11  C   UNK N   1      31.149  16.411   5.273  0.00  0.00     0.074 A 
HETATM   12  C   UNK N   1      31.316  16.451   6.660  0.00  0.00     0.027 A 
HETATM   13  C   UNK N   1      32.462  17.032   7.210  0.00  0.00     0.038 A 
HETATM   14  C   UNK N   1      33.453  17.562   6.375  0.00  0.00     0.068 A 
HETATM   15  C   UNK N   1      33.268  17.535   4.981  0.00  0.00     0.038 A 
HETATM   16  C   UNK N   1      32.120  16.962   4.436  0.00  0.00     0.027 A 
BRANCH  14  17
HETATM   17  O   UNK N   1      34.576  18.074   6.930  0.00  0.00    -0.356 OA
HETATM   18  C   UNK N   1      34.651  18.467   8.246  0.00  0.00     0.210 C 
ENDBRANCH  14  17
ENDBRANCH   8  11
ENDBRANCH   1   8
BRANCH   2  19
HETATM   19  C   UNK N   1      27.566  17.183   7.088  0.00  0.00     0.260 C 
HETATM   20  N   UNK N   1      27.464  17.050   8.429  0.00  0.00    -0.236 N 
HETATM   21  H   UNK N   1      27.443  16.151   8.828  0.00  0.00     0.197 HD
HETATM   22  O   UNK N   1      27.599  18.300   6.588  0.00  0.00    -0.270 OA
BRANCH  20  23
HETATM   23  O   UNK N   1      27.389  18.127   9.225  0.00  0.00    -0.287 OA
HETATM   24  H   UNK N   1      28.158  18.650   9.498  0.00  0.00     0.244 HD
ENDBRANCH  20  23
ENDBRANCH   2  19
BRANCH   5  25
HETATM   25  C   UNK N   1      26.992  13.680   2.787  0.00  0.00     0.165 C 
BRANCH  25  26
HETATM   26  C   UNK N   1      25.786  13.479   1.917  0.00  0.00    -0.040 A 
HETATM   27  C   UNK N   1      25.510  12.192   1.447  0.00  0.00     0.009 A 
HETATM   28  C   UNK N   1      24.381  11.956   0.658  0.00  0.00     0.001 A 
HETATM   29  C   UNK N   1      23.524  13.011   0.333  0.00  0.00     0.000 A 
HETATM   30  C   UNK N   1      23.798  14.302   0.793  0.00  0.00     0.001 A 
HETATM   31  C   UNK N   1      24.925  14.538   1.583  0.00  0.00     0.009 A 
ENDBRANCH  25  26
ENDBRANCH   5  25
TORSDOF 7
ENDMDL
MODEL 6
REMARK VINA RESULT:      -6.9     14.460     17.011
REMARK  7 active torsions:
REMARK  status: ('A' for Active; 'I' for Inactive)
REMARK    1  A    between atoms: C_1  and  S_9 
REMARK    2  A    between atoms: C_4  and  O_7 
REMARK    3  A    between atoms: S_9  and  N_12 
REMARK    4  A    between atoms: C_13  and  C_19 
REMARK    5  A    between atoms: N_16  and  C_23 
REMARK       I    between atoms: C_19  and  N_20 
REMARK    6  A    between atoms: N_20  and  O_21 
REMARK    7  A    between atoms: C_23  and  C_26 
ROOT
HETATM    1  N   UNK N   1      20.915  15.828   6.423  0.00  0.00    -0.175 NA
HETATM    2  C   UNK N   1      21.834  16.694   5.612  0.00  0.00     0.179 C 
HETATM    3  C   UNK N   1      23.301  16.634   6.099  0.00  0.00     0.133 C 
HETATM    4  C   UNK N   1      23.632  15.202   6.349  0.00  0.00     0.223 C 
HETATM    5  N   UNK N   1      22.757  14.474   7.087  0.00  0.00    -0.335 N 
HETATM    6  C   UNK N   1      21.564  15.135   7.552  0.00  0.00     0.236 C 
HETATM    7  O   UNK N   1      24.627  14.696   5.854  0.00  0.00    -0.273 OA
ENDROOT
BRANCH   1   8
HETATM    8  S   UNK N   1      20.032  14.634   5.420  0.00  0.00     0.245 S 
HETATM    9  O   UNK N   1      18.606  15.192   5.264  0.00  0.00    -0.206 OA
HETATM   10  O   UNK N   1      19.786  13.386   6.285  0.00  0.00    -0.206 OA
BRANCH   8  11
HETATM   11  C   UNK N   1      20.743  14.300   3.823  0.00  0.00     0.074 A 
HETATM   12  C   UNK N   1      20.304  15.004   2.698  0.00  0.00     0.027 A 
HETATM   13  C   UNK N   1      20.939  14.821   1.467  0.00  0.00     0.038 A 
HETATM   14  C   UNK N   1      22.025  13.946   1.358  0.00  0.00     0.068 A 
HETATM   15  C   UNK N   1      22.449  13.226   2.489  0.00  0.00     0.038 A 
HETATM   16  C   UNK N   1      21.808  13.405   3.714  0.00  0.00     0.027 A 
BRANCH  14  17
HETATM   17  O   UNK N   1      22.654  13.823   0.166  0.00  0.00    -0.356 OA
HETATM   18  C   UNK N   1      23.469  12.760  -0.147  0.00  0.00     0.210 C 
ENDBRANCH  14  17
ENDBRANCH   8  11
ENDBRANCH   1   8
BRANCH   2  19
HETATM   19  C   UNK N   1      21.330  18.120   5.599  0.00  0.00     0.260 C 
HETATM   20  N   UNK N   1      21.125  18.745   4.419  0.00  0.00    -0.236 N 
HETATM   21  H   UNK N   1      21.282  18.259   3.579  0.00  0.00     0.197 HD
HETATM   22  O   UNK N   1      21.129  18.718   6.648  0.00  0.00    -0.270 OA
BRANCH  20  23
HETATM   23  O   UNK N   1      20.712  20.019   4.377  0.00  0.00    -0.287 OA
HETATM   24  H   UNK N   1      20.637  20.588   5.159  0.00  0.00     0.244 HD
ENDBRANCH  20  23
ENDBRANCH   2  19
BRANCH   5  25
HETATM   25  C   UNK N   1      22.915  13.047   7.290  0.00  0.00     0.165 C 
BRANCH  25  26
HETATM   26  C   UNK N   1      23.147  12.663   8.722  0.00  0.00    -0.040 A 
HETATM   27  C   UNK N   1      24.455  12.690   9.215  0.00  0.00     0.009 A 
HETATM   28  C   UNK N   1      24.711  12.367  10.550  0.00  0.00     0.001 A 
HETATM   29  C   UNK N   1      23.658  12.013  11.398  0.00  0.00     0.000 A 
HETATM   30  C   UNK N   1      22.349  11.977  10.909  0.00  0.00     0.001 A 
HETATM   31  C   UNK N   1      22.092  12.301   9.575  0.00  0.00     0.009 A 
ENDBRANCH  25  26
ENDBRANCH   5  25
TORSDOF 7
ENDMDL
MODEL 7
REMARK VINA RESULT:      -6.8     14.031     16.666
REMARK  7 active torsions:
REMARK  status: ('A' for Active; 'I' for Inactive)
REMARK    1  A    between atoms: C_1  and  S_9 
REMARK    2  A    between atoms: C_4  and  O_7 
REMARK    3  A    between atoms: S_9  and  N_12 
REMARK    4  A    between atoms: C_13  and  C_19 
REMARK    5  A    between atoms: N_16  and  C_23 
REMARK       I    between atoms: C_19  and  N_20 
REMARK    6  A    between atoms: N_20  and  O_21 
REMARK    7  A    between atoms: C_23  and  C_26 
ROOT
HETATM    1  N   UNK N   1      22.166  16.254   6.541  0.00  0.00    -0.175 NA
HETATM    2  C   UNK N   1      20.789  16.097   5.964  0.00  0.00     0.179 C 
HETATM    3  C   UNK N   1      20.572  16.946   4.689  0.00  0.00     0.133 C 
HETATM    4  C   UNK N   1      21.780  16.780   3.829  0.00  0.00     0.223 C 
HETATM    5  N   UNK N   1      22.994  16.932   4.415  0.00  0.00    -0.335 N 
HETATM    6  C   UNK N   1      23.023  17.218   5.827  0.00  0.00     0.236 C 
HETATM    7  O   UNK N   1      21.670  16.461   2.656  0.00  0.00    -0.273 OA
ENDROOT
BRANCH   1   8
HETATM    8  S   UNK N   1      23.029  14.691   6.697  0.00  0.00     0.245 S 
HETATM    9  O   UNK N   1      24.526  15.025   6.564  0.00  0.00    -0.206 OA
HETATM   10  O   UNK N   1      22.773  13.884   5.412  0.00  0.00    -0.206 OA
BRANCH   8  11
HETATM   11  C   UNK N   1      22.727  13.797   8.206  0.00  0.00     0.074 A 
HETATM   12  C   UNK N   1      23.781  13.157   8.866  0.00  0.00     0.027 A 
HETATM   13  C   UNK N   1      23.564  12.550  10.105  0.00  0.00     0.038 A 
HETATM   14  C   UNK N   1      22.298  12.594  10.699  0.00  0.00     0.068 A 
HETATM   15  C   UNK N   1      21.238  13.223  10.021  0.00  0.00     0.038 A 
HETATM   16  C   UNK N   1      21.456  13.820   8.781  0.00  0.00     0.027 A 
BRANCH  14  17
HETATM   17  O   UNK N   1      22.125  12.043  11.923  0.00  0.00    -0.356 OA
HETATM   18  C   UNK N   1      23.148  11.896  12.831  0.00  0.00     0.210 C 
ENDBRANCH  14  17
ENDBRANCH   8  11
ENDBRANCH   1   8
BRANCH   2  19
HETATM   19  C   UNK N   1      19.746  16.421   7.010  0.00  0.00     0.260 C 
HETATM   20  N   UNK N   1      20.101  17.113   8.114  0.00  0.00    -0.236 N 
HETATM   21  H   UNK N   1      21.029  17.422   8.216  0.00  0.00     0.197 HD
HETATM   22  O   UNK N   1      18.591  16.040   6.874  0.00  0.00    -0.270 OA
BRANCH  20  23
HETATM   23  O   UNK N   1      19.206  17.385   9.074  0.00  0.00    -0.287 OA
HETATM   24  H   UNK N   1      18.248  17.421   8.925  0.00  0.00     0.244 HD
ENDBRANCH  20  23
ENDBRANCH   2  19
BRANCH   5  25
HETATM   25  C   UNK N   1      24.232  16.674   3.706  0.00  0.00     0.165 C 
BRANCH  25  26
HETATM   26  C   UNK N   1      25.188  17.831   3.721  0.00  0.00    -0.040 A 
HETATM   27  C   UNK N   1      24.712  19.093   3.355  0.00  0.00     0.009 A 
HETATM   28  C   UNK N   1      25.561  20.202   3.383  0.00  0.00     0.001 A 
HETATM   29  C   UNK N   1      26.894  20.052   3.775  0.00  0.00     0.000 A 
HETATM   30  C   UNK N   1      27.378  18.791   4.135  0.00  0.00     0.001 A 
HETATM   31  C   UNK N   1      26.529  17.683   4.110  0.00  0.00     0.009 A 
ENDBRANCH  25  26
ENDBRANCH   5  25
TORSDOF 7
ENDMDL
MODEL 8
REMARK VINA RESULT:      -6.8     13.183     15.753
REMARK  7 active torsions:
REMARK  status: ('A' for Active; 'I' for Inactive)
REMARK    1  A    between atoms: C_1  and  S_9 
REMARK    2  A    between atoms: C_4  and  O_7 
REMARK    3  A    between atoms: S_9  and  N_12 
REMARK    4  A    between atoms: C_13  and  C_19 
REMARK    5  A    between atoms: N_16  and  C_23 
REMARK       I    between atoms: C_19  and  N_20 
REMARK    6  A    between atoms: N_20  and  O_21 
REMARK    7  A    between atoms: C_23  and  C_26 
ROOT
HETATM    1  N   UNK N   1      20.388  16.446   4.670  0.00  0.00    -0.175 NA
HETATM    2  C   UNK N   1      20.748  15.184   3.942  0.00  0.00     0.179 C 
HETATM    3  C   UNK N   1      21.931  15.371   2.963  0.00  0.00     0.133 C 
HETATM    4  C   UNK N   1      22.977  16.163   3.671  0.00  0.00     0.223 C 
HETATM    5  N   UNK N   1      22.585  17.292   4.313  0.00  0.00    -0.335 N 
HETATM    6  C   UNK N   1      21.183  17.626   4.280  0.00  0.00     0.236 C 
HETATM    7  O   UNK N   1      24.132  15.769   3.717  0.00  0.00    -0.273 OA
ENDROOT
BRANCH   1   8
HETATM    8  S   UNK N   1      20.444  16.253   6.451  0.00  0.00     0.245 S 
HETATM    9  O   UNK N   1      18.981  16.095   6.900  0.00  0.00    -0.206 OA
HETATM   10  O   UNK N   1      20.812  17.618   7.059  0.00  0.00    -0.206 OA
BRANCH   8  11
HETATM   11  C   UNK N   1      21.424  14.890   7.043  0.00  0.00     0.074 A 
HETATM   12  C   UNK N   1      22.815  15.009   7.123  0.00  0.00     0.027 A 
HETATM   13  C   UNK N   1      23.572  13.981   7.691  0.00  0.00     0.038 A 
HETATM   14  C   UNK N   1      22.942  12.838   8.195  0.00  0.00     0.068 A 
HETATM   15  C   UNK N   1      21.545  12.717   8.093  0.00  0.00     0.038 A 
HETATM   16  C   UNK N   1      20.793  13.741   7.519  0.00  0.00     0.027 A 
BRANCH  14  17
HETATM   17  O   UNK N   1      23.693  11.879   8.785  0.00  0.00    -0.356 OA
HETATM   18  C   UNK N   1      24.524  12.127   9.854  0.00  0.00     0.210 C 
ENDBRANCH  14  17
ENDBRANCH   8  11
ENDBRANCH   1   8
BRANCH   2  19
HETATM   19  C   UNK N   1      19.536  14.636   3.222  0.00  0.00     0.260 C 
HETATM   20  N   UNK N   1      19.422  14.801   1.886  0.00  0.00    -0.236 N 
HETATM   21  H   UNK N   1      20.140  15.254   1.389  0.00  0.00     0.197 HD
HETATM   22  O   UNK N   1      18.648  14.066   3.843  0.00  0.00    -0.270 OA
BRANCH  20  23
HETATM   23  O   UNK N   1      18.343  14.357   1.226  0.00  0.00    -0.287 OA
HETATM   24  H   UNK N   1      18.322  13.528   0.723  0.00  0.00     0.244 HD
ENDBRANCH  20  23
ENDBRANCH   2  19
BRANCH   5  25
HETATM   25  C   UNK N   1      23.492  18.071   5.133  0.00  0.00     0.165 C 
BRANCH  25  26
HETATM   26  C   UNK N   1      24.422  18.944   4.342  0.00  0.00    -0.040 A 
HETATM   27  C   UNK N   1      23.874  19.828   3.409  0.00  0.00     0.009 A 
HETATM   28  C   UNK N   1      24.702  20.680   2.673  0.00  0.00     0.001 A 
HETATM   29  C   UNK N   1      26.086  20.646   2.867  0.00  0.00     0.000 A 
HETATM   30  C   UNK N   1      26.641  19.758   3.792  0.00  0.00     0.001 A 
HETATM   31  C   UNK N   1      25.813  18.909   4.530  0.00  0.00     0.009 A 
ENDBRANCH  25  26
ENDBRANCH   5  25
TORSDOF 7
ENDMDL
MODEL 9
REMARK VINA RESULT:      -6.7     12.743     15.672
REMARK  7 active torsions:
REMARK  status: ('A' for Active; 'I' for Inactive)
REMARK    1  A    between atoms: C_1  and  S_9 
REMARK    2  A    between atoms: C_4  and  O_7 
REMARK    3  A    between atoms: S_9  and  N_12 
REMARK    4  A    between atoms: C_13  and  C_19 
REMARK    5  A    between atoms: N_16  and  C_23 
REMARK       I    between atoms: C_19  and  N_20 
REMARK    6  A    between atoms: N_20  and  O_21 
REMARK    7  A    between atoms: C_23  and  C_26 
ROOT
HETATM    1  N   UNK N   1      21.864  17.716   4.200  0.00  0.00    -0.175 NA
HETATM    2  C   UNK N   1      20.738  18.408   3.490  0.00  0.00     0.179 C 
HETATM    3  C   UNK N   1      20.484  17.843   2.072  0.00  0.00     0.133 C 
HETATM    4  C   UNK N   1      20.521  16.355   2.170  0.00  0.00     0.223 C 
HETATM    5  N   UNK N   1      21.566  15.793   2.828  0.00  0.00    -0.335 N 
HETATM    6  C   UNK N   1      22.547  16.680   3.403  0.00  0.00     0.236 C 
HETATM    7  O   UNK N   1      19.609  15.679   1.722  0.00  0.00    -0.273 OA
ENDROOT
BRANCH   1   8
HETATM    8  S   UNK N   1      21.362  17.023   5.775  0.00  0.00     0.245 S 
HETATM    9  O   UNK N   1      19.874  16.661   5.617  0.00  0.00    -0.206 OA
HETATM   10  O   UNK N   1      21.298  18.173   6.794  0.00  0.00    -0.206 OA
BRANCH   8  11
HETATM   11  C   UNK N   1      22.290  15.603   6.316  0.00  0.00     0.074 A 
HETATM   12  C   UNK N   1      21.627  14.422   6.661  0.00  0.00     0.027 A 
HETATM   13  C   UNK N   1      22.360  13.276   6.979  0.00  0.00     0.038 A 
HETATM   14  C   UNK N   1      23.759  13.301   6.938  0.00  0.00     0.068 A 
HETATM   15  C   UNK N   1      24.419  14.499   6.609  0.00  0.00     0.038 A 
HETATM   16  C   UNK N   1      23.684  15.642   6.301  0.00  0.00     0.027 A 
BRANCH  14  17
HETATM   17  O   UNK N   1      24.445  12.165   7.202  0.00  0.00    -0.356 OA
HETATM   18  C   UNK N   1      23.833  10.967   7.487  0.00  0.00     0.210 C 
ENDBRANCH  14  17
ENDBRANCH   8  11
ENDBRANCH   1   8
BRANCH   2  19
HETATM   19  C   UNK N   1      20.992  19.898   3.437  0.00  0.00     0.260 C 
HETATM   20  N   UNK N   1      22.105  20.364   2.829  0.00  0.00    -0.236 N 
HETATM   21  H   UNK N   1      22.727  19.731   2.404  0.00  0.00     0.197 HD
HETATM   22  O   UNK N   1      20.211  20.681   3.961  0.00  0.00    -0.270 OA
BRANCH  20  23
HETATM   23  O   UNK N   1      22.375  21.676   2.797  0.00  0.00    -0.287 OA
HETATM   24  H   UNK N   1      23.164  22.075   3.195  0.00  0.00     0.244 HD
ENDBRANCH  20  23
ENDBRANCH   2  19
BRANCH   5  25
HETATM   25  C   UNK N   1      21.641  14.370   3.090  0.00  0.00     0.165 C 
BRANCH  25  26
HETATM   26  C   UNK N   1      22.653  13.654   2.245  0.00  0.00    -0.040 A 
HETATM   27  C   UNK N   1      23.703  12.988   2.884  0.00  0.00     0.009 A 
HETATM   28  C   UNK N   1      24.651  12.284   2.136  0.00  0.00     0.001 A 
HETATM   29  C   UNK N   1      24.553  12.248   0.742  0.00  0.00     0.000 A 
HETATM   30  C   UNK N   1      23.511  12.918   0.096  0.00  0.00     0.001 A 
HETATM   31  C   UNK N   1      22.562  13.619   0.844  0.00  0.00     0.009 A 
ENDBRANCH  25  26
ENDBRANCH   5  25
TORSDOF 7
ENDMDL
