REMARK  7 active torsions:
REMARK  status: ('A' for Active; 'I' for Inactive)
REMARK    1  A    between atoms: C_1  and  S_9 
REMARK    2  A    between atoms: C_4  and  O_7 
REMARK    3  A    between atoms: S_9  and  N_12 
REMARK    4  A    between atoms: C_13  and  C_19 
REMARK    5  A    between atoms: N_16  and  C_23 
REMARK       I    between atoms: C_19  and  N_20 
REMARK    6  A    between atoms: N_20  and  O_21 
REMARK    7  A    between atoms: C_23  and  C_26 
ROOT
HETATM    1  N   UNK N   1      -0.273  -0.174   0.509  0.00  0.00    -0.175 NA
HETATM    2  C   UNK N   1      -1.433   0.235  -0.351  0.00  0.00     0.179 C 
HETATM    3  C   UNK N   1      -1.551   1.769  -0.511  0.00  0.00     0.133 C 
HETATM    4  C   UNK N   1      -0.183   2.298  -0.780  0.00  0.00     0.223 C 
HETATM    5  N   UNK N   1       0.822   1.886   0.033  0.00  0.00    -0.335 N 
HETATM    6  C   UNK N   1       0.493   0.950   1.079  0.00  0.00     0.236 C 
HETATM    7  O   UNK N   1       0.026   3.028  -1.736  0.00  0.00    -0.273 OA
ENDROOT
BRANCH   1   8
HETATM    8  S   UNK N   1       0.847  -1.292  -0.332  0.00  0.00     0.245 S 
HETATM    9  O   UNK N   1       2.243  -1.000   0.248  0.00  0.00    -0.206 OA
HETATM   10  O   UNK N   1       1.001  -0.799  -1.781  0.00  0.00    -0.206 OA
BRANCH   8  11
HETATM   11  C   UNK N   1       0.462  -3.023  -0.175  0.00  0.00     0.074 A 
HETATM   12  C   UNK N   1       1.320  -3.871   0.532  0.00  0.00     0.027 A 
HETATM   13  C   UNK N   1       0.962  -5.204   0.749  0.00  0.00     0.038 A 
HETATM   14  C   UNK N   1      -0.261  -5.691   0.275  0.00  0.00     0.068 A 
HETATM   15  C   UNK N   1      -1.110  -4.837  -0.452  0.00  0.00     0.038 A 
HETATM   16  C   UNK N   1      -0.746  -3.510  -0.674  0.00  0.00     0.027 A 
BRANCH  14  17
HETATM   17  O   UNK N   1      -0.607  -6.972   0.541  0.00  0.00    -0.356 OA
HETATM   18  C   UNK N   1      -1.827  -7.507   0.197  0.00  0.00     0.210 C 
ENDBRANCH  14  17
ENDBRANCH   8  11
ENDBRANCH   1   8
BRANCH   2  19
HETATM   19  C   UNK N   1      -2.717  -0.349   0.195  0.00  0.00     0.260 C 
HETATM   20  N   UNK N   1      -2.856  -1.690   0.283  0.00  0.00    -0.236 N 
HETATM   21  H   UNK N   1      -2.111  -2.274   0.015  0.00  0.00     0.197 HD
HETATM   22  O   UNK N   1      -3.638   0.382   0.534  0.00  0.00    -0.270 OA
BRANCH  20  23
HETATM   23  O   UNK N   1      -3.995  -2.237   0.730  0.00  0.00    -0.287 OA
HETATM   24  H   UNK N   1      -4.750  -1.722   1.054  0.00  0.00     0.244 HD
ENDBRANCH  20  23
ENDBRANCH   2  19
BRANCH   5  25
HETATM   25  C   UNK N   1       2.207   2.238  -0.209  0.00  0.00     0.165 C 
BRANCH  25  26
HETATM   26  C   UNK N   1       2.496   3.701  -0.041  0.00  0.00    -0.040 A 
HETATM   27  C   UNK N   1       3.723   4.194  -0.493  0.00  0.00     0.009 A 
HETATM   28  C   UNK N   1       4.020   5.555  -0.382  0.00  0.00     0.001 A 
HETATM   29  C   UNK N   1       3.089   6.429   0.186  0.00  0.00     0.000 A 
HETATM   30  C   UNK N   1       1.863   5.941   0.647  0.00  0.00     0.001 A 
HETATM   31  C   UNK N   1       1.565   4.581   0.534  0.00  0.00     0.009 A 
ENDBRANCH  25  26
ENDBRANCH   5  25
TORSDOF 7
