MODEL 1
REMARK VINA RESULT:      -6.9      0.000      0.000
REMARK  6 active torsions:
REMARK  status: ('A' for Active; 'I' for Inactive)
REMARK    1  A    between atoms: C_3  and  O_4 
REMARK    2  A    between atoms: C_8  and  N_11 
REMARK    3  A    between atoms: C_8  and  C_20 
REMARK    4  A    between atoms: C_14  and  C_17 
REMARK    5  A    between atoms: C_17  and  C_18 
REMARK    6  A    between atoms: C_18  and  O_19 
ROOT
HETATM    1  N   UNK N   1      26.081  24.491  -8.170  0.00  0.00    -0.290 N 
ATOM      2  HN  UNK N   1      25.979  24.567  -9.183  1.00  0.00     0.172 HD
HETATM    3  C   UNK N   1      25.377  23.609  -7.551  0.00  0.00     0.226 A 
HETATM    4  N   UNK N   1      25.468  23.455  -6.146  0.00  0.00    -0.290 N 
HETATM    5  C   UNK N   1      26.295  24.215  -5.394  0.00  0.00     0.267 A 
HETATM    6  O   UNK N   1      26.340  24.023  -4.188  0.00  0.00    -0.269 OA
HETATM    7  C   UNK N   1      27.181  25.288  -6.033  0.00  0.00     0.220 A 
HETATM    8  C   UNK N   1      26.951  25.327  -7.547  0.00  0.00     0.267 A 
HETATM    9  O   UNK N   1      27.582  26.125  -8.223  0.00  0.00    -0.269 OA
HETATM   10  H   UNK N   1      24.910  22.775  -5.704  0.00  0.00     0.172 HD
ENDROOT
BRANCH   7  11
HETATM   11  N   UNK N   1      28.623  24.969  -5.836  0.00  0.00    -0.385 N 
HETATM   12  C   UNK N   1      29.207  23.717  -6.326  0.00  0.00     0.119 C 
HETATM   13  C   UNK N   1      29.442  22.770  -5.153  0.00  0.00     0.024 C 
HETATM   14  C   UNK N   1      30.306  23.439  -4.085  0.00  0.00    -0.010 C 
HETATM   15  C   UNK N   1      29.676  24.760  -3.636  0.00  0.00     0.024 C 
HETATM   16  C   UNK N   1      29.427  25.676  -4.834  0.00  0.00     0.119 C 
BRANCH  14  17
HETATM   17  C   UNK N   1      30.428  22.485  -2.907  0.00  0.00     0.031 C 
BRANCH  17  18
HETATM   18  C   UNK N   1      31.492  21.430  -3.144  0.00  0.00     0.164 C 
BRANCH  18  19
HETATM   19  O   UNK N   1      32.373  21.412  -2.065  0.00  0.00    -0.401 OA
HETATM   20  H   UNK N   1      32.889  22.106  -1.624  0.00  0.00     0.209 HD
ENDBRANCH  18  19
ENDBRANCH  17  18
ENDBRANCH  14  17
ENDBRANCH   7  11
BRANCH   7  21
HETATM   21  C   UNK N   1      26.830  26.642  -5.386  0.00  0.00    -0.011 A 
HETATM   22  C   UNK N   1      25.955  26.690  -4.285  0.00  0.00     0.011 A 
HETATM   23  C   UNK N   1      25.666  27.901  -3.651  0.00  0.00     0.001 A 
HETATM   24  C   UNK N   1      26.242  29.085  -4.112  0.00  0.00     0.000 A 
HETATM   25  C   UNK N   1      27.098  29.061  -5.214  0.00  0.00     0.001 A 
HETATM   26  C   UNK N   1      27.393  27.850  -5.846  0.00  0.00     0.011 A 
ENDBRANCH   7  21
BRANCH   3  27
HETATM   27  O   UNK N   1      24.546  22.814  -8.251  0.00  0.00    -0.332 OA
HETATM   28  H   UNK N   1      24.192  22.038  -7.865  0.00  0.00     0.221 HD
ENDBRANCH   3  27
TORSDOF 6
ENDMDL
MODEL 2
REMARK VINA RESULT:      -6.6     13.226     16.642
REMARK  6 active torsions:
REMARK  status: ('A' for Active; 'I' for Inactive)
REMARK    1  A    between atoms: C_3  and  O_4 
REMARK    2  A    between atoms: C_8  and  N_11 
REMARK    3  A    between atoms: C_8  and  C_20 
REMARK    4  A    between atoms: C_14  and  C_17 
REMARK    5  A    between atoms: C_17  and  C_18 
REMARK    6  A    between atoms: C_18  and  O_19 
ROOT
HETATM    1  N   UNK N   1      33.055  14.113   9.576  0.00  0.00    -0.290 N 
ATOM      2  HN  UNK N   1      32.865  13.130   9.770  1.00  0.00     0.172 HD
HETATM    3  C   UNK N   1      33.745  14.782  10.433  0.00  0.00     0.226 A 
HETATM    4  N   UNK N   1      34.040  16.151  10.227  0.00  0.00    -0.290 N 
HETATM    5  C   UNK N   1      33.622  16.817   9.127  0.00  0.00     0.267 A 
HETATM    6  O   UNK N   1      33.923  17.993   8.999  0.00  0.00    -0.269 OA
HETATM    7  C   UNK N   1      32.801  16.112   8.042  0.00  0.00     0.220 A 
HETATM    8  C   UNK N   1      32.565  14.649   8.428  0.00  0.00     0.267 A 
HETATM    9  O   UNK N   1      31.930  13.930   7.672  0.00  0.00    -0.269 OA
HETATM   10  H   UNK N   1      34.565  16.634  10.906  0.00  0.00     0.172 HD
ENDROOT
BRANCH   7  11
HETATM   11  N   UNK N   1      33.542  16.091   6.750  0.00  0.00    -0.385 N 
HETATM   12  C   UNK N   1      33.998  17.325   6.105  0.00  0.00     0.119 C 
HETATM   13  C   UNK N   1      33.102  17.640   4.912  0.00  0.00     0.024 C 
HETATM   14  C   UNK N   1      33.059  16.458   3.944  0.00  0.00    -0.010 C 
HETATM   15  C   UNK N   1      32.616  15.186   4.672  0.00  0.00     0.024 C 
HETATM   16  C   UNK N   1      33.514  14.912   5.877  0.00  0.00     0.119 C 
BRANCH  14  17
HETATM   17  C   UNK N   1      32.082  16.794   2.828  0.00  0.00     0.031 C 
BRANCH  17  18
HETATM   18  C   UNK N   1      30.701  16.227   3.099  0.00  0.00     0.164 C 
BRANCH  18  19
HETATM   19  O   UNK N   1      29.792  17.274   3.239  0.00  0.00    -0.401 OA
HETATM   20  H   UNK N   1      29.695  18.127   2.786  0.00  0.00     0.209 HD
ENDBRANCH  18  19
ENDBRANCH  17  18
ENDBRANCH  14  17
ENDBRANCH   7  11
BRANCH   7  21
HETATM   21  C   UNK N   1      31.465  16.866   7.892  0.00  0.00    -0.011 A 
HETATM   22  C   UNK N   1      30.552  16.486   6.891  0.00  0.00     0.011 A 
HETATM   23  C   UNK N   1      29.313  17.121   6.772  0.00  0.00     0.001 A 
HETATM   24  C   UNK N   1      28.970  18.152   7.648  0.00  0.00     0.000 A 
HETATM   25  C   UNK N   1      29.871  18.554   8.637  0.00  0.00     0.001 A 
HETATM   26  C   UNK N   1      31.107  17.916   8.760  0.00  0.00     0.011 A 
ENDBRANCH   7  21
BRANCH   3  27
HETATM   27  O   UNK N   1      34.200  14.167  11.541  0.00  0.00    -0.332 OA
HETATM   28  H   UNK N   1      35.022  14.411  11.918  0.00  0.00     0.221 HD
ENDBRANCH   3  27
TORSDOF 6
ENDMDL
MODEL 3
REMARK VINA RESULT:      -6.6      1.910      5.149
REMARK  6 active torsions:
REMARK  status: ('A' for Active; 'I' for Inactive)
REMARK    1  A    between atoms: C_3  and  O_4 
REMARK    2  A    between atoms: C_8  and  N_11 
REMARK    3  A    between atoms: C_8  and  C_20 
REMARK    4  A    between atoms: C_14  and  C_17 
REMARK    5  A    between atoms: C_17  and  C_18 
REMARK    6  A    between atoms: C_18  and  O_19 
ROOT
HETATM    1  N   UNK N   1      25.390  23.557  -5.621  0.00  0.00    -0.290 N 
ATOM      2  HN  UNK N   1      24.447  23.687  -5.254  1.00  0.00     0.172 HD
HETATM    3  C   UNK N   1      25.556  22.732  -6.596  0.00  0.00     0.226 A 
HETATM    4  N   UNK N   1      26.840  22.503  -7.149  0.00  0.00    -0.290 N 
HETATM    5  C   UNK N   1      27.942  23.137  -6.691  0.00  0.00     0.267 A 
HETATM    6  O   UNK N   1      29.018  22.908  -7.221  0.00  0.00    -0.269 OA
HETATM    7  C   UNK N   1      27.852  24.144  -5.539  0.00  0.00     0.220 A 
HETATM    8  C   UNK N   1      26.404  24.262  -5.056  0.00  0.00     0.267 A 
HETATM    9  O   UNK N   1      26.144  25.029  -4.141  0.00  0.00    -0.269 OA
HETATM   10  H   UNK N   1      26.932  21.860  -7.889  0.00  0.00     0.172 HD
ENDROOT
BRANCH   7  11
HETATM   11  N   UNK N   1      28.255  25.504  -5.995  0.00  0.00    -0.385 N 
HETATM   12  C   UNK N   1      29.163  26.341  -5.207  0.00  0.00     0.119 C 
HETATM   13  C   UNK N   1      28.370  27.448  -4.519  0.00  0.00     0.024 C 
HETATM   14  C   UNK N   1      27.573  28.256  -5.542  0.00  0.00    -0.010 C 
HETATM   15  C   UNK N   1      26.671  27.333  -6.367  0.00  0.00     0.024 C 
HETATM   16  C   UNK N   1      27.487  26.220  -7.020  0.00  0.00     0.119 C 
BRANCH  14  17
HETATM   17  C   UNK N   1      26.735  29.279  -4.791  0.00  0.00     0.031 C 
BRANCH  17  18
HETATM   18  C   UNK N   1      26.487  28.858  -3.355  0.00  0.00     0.164 C 
BRANCH  18  19
HETATM   19  O   UNK N   1      25.318  28.102  -3.290  0.00  0.00    -0.401 OA
HETATM   20  H   UNK N   1      24.466  28.244  -2.850  0.00  0.00     0.209 HD
ENDBRANCH  18  19
ENDBRANCH  17  18
ENDBRANCH  14  17
ENDBRANCH   7  11
BRANCH   7  21
HETATM   21  C   UNK N   1      28.775  23.654  -4.406  0.00  0.00    -0.011 A 
HETATM   22  C   UNK N   1      30.115  23.326  -4.683  0.00  0.00     0.011 A 
HETATM   23  C   UNK N   1      30.981  22.931  -3.660  0.00  0.00     0.001 A 
HETATM   24  C   UNK N   1      30.520  22.851  -2.346  0.00  0.00     0.000 A 
HETATM   25  C   UNK N   1      29.189  23.156  -2.055  0.00  0.00     0.001 A 
HETATM   26  C   UNK N   1      28.323  23.556  -3.075  0.00  0.00     0.011 A 
ENDBRANCH   7  21
BRANCH   3  27
HETATM   27  O   UNK N   1      24.492  22.082  -7.102  0.00  0.00    -0.332 OA
HETATM   28  H   UNK N   1      24.031  21.450  -6.587  0.00  0.00     0.221 HD
ENDBRANCH   3  27
TORSDOF 6
ENDMDL
MODEL 4
REMARK VINA RESULT:      -6.6     13.491     15.318
REMARK  6 active torsions:
REMARK  status: ('A' for Active; 'I' for Inactive)
REMARK    1  A    between atoms: C_3  and  O_4 
REMARK    2  A    between atoms: C_8  and  N_11 
REMARK    3  A    between atoms: C_8  and  C_20 
REMARK    4  A    between atoms: C_14  and  C_17 
REMARK    5  A    between atoms: C_17  and  C_18 
REMARK    6  A    between atoms: C_18  and  O_19 
ROOT
HETATM    1  N   UNK N   1      19.295  17.025   3.440  0.00  0.00    -0.290 N 
ATOM      2  HN  UNK N   1      18.394  16.547   3.407  1.00  0.00     0.172 HD
HETATM    3  C   UNK N   1      19.377  18.206   2.933  0.00  0.00     0.226 A 
HETATM    4  N   UNK N   1      20.598  18.923   2.942  0.00  0.00    -0.290 N 
HETATM    5  C   UNK N   1      21.725  18.413   3.485  0.00  0.00     0.267 A 
HETATM    6  O   UNK N   1      22.743  19.087   3.477  0.00  0.00    -0.269 OA
HETATM    7  C   UNK N   1      21.733  17.019   4.122  0.00  0.00     0.220 A 
HETATM    8  C   UNK N   1      20.344  16.384   4.015  0.00  0.00     0.267 A 
HETATM    9  O   UNK N   1      20.164  15.268   4.479  0.00  0.00    -0.269 OA
HETATM   10  H   UNK N   1      20.626  19.822   2.539  0.00  0.00     0.172 HD
ENDROOT
BRANCH   7  11
HETATM   11  N   UNK N   1      22.046  17.105   5.576  0.00  0.00    -0.385 N 
HETATM   12  C   UNK N   1      22.796  16.052   6.265  0.00  0.00     0.119 C 
HETATM   13  C   UNK N   1      21.844  15.220   7.118  0.00  0.00     0.024 C 
HETATM   14  C   UNK N   1      21.070  16.113   8.087  0.00  0.00    -0.010 C 
HETATM   15  C   UNK N   1      20.337  17.221   7.324  0.00  0.00     0.024 C 
HETATM   16  C   UNK N   1      21.310  18.017   6.458  0.00  0.00     0.119 C 
BRANCH  14  17
HETATM   17  C   UNK N   1      20.076  15.245   8.842  0.00  0.00     0.031 C 
BRANCH  17  18
HETATM   18  C   UNK N   1      20.748  14.041   9.475  0.00  0.00     0.164 C 
BRANCH  18  19
HETATM   19  O   UNK N   1      19.813  13.334  10.229  0.00  0.00    -0.401 OA
HETATM   20  H   UNK N   1      19.786  13.064  11.161  0.00  0.00     0.209 HD
ENDBRANCH  18  19
ENDBRANCH  17  18
ENDBRANCH  14  17
ENDBRANCH   7  11
BRANCH   7  21
HETATM   21  C   UNK N   1      22.788  16.167   3.388  0.00  0.00    -0.011 A 
HETATM   22  C   UNK N   1      22.383  15.225   2.424  0.00  0.00     0.011 A 
HETATM   23  C   UNK N   1      23.326  14.482   1.709  0.00  0.00     0.001 A 
HETATM   24  C   UNK N   1      24.688  14.662   1.952  0.00  0.00     0.000 A 
HETATM   25  C   UNK N   1      25.108  15.579   2.918  0.00  0.00     0.001 A 
HETATM   26  C   UNK N   1      24.166  16.328   3.629  0.00  0.00     0.011 A 
ENDBRANCH   7  21
BRANCH   3  27
HETATM   27  O   UNK N   1      18.282  18.771   2.390  0.00  0.00    -0.332 OA
HETATM   28  H   UNK N   1      18.361  19.499   1.806  0.00  0.00     0.221 HD
ENDBRANCH   3  27
TORSDOF 6
ENDMDL
MODEL 5
REMARK VINA RESULT:      -6.6     14.366     16.564
REMARK  6 active torsions:
REMARK  status: ('A' for Active; 'I' for Inactive)
REMARK    1  A    between atoms: C_3  and  O_4 
REMARK    2  A    between atoms: C_8  and  N_11 
REMARK    3  A    between atoms: C_8  and  C_20 
REMARK    4  A    between atoms: C_14  and  C_17 
REMARK    5  A    between atoms: C_17  and  C_18 
REMARK    6  A    between atoms: C_18  and  O_19 
ROOT
HETATM    1  N   UNK N   1      33.551  16.485   4.195  0.00  0.00    -0.290 N 
ATOM      2  HN  UNK N   1      34.052  17.066   3.522  1.00  0.00     0.172 HD
HETATM    3  C   UNK N   1      33.026  15.386   3.779  0.00  0.00     0.226 A 
HETATM    4  N   UNK N   1      32.312  14.537   4.660  0.00  0.00    -0.290 N 
HETATM    5  C   UNK N   1      32.157  14.831   5.970  0.00  0.00     0.267 A 
HETATM    6  O   UNK N   1      31.545  14.050   6.682  0.00  0.00    -0.269 OA
HETATM    7  C   UNK N   1      32.750  16.111   6.567  0.00  0.00     0.220 A 
HETATM    8  C   UNK N   1      33.472  16.913   5.481  0.00  0.00     0.267 A 
HETATM    9  O   UNK N   1      34.014  17.966   5.781  0.00  0.00    -0.269 OA
HETATM   10  H   UNK N   1      31.917  13.707   4.307  0.00  0.00     0.172 HD
ENDROOT
BRANCH   7  11
HETATM   11  N   UNK N   1      33.773  15.787   7.600  0.00  0.00    -0.385 N 
HETATM   12  C   UNK N   1      34.966  14.998   7.280  0.00  0.00     0.119 C 
HETATM   13  C   UNK N   1      34.809  13.586   7.836  0.00  0.00     0.024 C 
HETATM   14  C   UNK N   1      34.522  13.627   9.336  0.00  0.00    -0.010 C 
HETATM   15  C   UNK N   1      33.293  14.495   9.623  0.00  0.00     0.024 C 
HETATM   16  C   UNK N   1      33.467  15.892   9.031  0.00  0.00     0.119 C 
BRANCH  14  17
HETATM   17  C   UNK N   1      34.285  12.202   9.813  0.00  0.00     0.031 C 
BRANCH  17  18
HETATM   18  C   UNK N   1      33.329  11.456   8.902  0.00  0.00     0.164 C 
BRANCH  18  19
HETATM   19  O   UNK N   1      32.146  11.193   9.589  0.00  0.00    -0.401 OA
HETATM   20  H   UNK N   1      31.317  11.688   9.687  0.00  0.00     0.209 HD
ENDBRANCH  18  19
ENDBRANCH  17  18
ENDBRANCH  14  17
ENDBRANCH   7  11
BRANCH   7  21
HETATM   21  C   UNK N   1      31.596  16.928   7.181  0.00  0.00    -0.011 A 
HETATM   22  C   UNK N   1      30.305  16.849   6.627  0.00  0.00     0.011 A 
HETATM   23  C   UNK N   1      29.235  17.539   7.201  0.00  0.00     0.001 A 
HETATM   24  C   UNK N   1      29.439  18.327   8.335  0.00  0.00     0.000 A 
HETATM   25  C   UNK N   1      30.717  18.433   8.888  0.00  0.00     0.001 A 
HETATM   26  C   UNK N   1      31.787  17.738   8.319  0.00  0.00     0.011 A 
ENDBRANCH   7  21
BRANCH   3  27
HETATM   27  O   UNK N   1      33.161  15.034   2.486  0.00  0.00    -0.332 OA
HETATM   28  H   UNK N   1      32.407  14.886   1.951  0.00  0.00     0.221 HD
ENDBRANCH   3  27
TORSDOF 6
ENDMDL
MODEL 6
REMARK VINA RESULT:      -6.5      2.317      5.941
REMARK  6 active torsions:
REMARK  status: ('A' for Active; 'I' for Inactive)
REMARK    1  A    between atoms: C_3  and  O_4 
REMARK    2  A    between atoms: C_8  and  N_11 
REMARK    3  A    between atoms: C_8  and  C_20 
REMARK    4  A    between atoms: C_14  and  C_17 
REMARK    5  A    between atoms: C_17  and  C_18 
REMARK    6  A    between atoms: C_18  and  O_19 
ROOT
HETATM    1  N   UNK N   1      30.409  23.414  -3.712  0.00  0.00    -0.290 N 
ATOM      2  HN  UNK N   1      31.395  23.152  -3.736  1.00  0.00     0.172 HD
HETATM    3  C   UNK N   1      29.790  23.354  -2.585  0.00  0.00     0.226 A 
HETATM    4  N   UNK N   1      28.420  23.699  -2.483  0.00  0.00    -0.290 N 
HETATM    5  C   UNK N   1      27.704  24.112  -3.552  0.00  0.00     0.267 A 
HETATM    6  O   UNK N   1      26.530  24.412  -3.397  0.00  0.00    -0.269 OA
HETATM    7  C   UNK N   1      28.348  24.226  -4.938  0.00  0.00     0.220 A 
HETATM    8  C   UNK N   1      29.819  23.806  -4.870  0.00  0.00     0.267 A 
HETATM    9  O   UNK N   1      30.494  23.841  -5.888  0.00  0.00    -0.269 OA
HETATM   10  H   UNK N   1      27.976  23.635  -1.607  0.00  0.00     0.172 HD
ENDROOT
BRANCH   7  11
HETATM   11  N   UNK N   1      28.336  25.639  -5.411  0.00  0.00    -0.385 N 
HETATM   12  C   UNK N   1      29.029  26.702  -4.677  0.00  0.00     0.119 C 
HETATM   13  C   UNK N   1      28.008  27.559  -3.935  0.00  0.00     0.024 C 
HETATM   14  C   UNK N   1      26.960  28.106  -4.903  0.00  0.00    -0.010 C 
HETATM   15  C   UNK N   1      26.294  26.962  -5.674  0.00  0.00     0.024 C 
HETATM   16  C   UNK N   1      27.341  26.106  -6.383  0.00  0.00     0.119 C 
BRANCH  14  17
HETATM   17  C   UNK N   1      25.923  28.872  -4.095  0.00  0.00     0.031 C 
BRANCH  17  18
HETATM   18  C   UNK N   1      26.523  30.092  -3.422  0.00  0.00     0.164 C 
BRANCH  18  19
HETATM   19  O   UNK N   1      26.798  31.062  -4.384  0.00  0.00    -0.401 OA
HETATM   20  H   UNK N   1      26.379  31.909  -4.603  0.00  0.00     0.209 HD
ENDBRANCH  18  19
ENDBRANCH  17  18
ENDBRANCH  14  17
ENDBRANCH   7  11
BRANCH   7  21
HETATM   21  C   UNK N   1      27.559  23.322  -5.905  0.00  0.00    -0.011 A 
HETATM   22  C   UNK N   1      26.152  23.346  -5.901  0.00  0.00     0.011 A 
HETATM   23  C   UNK N   1      25.420  22.574  -6.806  0.00  0.00     0.001 A 
HETATM   24  C   UNK N   1      26.082  21.758  -7.725  0.00  0.00     0.000 A 
HETATM   25  C   UNK N   1      27.477  21.707  -7.731  0.00  0.00     0.001 A 
HETATM   26  C   UNK N   1      28.211  22.484  -6.831  0.00  0.00     0.011 A 
ENDBRANCH   7  21
BRANCH   3  27
HETATM   27  O   UNK N   1      30.457  22.962  -1.483  0.00  0.00    -0.332 OA
HETATM   28  H   UNK N   1      31.393  22.959  -1.469  0.00  0.00     0.221 HD
ENDBRANCH   3  27
TORSDOF 6
ENDMDL
MODEL 7
REMARK VINA RESULT:      -6.3     14.505     16.382
REMARK  6 active torsions:
REMARK  status: ('A' for Active; 'I' for Inactive)
REMARK    1  A    between atoms: C_3  and  O_4 
REMARK    2  A    between atoms: C_8  and  N_11 
REMARK    3  A    between atoms: C_8  and  C_20 
REMARK    4  A    between atoms: C_14  and  C_17 
REMARK    5  A    between atoms: C_17  and  C_18 
REMARK    6  A    between atoms: C_18  and  O_19 
ROOT
HETATM    1  N   UNK N   1      33.782  16.245   9.833  0.00  0.00    -0.290 N 
ATOM      2  HN  UNK N   1      33.920  15.839  10.758  1.00  0.00     0.172 HD
HETATM    3  C   UNK N   1      34.651  17.093   9.403  0.00  0.00     0.226 A 
HETATM    4  N   UNK N   1      34.516  17.698   8.130  0.00  0.00    -0.290 N 
HETATM    5  C   UNK N   1      33.483  17.412   7.306  0.00  0.00     0.267 A 
HETATM    6  O   UNK N   1      33.431  17.954   6.213  0.00  0.00    -0.269 OA
HETATM    7  C   UNK N   1      32.399  16.411   7.718  0.00  0.00     0.220 A 
HETATM    8  C   UNK N   1      32.691  15.865   9.119  0.00  0.00     0.267 A 
HETATM    9  O   UNK N   1      31.929  15.045   9.608  0.00  0.00    -0.269 OA
HETATM   10  H   UNK N   1      35.196  18.347   7.835  0.00  0.00     0.172 HD
ENDROOT
BRANCH   7  11
HETATM   11  N   UNK N   1      32.390  15.236   6.803  0.00  0.00    -0.385 N 
HETATM   12  C   UNK N   1      33.570  14.384   6.634  0.00  0.00     0.119 C 
HETATM   13  C   UNK N   1      34.228  14.683   5.291  0.00  0.00     0.024 C 
HETATM   14  C   UNK N   1      33.224  14.521   4.151  0.00  0.00    -0.010 C 
HETATM   15  C   UNK N   1      31.992  15.398   4.393  0.00  0.00     0.024 C 
HETATM   16  C   UNK N   1      31.372  15.096   5.756  0.00  0.00     0.119 C 
BRANCH  14  17
HETATM   17  C   UNK N   1      33.909  14.920   2.853  0.00  0.00     0.031 C 
BRANCH  17  18
HETATM   18  C   UNK N   1      34.534  13.726   2.156  0.00  0.00     0.164 C 
BRANCH  18  19
HETATM   19  O   UNK N   1      34.386  13.867   0.778  0.00  0.00    -0.401 OA
HETATM   20  H   UNK N   1      34.893  13.529   0.023  0.00  0.00     0.209 HD
ENDBRANCH  18  19
ENDBRANCH  17  18
ENDBRANCH  14  17
ENDBRANCH   7  11
BRANCH   7  21
HETATM   21  C   UNK N   1      31.040  17.139   7.682  0.00  0.00    -0.011 A 
HETATM   22  C   UNK N   1      30.673  17.995   8.737  0.00  0.00     0.011 A 
HETATM   23  C   UNK N   1      29.471  18.706   8.698  0.00  0.00     0.001 A 
HETATM   24  C   UNK N   1      28.612  18.566   7.607  0.00  0.00     0.000 A 
HETATM   25  C   UNK N   1      28.952  17.708   6.559  0.00  0.00     0.001 A 
HETATM   26  C   UNK N   1      30.156  17.002   6.594  0.00  0.00     0.011 A 
ENDBRANCH   7  21
BRANCH   3  27
HETATM   27  O   UNK N   1      35.709  17.405  10.175  0.00  0.00    -0.332 OA
HETATM   28  H   UNK N   1      35.914  18.300  10.363  0.00  0.00     0.221 HD
ENDBRANCH   3  27
TORSDOF 6
ENDMDL
MODEL 8
REMARK VINA RESULT:      -6.3     12.828     15.111
REMARK  6 active torsions:
REMARK  status: ('A' for Active; 'I' for Inactive)
REMARK    1  A    between atoms: C_3  and  O_4 
REMARK    2  A    between atoms: C_8  and  N_11 
REMARK    3  A    between atoms: C_8  and  C_20 
REMARK    4  A    between atoms: C_14  and  C_17 
REMARK    5  A    between atoms: C_17  and  C_18 
REMARK    6  A    between atoms: C_18  and  O_19 
ROOT
HETATM    1  N   UNK N   1      32.769  15.924   3.797  0.00  0.00    -0.290 N 
ATOM      2  HN  UNK N   1      33.527  16.481   3.401  1.00  0.00     0.172 HD
HETATM    3  C   UNK N   1      32.522  14.773   3.276  0.00  0.00     0.226 A 
HETATM    4  N   UNK N   1      31.481  13.952   3.775  0.00  0.00    -0.290 N 
HETATM    5  C   UNK N   1      30.708  14.330   4.817  0.00  0.00     0.267 A 
HETATM    6  O   UNK N   1      29.837  13.570   5.212  0.00  0.00    -0.269 OA
HETATM    7  C   UNK N   1      30.925  15.677   5.514  0.00  0.00     0.220 A 
HETATM    8  C   UNK N   1      32.074  16.437   4.844  0.00  0.00     0.267 A 
HETATM    9  O   UNK N   1      32.391  17.535   5.276  0.00  0.00    -0.269 OA
HETATM   10  H   UNK N   1      31.315  13.080   3.348  0.00  0.00     0.172 HD
ENDROOT
BRANCH   7  11
HETATM   11  N   UNK N   1      31.324  15.479   6.935  0.00  0.00    -0.385 N 
HETATM   12  C   UNK N   1      30.950  16.436   7.980  0.00  0.00     0.119 C 
HETATM   13  C   UNK N   1      32.167  17.270   8.368  0.00  0.00     0.024 C 
HETATM   14  C   UNK N   1      33.325  16.368   8.791  0.00  0.00    -0.010 C 
HETATM   15  C   UNK N   1      33.651  15.360   7.685  0.00  0.00     0.024 C 
HETATM   16  C   UNK N   1      32.408  14.560   7.298  0.00  0.00     0.119 C 
BRANCH  14  17
HETATM   17  C   UNK N   1      34.533  17.247   9.076  0.00  0.00     0.031 C 
BRANCH  17  18
HETATM   18  C   UNK N   1      34.589  18.445   8.146  0.00  0.00     0.164 C 
BRANCH  18  19
HETATM   19  O   UNK N   1      35.461  19.396   8.670  0.00  0.00    -0.401 OA
HETATM   20  H   UNK N   1      36.284  19.326   9.178  0.00  0.00     0.209 HD
ENDBRANCH  18  19
ENDBRANCH  17  18
ENDBRANCH  14  17
ENDBRANCH   7  11
BRANCH   7  21
HETATM   21  C   UNK N   1      29.609  16.475   5.424  0.00  0.00    -0.011 A 
HETATM   22  C   UNK N   1      29.446  17.453   4.425  0.00  0.00     0.011 A 
HETATM   23  C   UNK N   1      28.242  18.149   4.293  0.00  0.00     0.001 A 
HETATM   24  C   UNK N   1      27.183  17.885   5.163  0.00  0.00     0.000 A 
HETATM   25  C   UNK N   1      27.333  16.931   6.172  0.00  0.00     0.001 A 
HETATM   26  C   UNK N   1      28.534  16.230   6.301  0.00  0.00     0.011 A 
ENDBRANCH   7  21
BRANCH   3  27
HETATM   27  O   UNK N   1      33.270  14.339   2.244  0.00  0.00    -0.332 OA
HETATM   28  H   UNK N   1      33.353  14.854   1.466  0.00  0.00     0.221 HD
ENDBRANCH   3  27
TORSDOF 6
ENDMDL
MODEL 9
REMARK VINA RESULT:      -6.3     13.378     15.540
REMARK  6 active torsions:
REMARK  status: ('A' for Active; 'I' for Inactive)
REMARK    1  A    between atoms: C_3  and  O_4 
REMARK    2  A    between atoms: C_8  and  N_11 
REMARK    3  A    between atoms: C_8  and  C_20 
REMARK    4  A    between atoms: C_14  and  C_17 
REMARK    5  A    between atoms: C_17  and  C_18 
REMARK    6  A    between atoms: C_18  and  O_19 
ROOT
HETATM    1  N   UNK N   1      32.508  16.338   3.232  0.00  0.00    -0.290 N 
ATOM      2  HN  UNK N   1      32.702  16.859   2.377  1.00  0.00     0.172 HD
HETATM    3  C   UNK N   1      32.893  15.111   3.299  0.00  0.00     0.226 A 
HETATM    4  N   UNK N   1      32.651  14.330   4.455  0.00  0.00    -0.290 N 
HETATM    5  C   UNK N   1      32.017  14.831   5.539  0.00  0.00     0.267 A 
HETATM    6  O   UNK N   1      31.853  14.111   6.512  0.00  0.00    -0.269 OA
HETATM    7  C   UNK N   1      31.525  16.281   5.565  0.00  0.00     0.220 A 
HETATM    8  C   UNK N   1      31.856  16.973   4.240  0.00  0.00     0.267 A 
HETATM    9  O   UNK N   1      31.541  18.144   4.086  0.00  0.00    -0.269 OA
HETATM   10  H   UNK N   1      32.953  13.392   4.469  0.00  0.00     0.172 HD
ENDROOT
BRANCH   7  11
HETATM   11  N   UNK N   1      32.223  17.056   6.629  0.00  0.00    -0.385 N 
HETATM   12  C   UNK N   1      33.630  17.446   6.499  0.00  0.00     0.119 C 
HETATM   13  C   UNK N   1      34.490  16.563   7.397  0.00  0.00     0.024 C 
HETATM   14  C   UNK N   1      34.000  16.625   8.843  0.00  0.00    -0.010 C 
HETATM   15  C   UNK N   1      32.517  16.248   8.921  0.00  0.00     0.024 C 
HETATM   16  C   UNK N   1      31.685  17.130   7.992  0.00  0.00     0.119 C 
BRANCH  14  17
HETATM   17  C   UNK N   1      34.834  15.658   9.669  0.00  0.00     0.031 C 
BRANCH  17  18
HETATM   18  C   UNK N   1      35.475  16.344  10.861  0.00  0.00     0.164 C 
BRANCH  18  19
HETATM   19  O   UNK N   1      36.857  16.179  10.800  0.00  0.00    -0.401 OA
HETATM   20  H   UNK N   1      37.551  16.185  11.477  0.00  0.00     0.209 HD
ENDBRANCH  18  19
ENDBRANCH  17  18
ENDBRANCH  14  17
ENDBRANCH   7  11
BRANCH   7  21
HETATM   21  C   UNK N   1      30.004  16.264   5.814  0.00  0.00    -0.011 A 
HETATM   22  C   UNK N   1      29.221  15.211   5.304  0.00  0.00     0.011 A 
HETATM   23  C   UNK N   1      27.849  15.149   5.564  0.00  0.00     0.001 A 
HETATM   24  C   UNK N   1      27.238  16.141   6.331  0.00  0.00     0.000 A 
HETATM   25  C   UNK N   1      27.995  17.202   6.830  0.00  0.00     0.001 A 
HETATM   26  C   UNK N   1      29.368  17.263   6.576  0.00  0.00     0.011 A 
ENDBRANCH   7  21
BRANCH   3  27
HETATM   27  O   UNK N   1      33.543  14.563   2.254  0.00  0.00    -0.332 OA
HETATM   28  H   UNK N   1      34.073  13.799   2.370  0.00  0.00     0.221 HD
ENDBRANCH   3  27
TORSDOF 6
ENDMDL
