MODEL 1
REMARK VINA RESULT:      -5.8      0.000      0.000
REMARK  6 active torsions:
REMARK  status: ('A' for Active; 'I' for Inactive)
REMARK    1  A    between atoms: N_1  and  C_2 
REMARK    2  A    between atoms: C_4  and  C_15 
REMARK       I    between atoms: C_8  and  N_9 
REMARK    3  A    between atoms: C_15  and  S_16 
REMARK    4  A    between atoms: S_16  and  C_17 
REMARK    5  A    between atoms: C_17  and  C_18 
REMARK    6  A    between atoms: C_18  and  N_19 
ROOT
HETATM    1  C   UNK N   1      20.258  18.497   3.158  0.00  0.00     0.027 A 
HETATM    2  C   UNK N   1      20.405  17.602   4.222  0.00  0.00     0.039 A 
HETATM    3  C   UNK N   1      21.612  17.529   4.926  0.00  0.00    -0.018 A 
HETATM    4  C   UNK N   1      22.683  18.369   4.562  0.00  0.00     0.072 A 
HETATM    5  N   UNK N   1      23.866  18.316   5.232  0.00  0.00    -0.190 N 
ATOM      6  HN  UNK N   1      23.978  17.654   5.999  1.00  0.00     0.184 HD
HETATM    7  C   UNK N   1      24.900  19.132   4.898  0.00  0.00     0.679 A 
HETATM    8  N   UNK N   1      26.118  19.046   5.601  0.00  0.00    -0.234 N 
HETATM    9  N   UNK N   1      24.765  20.033   3.889  0.00  0.00    -0.156 N 
HETATM   10  C   UNK N   1      23.596  20.130   3.182  0.00  0.00     0.272 A 
HETATM   11  O   UNK N   1      23.499  20.952   2.286  0.00  0.00    -0.267 OA
HETATM   12  C   UNK N   1      22.524  19.286   3.502  0.00  0.00     0.062 A 
HETATM   13  C   UNK N   1      21.311  19.344   2.803  0.00  0.00     0.048 A 
HETATM   14  H   UNK N   1      26.785  19.765   5.524  0.00  0.00     0.174 HD
HETATM   15  H   UNK N   1      26.301  18.263   6.169  0.00  0.00     0.174 HD
HETATM   16  H   UNK N   1      25.519  20.624   3.662  0.00  0.00     0.187 HD
ENDROOT
BRANCH   3  17
HETATM   17  C   UNK N   1      21.718  16.588   6.088  0.00  0.00     0.114 C 
BRANCH  17  18
HETATM   18  S   UNK N   1      20.145  15.731   6.392  0.00  0.00    -0.163 SA
BRANCH  18  19
HETATM   19  C   UNK N   1      20.599  15.402   8.122  0.00  0.00     0.104 C 
BRANCH  19  20
HETATM   20  C   UNK N   1      19.509  15.872   9.076  0.00  0.00     0.281 C 
BRANCH  20  21
HETATM   21  N   UNK N   1      18.844  17.062   8.569  0.00  0.00     0.080 N 
HETATM   22  C   UNK N   1      17.487  17.034   9.086  0.00  0.00     0.309 C 
HETATM   23  C   UNK N   1      19.493  18.213   9.169  0.00  0.00     0.309 C 
ENDBRANCH  20  21
ENDBRANCH  19  20
ENDBRANCH  18  19
ENDBRANCH  17  18
ENDBRANCH   3  17
BRANCH   1  24
HETATM   24  N   UNK N   1      19.043  18.553   2.448  0.00  0.00    -0.399 N 
HETATM   25  H   UNK N   1      18.794  19.370   1.957  0.00  0.00     0.156 HD
HETATM   26  H   UNK N   1      18.442  17.773   2.441  0.00  0.00     0.156 HD
ENDBRANCH   1  24
TORSDOF 6
ENDMDL
MODEL 2
REMARK VINA RESULT:      -5.7      6.721      9.825
REMARK  6 active torsions:
REMARK  status: ('A' for Active; 'I' for Inactive)
REMARK    1  A    between atoms: N_1  and  C_2 
REMARK    2  A    between atoms: C_4  and  C_15 
REMARK       I    between atoms: C_8  and  N_9 
REMARK    3  A    between atoms: C_15  and  S_16 
REMARK    4  A    between atoms: S_16  and  C_17 
REMARK    5  A    between atoms: C_17  and  C_18 
REMARK    6  A    between atoms: C_18  and  N_19 
ROOT
HETATM    1  C   UNK N   1      30.522  17.868   8.672  0.00  0.00     0.027 A 
HETATM    2  C   UNK N   1      29.565  17.284   7.836  0.00  0.00     0.039 A 
HETATM    3  C   UNK N   1      29.922  16.818   6.566  0.00  0.00    -0.018 A 
HETATM    4  C   UNK N   1      31.258  16.933   6.132  0.00  0.00     0.072 A 
HETATM    5  N   UNK N   1      31.629  16.487   4.901  0.00  0.00    -0.190 N 
ATOM      6  HN  UNK N   1      30.928  16.075   4.285  1.00  0.00     0.184 HD
HETATM    7  C   UNK N   1      32.917  16.580   4.478  0.00  0.00     0.679 A 
HETATM    8  N   UNK N   1      33.269  16.122   3.194  0.00  0.00    -0.234 N 
HETATM    9  N   UNK N   1      33.869  17.113   5.290  0.00  0.00    -0.156 N 
HETATM   10  C   UNK N   1      33.551  17.575   6.539  0.00  0.00     0.272 A 
HETATM   11  O   UNK N   1      34.426  18.042   7.251  0.00  0.00    -0.267 OA
HETATM   12  C   UNK N   1      32.225  17.502   6.986  0.00  0.00     0.062 A 
HETATM   13  C   UNK N   1      31.851  17.969   8.254  0.00  0.00     0.048 A 
HETATM   14  H   UNK N   1      34.215  15.978   2.962  0.00  0.00     0.174 HD
HETATM   15  H   UNK N   1      32.567  15.947   2.526  0.00  0.00     0.174 HD
HETATM   16  H   UNK N   1      34.800  17.167   4.975  0.00  0.00     0.187 HD
ENDROOT
BRANCH   3  17
HETATM   17  C   UNK N   1      28.878  16.161   5.715  0.00  0.00     0.114 C 
BRANCH  17  18
HETATM   18  S   UNK N   1      27.339  17.125   5.690  0.00  0.00    -0.163 SA
BRANCH  18  19
HETATM   19  C   UNK N   1      27.971  18.199   4.365  0.00  0.00     0.104 C 
BRANCH  19  20
HETATM   20  C   UNK N   1      28.003  19.656   4.806  0.00  0.00     0.281 C 
BRANCH  20  21
HETATM   21  N   UNK N   1      26.756  20.039   5.448  0.00  0.00     0.080 N 
HETATM   22  C   UNK N   1      27.010  21.286   6.146  0.00  0.00     0.309 C 
HETATM   23  C   UNK N   1      25.800  20.340   4.397  0.00  0.00     0.309 C 
ENDBRANCH  20  21
ENDBRANCH  19  20
ENDBRANCH  18  19
ENDBRANCH  17  18
ENDBRANCH   3  17
BRANCH   1  24
HETATM   24  N   UNK N   1      30.149  18.345   9.943  0.00  0.00    -0.399 N 
HETATM   25  H   UNK N   1      30.821  18.424  10.659  0.00  0.00     0.156 HD
HETATM   26  H   UNK N   1      29.214  18.600  10.117  0.00  0.00     0.156 HD
ENDBRANCH   1  24
TORSDOF 6
ENDMDL
MODEL 3
REMARK VINA RESULT:      -5.6      6.934      9.923
REMARK  6 active torsions:
REMARK  status: ('A' for Active; 'I' for Inactive)
REMARK    1  A    between atoms: N_1  and  C_2 
REMARK    2  A    between atoms: C_4  and  C_15 
REMARK       I    between atoms: C_8  and  N_9 
REMARK    3  A    between atoms: C_15  and  S_16 
REMARK    4  A    between atoms: S_16  and  C_17 
REMARK    5  A    between atoms: C_17  and  C_18 
REMARK    6  A    between atoms: C_18  and  N_19 
ROOT
HETATM    1  C   UNK N   1      32.757  16.348   3.714  0.00  0.00     0.027 A 
HETATM    2  C   UNK N   1      31.391  16.065   3.808  0.00  0.00     0.039 A 
HETATM    3  C   UNK N   1      30.689  16.334   4.988  0.00  0.00    -0.018 A 
HETATM    4  C   UNK N   1      31.366  16.899   6.087  0.00  0.00     0.072 A 
HETATM    5  N   UNK N   1      30.705  17.170   7.245  0.00  0.00    -0.190 N 
ATOM      6  HN  UNK N   1      29.712  16.950   7.318  1.00  0.00     0.184 HD
HETATM    7  C   UNK N   1      31.345  17.728   8.306  0.00  0.00     0.679 A 
HETATM    8  N   UNK N   1      30.639  17.984   9.497  0.00  0.00    -0.234 N 
HETATM    9  N   UNK N   1      32.666  18.042   8.223  0.00  0.00    -0.156 N 
HETATM   10  C   UNK N   1      33.379  17.793   7.081  0.00  0.00     0.272 A 
HETATM   11  O   UNK N   1      34.561  18.091   7.030  0.00  0.00    -0.267 OA
HETATM   12  C   UNK N   1      32.740  17.203   5.982  0.00  0.00     0.062 A 
HETATM   13  C   UNK N   1      33.430  16.923   4.795  0.00  0.00     0.048 A 
HETATM   14  H   UNK N   1      31.021  18.580  10.180  0.00  0.00     0.174 HD
HETATM   15  H   UNK N   1      29.760  17.565   9.646  0.00  0.00     0.174 HD
HETATM   16  H   UNK N   1      33.115  18.453   8.996  0.00  0.00     0.187 HD
ENDROOT
BRANCH   3  17
HETATM   17  C   UNK N   1      29.217  16.057   5.036  0.00  0.00     0.114 C 
BRANCH  17  18
HETATM   18  S   UNK N   1      28.311  17.084   3.843  0.00  0.00    -0.163 SA
BRANCH  18  19
HETATM   19  C   UNK N   1      28.245  18.476   5.012  0.00  0.00     0.104 C 
BRANCH  19  20
HETATM   20  C   UNK N   1      26.810  18.928   5.249  0.00  0.00     0.281 C 
BRANCH  20  21
HETATM   21  N   UNK N   1      26.597  20.281   4.759  0.00  0.00     0.080 N 
HETATM   22  C   UNK N   1      25.302  20.288   4.103  0.00  0.00     0.309 C 
HETATM   23  C   UNK N   1      26.480  21.149   5.916  0.00  0.00     0.309 C 
ENDBRANCH  20  21
ENDBRANCH  19  20
ENDBRANCH  18  19
ENDBRANCH  17  18
ENDBRANCH   3  17
BRANCH   1  24
HETATM   24  N   UNK N   1      33.456  16.061   2.526  0.00  0.00    -0.399 N 
HETATM   25  H   UNK N   1      33.929  15.203   2.424  0.00  0.00     0.156 HD
HETATM   26  H   UNK N   1      33.471  16.720   1.794  0.00  0.00     0.156 HD
ENDBRANCH   1  24
TORSDOF 6
ENDMDL
MODEL 4
REMARK VINA RESULT:      -5.6      1.180      3.518
REMARK  6 active torsions:
REMARK  status: ('A' for Active; 'I' for Inactive)
REMARK    1  A    between atoms: N_1  and  C_2 
REMARK    2  A    between atoms: C_4  and  C_15 
REMARK       I    between atoms: C_8  and  N_9 
REMARK    3  A    between atoms: C_15  and  S_16 
REMARK    4  A    between atoms: S_16  and  C_17 
REMARK    5  A    between atoms: C_17  and  C_18 
REMARK    6  A    between atoms: C_18  and  N_19 
ROOT
HETATM    1  C   UNK N   1      24.247  18.069   4.903  0.00  0.00     0.027 A 
HETATM    2  C   UNK N   1      23.443  16.961   5.188  0.00  0.00     0.039 A 
HETATM    3  C   UNK N   1      22.123  16.905   4.728  0.00  0.00    -0.018 A 
HETATM    4  C   UNK N   1      21.605  17.972   3.967  0.00  0.00     0.072 A 
HETATM    5  N   UNK N   1      20.324  17.941   3.508  0.00  0.00    -0.190 N 
ATOM      6  HN  UNK N   1      19.733  17.139   3.728  1.00  0.00     0.184 HD
HETATM    7  C   UNK N   1      19.819  18.958   2.762  0.00  0.00     0.679 A 
HETATM    8  N   UNK N   1      18.486  18.904   2.313  0.00  0.00    -0.234 N 
HETATM    9  N   UNK N   1      20.596  20.028   2.446  0.00  0.00    -0.156 N 
HETATM   10  C   UNK N   1      21.892  20.111   2.879  0.00  0.00     0.272 A 
HETATM   11  O   UNK N   1      22.570  21.079   2.576  0.00  0.00    -0.267 OA
HETATM   12  C   UNK N   1      22.426  19.079   3.664  0.00  0.00     0.062 A 
HETATM   13  C   UNK N   1      23.744  19.122   4.136  0.00  0.00     0.048 A 
HETATM   14  H   UNK N   1      18.179  19.510   1.600  0.00  0.00     0.174 HD
HETATM   15  H   UNK N   1      17.859  18.259   2.713  0.00  0.00     0.174 HD
HETATM   16  H   UNK N   1      20.221  20.754   1.898  0.00  0.00     0.187 HD
ENDROOT
BRANCH   3  17
HETATM   17  C   UNK N   1      21.306  15.683   5.016  0.00  0.00     0.114 C 
BRANCH  17  18
HETATM   18  S   UNK N   1      21.505  15.144   6.739  0.00  0.00    -0.163 SA
BRANCH  18  19
HETATM   19  C   UNK N   1      20.075  16.134   7.269  0.00  0.00     0.104 C 
BRANCH  19  20
HETATM   20  C   UNK N   1      19.762  15.905   8.742  0.00  0.00     0.281 C 
BRANCH  20  21
HETATM   21  N   UNK N   1      18.882  16.941   9.260  0.00  0.00     0.080 N 
HETATM   22  C   UNK N   1      19.562  18.207   9.054  0.00  0.00     0.309 C 
HETATM   23  C   UNK N   1      17.697  16.965   8.421  0.00  0.00     0.309 C 
ENDBRANCH  20  21
ENDBRANCH  19  20
ENDBRANCH  18  19
ENDBRANCH  17  18
ENDBRANCH   3  17
BRANCH   1  24
HETATM   24  N   UNK N   1      25.571  18.120   5.383  0.00  0.00    -0.399 N 
HETATM   25  H   UNK N   1      25.761  17.932   6.330  0.00  0.00     0.156 HD
HETATM   26  H   UNK N   1      26.307  18.344   4.769  0.00  0.00     0.156 HD
ENDBRANCH   1  24
TORSDOF 6
ENDMDL
MODEL 5
REMARK VINA RESULT:      -5.6      1.441      1.870
REMARK  6 active torsions:
REMARK  status: ('A' for Active; 'I' for Inactive)
REMARK    1  A    between atoms: N_1  and  C_2 
REMARK    2  A    between atoms: C_4  and  C_15 
REMARK       I    between atoms: C_8  and  N_9 
REMARK    3  A    between atoms: C_15  and  S_16 
REMARK    4  A    between atoms: S_16  and  C_17 
REMARK    5  A    between atoms: C_17  and  C_18 
REMARK    6  A    between atoms: C_18  and  N_19 
ROOT
HETATM    1  C   UNK N   1      20.160  18.529   3.167  0.00  0.00     0.027 A 
HETATM    2  C   UNK N   1      20.281  17.626   4.228  0.00  0.00     0.039 A 
HETATM    3  C   UNK N   1      21.484  17.519   4.934  0.00  0.00    -0.018 A 
HETATM    4  C   UNK N   1      22.577  18.333   4.576  0.00  0.00     0.072 A 
HETATM    5  N   UNK N   1      23.757  18.247   5.248  0.00  0.00    -0.190 N 
ATOM      6  HN  UNK N   1      23.850  17.578   6.013  1.00  0.00     0.184 HD
HETATM    7  C   UNK N   1      24.813  19.037   4.919  0.00  0.00     0.679 A 
HETATM    8  N   UNK N   1      26.026  18.915   5.624  0.00  0.00    -0.234 N 
HETATM    9  N   UNK N   1      24.704  19.944   3.913  0.00  0.00    -0.156 N 
HETATM   10  C   UNK N   1      23.539  20.074   3.205  0.00  0.00     0.272 A 
HETATM   11  O   UNK N   1      23.465  20.902   2.311  0.00  0.00    -0.267 OA
HETATM   12  C   UNK N   1      22.445  19.257   3.518  0.00  0.00     0.062 A 
HETATM   13  C   UNK N   1      21.235  19.349   2.817  0.00  0.00     0.048 A 
HETATM   14  H   UNK N   1      26.712  19.618   5.551  0.00  0.00     0.174 HD
HETATM   15  H   UNK N   1      26.188  18.126   6.190  0.00  0.00     0.174 HD
HETATM   16  H   UNK N   1      25.473  20.516   3.690  0.00  0.00     0.187 HD
ENDROOT
BRANCH   3  17
HETATM   17  C   UNK N   1      21.563  16.571   6.093  0.00  0.00     0.114 C 
BRANCH  17  18
HETATM   18  S   UNK N   1      21.675  14.847   5.531  0.00  0.00    -0.163 SA
BRANCH  18  19
HETATM   19  C   UNK N   1      20.905  14.243   7.064  0.00  0.00     0.104 C 
BRANCH  19  20
HETATM   20  C   UNK N   1      21.934  14.095   8.176  0.00  0.00     0.281 C 
BRANCH  20  21
HETATM   21  N   UNK N   1      21.361  14.427   9.471  0.00  0.00     0.080 N 
HETATM   22  C   UNK N   1      20.087  15.073   9.211  0.00  0.00     0.309 C 
HETATM   23  C   UNK N   1      21.062  13.178  10.148  0.00  0.00     0.309 C 
ENDBRANCH  20  21
ENDBRANCH  19  20
ENDBRANCH  18  19
ENDBRANCH  17  18
ENDBRANCH   3  17
BRANCH   1  24
HETATM   24  N   UNK N   1      18.948  18.619   2.455  0.00  0.00    -0.399 N 
HETATM   25  H   UNK N   1      18.353  19.393   2.587  0.00  0.00     0.156 HD
HETATM   26  H   UNK N   1      18.695  17.908   1.823  0.00  0.00     0.156 HD
ENDBRANCH   1  24
TORSDOF 6
ENDMDL
MODEL 6
REMARK VINA RESULT:      -5.6      8.052     10.898
REMARK  6 active torsions:
REMARK  status: ('A' for Active; 'I' for Inactive)
REMARK    1  A    between atoms: N_1  and  C_2 
REMARK    2  A    between atoms: C_4  and  C_15 
REMARK       I    between atoms: C_8  and  N_9 
REMARK    3  A    between atoms: C_15  and  S_16 
REMARK    4  A    between atoms: S_16  and  C_17 
REMARK    5  A    between atoms: C_17  and  C_18 
REMARK    6  A    between atoms: C_18  and  N_19 
ROOT
HETATM    1  C   UNK N   1      28.595  18.029   8.175  0.00  0.00     0.027 A 
HETATM    2  C   UNK N   1      29.855  17.554   8.551  0.00  0.00     0.039 A 
HETATM    3  C   UNK N   1      30.769  17.124   7.584  0.00  0.00    -0.018 A 
HETATM    4  C   UNK N   1      30.417  17.176   6.220  0.00  0.00     0.072 A 
HETATM    5  N   UNK N   1      31.290  16.763   5.261  0.00  0.00    -0.190 N 
ATOM      6  HN  UNK N   1      32.203  16.404   5.536  1.00  0.00     0.184 HD
HETATM    7  C   UNK N   1      30.965  16.823   3.942  0.00  0.00     0.679 A 
HETATM    8  N   UNK N   1      31.883  16.376   2.973  0.00  0.00    -0.234 N 
HETATM    9  N   UNK N   1      29.758  17.314   3.555  0.00  0.00    -0.156 N 
HETATM   10  C   UNK N   1      28.843  17.745   4.477  0.00  0.00     0.272 A 
HETATM   11  O   UNK N   1      27.770  18.188   4.102  0.00  0.00    -0.267 OA
HETATM   12  C   UNK N   1      29.153  17.676   5.842  0.00  0.00     0.062 A 
HETATM   13  C   UNK N   1      28.246  18.099   6.824  0.00  0.00     0.048 A 
HETATM   14  H   UNK N   1      31.758  16.615   2.026  0.00  0.00     0.174 HD
HETATM   15  H   UNK N   1      32.651  15.822   3.243  0.00  0.00     0.174 HD
HETATM   16  H   UNK N   1      29.539  17.359   2.596  0.00  0.00     0.187 HD
ENDROOT
BRANCH   3  17
HETATM   17  C   UNK N   1      32.126  16.661   8.022  0.00  0.00     0.114 C 
BRANCH  17  18
HETATM   18  S   UNK N   1      33.325  18.026   8.017  0.00  0.00    -0.163 SA
BRANCH  18  19
HETATM   19  C   UNK N   1      34.445  17.116   9.123  0.00  0.00     0.104 C 
BRANCH  19  20
HETATM   20  C   UNK N   1      33.873  15.752   9.486  0.00  0.00     0.281 C 
BRANCH  20  21
HETATM   21  N   UNK N   1      34.473  15.239  10.708  0.00  0.00     0.080 N 
HETATM   22  C   UNK N   1      35.277  14.092  10.328  0.00  0.00     0.309 C 
HETATM   23  C   UNK N   1      35.395  16.248  11.197  0.00  0.00     0.309 C 
ENDBRANCH  20  21
ENDBRANCH  19  20
ENDBRANCH  18  19
ENDBRANCH  17  18
ENDBRANCH   3  17
BRANCH   1  24
HETATM   24  N   UNK N   1      27.678  18.448   9.158  0.00  0.00    -0.399 N 
HETATM   25  H   UNK N   1      26.824  17.971   9.273  0.00  0.00     0.156 HD
HETATM   26  H   UNK N   1      27.891  19.219   9.732  0.00  0.00     0.156 HD
ENDBRANCH   1  24
TORSDOF 6
ENDMDL
MODEL 7
REMARK VINA RESULT:      -5.3      6.001      9.003
REMARK  6 active torsions:
REMARK  status: ('A' for Active; 'I' for Inactive)
REMARK    1  A    between atoms: N_1  and  C_2 
REMARK    2  A    between atoms: C_4  and  C_15 
REMARK       I    between atoms: C_8  and  N_9 
REMARK    3  A    between atoms: C_15  and  S_16 
REMARK    4  A    between atoms: S_16  and  C_17 
REMARK    5  A    between atoms: C_17  and  C_18 
REMARK    6  A    between atoms: C_18  and  N_19 
ROOT
HETATM    1  C   UNK N   1      31.022  17.396   4.465  0.00  0.00     0.027 A 
HETATM    2  C   UNK N   1      29.685  17.769   4.636  0.00  0.00     0.039 A 
HETATM    3  C   UNK N   1      29.105  17.768   5.909  0.00  0.00    -0.018 A 
HETATM    4  C   UNK N   1      29.878  17.395   7.026  0.00  0.00     0.072 A 
HETATM    5  N   UNK N   1      29.336  17.386   8.274  0.00  0.00    -0.190 N 
ATOM      6  HN  UNK N   1      28.357  17.645   8.397  1.00  0.00     0.184 HD
HETATM    7  C   UNK N   1      30.076  17.042   9.360  0.00  0.00     0.679 A 
HETATM    8  N   UNK N   1      29.484  17.029  10.638  0.00  0.00    -0.234 N 
HETATM    9  N   UNK N   1      31.387  16.709   9.220  0.00  0.00    -0.156 N 
HETATM   10  C   UNK N   1      31.984  16.703   7.987  0.00  0.00     0.272 A 
HETATM   11  O   UNK N   1      33.164  16.408   7.890  0.00  0.00    -0.267 OA
HETATM   12  C   UNK N   1      31.232  17.040   6.854  0.00  0.00     0.062 A 
HETATM   13  C   UNK N   1      31.798  17.041   5.571  0.00  0.00     0.048 A 
HETATM   14  H   UNK N   1      30.049  17.001  11.444  0.00  0.00     0.174 HD
HETATM   15  H   UNK N   1      28.504  17.047  10.725  0.00  0.00     0.174 HD
HETATM   16  H   UNK N   1      31.914  16.470  10.015  0.00  0.00     0.187 HD
ENDROOT
BRANCH   3  17
HETATM   17  C   UNK N   1      27.682  18.215   6.057  0.00  0.00     0.114 C 
BRANCH  17  18
HETATM   18  S   UNK N   1      27.584  19.964   6.538  0.00  0.00    -0.163 SA
BRANCH  18  19
HETATM   19  C   UNK N   1      26.365  20.308   5.233  0.00  0.00     0.104 C 
BRANCH  19  20
HETATM   20  C   UNK N   1      25.537  19.071   4.912  0.00  0.00     0.281 C 
BRANCH  20  21
HETATM   21  N   UNK N   1      25.015  19.126   3.555  0.00  0.00     0.080 N 
HETATM   22  C   UNK N   1      23.577  19.293   3.668  0.00  0.00     0.309 C 
HETATM   23  C   UNK N   1      25.526  20.338   2.941  0.00  0.00     0.309 C 
ENDBRANCH  20  21
ENDBRANCH  19  20
ENDBRANCH  18  19
ENDBRANCH  17  18
ENDBRANCH   3  17
BRANCH   1  24
HETATM   24  N   UNK N   1      31.592  17.388   3.177  0.00  0.00    -0.399 N 
HETATM   25  H   UNK N   1      31.156  16.892   2.447  0.00  0.00     0.156 HD
HETATM   26  H   UNK N   1      32.428  17.880   3.007  0.00  0.00     0.156 HD
ENDBRANCH   1  24
TORSDOF 6
ENDMDL
MODEL 8
REMARK VINA RESULT:      -5.3      2.147      4.149
REMARK  6 active torsions:
REMARK  status: ('A' for Active; 'I' for Inactive)
REMARK    1  A    between atoms: N_1  and  C_2 
REMARK    2  A    between atoms: C_4  and  C_15 
REMARK       I    between atoms: C_8  and  N_9 
REMARK    3  A    between atoms: C_15  and  S_16 
REMARK    4  A    between atoms: S_16  and  C_17 
REMARK    5  A    between atoms: C_17  and  C_18 
REMARK    6  A    between atoms: C_18  and  N_19 
ROOT
HETATM    1  C   UNK N   1      24.246  18.083   4.867  0.00  0.00     0.027 A 
HETATM    2  C   UNK N   1      23.471  16.945   5.113  0.00  0.00     0.039 A 
HETATM    3  C   UNK N   1      22.153  16.870   4.650  0.00  0.00    -0.018 A 
HETATM    4  C   UNK N   1      21.607  17.948   3.926  0.00  0.00     0.072 A 
HETATM    5  N   UNK N   1      20.327  17.899   3.465  0.00  0.00    -0.190 N 
ATOM      6  HN  UNK N   1      19.758  17.075   3.657  1.00  0.00     0.184 HD
HETATM    7  C   UNK N   1      19.796  18.927   2.754  0.00  0.00     0.679 A 
HETATM    8  N   UNK N   1      18.464  18.854   2.302  0.00  0.00    -0.234 N 
HETATM    9  N   UNK N   1      20.544  20.028   2.475  0.00  0.00    -0.156 N 
HETATM   10  C   UNK N   1      21.838  20.130   2.912  0.00  0.00     0.272 A 
HETATM   11  O   UNK N   1      22.490  21.125   2.642  0.00  0.00    -0.267 OA
HETATM   12  C   UNK N   1      22.398  19.086   3.661  0.00  0.00     0.062 A 
HETATM   13  C   UNK N   1      23.715  19.148   4.136  0.00  0.00     0.048 A 
HETATM   14  H   UNK N   1      18.142  19.475   1.610  0.00  0.00     0.174 HD
HETATM   15  H   UNK N   1      17.854  18.179   2.680  0.00  0.00     0.174 HD
HETATM   16  H   UNK N   1      20.150  20.762   1.952  0.00  0.00     0.187 HD
ENDROOT
BRANCH   3  17
HETATM   17  C   UNK N   1      21.368  15.617   4.895  0.00  0.00     0.114 C 
BRANCH  17  18
HETATM   18  S   UNK N   1      20.258  15.800   6.322  0.00  0.00    -0.163 SA
BRANCH  18  19
HETATM   19  C   UNK N   1      20.665  14.131   6.919  0.00  0.00     0.104 C 
BRANCH  19  20
HETATM   20  C   UNK N   1      20.850  14.116   8.430  0.00  0.00     0.281 C 
BRANCH  20  21
HETATM   21  N   UNK N   1      22.205  13.730   8.790  0.00  0.00     0.080 N 
HETATM   22  C   UNK N   1      22.148  13.219  10.148  0.00  0.00     0.309 C 
HETATM   23  C   UNK N   1      22.579  12.612   7.942  0.00  0.00     0.309 C 
ENDBRANCH  20  21
ENDBRANCH  19  20
ENDBRANCH  18  19
ENDBRANCH  17  18
ENDBRANCH   3  17
BRANCH   1  24
HETATM   24  N   UNK N   1      25.567  18.152   5.349  0.00  0.00    -0.399 N 
HETATM   25  H   UNK N   1      26.054  17.327   5.580  0.00  0.00     0.156 HD
HETATM   26  H   UNK N   1      26.007  19.027   5.454  0.00  0.00     0.156 HD
ENDBRANCH   1  24
TORSDOF 6
ENDMDL
MODEL 9
REMARK VINA RESULT:      -5.3     17.569     19.977
REMARK  6 active torsions:
REMARK  status: ('A' for Active; 'I' for Inactive)
REMARK    1  A    between atoms: N_1  and  C_2 
REMARK    2  A    between atoms: C_4  and  C_15 
REMARK       I    between atoms: C_8  and  N_9 
REMARK    3  A    between atoms: C_15  and  S_16 
REMARK    4  A    between atoms: S_16  and  C_17 
REMARK    5  A    between atoms: C_17  and  C_18 
REMARK    6  A    between atoms: C_18  and  N_19 
ROOT
HETATM    1  C   UNK N   1      35.220  12.641  19.132  0.00  0.00     0.027 A 
HETATM    2  C   UNK N   1      35.014  13.172  17.855  0.00  0.00     0.039 A 
HETATM    3  C   UNK N   1      35.365  12.438  16.716  0.00  0.00    -0.018 A 
HETATM    4  C   UNK N   1      35.923  11.152  16.861  0.00  0.00     0.072 A 
HETATM    5  N   UNK N   1      36.272  10.420  15.769  0.00  0.00    -0.190 N 
ATOM      6  HN  UNK N   1      36.136  10.813  14.838  1.00  0.00     0.184 HD
HETATM    7  C   UNK N   1      36.798   9.173  15.897  0.00  0.00     0.679 A 
HETATM    8  N   UNK N   1      37.163   8.444  14.749  0.00  0.00    -0.234 N 
HETATM    9  N   UNK N   1      36.974   8.626  17.130  0.00  0.00    -0.156 N 
HETATM   10  C   UNK N   1      36.638   9.318  18.262  0.00  0.00     0.272 A 
HETATM   11  O   UNK N   1      36.799   8.801  19.356  0.00  0.00    -0.267 OA
HETATM   12  C   UNK N   1      36.109  10.611  18.151  0.00  0.00     0.062 A 
HETATM   13  C   UNK N   1      35.758  11.361  19.281  0.00  0.00     0.048 A 
HETATM   14  H   UNK N   1      37.331   7.476  14.811  0.00  0.00     0.174 HD
HETATM   15  H   UNK N   1      37.250   8.903  13.883  0.00  0.00     0.174 HD
HETATM   16  H   UNK N   1      37.348   7.719  17.208  0.00  0.00     0.187 HD
ENDROOT
BRANCH   3  17
HETATM   17  C   UNK N   1      35.091  13.022  15.364  0.00  0.00     0.114 C 
BRANCH  17  18
HETATM   18  S   UNK N   1      36.545  13.895  14.712  0.00  0.00    -0.163 SA
BRANCH  18  19
HETATM   19  C   UNK N   1      36.265  13.225  13.045  0.00  0.00     0.104 C 
BRANCH  19  20
HETATM   20  C   UNK N   1      35.410  14.167  12.208  0.00  0.00     0.281 C 
BRANCH  20  21
HETATM   21  N   UNK N   1      36.225  15.194  11.576  0.00  0.00     0.080 N 
HETATM   22  C   UNK N   1      36.770  14.607  10.366  0.00  0.00     0.309 C 
HETATM   23  C   UNK N   1      35.333  16.259  11.155  0.00  0.00     0.309 C 
ENDBRANCH  20  21
ENDBRANCH  19  20
ENDBRANCH  18  19
ENDBRANCH  17  18
ENDBRANCH   3  17
BRANCH   1  24
HETATM   24  N   UNK N   1      34.875  13.394  20.271  0.00  0.00    -0.399 N 
HETATM   25  H   UNK N   1      33.928  13.575  20.477  0.00  0.00     0.156 HD
HETATM   26  H   UNK N   1      35.581  13.740  20.864  0.00  0.00     0.156 HD
ENDBRANCH   1  24
TORSDOF 6
ENDMDL
