REMARK  6 active torsions:
REMARK  status: ('A' for Active; 'I' for Inactive)
REMARK    1  A    between atoms: N_1  and  C_2 
REMARK    2  A    between atoms: C_4  and  C_15 
REMARK       I    between atoms: C_8  and  N_9 
REMARK    3  A    between atoms: C_15  and  S_16 
REMARK    4  A    between atoms: S_16  and  C_17 
REMARK    5  A    between atoms: C_17  and  C_18 
REMARK    6  A    between atoms: C_18  and  N_19 
ROOT
HETATM    1  C   UNK N   1      -2.155   2.643  -0.066  0.00  0.00     0.027 A 
HETATM    2  C   UNK N   1      -0.919   2.091  -0.417  0.00  0.00     0.039 A 
HETATM    3  C   UNK N   1      -0.763   0.704  -0.514  0.00  0.00    -0.018 A 
HETATM    4  C   UNK N   1      -1.863  -0.140  -0.262  0.00  0.00     0.072 A 
HETATM    5  N   UNK N   1      -1.736  -1.492  -0.350  0.00  0.00    -0.190 N 
ATOM      6  HN  UNK N   1      -0.831  -1.895  -0.592  1.00  0.00     0.184 HD
HETATM    7  C   UNK N   1      -2.794  -2.314  -0.123  0.00  0.00     0.679 A 
HETATM    8  N   UNK N   1      -2.629  -3.710  -0.208  0.00  0.00    -0.234 N 
HETATM    9  N   UNK N   1      -4.012  -1.795   0.186  0.00  0.00    -0.156 N 
HETATM   10  C   UNK N   1      -4.197  -0.442   0.286  0.00  0.00     0.272 A 
HETATM   11  O   UNK N   1      -5.302  -0.002   0.557  0.00  0.00    -0.267 OA
HETATM   12  C   UNK N   1      -3.114   0.421   0.071  0.00  0.00     0.062 A 
HETATM   13  C   UNK N   1      -3.253   1.812   0.169  0.00  0.00     0.048 A 
HETATM   14  H   UNK N   1      -3.416  -4.298  -0.267  0.00  0.00     0.174 HD
HETATM   15  H   UNK N   1      -1.724  -4.098  -0.208  0.00  0.00     0.174 HD
HETATM   16  H   UNK N   1      -4.772  -2.401   0.340  0.00  0.00     0.187 HD
ENDROOT
BRANCH   3  17
HETATM   17  C   UNK N   1       0.565   0.151  -0.934  0.00  0.00     0.114 C 
BRANCH  17  18
HETATM   18  S   UNK N   1       1.511  -0.456   0.493  0.00  0.00    -0.163 SA
BRANCH  18  19
HETATM   19  C   UNK N   1       2.642   0.966   0.415  0.00  0.00     0.104 C 
BRANCH  19  20
HETATM   20  C   UNK N   1       4.042   0.582   0.875  0.00  0.00     0.281 C 
BRANCH  20  21
HETATM   21  N   UNK N   1       4.795  -0.045  -0.200  0.00  0.00     0.080 N 
HETATM   22  C   UNK N   1       6.157   0.447  -0.098  0.00  0.00     0.309 C 
HETATM   23  C   UNK N   1       4.847  -1.469   0.078  0.00  0.00     0.309 C 
ENDBRANCH  20  21
ENDBRANCH  19  20
ENDBRANCH  18  19
ENDBRANCH  17  18
ENDBRANCH   3  17
BRANCH   1  24
HETATM   24  N   UNK N   1      -2.297   4.040   0.041  0.00  0.00    -0.399 N 
HETATM   25  H   UNK N   1      -1.500   4.614   0.115  0.00  0.00     0.156 HD
HETATM   26  H   UNK N   1      -3.195   4.444   0.041  0.00  0.00     0.156 HD
ENDBRANCH   1  24
TORSDOF 6
