REMARK  11 active torsions:
REMARK  status: ('A' for Active; 'I' for Inactive)
REMARK    1  A    between atoms: C_1  and  O_2 
REMARK    2  A    between atoms: O_2  and  C_13 
REMARK    3  A    between atoms: C_3  and  O_4 
REMARK    4  A    between atoms: C_5  and  O_6 
REMARK    5  A    between atoms: C_7  and  O_8 
REMARK    6  A    between atoms: C_9  and  C_11 
REMARK    7  A    between atoms: C_11  and  O_12 
REMARK    8  A    between atoms: C_13  and  C_14 
REMARK    9  A    between atoms: C_14  and  C_15 
REMARK   10  A    between atoms: C_15  and  C_16 
REMARK   11  A    between atoms: C_16  and  C_17 
ROOT
HETATM    1  C   UNK N   1      -0.432   0.679  -0.515  0.00  0.00     0.291 C 
HETATM    2  C   UNK N   1      -0.158  -0.776  -0.050  0.00  0.00     0.204 C 
HETATM    3  C   UNK N   1      -1.423  -1.606  -0.285  0.00  0.00     0.183 C 
HETATM    4  C   UNK N   1      -2.613  -0.931   0.408  0.00  0.00     0.180 C 
HETATM    5  C   UNK N   1      -2.721   0.528  -0.086  0.00  0.00     0.179 C 
HETATM    6  O   UNK N   1      -1.524   1.241   0.203  0.00  0.00    -0.348 OA
ENDROOT
BRANCH   1   7
HETATM    7  O   UNK N   1       0.697   1.533  -0.447  0.00  0.00    -0.359 OA
BRANCH   7   8
HETATM    8  C   UNK N   1       1.257   1.540   0.842  0.00  0.00     0.171 C 
BRANCH   8   9
HETATM    9  C   UNK N   1       2.776   1.527   0.726  0.00  0.00     0.026 C 
BRANCH   9  10
HETATM   10  C   UNK N   1       3.266   0.164   0.270  0.00  0.00     0.002 C 
BRANCH  10  11
HETATM   11  C   UNK N   1       4.436   0.305  -0.688  0.00  0.00    -0.000 C 
BRANCH  11  12
HETATM   12  C   UNK N   1       5.726  -0.144  -0.029  0.00  0.00    -0.005 C 
HETATM   13  C   UNK N   1       6.450   1.048   0.564  0.00  0.00     0.005 C 
ENDBRANCH  11  12
ENDBRANCH  10  11
ENDBRANCH   9  10
ENDBRANCH   8   9
ENDBRANCH   7   8
ENDBRANCH   1   7
BRANCH   2  14
HETATM   14  O   UNK N   1       0.903  -1.325  -0.773  0.00  0.00    -0.388 OA
HETATM   15  H   UNK N   1       0.941  -2.154  -1.275  0.00  0.00     0.210 HD
ENDBRANCH   2  14
BRANCH   3  16
HETATM   16  O   UNK N   1      -1.248  -2.903   0.205  0.00  0.00    -0.390 OA
HETATM   17  H   UNK N   1      -1.967  -3.458   0.545  0.00  0.00     0.210 HD
ENDBRANCH   3  16
BRANCH   5  18
HETATM   18  C   UNK N   1      -3.890   1.216   0.610  0.00  0.00     0.198 C 
BRANCH  18  19
HETATM   19  O   UNK N   1      -4.059   2.509   0.112  0.00  0.00    -0.398 OA
HETATM   20  H   UNK N   1      -3.339   3.059  -0.234  0.00  0.00     0.209 HD
ENDBRANCH  18  19
ENDBRANCH   5  18
BRANCH   4  21
HETATM   21  O   UNK N   1      -3.786  -1.633   0.112  0.00  0.00    -0.390 OA
HETATM   22  H   UNK N   1      -4.615  -1.172  -0.092  0.00  0.00     0.210 HD
ENDBRANCH   4  21
TORSDOF 11
