MODEL 1
REMARK VINA RESULT:      -5.6      0.000      0.000
REMARK  11 active torsions:
REMARK  status: ('A' for Active; 'I' for Inactive)
REMARK    1  A    between atoms: C_1  and  O_2 
REMARK    2  A    between atoms: O_2  and  C_13 
REMARK    3  A    between atoms: C_3  and  O_4 
REMARK    4  A    between atoms: C_5  and  O_6 
REMARK    5  A    between atoms: C_7  and  O_8 
REMARK    6  A    between atoms: C_9  and  C_11 
REMARK    7  A    between atoms: C_11  and  O_12 
REMARK    8  A    between atoms: C_13  and  C_14 
REMARK    9  A    between atoms: C_14  and  C_15 
REMARK   10  A    between atoms: C_15  and  C_16 
REMARK   11  A    between atoms: C_16  and  C_17 
ROOT
HETATM    1  C   UNK N   1      22.350  19.370   3.856  0.00  0.00     0.291 C 
HETATM    2  C   UNK N   1      22.000  20.194   2.588  0.00  0.00     0.204 C 
HETATM    3  C   UNK N   1      20.480  20.179   2.406  0.00  0.00     0.183 C 
HETATM    4  C   UNK N   1      19.982  18.729   2.378  0.00  0.00     0.180 C 
HETATM    5  C   UNK N   1      20.467  18.007   3.655  0.00  0.00     0.179 C 
HETATM    6  O   UNK N   1      21.887  18.031   3.731  0.00  0.00    -0.348 OA
ENDROOT
BRANCH   1   7
HETATM    7  O   UNK N   1      23.725  19.389   4.199  0.00  0.00    -0.359 OA
BRANCH   7   8
HETATM    8  C   UNK N   1      24.325  18.137   3.979  0.00  0.00     0.171 C 
BRANCH   8   9
HETATM    9  C   UNK N   1      25.759  18.346   3.510  0.00  0.00     0.026 C 
BRANCH   9  10
HETATM   10  C   UNK N   1      26.120  19.821   3.532  0.00  0.00     0.002 C 
BRANCH  10  11
HETATM   11  C   UNK N   1      27.473  20.034   4.189  0.00  0.00    -0.000 C 
BRANCH  11  12
HETATM   12  C   UNK N   1      27.334  20.092   5.698  0.00  0.00    -0.005 C 
HETATM   13  C   UNK N   1      26.763  21.433   6.117  0.00  0.00     0.005 C 
ENDBRANCH  11  12
ENDBRANCH  10  11
ENDBRANCH   9  10
ENDBRANCH   8   9
ENDBRANCH   7   8
ENDBRANCH   1   7
BRANCH   2  14
HETATM   14  O   UNK N   1      22.442  21.511   2.727  0.00  0.00    -0.388 OA
HETATM   15  H   UNK N   1      23.252  21.927   2.393  0.00  0.00     0.210 HD
ENDBRANCH   2  14
BRANCH   3  16
HETATM   16  O   UNK N   1      20.128  20.835   1.223  0.00  0.00    -0.390 OA
HETATM   17  H   UNK N   1      20.707  21.453   0.750  0.00  0.00     0.210 HD
ENDBRANCH   3  16
BRANCH   5  18
HETATM   18  C   UNK N   1      19.994  16.558   3.631  0.00  0.00     0.198 C 
BRANCH  18  19
HETATM   19  O   UNK N   1      18.762  16.438   4.276  0.00  0.00    -0.398 OA
HETATM   20  H   UNK N   1      18.611  15.901   5.069  0.00  0.00     0.209 HD
ENDBRANCH  18  19
ENDBRANCH   5  18
BRANCH   4  21
HETATM   21  O   UNK N   1      18.585  18.715   2.312  0.00  0.00    -0.390 OA
HETATM   22  H   UNK N   1      18.106  17.999   1.865  0.00  0.00     0.210 HD
ENDBRANCH   4  21
TORSDOF 11
ENDMDL
MODEL 2
REMARK VINA RESULT:      -5.4      1.391      2.103
REMARK  11 active torsions:
REMARK  status: ('A' for Active; 'I' for Inactive)
REMARK    1  A    between atoms: C_1  and  O_2 
REMARK    2  A    between atoms: O_2  and  C_13 
REMARK    3  A    between atoms: C_3  and  O_4 
REMARK    4  A    between atoms: C_5  and  O_6 
REMARK    5  A    between atoms: C_7  and  O_8 
REMARK    6  A    between atoms: C_9  and  C_11 
REMARK    7  A    between atoms: C_11  and  O_12 
REMARK    8  A    between atoms: C_13  and  C_14 
REMARK    9  A    between atoms: C_14  and  C_15 
REMARK   10  A    between atoms: C_15  and  C_16 
REMARK   11  A    between atoms: C_16  and  C_17 
ROOT
HETATM    1  C   UNK N   1      21.579  19.791   3.352  0.00  0.00     0.291 C 
HETATM    2  C   UNK N   1      20.809  19.223   2.129  0.00  0.00     0.204 C 
HETATM    3  C   UNK N   1      19.586  18.456   2.640  0.00  0.00     0.183 C 
HETATM    4  C   UNK N   1      20.034  17.398   3.656  0.00  0.00     0.180 C 
HETATM    5  C   UNK N   1      20.853  18.085   4.770  0.00  0.00     0.179 C 
HETATM    6  O   UNK N   1      21.989  18.741   4.220  0.00  0.00    -0.348 OA
ENDROOT
BRANCH   1   7
HETATM    7  O   UNK N   1      22.682  20.613   3.013  0.00  0.00    -0.359 OA
BRANCH   7   8
HETATM    8  C   UNK N   1      23.895  20.041   3.432  0.00  0.00     0.171 C 
BRANCH   8   9
HETATM    9  C   UNK N   1      25.028  20.589   2.573  0.00  0.00     0.026 C 
BRANCH   9  10
HETATM   10  C   UNK N   1      26.367  20.386   3.261  0.00  0.00     0.002 C 
BRANCH  10  11
HETATM   11  C   UNK N   1      26.181  20.195   4.756  0.00  0.00    -0.000 C 
BRANCH  11  12
HETATM   12  C   UNK N   1      27.052  21.163   5.533  0.00  0.00    -0.005 C 
HETATM   13  C   UNK N   1      26.451  21.425   6.899  0.00  0.00     0.005 C 
ENDBRANCH  11  12
ENDBRANCH  10  11
ENDBRANCH   9  10
ENDBRANCH   8   9
ENDBRANCH   7   8
ENDBRANCH   1   7
BRANCH   2  14
HETATM   14  O   UNK N   1      20.394  20.262   1.293  0.00  0.00    -0.388 OA
HETATM   15  H   UNK N   1      19.875  20.222   0.474  0.00  0.00     0.210 HD
ENDBRANCH   2  14
BRANCH   3  16
HETATM   16  O   UNK N   1      18.914  17.852   1.574  0.00  0.00    -0.390 OA
HETATM   17  H   UNK N   1      18.012  18.080   1.300  0.00  0.00     0.210 HD
ENDBRANCH   3  16
BRANCH   5  18
HETATM   18  C   UNK N   1      21.320  17.040   5.777  0.00  0.00     0.198 C 
BRANCH  18  19
HETATM   19  O   UNK N   1      21.251  17.550   7.074  0.00  0.00    -0.398 OA
HETATM   20  H   UNK N   1      20.724  17.157   7.787  0.00  0.00     0.209 HD
ENDBRANCH  18  19
ENDBRANCH   5  18
BRANCH   4  21
HETATM   21  O   UNK N   1      18.911  16.764   4.197  0.00  0.00    -0.390 OA
HETATM   22  H   UNK N   1      18.564  15.940   3.822  0.00  0.00     0.210 HD
ENDBRANCH   4  21
TORSDOF 11
ENDMDL
MODEL 3
REMARK VINA RESULT:      -5.4      1.080      2.901
REMARK  11 active torsions:
REMARK  status: ('A' for Active; 'I' for Inactive)
REMARK    1  A    between atoms: C_1  and  O_2 
REMARK    2  A    between atoms: O_2  and  C_13 
REMARK    3  A    between atoms: C_3  and  O_4 
REMARK    4  A    between atoms: C_5  and  O_6 
REMARK    5  A    between atoms: C_7  and  O_8 
REMARK    6  A    between atoms: C_9  and  C_11 
REMARK    7  A    between atoms: C_11  and  O_12 
REMARK    8  A    between atoms: C_13  and  C_14 
REMARK    9  A    between atoms: C_14  and  C_15 
REMARK   10  A    between atoms: C_15  and  C_16 
REMARK   11  A    between atoms: C_16  and  C_17 
ROOT
HETATM    1  C   UNK N   1      22.286  18.258   3.952  0.00  0.00     0.291 C 
HETATM    2  C   UNK N   1      21.080  17.582   4.657  0.00  0.00     0.204 C 
HETATM    3  C   UNK N   1      20.021  17.258   3.600  0.00  0.00     0.183 C 
HETATM    4  C   UNK N   1      19.669  18.531   2.821  0.00  0.00     0.180 C 
HETATM    5  C   UNK N   1      20.965  19.140   2.243  0.00  0.00     0.179 C 
HETATM    6  O   UNK N   1      21.880  19.449   3.288  0.00  0.00    -0.348 OA
ENDROOT
BRANCH   1   7
HETATM    7  O   UNK N   1      23.387  18.519   4.806  0.00  0.00    -0.359 OA
BRANCH   7   8
HETATM    8  C   UNK N   1      24.385  19.254   4.145  0.00  0.00     0.171 C 
BRANCH   8   9
HETATM    9  C   UNK N   1      25.473  18.300   3.667  0.00  0.00     0.026 C 
BRANCH   9  10
HETATM   10  C   UNK N   1      26.805  18.641   4.312  0.00  0.00     0.002 C 
BRANCH  10  11
HETATM   11  C   UNK N   1      27.107  20.123   4.172  0.00  0.00    -0.000 C 
BRANCH  11  12
HETATM   12  C   UNK N   1      27.714  20.669   5.450  0.00  0.00    -0.005 C 
HETATM   13  C   UNK N   1      26.624  21.201   6.358  0.00  0.00     0.005 C 
ENDBRANCH  11  12
ENDBRANCH  10  11
ENDBRANCH   9  10
ENDBRANCH   8   9
ENDBRANCH   7   8
ENDBRANCH   1   7
BRANCH   2  14
HETATM   14  O   UNK N   1      21.485  16.406   5.291  0.00  0.00    -0.388 OA
HETATM   15  H   UNK N   1      22.320  16.207   5.743  0.00  0.00     0.210 HD
ENDBRANCH   2  14
BRANCH   3  16
HETATM   16  O   UNK N   1      18.878  16.730   4.207  0.00  0.00    -0.390 OA
HETATM   17  H   UNK N   1      18.880  15.953   4.788  0.00  0.00     0.210 HD
ENDBRANCH   3  16
BRANCH   5  18
HETATM   18  C   UNK N   1      20.631  20.418   1.481  0.00  0.00     0.198 C 
BRANCH  18  19
HETATM   19  O   UNK N   1      20.621  20.175   0.106  0.00  0.00    -0.398 OA
HETATM   20  H   UNK N   1      20.537  20.866  -0.569  0.00  0.00     0.209 HD
ENDBRANCH  18  19
ENDBRANCH   5  18
BRANCH   4  21
HETATM   21  O   UNK N   1      18.777  18.218   1.791  0.00  0.00    -0.390 OA
HETATM   22  H   UNK N   1      18.790  17.352   1.355  0.00  0.00     0.210 HD
ENDBRANCH   4  21
TORSDOF 11
ENDMDL
MODEL 4
REMARK VINA RESULT:      -5.3     10.085     12.675
REMARK  11 active torsions:
REMARK  status: ('A' for Active; 'I' for Inactive)
REMARK    1  A    between atoms: C_1  and  O_2 
REMARK    2  A    between atoms: O_2  and  C_13 
REMARK    3  A    between atoms: C_3  and  O_4 
REMARK    4  A    between atoms: C_5  and  O_6 
REMARK    5  A    between atoms: C_7  and  O_8 
REMARK    6  A    between atoms: C_9  and  C_11 
REMARK    7  A    between atoms: C_11  and  O_12 
REMARK    8  A    between atoms: C_13  and  C_14 
REMARK    9  A    between atoms: C_14  and  C_15 
REMARK   10  A    between atoms: C_15  and  C_16 
REMARK   11  A    between atoms: C_16  and  C_17 
ROOT
HETATM    1  C   UNK N   1      33.858  15.746   6.990  0.00  0.00     0.291 C 
HETATM    2  C   UNK N   1      33.784  17.290   7.124  0.00  0.00     0.204 C 
HETATM    3  C   UNK N   1      34.813  17.737   8.167  0.00  0.00     0.183 C 
HETATM    4  C   UNK N   1      34.577  16.973   9.476  0.00  0.00     0.180 C 
HETATM    5  C   UNK N   1      34.598  15.457   9.185  0.00  0.00     0.179 C 
HETATM    6  O   UNK N   1      33.591  15.118   8.239  0.00  0.00    -0.348 OA
ENDROOT
BRANCH   1   7
HETATM    7  O   UNK N   1      33.024  15.210   5.978  0.00  0.00    -0.359 OA
BRANCH   7   8
HETATM    8  C   UNK N   1      31.833  14.693   6.516  0.00  0.00     0.171 C 
BRANCH   8   9
HETATM    9  C   UNK N   1      30.656  15.185   5.685  0.00  0.00     0.026 C 
BRANCH   9  10
HETATM   10  C   UNK N   1      30.368  16.647   5.978  0.00  0.00     0.002 C 
BRANCH  10  11
HETATM   11  C   UNK N   1      30.569  17.496   4.734  0.00  0.00    -0.000 C 
BRANCH  11  12
HETATM   12  C   UNK N   1      30.901  16.624   3.538  0.00  0.00    -0.005 C 
HETATM   13  C   UNK N   1      32.259  17.001   2.981  0.00  0.00     0.005 C 
ENDBRANCH  11  12
ENDBRANCH  10  11
ENDBRANCH   9  10
ENDBRANCH   8   9
ENDBRANCH   7   8
ENDBRANCH   1   7
BRANCH   2  14
HETATM   14  O   UNK N   1      34.066  17.898   5.899  0.00  0.00    -0.388 OA
HETATM   15  H   UNK N   1      34.094  17.508   5.011  0.00  0.00     0.210 HD
ENDBRANCH   2  14
BRANCH   3  16
HETATM   16  O   UNK N   1      34.715  19.114   8.384  0.00  0.00    -0.390 OA
HETATM   17  H   UNK N   1      34.976  19.555   9.207  0.00  0.00     0.210 HD
ENDBRANCH   3  16
BRANCH   5  18
HETATM   18  C   UNK N   1      34.347  14.687  10.476  0.00  0.00     0.198 C 
BRANCH  18  19
HETATM   19  O   UNK N   1      33.215  15.184  11.125  0.00  0.00    -0.398 OA
HETATM   20  H   UNK N   1      33.085  16.116  11.359  0.00  0.00     0.209 HD
ENDBRANCH  18  19
ENDBRANCH   5  18
BRANCH   4  21
HETATM   21  O   UNK N   1      35.576  17.306  10.397  0.00  0.00    -0.390 OA
HETATM   22  H   UNK N   1      35.527  17.021  11.323  0.00  0.00     0.210 HD
ENDBRANCH   4  21
TORSDOF 11
ENDMDL
MODEL 5
REMARK VINA RESULT:      -5.3      3.280      6.008
REMARK  11 active torsions:
REMARK  status: ('A' for Active; 'I' for Inactive)
REMARK    1  A    between atoms: C_1  and  O_2 
REMARK    2  A    between atoms: O_2  and  C_13 
REMARK    3  A    between atoms: C_3  and  O_4 
REMARK    4  A    between atoms: C_5  and  O_6 
REMARK    5  A    between atoms: C_7  and  O_8 
REMARK    6  A    between atoms: C_9  and  C_11 
REMARK    7  A    between atoms: C_11  and  O_12 
REMARK    8  A    between atoms: C_13  and  C_14 
REMARK    9  A    between atoms: C_14  and  C_15 
REMARK   10  A    between atoms: C_15  and  C_16 
REMARK   11  A    between atoms: C_16  and  C_17 
ROOT
HETATM    1  C   UNK N   1      21.200  17.578   4.273  0.00  0.00     0.291 C 
HETATM    2  C   UNK N   1      19.692  17.803   3.986  0.00  0.00     0.204 C 
HETATM    3  C   UNK N   1      19.549  18.397   2.582  0.00  0.00     0.183 C 
HETATM    4  C   UNK N   1      20.412  19.660   2.472  0.00  0.00     0.180 C 
HETATM    5  C   UNK N   1      21.865  19.311   2.859  0.00  0.00     0.179 C 
HETATM    6  O   UNK N   1      21.918  18.803   4.187  0.00  0.00    -0.348 OA
ENDROOT
BRANCH   1   7
HETATM    7  O   UNK N   1      21.467  16.933   5.507  0.00  0.00    -0.359 OA
BRANCH   7   8
HETATM    8  C   UNK N   1      21.044  17.716   6.595  0.00  0.00     0.171 C 
BRANCH   8   9
HETATM    9  C   UNK N   1      20.580  16.798   7.719  0.00  0.00     0.026 C 
BRANCH   9  10
HETATM   10  C   UNK N   1      19.653  17.538   8.666  0.00  0.00     0.002 C 
BRANCH  10  11
HETATM   11  C   UNK N   1      18.535  16.629   9.146  0.00  0.00    -0.000 C 
BRANCH  11  12
HETATM   12  C   UNK N   1      17.275  17.427   9.423  0.00  0.00    -0.005 C 
HETATM   13  C   UNK N   1      17.510  18.389  10.570  0.00  0.00     0.005 C 
ENDBRANCH  11  12
ENDBRANCH  10  11
ENDBRANCH   9  10
ENDBRANCH   8   9
ENDBRANCH   7   8
ENDBRANCH   1   7
BRANCH   2  14
HETATM   14  O   UNK N   1      18.999  16.592   4.055  0.00  0.00    -0.388 OA
HETATM   15  H   UNK N   1      18.283  16.327   4.654  0.00  0.00     0.210 HD
ENDBRANCH   2  14
BRANCH   3  16
HETATM   16  O   UNK N   1      18.210  18.699   2.319  0.00  0.00    -0.390 OA
HETATM   17  H   UNK N   1      17.911  19.514   1.887  0.00  0.00     0.210 HD
ENDBRANCH   3  16
BRANCH   5  18
HETATM   18  C   UNK N   1      22.730  20.563   2.771  0.00  0.00     0.198 C 
BRANCH  18  19
HETATM   19  O   UNK N   1      21.940  21.708   2.883  0.00  0.00    -0.398 OA
HETATM   20  H   UNK N   1      21.295  21.859   3.592  0.00  0.00     0.209 HD
ENDBRANCH  18  19
ENDBRANCH   5  18
BRANCH   4  21
HETATM   21  O   UNK N   1      20.361  20.147   1.162  0.00  0.00    -0.390 OA
HETATM   22  H   UNK N   1      21.106  20.631   0.772  0.00  0.00     0.210 HD
ENDBRANCH   4  21
TORSDOF 11
ENDMDL
MODEL 6
REMARK VINA RESULT:      -5.3      6.888      9.377
REMARK  11 active torsions:
REMARK  status: ('A' for Active; 'I' for Inactive)
REMARK    1  A    between atoms: C_1  and  O_2 
REMARK    2  A    between atoms: O_2  and  C_13 
REMARK    3  A    between atoms: C_3  and  O_4 
REMARK    4  A    between atoms: C_5  and  O_6 
REMARK    5  A    between atoms: C_7  and  O_8 
REMARK    6  A    between atoms: C_9  and  C_11 
REMARK    7  A    between atoms: C_11  and  O_12 
REMARK    8  A    between atoms: C_13  and  C_14 
REMARK    9  A    between atoms: C_14  and  C_15 
REMARK   10  A    between atoms: C_15  and  C_16 
REMARK   11  A    between atoms: C_16  and  C_17 
ROOT
HETATM    1  C   UNK N   1      30.618  16.886   7.974  0.00  0.00     0.291 C 
HETATM    2  C   UNK N   1      29.720  17.699   8.944  0.00  0.00     0.204 C 
HETATM    3  C   UNK N   1      28.265  17.557   8.492  0.00  0.00     0.183 C 
HETATM    4  C   UNK N   1      28.145  17.969   7.020  0.00  0.00     0.180 C 
HETATM    5  C   UNK N   1      29.144  17.142   6.183  0.00  0.00     0.179 C 
HETATM    6  O   UNK N   1      30.474  17.358   6.639  0.00  0.00    -0.348 OA
ENDROOT
BRANCH   1   7
HETATM    7  O   UNK N   1      31.986  16.850   8.341  0.00  0.00    -0.359 OA
BRANCH   7   8
HETATM    8  C   UNK N   1      32.590  18.110   8.193  0.00  0.00     0.171 C 
BRANCH   8   9
HETATM    9  C   UNK N   1      34.001  17.926   7.647  0.00  0.00     0.026 C 
BRANCH   9  10
HETATM   10  C   UNK N   1      34.014  16.891   6.537  0.00  0.00     0.002 C 
BRANCH  10  11
HETATM   11  C   UNK N   1      33.535  17.497   5.229  0.00  0.00    -0.000 C 
BRANCH  11  12
HETATM   12  C   UNK N   1      32.979  16.424   4.312  0.00  0.00    -0.005 C 
HETATM   13  C   UNK N   1      32.343  17.061   3.093  0.00  0.00     0.005 C 
ENDBRANCH  11  12
ENDBRANCH  10  11
ENDBRANCH   9  10
ENDBRANCH   8   9
ENDBRANCH   7   8
ENDBRANCH   1   7
BRANCH   2  14
HETATM   14  O   UNK N   1      29.854  17.217  10.248  0.00  0.00    -0.388 OA
HETATM   15  H   UNK N   1      30.061  16.320  10.554  0.00  0.00     0.210 HD
ENDBRANCH   2  14
BRANCH   3  16
HETATM   16  O   UNK N   1      27.432  18.349   9.287  0.00  0.00    -0.390 OA
HETATM   17  H   UNK N   1      27.442  19.318   9.289  0.00  0.00     0.210 HD
ENDBRANCH   3  16
BRANCH   5  18
HETATM   18  C   UNK N   1      29.047  17.556   4.719  0.00  0.00     0.198 C 
BRANCH  18  19
HETATM   19  O   UNK N   1      28.790  18.924   4.617  0.00  0.00    -0.398 OA
HETATM   20  H   UNK N   1      28.411  19.351   3.833  0.00  0.00     0.209 HD
ENDBRANCH  18  19
ENDBRANCH   5  18
BRANCH   4  21
HETATM   21  O   UNK N   1      26.837  17.746   6.577  0.00  0.00    -0.390 OA
HETATM   22  H   UNK N   1      26.434  18.296   5.887  0.00  0.00     0.210 HD
ENDBRANCH   4  21
TORSDOF 11
ENDMDL
MODEL 7
REMARK VINA RESULT:      -5.2      9.046     12.431
REMARK  11 active torsions:
REMARK  status: ('A' for Active; 'I' for Inactive)
REMARK    1  A    between atoms: C_1  and  O_2 
REMARK    2  A    between atoms: O_2  and  C_13 
REMARK    3  A    between atoms: C_3  and  O_4 
REMARK    4  A    between atoms: C_5  and  O_6 
REMARK    5  A    between atoms: C_7  and  O_8 
REMARK    6  A    between atoms: C_9  and  C_11 
REMARK    7  A    between atoms: C_11  and  O_12 
REMARK    8  A    between atoms: C_13  and  C_14 
REMARK    9  A    between atoms: C_14  and  C_15 
REMARK   10  A    between atoms: C_15  and  C_16 
REMARK   11  A    between atoms: C_16  and  C_17 
ROOT
HETATM    1  C   UNK N   1      33.709  15.818   7.168  0.00  0.00     0.291 C 
HETATM    2  C   UNK N   1      33.777  17.368   7.211  0.00  0.00     0.204 C 
HETATM    3  C   UNK N   1      34.857  17.778   8.215  0.00  0.00     0.183 C 
HETATM    4  C   UNK N   1      34.574  17.116   9.569  0.00  0.00     0.180 C 
HETATM    5  C   UNK N   1      34.453  15.590   9.368  0.00  0.00     0.179 C 
HETATM    6  O   UNK N   1      33.405  15.291   8.453  0.00  0.00    -0.348 OA
ENDROOT
BRANCH   1   7
HETATM    7  O   UNK N   1      32.814  15.303   6.197  0.00  0.00    -0.359 OA
BRANCH   7   8
HETATM    8  C   UNK N   1      31.504  15.224   6.699  0.00  0.00     0.171 C 
BRANCH   8   9
HETATM    9  C   UNK N   1      30.612  16.181   5.917  0.00  0.00     0.026 C 
BRANCH   9  10
HETATM   10  C   UNK N   1      29.846  17.090   6.862  0.00  0.00     0.002 C 
BRANCH  10  11
HETATM   11  C   UNK N   1      28.352  17.001   6.602  0.00  0.00    -0.000 C 
BRANCH  11  12
HETATM   12  C   UNK N   1      27.763  18.380   6.380  0.00  0.00    -0.005 C 
HETATM   13  C   UNK N   1      28.106  19.287   7.545  0.00  0.00     0.005 C 
ENDBRANCH  11  12
ENDBRANCH  10  11
ENDBRANCH   9  10
ENDBRANCH   8   9
ENDBRANCH   7   8
ENDBRANCH   1   7
BRANCH   2  14
HETATM   14  O   UNK N   1      34.093  17.876   5.949  0.00  0.00    -0.388 OA
HETATM   15  H   UNK N   1      34.384  17.405   5.153  0.00  0.00     0.210 HD
ENDBRANCH   2  14
BRANCH   3  16
HETATM   16  O   UNK N   1      34.888  19.168   8.351  0.00  0.00    -0.390 OA
HETATM   17  H   UNK N   1      34.130  19.749   8.181  0.00  0.00     0.210 HD
ENDBRANCH   3  16
BRANCH   5  18
HETATM   18  C   UNK N   1      34.152  14.922  10.705  0.00  0.00     0.198 C 
BRANCH  18  19
HETATM   19  O   UNK N   1      32.790  15.008  10.995  0.00  0.00    -0.398 OA
HETATM   20  H   UNK N   1      32.104  15.213  10.341  0.00  0.00     0.209 HD
ENDBRANCH  18  19
ENDBRANCH   5  18
BRANCH   4  21
HETATM   21  O   UNK N   1      35.612  17.409  10.459  0.00  0.00    -0.390 OA
HETATM   22  H   UNK N   1      36.055  18.272  10.456  0.00  0.00     0.210 HD
ENDBRANCH   4  21
TORSDOF 11
ENDMDL
MODEL 8
REMARK VINA RESULT:      -5.2     11.451     15.237
REMARK  11 active torsions:
REMARK  status: ('A' for Active; 'I' for Inactive)
REMARK    1  A    between atoms: C_1  and  O_2 
REMARK    2  A    between atoms: O_2  and  C_13 
REMARK    3  A    between atoms: C_3  and  O_4 
REMARK    4  A    between atoms: C_5  and  O_6 
REMARK    5  A    between atoms: C_7  and  O_8 
REMARK    6  A    between atoms: C_9  and  C_11 
REMARK    7  A    between atoms: C_11  and  O_12 
REMARK    8  A    between atoms: C_13  and  C_14 
REMARK    9  A    between atoms: C_14  and  C_15 
REMARK   10  A    between atoms: C_15  and  C_16 
REMARK   11  A    between atoms: C_16  and  C_17 
ROOT
HETATM    1  C   UNK N   1      35.018  15.334   9.618  0.00  0.00     0.291 C 
HETATM    2  C   UNK N   1      34.197  14.451  10.595  0.00  0.00     0.204 C 
HETATM    3  C   UNK N   1      35.102  14.053  11.764  0.00  0.00     0.183 C 
HETATM    4  C   UNK N   1      36.373  13.388  11.223  0.00  0.00     0.180 C 
HETATM    5  C   UNK N   1      37.045  14.338  10.208  0.00  0.00     0.179 C 
HETATM    6  O   UNK N   1      36.156  14.629   9.135  0.00  0.00    -0.348 OA
ENDROOT
BRANCH   1   7
HETATM    7  O   UNK N   1      34.266  15.859   8.537  0.00  0.00    -0.359 OA
BRANCH   7   8
HETATM    8  C   UNK N   1      34.484  17.239   8.384  0.00  0.00     0.171 C 
BRANCH   8   9
HETATM    9  C   UNK N   1      33.142  17.940   8.219  0.00  0.00     0.026 C 
BRANCH   9  10
HETATM   10  C   UNK N   1      32.173  17.065   7.443  0.00  0.00     0.002 C 
BRANCH  10  11
HETATM   11  C   UNK N   1      30.750  17.274   7.931  0.00  0.00    -0.000 C 
BRANCH  11  12
HETATM   12  C   UNK N   1      30.675  18.455   8.879  0.00  0.00    -0.005 C 
HETATM   13  C   UNK N   1      29.438  18.349   9.748  0.00  0.00     0.005 C 
ENDBRANCH  11  12
ENDBRANCH  10  11
ENDBRANCH   9  10
ENDBRANCH   8   9
ENDBRANCH   7   8
ENDBRANCH   1   7
BRANCH   2  14
HETATM   14  O   UNK N   1      33.094  15.158  11.077  0.00  0.00    -0.388 OA
HETATM   15  H   UNK N   1      32.787  15.271  11.991  0.00  0.00     0.210 HD
ENDBRANCH   2  14
BRANCH   3  16
HETATM   16  O   UNK N   1      34.426  13.181  12.623  0.00  0.00    -0.390 OA
HETATM   17  H   UNK N   1      34.082  13.433  13.494  0.00  0.00     0.210 HD
ENDBRANCH   3  16
BRANCH   5  18
HETATM   18  C   UNK N   1      38.301  13.680   9.648  0.00  0.00     0.198 C 
BRANCH  18  19
HETATM   19  O   UNK N   1      39.298  13.629  10.623  0.00  0.00    -0.398 OA
HETATM   20  H   UNK N   1      39.788  12.827  10.861  0.00  0.00     0.209 HD
ENDBRANCH  18  19
ENDBRANCH   5  18
BRANCH   4  21
HETATM   21  O   UNK N   1      37.244  13.113  12.282  0.00  0.00    -0.390 OA
HETATM   22  H   UNK N   1      38.085  13.587  12.383  0.00  0.00     0.210 HD
ENDBRANCH   4  21
TORSDOF 11
ENDMDL
MODEL 9
REMARK VINA RESULT:      -5.2      6.971      9.457
REMARK  11 active torsions:
REMARK  status: ('A' for Active; 'I' for Inactive)
REMARK    1  A    between atoms: C_1  and  O_2 
REMARK    2  A    between atoms: O_2  and  C_13 
REMARK    3  A    between atoms: C_3  and  O_4 
REMARK    4  A    between atoms: C_5  and  O_6 
REMARK    5  A    between atoms: C_7  and  O_8 
REMARK    6  A    between atoms: C_9  and  C_11 
REMARK    7  A    between atoms: C_11  and  O_12 
REMARK    8  A    between atoms: C_13  and  C_14 
REMARK    9  A    between atoms: C_14  and  C_15 
REMARK   10  A    between atoms: C_15  and  C_16 
REMARK   11  A    between atoms: C_16  and  C_17 
ROOT
HETATM    1  C   UNK N   1      29.275  17.541   6.164  0.00  0.00     0.291 C 
HETATM    2  C   UNK N   1      28.028  17.670   7.079  0.00  0.00     0.204 C 
HETATM    3  C   UNK N   1      28.468  18.278   8.414  0.00  0.00     0.183 C 
HETATM    4  C   UNK N   1      29.607  17.439   9.006  0.00  0.00     0.180 C 
HETATM    5  C   UNK N   1      30.742  17.326   7.966  0.00  0.00     0.179 C 
HETATM    6  O   UNK N   1      30.264  16.718   6.772  0.00  0.00    -0.348 OA
ENDROOT
BRANCH   1   7
HETATM    7  O   UNK N   1      28.989  17.084   4.853  0.00  0.00    -0.359 OA
BRANCH   7   8
HETATM    8  C   UNK N   1      29.845  16.035   4.478  0.00  0.00     0.171 C 
BRANCH   8   9
HETATM    9  C   UNK N   1      30.521  16.390   3.159  0.00  0.00     0.026 C 
BRANCH   9  10
HETATM   10  C   UNK N   1      32.025  16.491   3.340  0.00  0.00     0.002 C 
BRANCH  10  11
HETATM   11  C   UNK N   1      32.395  17.767   4.077  0.00  0.00    -0.000 C 
BRANCH  11  12
HETATM   12  C   UNK N   1      33.343  17.470   5.222  0.00  0.00    -0.005 C 
HETATM   13  C   UNK N   1      33.670  15.991   5.257  0.00  0.00     0.005 C 
ENDBRANCH  11  12
ENDBRANCH  10  11
ENDBRANCH   9  10
ENDBRANCH   8   9
ENDBRANCH   7   8
ENDBRANCH   1   7
BRANCH   2  14
HETATM   14  O   UNK N   1      27.072  18.494   6.482  0.00  0.00    -0.388 OA
HETATM   15  H   UNK N   1      27.019  19.463   6.466  0.00  0.00     0.210 HD
ENDBRANCH   2  14
BRANCH   3  16
HETATM   16  O   UNK N   1      27.389  18.328   9.301  0.00  0.00    -0.390 OA
HETATM   17  H   UNK N   1      26.783  19.081   9.378  0.00  0.00     0.210 HD
ENDBRANCH   3  16
BRANCH   5  18
HETATM   18  C   UNK N   1      31.873  16.477   8.537  0.00  0.00     0.198 C 
BRANCH  18  19
HETATM   19  O   UNK N   1      32.840  17.292   9.128  0.00  0.00    -0.398 OA
HETATM   20  H   UNK N   1      33.113  18.156   8.781  0.00  0.00     0.209 HD
ENDBRANCH  18  19
ENDBRANCH   5  18
BRANCH   4  21
HETATM   21  O   UNK N   1      30.076  18.047  10.175  0.00  0.00    -0.390 OA
HETATM   22  H   UNK N   1      29.892  18.979  10.371  0.00  0.00     0.210 HD
ENDBRANCH   4  21
TORSDOF 11
ENDMDL
