MODEL 1
REMARK VINA RESULT:      -7.4      0.000      0.000
REMARK  6 active torsions:
REMARK  status: ('A' for Active; 'I' for Inactive)
REMARK    1  A    between atoms: N_2  and  C_4 
REMARK    2  A    between atoms: C_4  and  C_5 
REMARK    3  A    between atoms: C_5  and  C_6 
REMARK    4  A    between atoms: C_6  and  N_7 
REMARK    5  A    between atoms: C_15  and  C_16 
REMARK    6  A    between atoms: C_22  and  C_23 
ROOT
HETATM    1  C   UNK N   1      32.059  16.547   5.949  0.00  0.00     0.061 A 
HETATM    2  C   UNK N   1      32.534  17.096   4.660  0.00  0.00     0.260 A 
HETATM    3  O   UNK N   1      31.870  17.709   3.841  0.00  0.00    -0.267 OA
HETATM    4  N   UNK N   1      33.825  16.798   4.461  0.00  0.00    -0.289 N 
HETATM    5  C   UNK N   1      34.239  16.097   5.526  0.00  0.00     0.260 A 
HETATM    6  O   UNK N   1      35.387  15.704   5.644  0.00  0.00    -0.267 OA
HETATM    7  C   UNK N   1      33.141  15.922   6.504  0.00  0.00     0.061 A 
HETATM    8  H   UNK N   1      34.369  17.048   3.679  0.00  0.00     0.172 HD
ENDROOT
BRANCH   1   9
HETATM    9  C   UNK N   1      30.650  16.641   6.461  0.00  0.00     0.009 A 
HETATM   10  C   UNK N   1      29.532  16.090   5.841  0.00  0.00     0.104 A 
HETATM   11  N   UNK N   1      28.426  16.390   6.547  0.00  0.00    -0.355 N 
HETATM   12  C   UNK N   1      28.805  17.128   7.598  0.00  0.00     0.045 A 
HETATM   13  C   UNK N   1      27.988  17.658   8.595  0.00  0.00     0.030 A 
HETATM   14  C   UNK N   1      30.163  17.312   7.584  0.00  0.00     0.003 A 
HETATM   15  C   UNK N   1      28.600  18.400   9.616  0.00  0.00     0.002 A 
HETATM   16  C   UNK N   1      29.998  18.594   9.613  0.00  0.00     0.001 A 
HETATM   17  C   UNK N   1      30.793  18.045   8.589  0.00  0.00     0.014 A 
BRANCH  11  18
HETATM   18  C   UNK N   1      27.072  15.996   6.206  0.00  0.00     0.130 C 
BRANCH  18  19
HETATM   19  C   UNK N   1      26.736  16.429   4.792  0.00  0.00     0.050 C 
BRANCH  19  20
HETATM   20  C   UNK N   1      25.820  17.642   4.856  0.00  0.00     0.273 C 
BRANCH  20  21
HETATM   21  N   UNK N   1      26.570  18.871   5.100  0.00  0.00     0.080 N 
HETATM   22  C   UNK N   1      25.654  19.970   4.867  0.00  0.00     0.309 C 
HETATM   23  C   UNK N   1      27.623  19.005   4.103  0.00  0.00     0.309 C 
ENDBRANCH  20  21
ENDBRANCH  19  20
ENDBRANCH  18  19
ENDBRANCH  11  18
ENDBRANCH   1   9
BRANCH   7  24
HETATM   24  C   UNK N   1      33.264  15.228   7.837  0.00  0.00     0.009 A 
HETATM   25  C   UNK N   1      33.975  15.625   8.962  0.00  0.00     0.003 A 
HETATM   26  C   UNK N   1      34.801  16.720   9.213  0.00  0.00     0.014 A 
HETATM   27  C   UNK N   1      33.755  14.676   9.925  0.00  0.00     0.043 A 
HETATM   28  C   UNK N   1      35.396  16.829  10.483  0.00  0.00     0.001 A 
HETATM   29  C   UNK N   1      35.160  15.848  11.469  0.00  0.00     0.002 A 
HETATM   30  C   UNK N   1      34.328  14.751  11.191  0.00  0.00     0.030 A 
HETATM   31  N   UNK N   1      32.940  13.712   9.481  0.00  0.00    -0.364 N 
HETATM   32  C   UNK N   1      32.631  14.044   8.206  0.00  0.00     0.101 A 
HETATM   33  H   UNK N   1      32.630  12.921   9.979  0.00  0.00     0.165 HD
ENDBRANCH   7  24
TORSDOF 6
ENDMDL
MODEL 2
REMARK VINA RESULT:      -7.4      2.725      4.995
REMARK  6 active torsions:
REMARK  status: ('A' for Active; 'I' for Inactive)
REMARK    1  A    between atoms: N_2  and  C_4 
REMARK    2  A    between atoms: C_4  and  C_5 
REMARK    3  A    between atoms: C_5  and  C_6 
REMARK    4  A    between atoms: C_6  and  N_7 
REMARK    5  A    between atoms: C_15  and  C_16 
REMARK    6  A    between atoms: C_22  and  C_23 
ROOT
HETATM    1  C   UNK N   1      29.455  17.383   7.372  0.00  0.00     0.061 A 
HETATM    2  C   UNK N   1      29.330  18.213   8.589  0.00  0.00     0.260 A 
HETATM    3  O   UNK N   1      28.346  18.842   8.943  0.00  0.00    -0.267 OA
HETATM    4  N   UNK N   1      30.481  18.234   9.275  0.00  0.00    -0.289 N 
HETATM    5  C   UNK N   1      31.356  17.473   8.602  0.00  0.00     0.260 A 
HETATM    6  O   UNK N   1      32.493  17.279   8.998  0.00  0.00    -0.267 OA
HETATM    7  C   UNK N   1      30.736  16.905   7.383  0.00  0.00     0.061 A 
HETATM    8  H   UNK N   1      30.652  18.716  10.116  0.00  0.00     0.172 HD
ENDROOT
BRANCH   1   9
HETATM    9  C   UNK N   1      28.379  17.191   6.343  0.00  0.00     0.009 A 
HETATM   10  C   UNK N   1      27.782  15.974   6.023  0.00  0.00     0.104 A 
HETATM   11  N   UNK N   1      26.884  16.154   5.036  0.00  0.00    -0.355 N 
HETATM   12  C   UNK N   1      26.897  17.451   4.709  0.00  0.00     0.045 A 
HETATM   13  C   UNK N   1      26.125  18.083   3.736  0.00  0.00     0.030 A 
HETATM   14  C   UNK N   1      27.804  18.128   5.482  0.00  0.00     0.003 A 
HETATM   15  C   UNK N   1      26.295  19.465   3.561  0.00  0.00     0.002 A 
HETATM   16  C   UNK N   1      27.225  20.172   4.352  0.00  0.00     0.001 A 
HETATM   17  C   UNK N   1      27.989  19.500   5.326  0.00  0.00     0.014 A 
BRANCH  11  18
HETATM   18  C   UNK N   1      26.071  15.114   4.434  0.00  0.00     0.130 C 
BRANCH  18  19
HETATM   19  C   UNK N   1      26.933  14.185   3.602  0.00  0.00     0.050 C 
BRANCH  19  20
HETATM   20  C   UNK N   1      27.125  14.800   2.222  0.00  0.00     0.273 C 
BRANCH  20  21
HETATM   21  N   UNK N   1      28.511  14.695   1.775  0.00  0.00     0.080 N 
HETATM   22  C   UNK N   1      28.962  13.363   2.129  0.00  0.00     0.309 C 
HETATM   23  C   UNK N   1      29.341  15.617   2.538  0.00  0.00     0.309 C 
ENDBRANCH  20  21
ENDBRANCH  19  20
ENDBRANCH  18  19
ENDBRANCH  11  18
ENDBRANCH   1   9
BRANCH   7  24
HETATM   24  C   UNK N   1      31.415  15.965   6.419  0.00  0.00     0.009 A 
HETATM   25  C   UNK N   1      31.974  16.245   5.179  0.00  0.00     0.003 A 
HETATM   26  C   UNK N   1      32.060  17.417   4.430  0.00  0.00     0.014 A 
HETATM   27  C   UNK N   1      32.489  15.069   4.702  0.00  0.00     0.043 A 
HETATM   28  C   UNK N   1      32.695  17.364   3.176  0.00  0.00     0.001 A 
HETATM   29  C   UNK N   1      33.225  16.148   2.695  0.00  0.00     0.002 A 
HETATM   30  C   UNK N   1      33.122  14.978   3.466  0.00  0.00     0.030 A 
HETATM   31  N   UNK N   1      32.299  14.067   5.569  0.00  0.00    -0.364 N 
HETATM   32  C   UNK N   1      31.647  14.607   6.625  0.00  0.00     0.101 A 
HETATM   33  H   UNK N   1      32.576  13.129   5.461  0.00  0.00     0.165 HD
ENDBRANCH   7  24
TORSDOF 6
ENDMDL
MODEL 3
REMARK VINA RESULT:      -7.3      6.119     10.073
REMARK  6 active torsions:
REMARK  status: ('A' for Active; 'I' for Inactive)
REMARK    1  A    between atoms: N_2  and  C_4 
REMARK    2  A    between atoms: C_4  and  C_5 
REMARK    3  A    between atoms: C_5  and  C_6 
REMARK    4  A    between atoms: C_6  and  N_7 
REMARK    5  A    between atoms: C_15  and  C_16 
REMARK    6  A    between atoms: C_22  and  C_23 
ROOT
HETATM    1  C   UNK N   1      21.966  19.051   3.990  0.00  0.00     0.061 A 
HETATM    2  C   UNK N   1      21.225  20.064   3.209  0.00  0.00     0.260 A 
HETATM    3  O   UNK N   1      20.013  20.199   3.156  0.00  0.00    -0.267 OA
HETATM    4  N   UNK N   1      22.064  20.831   2.501  0.00  0.00    -0.289 N 
HETATM    5  C   UNK N   1      23.308  20.401   2.761  0.00  0.00     0.260 A 
HETATM    6  O   UNK N   1      24.295  20.927   2.275  0.00  0.00    -0.267 OA
HETATM    7  C   UNK N   1      23.288  19.270   3.715  0.00  0.00     0.061 A 
HETATM    8  H   UNK N   1      21.816  21.572   1.902  0.00  0.00     0.172 HD
ENDROOT
BRANCH   1   9
HETATM    9  C   UNK N   1      21.338  17.990   4.847  0.00  0.00     0.009 A 
HETATM   10  C   UNK N   1      21.340  17.976   6.239  0.00  0.00     0.104 A 
HETATM   11  N   UNK N   1      20.720  16.866   6.684  0.00  0.00    -0.355 N 
HETATM   12  C   UNK N   1      20.331  16.164   5.613  0.00  0.00     0.045 A 
HETATM   13  C   UNK N   1      19.652  14.947   5.604  0.00  0.00     0.030 A 
HETATM   14  C   UNK N   1      20.693  16.813   4.461  0.00  0.00     0.003 A 
HETATM   15  C   UNK N   1      19.333  14.385   4.359  0.00  0.00     0.002 A 
HETATM   16  C   UNK N   1      19.699  15.045   3.166  0.00  0.00     0.001 A 
HETATM   17  C   UNK N   1      20.385  16.274   3.213  0.00  0.00     0.014 A 
BRANCH  11  18
HETATM   18  C   UNK N   1      20.535  16.502   8.075  0.00  0.00     0.130 C 
BRANCH  18  19
HETATM   19  C   UNK N   1      21.412  15.317   8.433  0.00  0.00     0.050 C 
BRANCH  19  20
HETATM   20  C   UNK N   1      20.682  14.458   9.455  0.00  0.00     0.273 C 
BRANCH  20  21
HETATM   21  N   UNK N   1      21.174  13.084   9.452  0.00  0.00     0.080 N 
HETATM   22  C   UNK N   1      22.417  13.086  10.199  0.00  0.00     0.309 C 
HETATM   23  C   UNK N   1      21.521  12.693   8.093  0.00  0.00     0.309 C 
ENDBRANCH  20  21
ENDBRANCH  19  20
ENDBRANCH  18  19
ENDBRANCH  11  18
ENDBRANCH   1   9
BRANCH   7  24
HETATM   24  C   UNK N   1      24.507  18.574   4.266  0.00  0.00     0.009 A 
HETATM   25  C   UNK N   1      25.579  19.117   4.961  0.00  0.00     0.003 A 
HETATM   26  C   UNK N   1      25.893  20.424   5.332  0.00  0.00     0.014 A 
HETATM   27  C   UNK N   1      26.419  18.080   5.270  0.00  0.00     0.043 A 
HETATM   28  C   UNK N   1      27.089  20.649   6.037  0.00  0.00     0.001 A 
HETATM   29  C   UNK N   1      27.945  19.573   6.352  0.00  0.00     0.002 A 
HETATM   30  C   UNK N   1      27.610  18.265   5.964  0.00  0.00     0.030 A 
HETATM   31  N   UNK N   1      25.936  16.915   4.821  0.00  0.00    -0.364 N 
HETATM   32  C   UNK N   1      24.765  17.206   4.211  0.00  0.00     0.101 A 
HETATM   33  H   UNK N   1      26.350  16.026   4.915  0.00  0.00     0.165 HD
ENDBRANCH   7  24
TORSDOF 6
ENDMDL
MODEL 4
REMARK VINA RESULT:      -7.3      6.409     11.285
REMARK  6 active torsions:
REMARK  status: ('A' for Active; 'I' for Inactive)
REMARK    1  A    between atoms: N_2  and  C_4 
REMARK    2  A    between atoms: C_4  and  C_5 
REMARK    3  A    between atoms: C_5  and  C_6 
REMARK    4  A    between atoms: C_6  and  N_7 
REMARK    5  A    between atoms: C_15  and  C_16 
REMARK    6  A    between atoms: C_22  and  C_23 
ROOT
HETATM    1  C   UNK N   1      21.399  17.178   5.936  0.00  0.00     0.061 A 
HETATM    2  C   UNK N   1      20.759  17.593   7.203  0.00  0.00     0.260 A 
HETATM    3  O   UNK N   1      20.681  18.729   7.641  0.00  0.00    -0.267 OA
HETATM    4  N   UNK N   1      20.287  16.532   7.870  0.00  0.00    -0.289 N 
HETATM    5  C   UNK N   1      20.563  15.446   7.134  0.00  0.00     0.260 A 
HETATM    6  O   UNK N   1      20.229  14.324   7.474  0.00  0.00    -0.267 OA
HETATM    7  C   UNK N   1      21.266  15.818   5.885  0.00  0.00     0.061 A 
HETATM    8  H   UNK N   1      19.823  16.546   8.739  0.00  0.00     0.172 HD
ENDROOT
BRANCH   1   9
HETATM    9  C   UNK N   1      22.086  18.101   4.972  0.00  0.00     0.009 A 
HETATM   10  C   UNK N   1      23.444  18.408   4.983  0.00  0.00     0.104 A 
HETATM   11  N   UNK N   1      23.719  19.292   4.006  0.00  0.00    -0.355 N 
HETATM   12  C   UNK N   1      22.571  19.568   3.376  0.00  0.00     0.045 A 
HETATM   13  C   UNK N   1      22.388  20.433   2.298  0.00  0.00     0.030 A 
HETATM   14  C   UNK N   1      21.539  18.863   3.937  0.00  0.00     0.003 A 
HETATM   15  C   UNK N   1      21.090  20.569   1.783  0.00  0.00     0.002 A 
HETATM   16  C   UNK N   1      20.020  19.846   2.352  0.00  0.00     0.001 A 
HETATM   17  C   UNK N   1      20.242  18.981   3.441  0.00  0.00     0.014 A 
BRANCH  11  18
HETATM   18  C   UNK N   1      25.026  19.851   3.715  0.00  0.00     0.130 C 
BRANCH  18  19
HETATM   19  C   UNK N   1      26.108  18.816   3.953  0.00  0.00     0.050 C 
BRANCH  19  20
HETATM   20  C   UNK N   1      27.311  19.502   4.585  0.00  0.00     0.273 C 
BRANCH  20  21
HETATM   21  N   UNK N   1      27.059  19.855   5.979  0.00  0.00     0.080 N 
HETATM   22  C   UNK N   1      27.452  21.242   6.133  0.00  0.00     0.309 C 
HETATM   23  C   UNK N   1      27.942  19.088   6.844  0.00  0.00     0.309 C 
ENDBRANCH  20  21
ENDBRANCH  19  20
ENDBRANCH  18  19
ENDBRANCH  11  18
ENDBRANCH   1   9
BRANCH   7  24
HETATM   24  C   UNK N   1      21.683  14.857   4.802  0.00  0.00     0.009 A 
HETATM   25  C   UNK N   1      21.214  14.757   3.499  0.00  0.00     0.003 A 
HETATM   26  C   UNK N   1      20.226  15.449   2.801  0.00  0.00     0.014 A 
HETATM   27  C   UNK N   1      21.921  13.748   2.899  0.00  0.00     0.043 A 
HETATM   28  C   UNK N   1      19.977  15.091   1.463  0.00  0.00     0.001 A 
HETATM   29  C   UNK N   1      20.713  14.052   0.854  0.00  0.00     0.002 A 
HETATM   30  C   UNK N   1      21.701  13.366   1.579  0.00  0.00     0.030 A 
HETATM   31  N   UNK N   1      22.814  13.214   3.740  0.00  0.00    -0.364 N 
HETATM   32  C   UNK N   1      22.680  13.888   4.904  0.00  0.00     0.101 A 
HETATM   33  H   UNK N   1      23.441  12.478   3.550  0.00  0.00     0.165 HD
ENDBRANCH   7  24
TORSDOF 6
ENDMDL
MODEL 5
REMARK VINA RESULT:      -7.2      2.637      4.950
REMARK  6 active torsions:
REMARK  status: ('A' for Active; 'I' for Inactive)
REMARK    1  A    between atoms: N_2  and  C_4 
REMARK    2  A    between atoms: C_4  and  C_5 
REMARK    3  A    between atoms: C_5  and  C_6 
REMARK    4  A    between atoms: C_6  and  N_7 
REMARK    5  A    between atoms: C_15  and  C_16 
REMARK    6  A    between atoms: C_22  and  C_23 
ROOT
HETATM    1  C   UNK N   1      34.060  16.990   8.241  0.00  0.00     0.061 A 
HETATM    2  C   UNK N   1      34.798  18.143   8.801  0.00  0.00     0.260 A 
HETATM    3  O   UNK N   1      34.835  19.274   8.346  0.00  0.00    -0.267 OA
HETATM    4  N   UNK N   1      35.488  17.784   9.892  0.00  0.00    -0.289 N 
HETATM    5  C   UNK N   1      35.255  16.480  10.097  0.00  0.00     0.260 A 
HETATM    6  O   UNK N   1      35.732  15.871  11.040  0.00  0.00    -0.267 OA
HETATM    7  C   UNK N   1      34.340  15.937   9.067  0.00  0.00     0.061 A 
HETATM    8  H   UNK N   1      36.059  18.369  10.442  0.00  0.00     0.172 HD
ENDROOT
BRANCH   1   9
HETATM    9  C   UNK N   1      33.235  17.020   6.987  0.00  0.00     0.009 A 
HETATM   10  C   UNK N   1      33.738  16.939   5.692  0.00  0.00     0.104 A 
HETATM   11  N   UNK N   1      32.730  17.030   4.805  0.00  0.00    -0.355 N 
HETATM   12  C   UNK N   1      31.594  17.177   5.498  0.00  0.00     0.045 A 
HETATM   13  C   UNK N   1      30.305  17.309   4.985  0.00  0.00     0.030 A 
HETATM   14  C   UNK N   1      31.855  17.181   6.843  0.00  0.00     0.003 A 
HETATM   15  C   UNK N   1      29.249  17.445   5.898  0.00  0.00     0.002 A 
HETATM   16  C   UNK N   1      29.505  17.448   7.286  0.00  0.00     0.001 A 
HETATM   17  C   UNK N   1      30.822  17.314   7.769  0.00  0.00     0.014 A 
BRANCH  11  18
HETATM   18  C   UNK N   1      32.868  16.994   3.361  0.00  0.00     0.130 C 
BRANCH  18  19
HETATM   19  C   UNK N   1      33.459  15.669   2.920  0.00  0.00     0.050 C 
BRANCH  19  20
HETATM   20  C   UNK N   1      32.420  14.576   3.128  0.00  0.00     0.273 C 
BRANCH  20  21
HETATM   21  N   UNK N   1      32.972  13.441   3.862  0.00  0.00     0.080 N 
HETATM   22  C   UNK N   1      32.395  13.487   5.191  0.00  0.00     0.309 C 
HETATM   23  C   UNK N   1      34.405  13.627   4.040  0.00  0.00     0.309 C 
ENDBRANCH  20  21
ENDBRANCH  19  20
ENDBRANCH  18  19
ENDBRANCH  11  18
ENDBRANCH   1   9
BRANCH   7  24
HETATM   24  C   UNK N   1      33.826  14.521   9.019  0.00  0.00     0.009 A 
HETATM   25  C   UNK N   1      34.544  13.337   8.921  0.00  0.00     0.003 A 
HETATM   26  C   UNK N   1      35.907  13.073   8.802  0.00  0.00     0.014 A 
HETATM   27  C   UNK N   1      33.631  12.316   8.941  0.00  0.00     0.043 A 
HETATM   28  C   UNK N   1      36.322  11.732   8.710  0.00  0.00     0.001 A 
HETATM   29  C   UNK N   1      35.373  10.688   8.734  0.00  0.00     0.002 A 
HETATM   30  C   UNK N   1      34.004  10.979   8.850  0.00  0.00     0.030 A 
HETATM   31  N   UNK N   1      32.382  12.783   9.056  0.00  0.00    -0.364 N 
HETATM   32  C   UNK N   1      32.491  14.130   9.110  0.00  0.00     0.101 A 
HETATM   33  H   UNK N   1      31.552  12.254   9.093  0.00  0.00     0.165 HD
ENDBRANCH   7  24
TORSDOF 6
ENDMDL
MODEL 6
REMARK VINA RESULT:      -7.2      8.616     11.680
REMARK  6 active torsions:
REMARK  status: ('A' for Active; 'I' for Inactive)
REMARK    1  A    between atoms: N_2  and  C_4 
REMARK    2  A    between atoms: C_4  and  C_5 
REMARK    3  A    between atoms: C_5  and  C_6 
REMARK    4  A    between atoms: C_6  and  N_7 
REMARK    5  A    between atoms: C_15  and  C_16 
REMARK    6  A    between atoms: C_22  and  C_23 
ROOT
HETATM    1  C   UNK N   1      20.882  16.317   4.865  0.00  0.00     0.061 A 
HETATM    2  C   UNK N   1      20.364  15.733   6.122  0.00  0.00     0.260 A 
HETATM    3  O   UNK N   1      19.948  14.598   6.279  0.00  0.00    -0.267 OA
HETATM    4  N   UNK N   1      20.365  16.641   7.107  0.00  0.00    -0.289 N 
HETATM    5  C   UNK N   1      20.850  17.781   6.595  0.00  0.00     0.260 A 
HETATM    6  O   UNK N   1      20.995  18.789   7.265  0.00  0.00    -0.267 OA
HETATM    7  C   UNK N   1      21.200  17.613   5.165  0.00  0.00     0.061 A 
HETATM    8  H   UNK N   1      20.066  16.498   8.034  0.00  0.00     0.172 HD
ENDROOT
BRANCH   1   9
HETATM    9  C   UNK N   1      20.963  15.601   3.548  0.00  0.00     0.009 A 
HETATM   10  C   UNK N   1      19.872  15.163   2.804  0.00  0.00     0.104 A 
HETATM   11  N   UNK N   1      20.301  14.530   1.696  0.00  0.00    -0.355 N 
HETATM   12  C   UNK N   1      21.639  14.542   1.716  0.00  0.00     0.045 A 
HETATM   13  C   UNK N   1      22.502  14.001   0.765  0.00  0.00     0.030 A 
HETATM   14  C   UNK N   1      22.091  15.186   2.838  0.00  0.00     0.003 A 
HETATM   15  C   UNK N   1      23.882  14.134   0.982  0.00  0.00     0.002 A 
HETATM   16  C   UNK N   1      24.359  14.797   2.133  0.00  0.00     0.001 A 
HETATM   17  C   UNK N   1      23.458  15.332   3.074  0.00  0.00     0.014 A 
BRANCH  11  18
HETATM   18  C   UNK N   1      19.454  13.930   0.683  0.00  0.00     0.130 C 
BRANCH  18  19
HETATM   19  C   UNK N   1      18.599  12.834   1.291  0.00  0.00     0.050 C 
BRANCH  19  20
HETATM   20  C   UNK N   1      19.468  11.605   1.519  0.00  0.00     0.273 C 
BRANCH  20  21
HETATM   21  N   UNK N   1      19.366  11.122   2.894  0.00  0.00     0.080 N 
HETATM   22  C   UNK N   1      18.270  11.846   3.507  0.00  0.00     0.309 C 
HETATM   23  C   UNK N   1      20.562  11.500   3.633  0.00  0.00     0.309 C 
ENDBRANCH  20  21
ENDBRANCH  19  20
ENDBRANCH  18  19
ENDBRANCH  11  18
ENDBRANCH   1   9
BRANCH   7  24
HETATM   24  C   UNK N   1      21.816  18.674   4.290  0.00  0.00     0.009 A 
HETATM   25  C   UNK N   1      23.159  18.969   4.094  0.00  0.00     0.003 A 
HETATM   26  C   UNK N   1      24.326  18.438   4.641  0.00  0.00     0.014 A 
HETATM   27  C   UNK N   1      23.212  19.995   3.189  0.00  0.00     0.043 A 
HETATM   28  C   UNK N   1      25.560  18.978   4.234  0.00  0.00     0.001 A 
HETATM   29  C   UNK N   1      25.603  20.034   3.299  0.00  0.00     0.002 A 
HETATM   30  C   UNK N   1      24.413  20.555   2.765  0.00  0.00     0.030 A 
HETATM   31  N   UNK N   1      21.986  20.359   2.793  0.00  0.00    -0.364 N 
HETATM   32  C   UNK N   1      21.126  19.552   3.457  0.00  0.00     0.101 A 
HETATM   33  H   UNK N   1      21.756  21.069   2.151  0.00  0.00     0.165 HD
ENDBRANCH   7  24
TORSDOF 6
ENDMDL
MODEL 7
REMARK VINA RESULT:      -7.2     12.571     17.163
REMARK  6 active torsions:
REMARK  status: ('A' for Active; 'I' for Inactive)
REMARK    1  A    between atoms: N_2  and  C_4 
REMARK    2  A    between atoms: C_4  and  C_5 
REMARK    3  A    between atoms: C_5  and  C_6 
REMARK    4  A    between atoms: C_6  and  N_7 
REMARK    5  A    between atoms: C_15  and  C_16 
REMARK    6  A    between atoms: C_22  and  C_23 
ROOT
HETATM    1  C   UNK N   1      26.954  24.283  -7.646  0.00  0.00     0.061 A 
HETATM    2  C   UNK N   1      26.117  23.410  -8.498  0.00  0.00     0.260 A 
HETATM    3  O   UNK N   1      26.109  22.190  -8.504  0.00  0.00    -0.267 OA
HETATM    4  N   UNK N   1      25.361  24.138  -9.330  0.00  0.00    -0.289 N 
HETATM    5  C   UNK N   1      25.633  25.428  -9.087  0.00  0.00     0.260 A 
HETATM    6  O   UNK N   1      25.075  26.337  -9.679  0.00  0.00    -0.267 OA
HETATM    7  C   UNK N   1      26.642  25.563  -8.011  0.00  0.00     0.061 A 
HETATM    8  H   UNK N   1      24.723  23.791  -9.996  0.00  0.00     0.172 HD
ENDROOT
BRANCH   1   9
HETATM    9  C   UNK N   1      27.964  23.801  -6.644  0.00  0.00     0.009 A 
HETATM   10  C   UNK N   1      29.178  23.196  -6.955  0.00  0.00     0.104 A 
HETATM   11  N   UNK N   1      29.822  22.858  -5.822  0.00  0.00    -0.355 N 
HETATM   12  C   UNK N   1      29.046  23.221  -4.794  0.00  0.00     0.045 A 
HETATM   13  C   UNK N   1      29.318  23.063  -3.436  0.00  0.00     0.030 A 
HETATM   14  C   UNK N   1      27.892  23.801  -5.250  0.00  0.00     0.003 A 
HETATM   15  C   UNK N   1      28.362  23.526  -2.519  0.00  0.00     0.002 A 
HETATM   16  C   UNK N   1      27.170  24.126  -2.977  0.00  0.00     0.001 A 
HETATM   17  C   UNK N   1      26.928  24.269  -4.358  0.00  0.00     0.014 A 
BRANCH  11  18
HETATM   18  C   UNK N   1      31.112  22.200  -5.747  0.00  0.00     0.130 C 
BRANCH  18  19
HETATM   19  C   UNK N   1      30.940  20.693  -5.779  0.00  0.00     0.050 C 
BRANCH  19  20
HETATM   20  C   UNK N   1      31.773  20.081  -4.662  0.00  0.00     0.273 C 
BRANCH  20  21
HETATM   21  N   UNK N   1      33.171  20.496  -4.744  0.00  0.00     0.080 N 
HETATM   22  C   UNK N   1      33.916  19.350  -5.228  0.00  0.00     0.309 C 
HETATM   23  C   UNK N   1      33.677  20.771  -3.407  0.00  0.00     0.309 C 
ENDBRANCH  20  21
ENDBRANCH  19  20
ENDBRANCH  18  19
ENDBRANCH  11  18
ENDBRANCH   1   9
BRANCH   7  24
HETATM   24  C   UNK N   1      27.145  26.867  -7.448  0.00  0.00     0.009 A 
HETATM   25  C   UNK N   1      26.732  27.540  -6.306  0.00  0.00     0.003 A 
HETATM   26  C   UNK N   1      25.740  27.270  -5.365  0.00  0.00     0.014 A 
HETATM   27  C   UNK N   1      27.508  28.664  -6.205  0.00  0.00     0.043 A 
HETATM   28  C   UNK N   1      25.560  28.177  -4.305  0.00  0.00     0.001 A 
HETATM   29  C   UNK N   1      26.367  29.331  -4.208  0.00  0.00     0.002 A 
HETATM   30  C   UNK N   1      27.357  29.584  -5.171  0.00  0.00     0.030 A 
HETATM   31  N   UNK N   1      28.392  28.737  -7.207  0.00  0.00    -0.364 N 
HETATM   32  C   UNK N   1      28.181  27.640  -7.970  0.00  0.00     0.101 A 
HETATM   33  H   UNK N   1      29.059  29.444  -7.359  0.00  0.00     0.165 HD
ENDBRANCH   7  24
TORSDOF 6
ENDMDL
MODEL 8
REMARK VINA RESULT:      -7.1      5.646     10.278
REMARK  6 active torsions:
REMARK  status: ('A' for Active; 'I' for Inactive)
REMARK    1  A    between atoms: N_2  and  C_4 
REMARK    2  A    between atoms: C_4  and  C_5 
REMARK    3  A    between atoms: C_5  and  C_6 
REMARK    4  A    between atoms: C_6  and  N_7 
REMARK    5  A    between atoms: C_15  and  C_16 
REMARK    6  A    between atoms: C_22  and  C_23 
ROOT
HETATM    1  C   UNK N   1      22.618  16.203   5.048  0.00  0.00     0.061 A 
HETATM    2  C   UNK N   1      21.928  15.584   6.201  0.00  0.00     0.260 A 
HETATM    3  O   UNK N   1      21.879  14.395   6.466  0.00  0.00    -0.267 OA
HETATM    4  N   UNK N   1      21.299  16.511   6.936  0.00  0.00    -0.289 N 
HETATM    5  C   UNK N   1      21.527  17.698   6.356  0.00  0.00     0.260 A 
HETATM    6  O   UNK N   1      21.100  18.743   6.816  0.00  0.00    -0.267 OA
HETATM    7  C   UNK N   1      22.374  17.545   5.150  0.00  0.00     0.061 A 
HETATM    8  H   UNK N   1      20.770  16.351   7.750  0.00  0.00     0.172 HD
ENDROOT
BRANCH   1   9
HETATM    9  C   UNK N   1      23.369  15.453   3.986  0.00  0.00     0.009 A 
HETATM   10  C   UNK N   1      24.745  15.246   3.970  0.00  0.00     0.104 A 
HETATM   11  N   UNK N   1      25.090  14.567   2.859  0.00  0.00    -0.355 N 
HETATM   12  C   UNK N   1      23.972  14.343   2.159  0.00  0.00     0.045 A 
HETATM   13  C   UNK N   1      23.859  13.671   0.943  0.00  0.00     0.030 A 
HETATM   14  C   UNK N   1      22.889  14.872   2.810  0.00  0.00     0.003 A 
HETATM   15  C   UNK N   1      22.579  13.542   0.383  0.00  0.00     0.002 A 
HETATM   16  C   UNK N   1      21.456  14.082   1.046  0.00  0.00     0.001 A 
HETATM   17  C   UNK N   1      21.607  14.755   2.274  0.00  0.00     0.014 A 
BRANCH  11  18
HETATM   18  C   UNK N   1      26.438  14.175   2.493  0.00  0.00     0.130 C 
BRANCH  18  19
HETATM   19  C   UNK N   1      27.315  15.401   2.319  0.00  0.00     0.050 C 
BRANCH  19  20
HETATM   20  C   UNK N   1      28.615  15.183   3.081  0.00  0.00     0.273 C 
BRANCH  20  21
HETATM   21  N   UNK N   1      28.369  14.863   4.484  0.00  0.00     0.080 N 
HETATM   22  C   UNK N   1      28.219  16.127   5.178  0.00  0.00     0.309 C 
HETATM   23  C   UNK N   1      29.548  14.228   5.054  0.00  0.00     0.309 C 
ENDBRANCH  20  21
ENDBRANCH  19  20
ENDBRANCH  18  19
ENDBRANCH  11  18
ENDBRANCH   1   9
BRANCH   7  24
HETATM   24  C   UNK N   1      22.866  18.675   4.283  0.00  0.00     0.009 A 
HETATM   25  C   UNK N   1      24.169  19.108   4.076  0.00  0.00     0.003 A 
HETATM   26  C   UNK N   1      25.392  18.692   4.599  0.00  0.00     0.014 A 
HETATM   27  C   UNK N   1      24.105  20.148   3.185  0.00  0.00     0.043 A 
HETATM   28  C   UNK N   1      26.558  19.361   4.185  0.00  0.00     0.001 A 
HETATM   29  C   UNK N   1      26.480  20.428   3.266  0.00  0.00     0.002 A 
HETATM   30  C   UNK N   1      25.236  20.833   2.755  0.00  0.00     0.030 A 
HETATM   31  N   UNK N   1      22.842  20.389   2.811  0.00  0.00    -0.364 N 
HETATM   32  C   UNK N   1      22.079  19.490   3.473  0.00  0.00     0.101 A 
HETATM   33  H   UNK N   1      22.532  21.081   2.183  0.00  0.00     0.165 HD
ENDBRANCH   7  24
TORSDOF 6
ENDMDL
MODEL 9
REMARK VINA RESULT:      -7.1     12.148     15.725
REMARK  6 active torsions:
REMARK  status: ('A' for Active; 'I' for Inactive)
REMARK    1  A    between atoms: N_2  and  C_4 
REMARK    2  A    between atoms: C_4  and  C_5 
REMARK    3  A    between atoms: C_5  and  C_6 
REMARK    4  A    between atoms: C_6  and  N_7 
REMARK    5  A    between atoms: C_15  and  C_16 
REMARK    6  A    between atoms: C_22  and  C_23 
ROOT
HETATM    1  C   UNK N   1      28.672  24.160  -3.956  0.00  0.00     0.061 A 
HETATM    2  C   UNK N   1      27.764  23.718  -2.876  0.00  0.00     0.260 A 
HETATM    3  O   UNK N   1      26.549  23.828  -2.857  0.00  0.00    -0.267 OA
HETATM    4  N   UNK N   1      28.454  23.194  -1.855  0.00  0.00    -0.289 N 
HETATM    5  C   UNK N   1      29.753  23.253  -2.183  0.00  0.00     0.260 A 
HETATM    6  O   UNK N   1      30.631  22.824  -1.454  0.00  0.00    -0.267 OA
HETATM    7  C   UNK N   1      29.934  23.857  -3.523  0.00  0.00     0.061 A 
HETATM    8  H   UNK N   1      28.079  22.832  -1.020  0.00  0.00     0.172 HD
ENDROOT
BRANCH   1   9
HETATM    9  C   UNK N   1      28.242  24.847  -5.220  0.00  0.00     0.009 A 
HETATM   10  C   UNK N   1      27.911  24.205  -6.410  0.00  0.00     0.104 A 
HETATM   11  N   UNK N   1      27.605  25.119  -7.351  0.00  0.00    -0.355 N 
HETATM   12  C   UNK N   1      27.742  26.330  -6.796  0.00  0.00     0.045 A 
HETATM   13  C   UNK N   1      27.526  27.565  -7.406  0.00  0.00     0.030 A 
HETATM   14  C   UNK N   1      28.136  26.213  -5.490  0.00  0.00     0.003 A 
HETATM   15  C   UNK N   1      27.722  28.719  -6.632  0.00  0.00     0.002 A 
HETATM   16  C   UNK N   1      28.126  28.610  -5.285  0.00  0.00     0.001 A 
HETATM   17  C   UNK N   1      28.336  27.345  -4.702  0.00  0.00     0.014 A 
BRANCH  11  18
HETATM   18  C   UNK N   1      27.219  24.828  -8.718  0.00  0.00     0.130 C 
BRANCH  18  19
HETATM   19  C   UNK N   1      25.952  23.995  -8.744  0.00  0.00     0.050 C 
BRANCH  19  20
HETATM   20  C   UNK N   1      26.163  22.811  -9.677  0.00  0.00     0.273 C 
BRANCH  20  21
HETATM   21  N   UNK N   1      25.870  21.544  -9.014  0.00  0.00     0.080 N 
HETATM   22  C   UNK N   1      24.901  21.835  -7.974  0.00  0.00     0.309 C 
HETATM   23  C   UNK N   1      27.062  21.064  -8.330  0.00  0.00     0.309 C 
ENDBRANCH  20  21
ENDBRANCH  19  20
ENDBRANCH  18  19
ENDBRANCH  11  18
ENDBRANCH   1   9
BRANCH   7  24
HETATM   24  C   UNK N   1      31.254  24.034  -4.228  0.00  0.00     0.009 A 
HETATM   25  C   UNK N   1      31.954  25.205  -4.484  0.00  0.00     0.003 A 
HETATM   26  C   UNK N   1      31.671  26.545  -4.225  0.00  0.00     0.014 A 
HETATM   27  C   UNK N   1      33.110  24.844  -5.126  0.00  0.00     0.043 A 
HETATM   28  C   UNK N   1      32.603  27.516  -4.632  0.00  0.00     0.001 A 
HETATM   29  C   UNK N   1      33.792  27.133  -5.290  0.00  0.00     0.002 A 
HETATM   30  C   UNK N   1      34.054  25.777  -5.544  0.00  0.00     0.030 A 
HETATM   31  N   UNK N   1      33.186  23.517  -5.279  0.00  0.00    -0.364 N 
HETATM   32  C   UNK N   1      32.059  23.012  -4.729  0.00  0.00     0.101 A 
HETATM   33  H   UNK N   1      33.914  23.010  -5.707  0.00  0.00     0.165 HD
ENDBRANCH   7  24
TORSDOF 6
ENDMDL
