MODEL 1
REMARK VINA RESULT:      -5.4      0.000      0.000
REMARK  5 active torsions:
REMARK  status: ('A' for Active; 'I' for Inactive)
REMARK    1  A    between atoms: C_1  and  O_3 
REMARK    2  A    between atoms: C_1  and  C_4 
REMARK    3  A    between atoms: C_4  and  C_5 
REMARK    4  A    between atoms: C_4  and  C_7 
REMARK    5  A    between atoms: C_7  and  C_8 
ROOT
HETATM    1  C   UNK N   1      35.834  12.921  14.827  0.00  0.00     0.097 C 
ENDROOT
BRANCH   1   2
HETATM    2  C   UNK N   1      36.641  14.184  14.660  0.00  0.00     0.144 C 
HETATM    3  O   UNK N   1      36.432  14.946  13.725  0.00  0.00    -0.650 OA
BRANCH   2   4
HETATM    4  O   UNK N   1      37.603  14.485  15.553  0.00  0.00    -0.776 OA
HETATM    5  H   UNK N   1      37.786  15.255  16.054  0.00  0.00     0.167 HD
ENDBRANCH   2   4
ENDBRANCH   1   2
BRANCH   1   6
HETATM    6  C   UNK N   1      35.081  12.547  13.547  0.00  0.00     0.095 C 
HETATM    7  I   UNK N   1      34.276  10.566  13.645  0.00  0.00    -0.089 I 
ENDBRANCH   1   6
BRANCH   1   8
HETATM    8  C   UNK N   1      34.835  13.116  15.974  0.00  0.00     0.054 C 
BRANCH   8   9
HETATM    9  C   UNK N   1      35.187  12.437  17.277  0.00  0.00    -0.057 A 
HETATM   10  C   UNK N   1      35.073  13.167  18.464  0.00  0.00     0.007 A 
HETATM   11  C   UNK N   1      35.386  12.573  19.692  0.00  0.00     0.001 A 
HETATM   12  C   UNK N   1      35.809  11.242  19.738  0.00  0.00     0.000 A 
HETATM   13  C   UNK N   1      35.926  10.505  18.558  0.00  0.00     0.001 A 
HETATM   14  C   UNK N   1      35.621  11.101  17.332  0.00  0.00     0.007 A 
ENDBRANCH   8   9
ENDBRANCH   1   8
TORSDOF 5
ENDMDL
MODEL 2
REMARK VINA RESULT:      -5.4      8.821     10.826
REMARK  5 active torsions:
REMARK  status: ('A' for Active; 'I' for Inactive)
REMARK    1  A    between atoms: C_1  and  O_3 
REMARK    2  A    between atoms: C_1  and  C_4 
REMARK    3  A    between atoms: C_4  and  C_5 
REMARK    4  A    between atoms: C_4  and  C_7 
REMARK    5  A    between atoms: C_7  and  C_8 
ROOT
HETATM    1  C   UNK N   1      33.246  17.467   8.561  0.00  0.00     0.097 C 
ENDROOT
BRANCH   1   2
HETATM    2  C   UNK N   1      34.311  18.233   7.815  0.00  0.00     0.144 C 
HETATM    3  O   UNK N   1      35.003  19.066   8.385  0.00  0.00    -0.650 OA
BRANCH   2   4
HETATM    4  O   UNK N   1      34.509  17.997   6.504  0.00  0.00    -0.776 OA
HETATM    5  H   UNK N   1      35.090  17.424   6.043  0.00  0.00     0.167 HD
ENDBRANCH   2   4
ENDBRANCH   1   2
BRANCH   1   6
HETATM    6  C   UNK N   1      33.805  16.202   9.220  0.00  0.00     0.095 C 
HETATM    7  I   UNK N   1      33.182  14.428   8.196  0.00  0.00    -0.089 I 
ENDBRANCH   1   6
BRANCH   1   8
HETATM    8  C   UNK N   1      32.129  17.087   7.581  0.00  0.00     0.054 C 
BRANCH   8   9
HETATM    9  C   UNK N   1      30.729  17.467   8.000  0.00  0.00    -0.057 A 
HETATM   10  C   UNK N   1      30.563  18.252   9.145  0.00  0.00     0.007 A 
HETATM   11  C   UNK N   1      29.282  18.628   9.564  0.00  0.00     0.001 A 
HETATM   12  C   UNK N   1      28.159  18.225   8.836  0.00  0.00     0.000 A 
HETATM   13  C   UNK N   1      28.315  17.440   7.691  0.00  0.00     0.001 A 
HETATM   14  C   UNK N   1      29.594  17.059   7.277  0.00  0.00     0.007 A 
ENDBRANCH   8   9
ENDBRANCH   1   8
TORSDOF 5
ENDMDL
MODEL 3
REMARK VINA RESULT:      -5.4      0.454      1.644
REMARK  5 active torsions:
REMARK  status: ('A' for Active; 'I' for Inactive)
REMARK    1  A    between atoms: C_1  and  O_3 
REMARK    2  A    between atoms: C_1  and  C_4 
REMARK    3  A    between atoms: C_4  and  C_5 
REMARK    4  A    between atoms: C_4  and  C_7 
REMARK    5  A    between atoms: C_7  and  C_8 
ROOT
HETATM    1  C   UNK N   1      36.306  12.872  14.988  0.00  0.00     0.097 C 
ENDROOT
BRANCH   1   2
HETATM    2  C   UNK N   1      36.858  14.268  14.838  0.00  0.00     0.144 C 
HETATM    3  O   UNK N   1      37.451  14.814  15.759  0.00  0.00    -0.650 OA
BRANCH   2   4
HETATM    4  O   UNK N   1      36.702  14.926  13.673  0.00  0.00    -0.776 OA
HETATM    5  H   UNK N   1      37.012  15.755  13.366  0.00  0.00     0.167 HD
ENDBRANCH   2   4
ENDBRANCH   1   2
BRANCH   1   6
HETATM    6  C   UNK N   1      35.997  12.229  13.633  0.00  0.00     0.095 C 
HETATM    7  I   UNK N   1      34.377  10.835  13.763  0.00  0.00    -0.089 I 
ENDBRANCH   1   6
BRANCH   1   8
HETATM    8  C   UNK N   1      35.029  12.930  15.835  0.00  0.00     0.054 C 
BRANCH   8   9
HETATM    9  C   UNK N   1      35.173  12.497  17.275  0.00  0.00    -0.057 A 
HETATM   10  C   UNK N   1      35.384  11.142  17.548  0.00  0.00     0.007 A 
HETATM   11  C   UNK N   1      35.525  10.701  18.869  0.00  0.00     0.001 A 
HETATM   12  C   UNK N   1      35.462  11.616  19.923  0.00  0.00     0.000 A 
HETATM   13  C   UNK N   1      35.251  12.971  19.661  0.00  0.00     0.001 A 
HETATM   14  C   UNK N   1      35.102  13.410  18.342  0.00  0.00     0.007 A 
ENDBRANCH   8   9
ENDBRANCH   1   8
TORSDOF 5
ENDMDL
MODEL 4
REMARK VINA RESULT:      -5.3     10.954     12.225
REMARK  5 active torsions:
REMARK  status: ('A' for Active; 'I' for Inactive)
REMARK    1  A    between atoms: C_1  and  O_3 
REMARK    2  A    between atoms: C_1  and  C_4 
REMARK    3  A    between atoms: C_4  and  C_5 
REMARK    4  A    between atoms: C_4  and  C_7 
REMARK    5  A    between atoms: C_7  and  C_8 
ROOT
HETATM    1  C   UNK N   1      29.098  18.374   7.725  0.00  0.00     0.097 C 
ENDROOT
BRANCH   1   2
HETATM    2  C   UNK N   1      28.626  18.379   9.158  0.00  0.00     0.144 C 
HETATM    3  O   UNK N   1      29.371  18.719  10.066  0.00  0.00    -0.650 OA
BRANCH   2   4
HETATM    4  O   UNK N   1      27.363  18.007   9.446  0.00  0.00    -0.776 OA
HETATM    5  H   UNK N   1      26.530  18.284   9.119  0.00  0.00     0.167 HD
ENDBRANCH   2   4
ENDBRANCH   1   2
BRANCH   1   6
HETATM    6  C   UNK N   1      27.929  18.426   6.736  0.00  0.00     0.095 C 
HETATM    7  I   UNK N   1      27.347  20.439   6.296  0.00  0.00    -0.089 I 
ENDBRANCH   1   6
BRANCH   1   8
HETATM    8  C   UNK N   1      29.926  17.107   7.478  0.00  0.00     0.054 C 
BRANCH   8   9
HETATM    9  C   UNK N   1      31.408  17.317   7.279  0.00  0.00    -0.057 A 
HETATM   10  C   UNK N   1      32.187  17.681   8.382  0.00  0.00     0.007 A 
HETATM   11  C   UNK N   1      33.564  17.883   8.239  0.00  0.00     0.001 A 
HETATM   12  C   UNK N   1      34.171  17.715   6.991  0.00  0.00     0.000 A 
HETATM   13  C   UNK N   1      33.402  17.352   5.884  0.00  0.00     0.001 A 
HETATM   14  C   UNK N   1      32.025  17.159   6.025  0.00  0.00     0.007 A 
ENDBRANCH   8   9
ENDBRANCH   1   8
TORSDOF 5
ENDMDL
MODEL 5
REMARK VINA RESULT:      -5.1      9.495     12.051
REMARK  5 active torsions:
REMARK  status: ('A' for Active; 'I' for Inactive)
REMARK    1  A    between atoms: C_1  and  O_3 
REMARK    2  A    between atoms: C_1  and  C_4 
REMARK    3  A    between atoms: C_4  and  C_5 
REMARK    4  A    between atoms: C_4  and  C_7 
REMARK    5  A    between atoms: C_7  and  C_8 
ROOT
HETATM    1  C   UNK N   1      33.749  17.503   7.905  0.00  0.00     0.097 C 
ENDROOT
BRANCH   1   2
HETATM    2  C   UNK N   1      34.822  18.106   8.778  0.00  0.00     0.144 C 
HETATM    3  O   UNK N   1      35.238  17.514   9.765  0.00  0.00    -0.650 OA
BRANCH   2   4
HETATM    4  O   UNK N   1      35.336  19.312   8.467  0.00  0.00    -0.776 OA
HETATM    5  H   UNK N   1      35.991  19.583   7.854  0.00  0.00     0.167 HD
ENDBRANCH   2   4
ENDBRANCH   1   2
BRANCH   1   6
HETATM    6  C   UNK N   1      32.690  16.763   8.728  0.00  0.00     0.095 C 
HETATM    7  I   UNK N   1      30.714  17.467   8.300  0.00  0.00    -0.089 I 
ENDBRANCH   1   6
BRANCH   1   8
HETATM    8  C   UNK N   1      34.401  16.534   6.912  0.00  0.00     0.054 C 
BRANCH   8   9
HETATM    9  C   UNK N   1      33.821  16.528   5.518  0.00  0.00    -0.057 A 
HETATM   10  C   UNK N   1      34.074  15.429   4.692  0.00  0.00     0.007 A 
HETATM   11  C   UNK N   1      33.552  15.384   3.395  0.00  0.00     0.001 A 
HETATM   12  C   UNK N   1      32.766  16.438   2.920  0.00  0.00     0.000 A 
HETATM   13  C   UNK N   1      32.508  17.540   3.736  0.00  0.00     0.001 A 
HETATM   14  C   UNK N   1      33.036  17.588   5.029  0.00  0.00     0.007 A 
ENDBRANCH   8   9
ENDBRANCH   1   8
TORSDOF 5
ENDMDL
MODEL 6
REMARK VINA RESULT:      -4.9     26.823     28.096
REMARK  5 active torsions:
REMARK  status: ('A' for Active; 'I' for Inactive)
REMARK    1  A    between atoms: C_1  and  O_3 
REMARK    2  A    between atoms: C_1  and  C_4 
REMARK    3  A    between atoms: C_4  and  C_5 
REMARK    4  A    between atoms: C_4  and  C_7 
REMARK    5  A    between atoms: C_7  and  C_8 
ROOT
HETATM    1  C   UNK N   1      26.624  28.008  -5.025  0.00  0.00     0.097 C 
ENDROOT
BRANCH   1   2
HETATM    2  C   UNK N   1      25.980  28.546  -3.772  0.00  0.00     0.144 C 
HETATM    3  O   UNK N   1      25.481  27.792  -2.947  0.00  0.00    -0.650 OA
BRANCH   2   4
HETATM    4  O   UNK N   1      25.955  29.875  -3.551  0.00  0.00    -0.776 OA
HETATM    5  H   UNK N   1      26.080  30.392  -2.780  0.00  0.00     0.167 HD
ENDBRANCH   2   4
ENDBRANCH   1   2
BRANCH   1   6
HETATM    6  C   UNK N   1      27.392  29.094  -5.786  0.00  0.00     0.095 C 
HETATM    7  I   UNK N   1      28.600  28.268  -7.349  0.00  0.00    -0.089 I 
ENDBRANCH   1   6
BRANCH   1   8
HETATM    8  C   UNK N   1      25.537  27.417  -5.930  0.00  0.00     0.054 C 
BRANCH   8   9
HETATM    9  C   UNK N   1      25.659  25.941  -6.229  0.00  0.00    -0.057 A 
HETATM   10  C   UNK N   1      25.715  25.532  -7.565  0.00  0.00     0.007 A 
HETATM   11  C   UNK N   1      25.831  24.174  -7.883  0.00  0.00     0.001 A 
HETATM   12  C   UNK N   1      25.899  23.219  -6.866  0.00  0.00     0.000 A 
HETATM   13  C   UNK N   1      25.845  23.618  -5.529  0.00  0.00     0.001 A 
HETATM   14  C   UNK N   1      25.720  24.973  -5.211  0.00  0.00     0.007 A 
ENDBRANCH   8   9
ENDBRANCH   1   8
TORSDOF 5
ENDMDL
MODEL 7
REMARK VINA RESULT:      -4.9     14.970     16.378
REMARK  5 active torsions:
REMARK  status: ('A' for Active; 'I' for Inactive)
REMARK    1  A    between atoms: C_1  and  O_3 
REMARK    2  A    between atoms: C_1  and  C_4 
REMARK    3  A    between atoms: C_4  and  C_5 
REMARK    4  A    between atoms: C_4  and  C_7 
REMARK    5  A    between atoms: C_7  and  C_8 
ROOT
HETATM    1  C   UNK N   1      21.062  15.713   8.195  0.00  0.00     0.097 C 
ENDROOT
BRANCH   1   2
HETATM    2  C   UNK N   1      19.940  16.537   8.777  0.00  0.00     0.144 C 
HETATM    3  O   UNK N   1      20.070  17.740   8.960  0.00  0.00    -0.650 OA
BRANCH   2   4
HETATM    4  O   UNK N   1      18.773  15.944   9.096  0.00  0.00    -0.776 OA
HETATM    5  H   UNK N   1      18.562  15.215   9.646  0.00  0.00     0.167 HD
ENDBRANCH   2   4
ENDBRANCH   1   2
BRANCH   1   6
HETATM    6  C   UNK N   1      21.329  16.062   6.727  0.00  0.00     0.095 C 
HETATM    7  I   UNK N   1      23.288  15.462   6.109  0.00  0.00    -0.089 I 
ENDBRANCH   1   6
BRANCH   1   8
HETATM    8  C   UNK N   1      20.704  14.228   8.316  0.00  0.00     0.054 C 
BRANCH   8   9
HETATM    9  C   UNK N   1      21.410  13.466   9.412  0.00  0.00    -0.057 A 
HETATM   10  C   UNK N   1      20.645  12.921  10.448  0.00  0.00     0.007 A 
HETATM   11  C   UNK N   1      21.262  12.206  11.481  0.00  0.00     0.001 A 
HETATM   12  C   UNK N   1      22.648  12.028  11.479  0.00  0.00     0.000 A 
HETATM   13  C   UNK N   1      23.420  12.568  10.450  0.00  0.00     0.001 A 
HETATM   14  C   UNK N   1      22.805  13.289   9.423  0.00  0.00     0.007 A 
ENDBRANCH   8   9
ENDBRANCH   1   8
TORSDOF 5
ENDMDL
MODEL 8
REMARK VINA RESULT:      -4.8     26.320     27.583
REMARK  5 active torsions:
REMARK  status: ('A' for Active; 'I' for Inactive)
REMARK    1  A    between atoms: C_1  and  O_3 
REMARK    2  A    between atoms: C_1  and  C_4 
REMARK    3  A    between atoms: C_4  and  C_5 
REMARK    4  A    between atoms: C_4  and  C_7 
REMARK    5  A    between atoms: C_7  and  C_8 
ROOT
HETATM    1  C   UNK N   1      26.271  23.586  -7.301  0.00  0.00     0.097 C 
ENDROOT
BRANCH   1   2
HETATM    2  C   UNK N   1      25.152  23.383  -8.293  0.00  0.00     0.144 C 
HETATM    3  O   UNK N   1      24.327  22.493  -8.139  0.00  0.00    -0.650 OA
BRANCH   2   4
HETATM    4  O   UNK N   1      25.053  24.196  -9.362  0.00  0.00    -0.776 OA
HETATM    5  H   UNK N   1      24.332  24.443  -9.907  0.00  0.00     0.167 HD
ENDBRANCH   2   4
ENDBRANCH   1   2
BRANCH   1   6
HETATM    6  C   UNK N   1      27.306  22.459  -7.367  0.00  0.00     0.095 C 
HETATM    7  I   UNK N   1      29.034  22.894  -6.180  0.00  0.00    -0.089 I 
ENDBRANCH   1   6
BRANCH   1   8
HETATM    8  C   UNK N   1      25.677  23.658  -5.889  0.00  0.00     0.054 C 
BRANCH   8   9
HETATM    9  C   UNK N   1      25.733  25.011  -5.220  0.00  0.00    -0.057 A 
HETATM   10  C   UNK N   1      25.120  26.097  -5.854  0.00  0.00     0.007 A 
HETATM   11  C   UNK N   1      25.147  27.366  -5.266  0.00  0.00     0.001 A 
HETATM   12  C   UNK N   1      25.781  27.554  -4.035  0.00  0.00     0.000 A 
HETATM   13  C   UNK N   1      26.396  26.477  -3.394  0.00  0.00     0.001 A 
HETATM   14  C   UNK N   1      26.376  25.211  -3.986  0.00  0.00     0.007 A 
ENDBRANCH   8   9
ENDBRANCH   1   8
TORSDOF 5
ENDMDL
MODEL 9
REMARK VINA RESULT:      -4.7     14.293     15.733
REMARK  5 active torsions:
REMARK  status: ('A' for Active; 'I' for Inactive)
REMARK    1  A    between atoms: C_1  and  O_3 
REMARK    2  A    between atoms: C_1  and  C_4 
REMARK    3  A    between atoms: C_4  and  C_5 
REMARK    4  A    between atoms: C_4  and  C_7 
REMARK    5  A    between atoms: C_7  and  C_8 
ROOT
HETATM    1  C   UNK N   1      21.413  14.436   8.034  0.00  0.00     0.097 C 
ENDROOT
BRANCH   1   2
HETATM    2  C   UNK N   1      20.436  15.269   8.826  0.00  0.00     0.144 C 
HETATM    3  O   UNK N   1      20.577  16.480   8.927  0.00  0.00    -0.650 OA
BRANCH   2   4
HETATM    4  O   UNK N   1      19.387  14.675   9.429  0.00  0.00    -0.776 OA
HETATM    5  H   UNK N   1      18.607  14.276   9.097  0.00  0.00     0.167 HD
ENDBRANCH   2   4
ENDBRANCH   1   2
BRANCH   1   6
HETATM    6  C   UNK N   1      21.107  14.463   6.534  0.00  0.00     0.095 C 
HETATM    7  I   UNK N   1      20.793  12.497   5.748  0.00  0.00    -0.089 I 
ENDBRANCH   1   6
BRANCH   1   8
HETATM    8  C   UNK N   1      21.362  12.990   8.544  0.00  0.00     0.054 C 
BRANCH   8   9
HETATM    9  C   UNK N   1      22.353  12.639   9.629  0.00  0.00    -0.057 A 
HETATM   10  C   UNK N   1      23.718  12.690   9.330  0.00  0.00     0.007 A 
HETATM   11  C   UNK N   1      24.668  12.375  10.308  0.00  0.00     0.001 A 
HETATM   12  C   UNK N   1      24.256  12.013  11.594  0.00  0.00     0.000 A 
HETATM   13  C   UNK N   1      22.895  11.960  11.902  0.00  0.00     0.001 A 
HETATM   14  C   UNK N   1      21.947  12.267  10.923  0.00  0.00     0.007 A 
ENDBRANCH   8   9
ENDBRANCH   1   8
TORSDOF 5
ENDMDL
