REMARK  5 active torsions:
REMARK  status: ('A' for Active; 'I' for Inactive)
REMARK    1  A    between atoms: C_1  and  O_3 
REMARK    2  A    between atoms: C_1  and  C_4 
REMARK    3  A    between atoms: C_4  and  C_5 
REMARK    4  A    between atoms: C_4  and  C_7 
REMARK    5  A    between atoms: C_7  and  C_8 
ROOT
HETATM    1  C   UNK N   1       1.064   1.191  -0.220  0.00  0.00     0.097 C 
ENDROOT
BRANCH   1   2
HETATM    2  C   UNK N   1       2.385   1.919  -0.259  0.00  0.00     0.144 C 
HETATM    3  O   UNK N   1       2.579   2.910   0.432  0.00  0.00    -0.650 OA
BRANCH   2   4
HETATM    4  O   UNK N   1       3.370   1.472  -1.062  0.00  0.00    -0.776 OA
HETATM    5  H   UNK N   1       3.443   0.723  -1.620  0.00  0.00     0.167 HD
ENDBRANCH   2   4
ENDBRANCH   1   2
BRANCH   1   6
HETATM    6  C   UNK N   1       0.072   1.854   0.741  0.00  0.00     0.095 C 
HETATM    7  I   UNK N   1      -1.197   3.254  -0.265  0.00  0.00    -0.089 I 
ENDBRANCH   1   6
BRANCH   1   8
HETATM    8  C   UNK N   1       1.308  -0.260   0.211  0.00  0.00     0.054 C 
BRANCH   8   9
HETATM    9  C   UNK N   1       0.105  -1.172   0.165  0.00  0.00    -0.057 A 
HETATM   10  C   UNK N   1       0.281  -2.527   0.463  0.00  0.00     0.007 A 
HETATM   11  C   UNK N   1      -0.809  -3.404   0.434  0.00  0.00     0.001 A 
HETATM   12  C   UNK N   1      -2.083  -2.928   0.113  0.00  0.00     0.000 A 
HETATM   13  C   UNK N   1      -2.269  -1.577  -0.186  0.00  0.00     0.001 A 
HETATM   14  C   UNK N   1      -1.179  -0.703  -0.165  0.00  0.00     0.007 A 
ENDBRANCH   8   9
ENDBRANCH   1   8
TORSDOF 5
