MODEL 1
REMARK VINA RESULT:      -7.1      0.000      0.000
REMARK  9 active torsions:
REMARK  status: ('A' for Active; 'I' for Inactive)
REMARK       I    between atoms: C_1  and  N_8 
REMARK       I    between atoms: C_1  and  N_9 
REMARK    1  A    between atoms: C_10  and  N_9 
REMARK    2  A    between atoms: C_10  and  C_11 
REMARK    3  A    between atoms: C_10  and  C_15 
REMARK    4  A    between atoms: C_11  and  C_12 
REMARK       I    between atoms: C_15  and  N_18 
REMARK    5  A    between atoms: C_17  and  O_19 
REMARK    6  A    between atoms: C_17  and  C_29 
REMARK    7  A    between atoms: C_29  and  N_18 
REMARK    8  A    between atoms: O_19  and  C_20 
REMARK    9  A    between atoms: C_20  and  C_21 
ROOT
HETATM    1  C   UNK N   1      18.876  16.556   8.158  0.00  0.00     0.086 C 
HETATM    2  N   UNK N   1      17.730  16.585   7.996  0.00  0.00    -0.195 NA
HETATM    3  C   UNK N   1      20.339  16.494   8.374  0.00  0.00     0.215 C 
ENDROOT
BRANCH   3   4
HETATM    4  C   UNK N   1      20.979  15.253   9.036  0.00  0.00     0.208 C 
BRANCH   4   5
HETATM    5  O   UNK N   1      20.239  14.097   8.842  0.00  0.00    -0.384 OA
BRANCH   5   6
HETATM    6  C   UNK N   1      21.117  13.159   8.295  0.00  0.00     0.206 C 
BRANCH   6   7
HETATM    7  C   UNK N   1      21.919  12.636   9.420  0.00  0.00    -0.035 A 
HETATM    8  C   UNK N   1      21.300  12.356  10.639  0.00  0.00     0.009 A 
HETATM    9  C   UNK N   1      22.079  12.005  11.745  0.00  0.00     0.001 A 
HETATM   10  C   UNK N   1      23.473  11.946  11.631  0.00  0.00     0.000 A 
HETATM   11  C   UNK N   1      24.088  12.220  10.408  0.00  0.00     0.001 A 
HETATM   12  C   UNK N   1      23.309  12.567   9.306  0.00  0.00     0.009 A 
ENDBRANCH   6   7
ENDBRANCH   5   6
ENDBRANCH   4   5
ENDBRANCH   3   4
BRANCH   3  13
HETATM   13  N   UNK N   1      20.934  16.639   7.080  0.00  0.00    -0.340 N 
HETATM   14  C   UNK N   1      21.184  17.857   6.528  0.00  0.00     0.241 C 
HETATM   15  O   UNK N   1      20.953  18.891   7.148  0.00  0.00    -0.271 OA
HETATM   16  H   UNK N   1      21.172  15.830   6.573  0.00  0.00     0.164 HD
BRANCH  14  17
HETATM   17  C   UNK N   1      21.683  17.928   5.130  0.00  0.00     0.178 C 
BRANCH  17  18
HETATM   18  N   UNK N   1      22.784  17.003   4.910  0.00  0.00    -0.330 N 
HETATM   19  C   UNK N   1      23.906  17.294   4.188  0.00  0.00     0.319 C 
HETATM   20  O   UNK N   1      24.104  18.433   3.779  0.00  0.00    -0.247 OA
HETATM   21  N   UNK N   1      24.810  16.315   3.913  0.00  0.00    -0.330 N 
HETATM   22  C   UNK N   1      25.977  16.590   3.104  0.00  0.00     0.153 C 
HETATM   23  C   UNK N   1      24.544  14.937   4.259  0.00  0.00     0.153 C 
HETATM   24  C   UNK N   1      26.003  15.599   1.927  0.00  0.00     0.187 C 
HETATM   25  O   UNK N   1      24.781  14.894   1.821  0.00  0.00    -0.388 OA
HETATM   26  C   UNK N   1      24.651  14.085   2.978  0.00  0.00     0.187 C 
HETATM   27  H   UNK N   1      22.715  16.106   5.309  0.00  0.00     0.165 HD
ENDBRANCH  17  18
BRANCH  17  28
HETATM   28  C   UNK N   1      20.477  17.521   4.274  0.00  0.00     0.038 C 
BRANCH  28  29
HETATM   29  C   UNK N   1      20.017  18.491   3.207  0.00  0.00    -0.020 C 
HETATM   30  C   UNK N   1      20.789  19.790   3.287  0.00  0.00     0.009 C 
HETATM   31  C   UNK N   1      20.281  17.836   1.861  0.00  0.00     0.009 C 
ENDBRANCH  28  29
ENDBRANCH  17  28
ENDBRANCH  14  17
ENDBRANCH   3  13
TORSDOF 9
ENDMDL
MODEL 2
REMARK VINA RESULT:      -7.0     12.555     15.179
REMARK  9 active torsions:
REMARK  status: ('A' for Active; 'I' for Inactive)
REMARK       I    between atoms: C_1  and  N_8 
REMARK       I    between atoms: C_1  and  N_9 
REMARK    1  A    between atoms: C_10  and  N_9 
REMARK    2  A    between atoms: C_10  and  C_11 
REMARK    3  A    between atoms: C_10  and  C_15 
REMARK    4  A    between atoms: C_11  and  C_12 
REMARK       I    between atoms: C_15  and  N_18 
REMARK    5  A    between atoms: C_17  and  O_19 
REMARK    6  A    between atoms: C_17  and  C_29 
REMARK    7  A    between atoms: C_29  and  N_18 
REMARK    8  A    between atoms: O_19  and  C_20 
REMARK    9  A    between atoms: C_20  and  C_21 
ROOT
HETATM    1  C   UNK N   1      35.654  10.453  13.017  0.00  0.00     0.086 C 
HETATM    2  N   UNK N   1      35.621   9.305  12.861  0.00  0.00    -0.195 NA
HETATM    3  C   UNK N   1      35.715  11.916  13.233  0.00  0.00     0.215 C 
ENDROOT
BRANCH   3   4
HETATM    4  C   UNK N   1      36.668  12.509  14.294  0.00  0.00     0.208 C 
BRANCH   4   5
HETATM    5  O   UNK N   1      36.061  13.468  15.089  0.00  0.00    -0.384 OA
BRANCH   5   6
HETATM    6  C   UNK N   1      34.887  12.887  15.574  0.00  0.00     0.206 C 
BRANCH   6   7
HETATM    7  C   UNK N   1      35.153  12.530  16.983  0.00  0.00    -0.035 A 
HETATM    8  C   UNK N   1      35.297  11.191  17.343  0.00  0.00     0.009 A 
HETATM    9  C   UNK N   1      35.399  10.843  18.692  0.00  0.00     0.001 A 
HETATM   10  C   UNK N   1      35.345  11.836  19.678  0.00  0.00     0.000 A 
HETATM   11  C   UNK N   1      35.208  13.178  19.314  0.00  0.00     0.001 A 
HETATM   12  C   UNK N   1      35.109  13.520  17.968  0.00  0.00     0.009 A 
ENDBRANCH   6   7
ENDBRANCH   5   6
ENDBRANCH   4   5
ENDBRANCH   3   4
BRANCH   3  13
HETATM   13  N   UNK N   1      36.077  12.485  11.971  0.00  0.00    -0.340 N 
HETATM   14  C   UNK N   1      35.455  13.584  11.465  0.00  0.00     0.241 C 
HETATM   15  O   UNK N   1      34.584  14.169  12.104  0.00  0.00    -0.271 OA
HETATM   16  H   UNK N   1      36.801  12.069  11.451  0.00  0.00     0.164 HD
BRANCH  14  17
HETATM   17  C   UNK N   1      35.797  14.040  10.093  0.00  0.00     0.178 C 
BRANCH  17  18
HETATM   18  N   UNK N   1      34.829  15.005   9.596  0.00  0.00    -0.330 N 
HETATM   19  C   UNK N   1      34.282  14.980   8.344  0.00  0.00     0.319 C 
HETATM   20  O   UNK N   1      34.496  14.034   7.592  0.00  0.00    -0.247 OA
HETATM   21  N   UNK N   1      33.502  16.010   7.922  0.00  0.00    -0.330 N 
HETATM   22  C   UNK N   1      32.959  16.028   6.581  0.00  0.00     0.153 C 
HETATM   23  C   UNK N   1      33.342  17.201   8.726  0.00  0.00     0.153 C 
HETATM   24  C   UNK N   1      33.377  17.343   5.900  0.00  0.00     0.187 C 
HETATM   25  O   UNK N   1      34.361  18.023   6.655  0.00  0.00    -0.388 OA
HETATM   26  C   UNK N   1      33.764  18.419   7.879  0.00  0.00     0.187 C 
HETATM   27  H   UNK N   1      34.549  15.727  10.204  0.00  0.00     0.165 HD
ENDBRANCH  17  18
BRANCH  17  28
HETATM   28  C   UNK N   1      37.171  14.704  10.242  0.00  0.00     0.038 C 
BRANCH  28  29
HETATM   29  C   UNK N   1      38.334  14.083   9.497  0.00  0.00    -0.020 C 
HETATM   30  C   UNK N   1      39.019  13.033  10.344  0.00  0.00     0.009 C 
HETATM   31  C   UNK N   1      37.767  13.426   8.250  0.00  0.00     0.009 C 
ENDBRANCH  28  29
ENDBRANCH  17  28
ENDBRANCH  14  17
ENDBRANCH   3  13
TORSDOF 9
ENDMDL
MODEL 3
REMARK VINA RESULT:      -6.9     13.513     15.762
REMARK  9 active torsions:
REMARK  status: ('A' for Active; 'I' for Inactive)
REMARK       I    between atoms: C_1  and  N_8 
REMARK       I    between atoms: C_1  and  N_9 
REMARK    1  A    between atoms: C_10  and  N_9 
REMARK    2  A    between atoms: C_10  and  C_11 
REMARK    3  A    between atoms: C_10  and  C_15 
REMARK    4  A    between atoms: C_11  and  C_12 
REMARK       I    between atoms: C_15  and  N_18 
REMARK    5  A    between atoms: C_17  and  O_19 
REMARK    6  A    between atoms: C_17  and  C_29 
REMARK    7  A    between atoms: C_29  and  N_18 
REMARK    8  A    between atoms: O_19  and  C_20 
REMARK    9  A    between atoms: C_20  and  C_21 
ROOT
HETATM    1  C   UNK N   1      36.858  11.491  12.949  0.00  0.00     0.086 C 
HETATM    2  N   UNK N   1      37.177  10.456  12.538  0.00  0.00    -0.195 NA
HETATM    3  C   UNK N   1      36.467  12.811  13.492  0.00  0.00     0.215 C 
ENDROOT
BRANCH   3   4
HETATM    4  C   UNK N   1      37.045  13.304  14.837  0.00  0.00     0.208 C 
BRANCH   4   5
HETATM    5  O   UNK N   1      36.112  13.973  15.614  0.00  0.00    -0.384 OA
BRANCH   5   6
HETATM    6  C   UNK N   1      35.069  13.071  15.834  0.00  0.00     0.206 C 
BRANCH   6   7
HETATM    7  C   UNK N   1      35.276  12.521  17.189  0.00  0.00    -0.035 A 
HETATM    8  C   UNK N   1      35.432  11.146  17.361  0.00  0.00     0.009 A 
HETATM    9  C   UNK N   1      35.479  10.610  18.652  0.00  0.00     0.001 A 
HETATM   10  C   UNK N   1      35.357  11.452  19.764  0.00  0.00     0.000 A 
HETATM   11  C   UNK N   1      35.207  12.829  19.588  0.00  0.00     0.001 A 
HETATM   12  C   UNK N   1      35.165  13.359  18.301  0.00  0.00     0.009 A 
ENDBRANCH   6   7
ENDBRANCH   5   6
ENDBRANCH   4   5
ENDBRANCH   3   4
BRANCH   3  13
HETATM   13  N   UNK N   1      36.832  13.771  12.495  0.00  0.00    -0.340 N 
HETATM   14  C   UNK N   1      35.905  14.469  11.786  0.00  0.00     0.241 C 
HETATM   15  O   UNK N   1      34.706  14.340  12.012  0.00  0.00    -0.271 OA
HETATM   16  H   UNK N   1      37.786  13.933  12.318  0.00  0.00     0.164 HD
BRANCH  14  17
HETATM   17  C   UNK N   1      36.358  15.352  10.679  0.00  0.00     0.178 C 
BRANCH  17  18
HETATM   18  N   UNK N   1      36.632  14.592   9.470  0.00  0.00    -0.330 N 
HETATM   19  C   UNK N   1      37.831  14.006   9.178  0.00  0.00     0.319 C 
HETATM   20  O   UNK N   1      38.731  13.986  10.011  0.00  0.00    -0.247 OA
HETATM   21  N   UNK N   1      38.035  13.445   7.956  0.00  0.00    -0.330 N 
HETATM   22  C   UNK N   1      39.315  12.868   7.610  0.00  0.00     0.153 C 
HETATM   23  C   UNK N   1      37.049  13.570   6.906  0.00  0.00     0.153 C 
HETATM   24  C   UNK N   1      39.815  13.528   6.313  0.00  0.00     0.187 C 
HETATM   25  O   UNK N   1      39.037  14.661   5.978  0.00  0.00    -0.388 OA
HETATM   26  C   UNK N   1      37.728  14.208   5.676  0.00  0.00     0.187 C 
HETATM   27  H   UNK N   1      35.903  14.493   8.815  0.00  0.00     0.165 HD
ENDBRANCH  17  18
BRANCH  17  28
HETATM   28  C   UNK N   1      35.179  16.304  10.444  0.00  0.00     0.038 C 
BRANCH  28  29
HETATM   29  C   UNK N   1      34.557  16.321   9.063  0.00  0.00    -0.020 C 
HETATM   30  C   UNK N   1      33.162  15.735   9.091  0.00  0.00     0.009 C 
HETATM   31  C   UNK N   1      34.479  17.774   8.625  0.00  0.00     0.009 C 
ENDBRANCH  28  29
ENDBRANCH  17  28
ENDBRANCH  14  17
ENDBRANCH   3  13
TORSDOF 9
ENDMDL
MODEL 4
REMARK VINA RESULT:      -6.7     11.437     14.763
REMARK  9 active torsions:
REMARK  status: ('A' for Active; 'I' for Inactive)
REMARK       I    between atoms: C_1  and  N_8 
REMARK       I    between atoms: C_1  and  N_9 
REMARK    1  A    between atoms: C_10  and  N_9 
REMARK    2  A    between atoms: C_10  and  C_11 
REMARK    3  A    between atoms: C_10  and  C_15 
REMARK    4  A    between atoms: C_11  and  C_12 
REMARK       I    between atoms: C_15  and  N_18 
REMARK    5  A    between atoms: C_17  and  O_19 
REMARK    6  A    between atoms: C_17  and  C_29 
REMARK    7  A    between atoms: C_29  and  N_18 
REMARK    8  A    between atoms: O_19  and  C_20 
REMARK    9  A    between atoms: C_20  and  C_21 
ROOT
HETATM    1  C   UNK N   1      34.601  18.023   8.584  0.00  0.00     0.086 C 
HETATM    2  N   UNK N   1      35.128  19.043   8.426  0.00  0.00    -0.195 NA
HETATM    3  C   UNK N   1      33.927  16.717   8.759  0.00  0.00     0.215 C 
ENDROOT
BRANCH   3   4
HETATM    4  C   UNK N   1      33.356  15.963   7.538  0.00  0.00     0.208 C 
BRANCH   4   5
HETATM    5  O   UNK N   1      32.399  16.694   6.851  0.00  0.00    -0.384 OA
BRANCH   5   6
HETATM    6  C   UNK N   1      31.188  16.027   7.041  0.00  0.00     0.206 C 
BRANCH   6   7
HETATM    7  C   UNK N   1      30.243  17.027   7.577  0.00  0.00    -0.035 A 
HETATM    8  C   UNK N   1      30.260  17.336   8.937  0.00  0.00     0.009 A 
HETATM    9  C   UNK N   1      29.273  18.168   9.471  0.00  0.00     0.001 A 
HETATM   10  C   UNK N   1      28.264  18.679   8.645  0.00  0.00     0.000 A 
HETATM   11  C   UNK N   1      28.253  18.373   7.282  0.00  0.00     0.001 A 
HETATM   12  C   UNK N   1      29.241  17.545   6.753  0.00  0.00     0.009 A 
ENDBRANCH   6   7
ENDBRANCH   5   6
ENDBRANCH   4   5
ENDBRANCH   3   4
BRANCH   3  13
HETATM   13  N   UNK N   1      34.890  15.857   9.377  0.00  0.00    -0.340 N 
HETATM   14  C   UNK N   1      34.609  15.140  10.499  0.00  0.00     0.241 C 
HETATM   15  O   UNK N   1      33.489  15.164  11.001  0.00  0.00    -0.271 OA
HETATM   16  H   UNK N   1      35.785  15.780   8.977  0.00  0.00     0.164 HD
BRANCH  14  17
HETATM   17  C   UNK N   1      35.697  14.371  11.156  0.00  0.00     0.178 C 
BRANCH  17  18
HETATM   18  N   UNK N   1      35.189  13.554  12.246  0.00  0.00    -0.330 N 
HETATM   19  C   UNK N   1      35.624  13.630  13.539  0.00  0.00     0.319 C 
HETATM   20  O   UNK N   1      36.407  14.510  13.880  0.00  0.00    -0.247 OA
HETATM   21  N   UNK N   1      35.195  12.721  14.455  0.00  0.00    -0.330 N 
HETATM   22  C   UNK N   1      35.686  12.752  15.815  0.00  0.00     0.153 C 
HETATM   23  C   UNK N   1      34.383  11.592  14.060  0.00  0.00     0.153 C 
HETATM   24  C   UNK N   1      36.271  11.370  16.156  0.00  0.00     0.187 C 
HETATM   25  O   UNK N   1      36.399  10.566  14.999  0.00  0.00    -0.388 OA
HETATM   26  C   UNK N   1      35.094  10.300  14.514  0.00  0.00     0.187 C 
HETATM   27  H   UNK N   1      34.482  12.901  12.038  0.00  0.00     0.165 HD
ENDBRANCH  17  18
BRANCH  17  28
HETATM   28  C   UNK N   1      36.255  13.474  10.044  0.00  0.00     0.038 C 
BRANCH  28  29
HETATM   29  C   UNK N   1      37.711  13.649   9.666  0.00  0.00    -0.020 C 
HETATM   30  C   UNK N   1      38.615  12.933  10.646  0.00  0.00     0.009 C 
HETATM   31  C   UNK N   1      37.891  13.042   8.285  0.00  0.00     0.009 C 
ENDBRANCH  28  29
ENDBRANCH  17  28
ENDBRANCH  14  17
ENDBRANCH   3  13
TORSDOF 9
ENDMDL
MODEL 5
REMARK VINA RESULT:      -6.7     15.049     17.005
REMARK  9 active torsions:
REMARK  status: ('A' for Active; 'I' for Inactive)
REMARK       I    between atoms: C_1  and  N_8 
REMARK       I    between atoms: C_1  and  N_9 
REMARK    1  A    between atoms: C_10  and  N_9 
REMARK    2  A    between atoms: C_10  and  C_11 
REMARK    3  A    between atoms: C_10  and  C_15 
REMARK    4  A    between atoms: C_11  and  C_12 
REMARK       I    between atoms: C_15  and  N_18 
REMARK    5  A    between atoms: C_17  and  O_19 
REMARK    6  A    between atoms: C_17  and  C_29 
REMARK    7  A    between atoms: C_29  and  N_18 
REMARK    8  A    between atoms: O_19  and  C_20 
REMARK    9  A    between atoms: C_20  and  C_21 
ROOT
HETATM    1  C   UNK N   1      24.943  21.905  -7.138  0.00  0.00     0.086 C 
HETATM    2  N   UNK N   1      24.067  21.303  -6.677  0.00  0.00    -0.195 NA
HETATM    3  C   UNK N   1      26.046  22.693  -7.732  0.00  0.00     0.215 C 
ENDROOT
BRANCH   3   4
HETATM    4  C   UNK N   1      25.749  24.014  -8.475  0.00  0.00     0.208 C 
BRANCH   4   5
HETATM    5  O   UNK N   1      25.295  25.017  -7.632  0.00  0.00    -0.384 OA
BRANCH   5   6
HETATM    6  C   UNK N   1      25.973  26.179  -8.006  0.00  0.00     0.206 C 
BRANCH   6   7
HETATM    7  C   UNK N   1      26.190  26.949  -6.765  0.00  0.00    -0.035 A 
HETATM    8  C   UNK N   1      25.297  26.814  -5.702  0.00  0.00     0.009 A 
HETATM    9  C   UNK N   1      25.415  27.650  -4.588  0.00  0.00     0.001 A 
HETATM   10  C   UNK N   1      26.419  28.626  -4.547  0.00  0.00     0.000 A 
HETATM   11  C   UNK N   1      27.315  28.754  -5.610  0.00  0.00     0.001 A 
HETATM   12  C   UNK N   1      27.196  27.917  -6.718  0.00  0.00     0.009 A 
ENDBRANCH   6   7
ENDBRANCH   5   6
ENDBRANCH   4   5
ENDBRANCH   3   4
BRANCH   3  13
HETATM   13  N   UNK N   1      26.934  23.003  -6.653  0.00  0.00    -0.340 N 
HETATM   14  C   UNK N   1      28.192  22.490  -6.577  0.00  0.00     0.241 C 
HETATM   15  O   UNK N   1      28.637  21.773  -7.469  0.00  0.00    -0.271 OA
HETATM   16  H   UNK N   1      26.625  23.610  -5.943  0.00  0.00     0.164 HD
BRANCH  14  17
HETATM   17  C   UNK N   1      29.007  22.754  -5.363  0.00  0.00     0.178 C 
BRANCH  17  18
HETATM   18  N   UNK N   1      30.095  21.797  -5.235  0.00  0.00    -0.330 N 
HETATM   19  C   UNK N   1      30.981  21.766  -4.195  0.00  0.00     0.319 C 
HETATM   20  O   UNK N   1      30.819  22.492  -3.220  0.00  0.00    -0.247 OA
HETATM   21  N   UNK N   1      32.053  20.931  -4.240  0.00  0.00    -0.330 N 
HETATM   22  C   UNK N   1      33.030  20.923  -3.174  0.00  0.00     0.153 C 
HETATM   23  C   UNK N   1      32.350  20.163  -5.428  0.00  0.00     0.153 C 
HETATM   24  C   UNK N   1      34.422  21.166  -3.783  0.00  0.00     0.187 C 
HETATM   25  O   UNK N   1      34.328  21.578  -5.133  0.00  0.00    -0.388 OA
HETATM   26  C   UNK N   1      33.788  20.497  -5.875  0.00  0.00     0.187 C 
HETATM   27  H   UNK N   1      30.201  21.126  -5.947  0.00  0.00     0.165 HD
ENDBRANCH  17  18
BRANCH  17  28
HETATM   28  C   UNK N   1      29.571  24.163  -5.581  0.00  0.00     0.038 C 
BRANCH  28  29
HETATM   29  C   UNK N   1      28.883  25.310  -4.872  0.00  0.00    -0.020 C 
HETATM   30  C   UNK N   1      28.025  24.805  -3.732  0.00  0.00     0.009 C 
HETATM   31  C   UNK N   1      29.973  26.211  -4.315  0.00  0.00     0.009 C 
ENDBRANCH  28  29
ENDBRANCH  17  28
ENDBRANCH  14  17
ENDBRANCH   3  13
TORSDOF 9
ENDMDL
MODEL 6
REMARK VINA RESULT:      -6.6      4.897      7.980
REMARK  9 active torsions:
REMARK  status: ('A' for Active; 'I' for Inactive)
REMARK       I    between atoms: C_1  and  N_8 
REMARK       I    between atoms: C_1  and  N_9 
REMARK    1  A    between atoms: C_10  and  N_9 
REMARK    2  A    between atoms: C_10  and  C_11 
REMARK    3  A    between atoms: C_10  and  C_15 
REMARK    4  A    between atoms: C_11  and  C_12 
REMARK       I    between atoms: C_15  and  N_18 
REMARK    5  A    between atoms: C_17  and  O_19 
REMARK    6  A    between atoms: C_17  and  C_29 
REMARK    7  A    between atoms: C_29  and  N_18 
REMARK    8  A    between atoms: O_19  and  C_20 
REMARK    9  A    between atoms: C_20  and  C_21 
ROOT
HETATM    1  C   UNK N   1      26.677  20.908   7.075  0.00  0.00     0.086 C 
HETATM    2  N   UNK N   1      26.033  21.792   7.455  0.00  0.00    -0.195 NA
HETATM    3  C   UNK N   1      27.508  19.773   6.614  0.00  0.00     0.215 C 
ENDROOT
BRANCH   3   4
HETATM    4  C   UNK N   1      28.437  19.033   7.601  0.00  0.00     0.208 C 
BRANCH   4   5
HETATM    5  O   UNK N   1      28.780  17.761   7.170  0.00  0.00    -0.384 OA
BRANCH   5   6
HETATM    6  C   UNK N   1      29.667  17.252   8.121  0.00  0.00     0.206 C 
BRANCH   6   7
HETATM    7  C   UNK N   1      31.025  17.480   7.585  0.00  0.00    -0.035 A 
HETATM    8  C   UNK N   1      31.325  17.100   6.277  0.00  0.00     0.009 A 
HETATM    9  C   UNK N   1      32.644  17.177   5.819  0.00  0.00     0.001 A 
HETATM   10  C   UNK N   1      33.658  17.622   6.676  0.00  0.00     0.000 A 
HETATM   11  C   UNK N   1      33.352  18.008   7.983  0.00  0.00     0.001 A 
HETATM   12  C   UNK N   1      32.037  17.932   8.435  0.00  0.00     0.009 A 
ENDBRANCH   6   7
ENDBRANCH   5   6
ENDBRANCH   4   5
ENDBRANCH   3   4
BRANCH   3  13
HETATM   13  N   UNK N   1      26.594  18.806   6.085  0.00  0.00    -0.340 N 
HETATM   14  C   UNK N   1      26.211  18.807   4.780  0.00  0.00     0.241 C 
HETATM   15  O   UNK N   1      26.679  19.616   3.984  0.00  0.00    -0.271 OA
HETATM   16  H   UNK N   1      26.232  18.116   6.685  0.00  0.00     0.164 HD
BRANCH  14  17
HETATM   17  C   UNK N   1      25.161  17.854   4.335  0.00  0.00     0.178 C 
BRANCH  17  18
HETATM   18  N   UNK N   1      23.887  18.524   4.126  0.00  0.00    -0.330 N 
HETATM   19  C   UNK N   1      22.671  17.902   4.153  0.00  0.00     0.319 C 
HETATM   20  O   UNK N   1      22.583  16.726   4.491  0.00  0.00    -0.247 OA
HETATM   21  N   UNK N   1      21.550  18.584   3.797  0.00  0.00    -0.330 N 
HETATM   22  C   UNK N   1      20.262  17.928   3.767  0.00  0.00     0.153 C 
HETATM   23  C   UNK N   1      21.633  19.925   3.264  0.00  0.00     0.153 C 
HETATM   24  C   UNK N   1      19.647  18.120   2.370  0.00  0.00     0.187 C 
HETATM   25  O   UNK N   1      20.595  18.638   1.457  0.00  0.00    -0.388 OA
HETATM   26  C   UNK N   1      20.936  19.945   1.888  0.00  0.00     0.187 C 
HETATM   27  H   UNK N   1      23.903  19.493   3.953  0.00  0.00     0.165 HD
ENDBRANCH  17  18
BRANCH  17  28
HETATM   28  C   UNK N   1      25.687  17.301   3.005  0.00  0.00     0.038 C 
BRANCH  28  29
HETATM   29  C   UNK N   1      26.342  15.936   3.023  0.00  0.00    -0.020 C 
HETATM   30  C   UNK N   1      26.111  15.207   1.717  0.00  0.00     0.009 C 
HETATM   31  C   UNK N   1      27.834  16.158   3.214  0.00  0.00     0.009 C 
ENDBRANCH  28  29
ENDBRANCH  17  28
ENDBRANCH  14  17
ENDBRANCH   3  13
TORSDOF 9
ENDMDL
MODEL 7
REMARK VINA RESULT:      -6.6      9.279     11.545
REMARK  9 active torsions:
REMARK  status: ('A' for Active; 'I' for Inactive)
REMARK       I    between atoms: C_1  and  N_8 
REMARK       I    between atoms: C_1  and  N_9 
REMARK    1  A    between atoms: C_10  and  N_9 
REMARK    2  A    between atoms: C_10  and  C_11 
REMARK    3  A    between atoms: C_10  and  C_15 
REMARK    4  A    between atoms: C_11  and  C_12 
REMARK       I    between atoms: C_15  and  N_18 
REMARK    5  A    between atoms: C_17  and  O_19 
REMARK    6  A    between atoms: C_17  and  C_29 
REMARK    7  A    between atoms: C_29  and  N_18 
REMARK    8  A    between atoms: O_19  and  C_20 
REMARK    9  A    between atoms: C_20  and  C_21 
ROOT
HETATM    1  C   UNK N   1      35.099  16.631  10.015  0.00  0.00     0.086 C 
HETATM    2  N   UNK N   1      35.659  17.532  10.481  0.00  0.00    -0.195 NA
HETATM    3  C   UNK N   1      34.381  15.470   9.443  0.00  0.00     0.215 C 
ENDROOT
BRANCH   3   4
HETATM    4  C   UNK N   1      34.026  14.257  10.331  0.00  0.00     0.208 C 
BRANCH   4   5
HETATM    5  O   UNK N   1      34.475  14.393  11.636  0.00  0.00    -0.384 OA
BRANCH   5   6
HETATM    6  C   UNK N   1      34.908  13.127  12.034  0.00  0.00     0.206 C 
BRANCH   6   7
HETATM    7  C   UNK N   1      35.468  13.289  13.392  0.00  0.00    -0.035 A 
HETATM    8  C   UNK N   1      34.980  12.508  14.439  0.00  0.00     0.009 A 
HETATM    9  C   UNK N   1      35.402  12.763  15.747  0.00  0.00     0.001 A 
HETATM   10  C   UNK N   1      36.301  13.805  16.003  0.00  0.00     0.000 A 
HETATM   11  C   UNK N   1      36.792  14.581  14.951  0.00  0.00     0.001 A 
HETATM   12  C   UNK N   1      36.372  14.322  13.648  0.00  0.00     0.009 A 
ENDBRANCH   6   7
ENDBRANCH   5   6
ENDBRANCH   4   5
ENDBRANCH   3   4
BRANCH   3  13
HETATM   13  N   UNK N   1      33.153  15.985   8.918  0.00  0.00    -0.340 N 
HETATM   14  C   UNK N   1      33.013  16.337   7.612  0.00  0.00     0.241 C 
HETATM   15  O   UNK N   1      33.929  16.176   6.811  0.00  0.00    -0.271 OA
HETATM   16  H   UNK N   1      32.384  16.088   9.523  0.00  0.00     0.164 HD
BRANCH  14  17
HETATM   17  C   UNK N   1      31.751  16.986   7.170  0.00  0.00     0.178 C 
BRANCH  17  18
HETATM   18  N   UNK N   1      31.031  16.156   6.218  0.00  0.00    -0.330 N 
HETATM   19  C   UNK N   1      30.518  16.603   5.033  0.00  0.00     0.319 C 
HETATM   20  O   UNK N   1      30.757  17.741   4.643  0.00  0.00    -0.247 OA
HETATM   21  N   UNK N   1      29.732  15.787   4.281  0.00  0.00    -0.330 N 
HETATM   22  C   UNK N   1      29.136  16.260   3.051  0.00  0.00     0.153 C 
HETATM   23  C   UNK N   1      29.318  14.492   4.772  0.00  0.00     0.153 C 
HETATM   24  C   UNK N   1      27.615  16.042   3.128  0.00  0.00     0.187 C 
HETATM   25  O   UNK N   1      27.210  15.695   4.438  0.00  0.00    -0.388 OA
HETATM   26  C   UNK N   1      27.776  14.432   4.743  0.00  0.00     0.187 C 
HETATM   27  H   UNK N   1      30.904  15.205   6.442  0.00  0.00     0.165 HD
ENDBRANCH  17  18
BRANCH  17  28
HETATM   28  C   UNK N   1      30.930  17.139   8.457  0.00  0.00     0.038 C 
BRANCH  28  29
HETATM   29  C   UNK N   1      29.780  18.124   8.440  0.00  0.00    -0.020 C 
HETATM   30  C   UNK N   1      28.464  17.416   8.199  0.00  0.00     0.009 C 
HETATM   31  C   UNK N   1      29.743  18.793   9.805  0.00  0.00     0.009 C 
ENDBRANCH  28  29
ENDBRANCH  17  28
ENDBRANCH  14  17
ENDBRANCH   3  13
TORSDOF 9
ENDMDL
MODEL 8
REMARK VINA RESULT:      -6.6      9.528     12.641
REMARK  9 active torsions:
REMARK  status: ('A' for Active; 'I' for Inactive)
REMARK       I    between atoms: C_1  and  N_8 
REMARK       I    between atoms: C_1  and  N_9 
REMARK    1  A    between atoms: C_10  and  N_9 
REMARK    2  A    between atoms: C_10  and  C_11 
REMARK    3  A    between atoms: C_10  and  C_15 
REMARK    4  A    between atoms: C_11  and  C_12 
REMARK       I    between atoms: C_15  and  N_18 
REMARK    5  A    between atoms: C_17  and  O_19 
REMARK    6  A    between atoms: C_17  and  C_29 
REMARK    7  A    between atoms: C_29  and  N_18 
REMARK    8  A    between atoms: O_19  and  C_20 
REMARK    9  A    between atoms: C_20  and  C_21 
ROOT
HETATM    1  C   UNK N   1      30.039  17.987   9.416  0.00  0.00     0.086 C 
HETATM    2  N   UNK N   1      29.629  18.840  10.084  0.00  0.00    -0.195 NA
HETATM    3  C   UNK N   1      30.555  16.910   8.542  0.00  0.00     0.215 C 
ENDROOT
BRANCH   3   4
HETATM    4  C   UNK N   1      30.311  16.957   7.018  0.00  0.00     0.208 C 
BRANCH   4   5
HETATM    5  O   UNK N   1      28.968  17.043   6.688  0.00  0.00    -0.384 OA
BRANCH   5   6
HETATM    6  C   UNK N   1      28.914  17.590   5.405  0.00  0.00     0.206 C 
BRANCH   6   7
HETATM    7  C   UNK N   1      28.042  18.779   5.497  0.00  0.00    -0.035 A 
HETATM    8  C   UNK N   1      27.574  19.386   4.332  0.00  0.00     0.009 A 
HETATM    9  C   UNK N   1      26.875  20.593   4.413  0.00  0.00     0.001 A 
HETATM   10  C   UNK N   1      26.657  21.195   5.658  0.00  0.00     0.000 A 
HETATM   11  C   UNK N   1      27.121  20.581   6.823  0.00  0.00     0.001 A 
HETATM   12  C   UNK N   1      27.815  19.376   6.739  0.00  0.00     0.009 A 
ENDBRANCH   6   7
ENDBRANCH   5   6
ENDBRANCH   4   5
ENDBRANCH   3   4
BRANCH   3  13
HETATM   13  N   UNK N   1      31.972  16.884   8.745  0.00  0.00    -0.340 N 
HETATM   14  C   UNK N   1      32.655  15.726   8.951  0.00  0.00     0.241 C 
HETATM   15  O   UNK N   1      32.083  14.640   8.919  0.00  0.00    -0.271 OA
HETATM   16  H   UNK N   1      32.469  17.732   8.734  0.00  0.00     0.164 HD
BRANCH  14  17
HETATM   17  C   UNK N   1      34.102  15.790   9.283  0.00  0.00     0.178 C 
BRANCH  17  18
HETATM   18  N   UNK N   1      34.636  14.473   9.590  0.00  0.00    -0.330 N 
HETATM   19  C   UNK N   1      34.806  13.981  10.854  0.00  0.00     0.319 C 
HETATM   20  O   UNK N   1      34.384  14.602  11.823  0.00  0.00    -0.247 OA
HETATM   21  N   UNK N   1      35.453  12.800  11.042  0.00  0.00    -0.330 N 
HETATM   22  C   UNK N   1      35.690  12.289  12.375  0.00  0.00     0.153 C 
HETATM   23  C   UNK N   1      36.082  12.111   9.938  0.00  0.00     0.153 C 
HETATM   24  C   UNK N   1      37.197  12.025  12.537  0.00  0.00     0.187 C 
HETATM   25  O   UNK N   1      37.936  12.585  11.468  0.00  0.00    -0.388 OA
HETATM   26  C   UNK N   1      37.570  11.893  10.286  0.00  0.00     0.187 C 
HETATM   27  H   UNK N   1      34.895  13.895   8.835  0.00  0.00     0.165 HD
ENDBRANCH  17  18
BRANCH  17  28
HETATM   28  C   UNK N   1      34.761  16.339   8.012  0.00  0.00     0.038 C 
BRANCH  28  29
HETATM   29  C   UNK N   1      34.415  15.670   6.698  0.00  0.00    -0.020 C 
HETATM   30  C   UNK N   1      33.966  16.688   5.673  0.00  0.00     0.009 C 
HETATM   31  C   UNK N   1      35.677  14.984   6.200  0.00  0.00     0.009 C 
ENDBRANCH  28  29
ENDBRANCH  17  28
ENDBRANCH  14  17
ENDBRANCH   3  13
TORSDOF 9
ENDMDL
MODEL 9
REMARK VINA RESULT:      -6.5      7.602     11.078
REMARK  9 active torsions:
REMARK  status: ('A' for Active; 'I' for Inactive)
REMARK       I    between atoms: C_1  and  N_8 
REMARK       I    between atoms: C_1  and  N_9 
REMARK    1  A    between atoms: C_10  and  N_9 
REMARK    2  A    between atoms: C_10  and  C_11 
REMARK    3  A    between atoms: C_10  and  C_15 
REMARK    4  A    between atoms: C_11  and  C_12 
REMARK       I    between atoms: C_15  and  N_18 
REMARK    5  A    between atoms: C_17  and  O_19 
REMARK    6  A    between atoms: C_17  and  C_29 
REMARK    7  A    between atoms: C_29  and  N_18 
REMARK    8  A    between atoms: O_19  and  C_20 
REMARK    9  A    between atoms: C_20  and  C_21 
ROOT
HETATM    1  C   UNK N   1      30.841  14.362   4.459  0.00  0.00     0.086 C 
HETATM    2  N   UNK N   1      31.290  13.323   4.211  0.00  0.00    -0.195 NA
HETATM    3  C   UNK N   1      30.245  15.681   4.766  0.00  0.00     0.215 C 
ENDROOT
BRANCH   3   4
HETATM    4  C   UNK N   1      28.807  16.013   4.312  0.00  0.00     0.208 C 
BRANCH   4   5
HETATM    5  O   UNK N   1      28.346  17.219   4.816  0.00  0.00    -0.384 OA
BRANCH   5   6
HETATM    6  C   UNK N   1      26.985  17.042   5.071  0.00  0.00     0.206 C 
BRANCH   6   7
HETATM    7  C   UNK N   1      26.300  18.223   4.507  0.00  0.00    -0.035 A 
HETATM    8  C   UNK N   1      24.908  18.246   4.434  0.00  0.00     0.009 A 
HETATM    9  C   UNK N   1      24.267  19.294   3.767  0.00  0.00     0.001 A 
HETATM   10  C   UNK N   1      25.022  20.308   3.166  0.00  0.00     0.000 A 
HETATM   11  C   UNK N   1      26.417  20.286   3.247  0.00  0.00     0.001 A 
HETATM   12  C   UNK N   1      27.052  19.241   3.915  0.00  0.00     0.009 A 
ENDBRANCH   6   7
ENDBRANCH   5   6
ENDBRANCH   4   5
ENDBRANCH   3   4
BRANCH   3  13
HETATM   13  N   UNK N   1      30.280  15.806   6.192  0.00  0.00    -0.340 N 
HETATM   14  C   UNK N   1      31.151  16.636   6.827  0.00  0.00     0.241 C 
HETATM   15  O   UNK N   1      31.916  17.357   6.192  0.00  0.00    -0.271 OA
HETATM   16  H   UNK N   1      29.651  15.276   6.731  0.00  0.00     0.164 HD
BRANCH  14  17
HETATM   17  C   UNK N   1      31.216  16.615   8.312  0.00  0.00     0.178 C 
BRANCH  17  18
HETATM   18  N   UNK N   1      32.547  16.261   8.781  0.00  0.00    -0.330 N 
HETATM   19  C   UNK N   1      32.983  14.982   8.981  0.00  0.00     0.319 C 
HETATM   20  O   UNK N   1      32.288  14.029   8.643  0.00  0.00    -0.247 OA
HETATM   21  N   UNK N   1      34.190  14.759   9.565  0.00  0.00    -0.330 N 
HETATM   22  C   UNK N   1      34.645  13.413   9.835  0.00  0.00     0.153 C 
HETATM   23  C   UNK N   1      34.972  15.851  10.099  0.00  0.00     0.153 C 
HETATM   24  C   UNK N   1      34.993  13.303  11.330  0.00  0.00     0.187 C 
HETATM   25  O   UNK N   1      34.536  14.432  12.049  0.00  0.00    -0.388 OA
HETATM   26  C   UNK N   1      35.263  15.558  11.586  0.00  0.00     0.187 C 
HETATM   27  H   UNK N   1      33.176  16.995   8.969  0.00  0.00     0.165 HD
ENDBRANCH  17  18
BRANCH  17  28
HETATM   28  C   UNK N   1      30.878  18.052   8.728  0.00  0.00     0.038 C 
BRANCH  28  29
HETATM   29  C   UNK N   1      29.570  18.280   9.456  0.00  0.00    -0.020 C 
HETATM   30  C   UNK N   1      28.443  18.530   8.478  0.00  0.00     0.009 C 
HETATM   31  C   UNK N   1      29.272  17.018  10.249  0.00  0.00     0.009 C 
ENDBRANCH  28  29
ENDBRANCH  17  28
ENDBRANCH  14  17
ENDBRANCH   3  13
TORSDOF 9
ENDMDL
