MODEL 1
REMARK VINA RESULT:      -6.8      0.000      0.000
REMARK  7 active torsions:
REMARK  status: ('A' for Active; 'I' for Inactive)
REMARK    1  A    between atoms: C_1  and  C_2 
REMARK       I    between atoms: C_1  and  N_16 
REMARK    2  A    between atoms: C_2  and  C_3 
REMARK    3  A    between atoms: C_3  and  C_4 
REMARK    4  A    between atoms: C_4  and  C_5 
REMARK    5  A    between atoms: C_6  and  C_5 
REMARK    6  A    between atoms: N_16  and  C_17 
REMARK    7  A    between atoms: C_20  and  N_23 
ROOT
HETATM    1  C   UNK N   1      26.374  17.423   5.431  0.00  0.00     0.103 C 
ENDROOT
BRANCH   1   2
HETATM    2  C   UNK N   1      27.705  17.875   5.912  0.00  0.00     0.222 C 
HETATM    3  O   UNK N   1      28.079  19.009   5.655  0.00  0.00    -0.273 OA
HETATM    4  N   UNK N   1      28.489  17.015   6.614  0.00  0.00    -0.327 N 
HETATM    5  H   UNK N   1      28.091  16.163   6.908  0.00  0.00     0.169 HD
BRANCH   4   6
HETATM    6  C   UNK N   1      29.847  17.266   6.952  0.00  0.00     0.034 A 
HETATM    7  C   UNK N   1      30.163  17.753   8.224  0.00  0.00     0.032 A 
HETATM    8  C   UNK N   1      31.500  17.966   8.583  0.00  0.00     0.038 A 
HETATM    9  C   UNK N   1      32.533  17.673   7.675  0.00  0.00     0.103 A 
HETATM   10  C   UNK N   1      32.212  17.170   6.410  0.00  0.00     0.038 A 
HETATM   11  C   UNK N   1      30.883  16.968   6.053  0.00  0.00     0.032 A 
BRANCH   9  12
HETATM   12  N   UNK N   1      33.894  17.880   8.029  0.00  0.00    -0.116 N 
HETATM   13  O   UNK N   1      34.677  18.274   7.219  0.00  0.00    -0.532 OA
HETATM   14  O   UNK N   1      34.299  17.636   9.258  0.00  0.00    -0.532 OA
ENDBRANCH   9  12
ENDBRANCH   4   6
ENDBRANCH   1   2
BRANCH   1  15
HETATM   15  C   UNK N   1      26.236  17.702   3.936  0.00  0.00     0.009 C 
BRANCH  15  16
HETATM   16  C   UNK N   1      24.904  18.350   3.561  0.00  0.00     0.002 C 
BRANCH  16  17
HETATM   17  C   UNK N   1      24.015  18.696   4.756  0.00  0.00     0.017 C 
BRANCH  17  18
HETATM   18  C   UNK N   1      22.521  18.520   4.482  0.00  0.00     0.072 C 
HETATM   19  C   UNK N   1      22.145  19.061   3.124  0.00  0.00     0.123 C 
HETATM   20  C   UNK N   1      20.758  18.513   2.875  0.00  0.00     0.119 C 
HETATM   21  N   UNK N   1      21.990  20.446   2.775  0.00  0.00    -0.335 N 
HETATM   22  C   UNK N   1      21.001  17.034   2.781  0.00  0.00     0.101 C 
HETATM   23  N   UNK N   1      20.311  19.336   1.781  0.00  0.00    -0.336 N 
HETATM   24  S   UNK N   1      22.093  16.727   4.258  0.00  0.00    -0.160 SA
HETATM   25  C   UNK N   1      20.991  20.492   1.881  0.00  0.00     0.316 C 
HETATM   26  H   UNK N   1      19.643  19.100   1.097  0.00  0.00     0.164 HD
HETATM   27  O   UNK N   1      20.728  21.487   1.224  0.00  0.00    -0.247 OA
HETATM   28  H   UNK N   1      22.510  21.206   3.122  0.00  0.00     0.164 HD
ENDBRANCH  17  18
ENDBRANCH  16  17
ENDBRANCH  15  16
ENDBRANCH   1  15
TORSDOF 7
ENDMDL
MODEL 2
REMARK VINA RESULT:      -6.8      5.877      8.584
REMARK  7 active torsions:
REMARK  status: ('A' for Active; 'I' for Inactive)
REMARK    1  A    between atoms: C_1  and  C_2 
REMARK       I    between atoms: C_1  and  N_16 
REMARK    2  A    between atoms: C_2  and  C_3 
REMARK    3  A    between atoms: C_3  and  C_4 
REMARK    4  A    between atoms: C_4  and  C_5 
REMARK    5  A    between atoms: C_6  and  C_5 
REMARK    6  A    between atoms: N_16  and  C_17 
REMARK    7  A    between atoms: C_20  and  N_23 
ROOT
HETATM    1  C   UNK N   1      34.125  18.053   7.798  0.00  0.00     0.103 C 
ENDROOT
BRANCH   1   2
HETATM    2  C   UNK N   1      34.700  17.318   8.955  0.00  0.00     0.222 C 
HETATM    3  O   UNK N   1      35.357  17.929   9.784  0.00  0.00    -0.273 OA
HETATM    4  N   UNK N   1      34.501  15.978   9.061  0.00  0.00    -0.327 N 
HETATM    5  H   UNK N   1      33.858  15.557   8.444  0.00  0.00     0.169 HD
BRANCH   4   6
HETATM    6  C   UNK N   1      35.159  15.144  10.006  0.00  0.00     0.034 A 
HETATM    7  C   UNK N   1      34.520  14.824  11.207  0.00  0.00     0.032 A 
HETATM    8  C   UNK N   1      35.141  13.971  12.128  0.00  0.00     0.038 A 
HETATM    9  C   UNK N   1      36.402  13.417  11.843  0.00  0.00     0.103 A 
HETATM   10  C   UNK N   1      37.029  13.727  10.633  0.00  0.00     0.038 A 
HETATM   11  C   UNK N   1      36.413  14.581   9.724  0.00  0.00     0.032 A 
BRANCH   9  12
HETATM   12  N   UNK N   1      37.039  12.546  12.767  0.00  0.00    -0.116 N 
HETATM   13  O   UNK N   1      37.764  11.680  12.381  0.00  0.00    -0.532 OA
HETATM   14  O   UNK N   1      36.833  12.690  14.060  0.00  0.00    -0.532 OA
ENDBRANCH   9  12
ENDBRANCH   4   6
ENDBRANCH   1   2
BRANCH   1  15
HETATM   15  C   UNK N   1      34.123  17.159   6.560  0.00  0.00     0.009 C 
BRANCH  15  16
HETATM   16  C   UNK N   1      32.739  16.991   5.937  0.00  0.00     0.002 C 
BRANCH  16  17
HETATM   17  C   UNK N   1      31.941  15.808   6.487  0.00  0.00     0.017 C 
BRANCH  17  18
HETATM   18  C   UNK N   1      30.469  16.128   6.749  0.00  0.00     0.072 C 
HETATM   19  C   UNK N   1      30.319  17.391   7.561  0.00  0.00     0.123 C 
HETATM   20  C   UNK N   1      28.853  17.742   7.437  0.00  0.00     0.119 C 
HETATM   21  N   UNK N   1      30.542  17.523   8.974  0.00  0.00    -0.335 N 
HETATM   22  C   UNK N   1      28.715  18.061   5.976  0.00  0.00     0.101 C 
HETATM   23  N   UNK N   1      28.692  18.702   8.499  0.00  0.00    -0.336 N 
HETATM   24  S   UNK N   1      29.609  16.633   5.182  0.00  0.00    -0.160 SA
HETATM   25  C   UNK N   1      29.639  18.414   9.410  0.00  0.00     0.316 C 
HETATM   26  H   UNK N   1      28.024  19.424   8.548  0.00  0.00     0.164 HD
HETATM   27  O   UNK N   1      29.675  18.912  10.523  0.00  0.00    -0.247 OA
HETATM   28  H   UNK N   1      31.220  17.055   9.513  0.00  0.00     0.164 HD
ENDBRANCH  17  18
ENDBRANCH  16  17
ENDBRANCH  15  16
ENDBRANCH   1  15
TORSDOF 7
ENDMDL
MODEL 3
REMARK VINA RESULT:      -6.7      3.791     11.140
REMARK  7 active torsions:
REMARK  status: ('A' for Active; 'I' for Inactive)
REMARK    1  A    between atoms: C_1  and  C_2 
REMARK       I    between atoms: C_1  and  N_16 
REMARK    2  A    between atoms: C_2  and  C_3 
REMARK    3  A    between atoms: C_3  and  C_4 
REMARK    4  A    between atoms: C_4  and  C_5 
REMARK    5  A    between atoms: C_6  and  C_5 
REMARK    6  A    between atoms: N_16  and  C_17 
REMARK    7  A    between atoms: C_20  and  N_23 
ROOT
HETATM    1  C   UNK N   1      28.839  17.313   7.995  0.00  0.00     0.103 C 
ENDROOT
BRANCH   1   2
HETATM    2  C   UNK N   1      28.096  18.223   7.086  0.00  0.00     0.222 C 
HETATM    3  O   UNK N   1      27.834  19.356   7.459  0.00  0.00    -0.273 OA
HETATM    4  N   UNK N   1      27.706  17.775   5.863  0.00  0.00    -0.327 N 
HETATM    5  H   UNK N   1      28.054  16.905   5.559  0.00  0.00     0.169 HD
BRANCH   4   6
HETATM    6  C   UNK N   1      26.828  18.480   4.995  0.00  0.00     0.034 A 
HETATM    7  C   UNK N   1      25.474  18.136   4.955  0.00  0.00     0.032 A 
HETATM    8  C   UNK N   1      24.591  18.850   4.135  0.00  0.00     0.038 A 
HETATM    9  C   UNK N   1      25.057  19.929   3.362  0.00  0.00     0.103 A 
HETATM   10  C   UNK N   1      26.410  20.279   3.419  0.00  0.00     0.038 A 
HETATM   11  C   UNK N   1      27.285  19.563   4.228  0.00  0.00     0.032 A 
BRANCH   9  12
HETATM   12  N   UNK N   1      24.171  20.664   2.530  0.00  0.00    -0.116 N 
HETATM   13  O   UNK N   1      24.281  20.623   1.342  0.00  0.00    -0.532 OA
HETATM   14  O   UNK N   1      23.219  21.399   3.067  0.00  0.00    -0.532 OA
ENDBRANCH   9  12
ENDBRANCH   4   6
ENDBRANCH   1   2
BRANCH   1  15
HETATM   15  C   UNK N   1      29.574  18.123   9.060  0.00  0.00     0.009 C 
BRANCH  15  16
HETATM   16  C   UNK N   1      31.090  18.136   8.872  0.00  0.00     0.002 C 
BRANCH  16  17
HETATM   17  C   UNK N   1      31.684  16.791   8.454  0.00  0.00     0.017 C 
BRANCH  17  18
HETATM   18  C   UNK N   1      33.196  16.695   8.663  0.00  0.00     0.072 C 
HETATM   19  C   UNK N   1      33.568  15.436   9.408  0.00  0.00     0.123 C 
HETATM   20  C   UNK N   1      35.065  15.326   9.230  0.00  0.00     0.119 C 
HETATM   21  N   UNK N   1      33.413  15.207  10.818  0.00  0.00    -0.335 N 
HETATM   22  C   UNK N   1      35.204  15.100   7.752  0.00  0.00     0.101 C 
HETATM   23  N   UNK N   1      35.408  14.356  10.239  0.00  0.00    -0.336 N 
HETATM   24  S   UNK N   1      34.073  16.403   7.053  0.00  0.00    -0.160 SA
HETATM   25  C   UNK N   1      34.458  14.450  11.186  0.00  0.00     0.316 C 
HETATM   26  H   UNK N   1      36.182  13.748  10.235  0.00  0.00     0.164 HD
HETATM   27  O   UNK N   1      34.537  13.903  12.274  0.00  0.00    -0.247 OA
HETATM   28  H   UNK N   1      32.689  15.537  11.396  0.00  0.00     0.164 HD
ENDBRANCH  17  18
ENDBRANCH  16  17
ENDBRANCH  15  16
ENDBRANCH   1  15
TORSDOF 7
ENDMDL
MODEL 4
REMARK VINA RESULT:      -6.7      3.310      4.246
REMARK  7 active torsions:
REMARK  status: ('A' for Active; 'I' for Inactive)
REMARK    1  A    between atoms: C_1  and  C_2 
REMARK       I    between atoms: C_1  and  N_16 
REMARK    2  A    between atoms: C_2  and  C_3 
REMARK    3  A    between atoms: C_3  and  C_4 
REMARK    4  A    between atoms: C_4  and  C_5 
REMARK    5  A    between atoms: C_6  and  C_5 
REMARK    6  A    between atoms: N_16  and  C_17 
REMARK    7  A    between atoms: C_20  and  N_23 
ROOT
HETATM    1  C   UNK N   1      28.949  14.382   4.571  0.00  0.00     0.103 C 
ENDROOT
BRANCH   1   2
HETATM    2  C   UNK N   1      30.181  14.779   5.300  0.00  0.00     0.222 C 
HETATM    3  O   UNK N   1      30.856  13.918   5.845  0.00  0.00    -0.273 OA
HETATM    4  N   UNK N   1      30.526  16.092   5.365  0.00  0.00    -0.327 N 
HETATM    5  H   UNK N   1      30.026  16.727   4.802  0.00  0.00     0.169 HD
BRANCH   4   6
HETATM    6  C   UNK N   1      31.562  16.607   6.191  0.00  0.00     0.034 A 
HETATM    7  C   UNK N   1      32.849  16.760   5.668  0.00  0.00     0.032 A 
HETATM    8  C   UNK N   1      33.869  17.304   6.459  0.00  0.00     0.038 A 
HETATM    9  C   UNK N   1      33.600  17.717   7.777  0.00  0.00     0.103 A 
HETATM   10  C   UNK N   1      32.307  17.576   8.289  0.00  0.00     0.038 A 
HETATM   11  C   UNK N   1      31.298  17.027   7.504  0.00  0.00     0.032 A 
BRANCH   9  12
HETATM   12  N   UNK N   1      34.625  18.275   8.588  0.00  0.00    -0.116 N 
HETATM   13  O   UNK N   1      35.097  19.337   8.320  0.00  0.00    -0.532 OA
HETATM   14  O   UNK N   1      35.061  17.618   9.643  0.00  0.00    -0.532 OA
ENDBRANCH   9  12
ENDBRANCH   4   6
ENDBRANCH   1   2
BRANCH   1  15
HETATM   15  C   UNK N   1      27.727  14.569   5.467  0.00  0.00     0.009 C 
BRANCH  15  16
HETATM   16  C   UNK N   1      26.719  15.574   4.915  0.00  0.00     0.002 C 
BRANCH  16  17
HETATM   17  C   UNK N   1      26.533  16.820   5.782  0.00  0.00     0.017 C 
BRANCH  17  18
HETATM   18  C   UNK N   1      27.264  18.054   5.250  0.00  0.00     0.072 C 
HETATM   19  C   UNK N   1      26.294  19.072   4.702  0.00  0.00     0.123 C 
HETATM   20  C   UNK N   1      27.121  20.328   4.545  0.00  0.00     0.119 C 
HETATM   21  N   UNK N   1      25.611  19.000   3.440  0.00  0.00    -0.335 N 
HETATM   22  C   UNK N   1      27.468  20.672   5.965  0.00  0.00     0.101 C 
HETATM   23  N   UNK N   1      26.278  21.128   3.695  0.00  0.00    -0.336 N 
HETATM   24  S   UNK N   1      28.022  19.027   6.638  0.00  0.00    -0.160 SA
HETATM   25  C   UNK N   1      25.523  20.263   2.995  0.00  0.00     0.316 C 
HETATM   26  H   UNK N   1      26.257  22.111   3.638  0.00  0.00     0.164 HD
HETATM   27  O   UNK N   1      24.827  20.590   2.048  0.00  0.00    -0.247 OA
HETATM   28  H   UNK N   1      25.277  18.190   2.993  0.00  0.00     0.164 HD
ENDBRANCH  17  18
ENDBRANCH  16  17
ENDBRANCH  15  16
ENDBRANCH   1  15
TORSDOF 7
ENDMDL
MODEL 5
REMARK VINA RESULT:      -6.6      5.103      9.579
REMARK  7 active torsions:
REMARK  status: ('A' for Active; 'I' for Inactive)
REMARK    1  A    between atoms: C_1  and  C_2 
REMARK       I    between atoms: C_1  and  N_16 
REMARK    2  A    between atoms: C_2  and  C_3 
REMARK    3  A    between atoms: C_3  and  C_4 
REMARK    4  A    between atoms: C_4  and  C_5 
REMARK    5  A    between atoms: C_6  and  C_5 
REMARK    6  A    between atoms: N_16  and  C_17 
REMARK    7  A    between atoms: C_20  and  N_23 
ROOT
HETATM    1  C   UNK N   1      26.872  16.216   5.973  0.00  0.00     0.103 C 
ENDROOT
BRANCH   1   2
HETATM    2  C   UNK N   1      25.845  16.768   5.052  0.00  0.00     0.222 C 
HETATM    3  O   UNK N   1      25.795  16.361   3.901  0.00  0.00    -0.273 OA
HETATM    4  N   UNK N   1      24.993  17.728   5.499  0.00  0.00    -0.327 N 
HETATM    5  H   UNK N   1      24.987  17.925   6.464  0.00  0.00     0.169 HD
BRANCH   4   6
HETATM    6  C   UNK N   1      24.109  18.465   4.664  0.00  0.00     0.034 A 
HETATM    7  C   UNK N   1      24.592  19.567   3.951  0.00  0.00     0.032 A 
HETATM    8  C   UNK N   1      23.742  20.276   3.094  0.00  0.00     0.038 A 
HETATM    9  C   UNK N   1      22.404  19.875   2.930  0.00  0.00     0.103 A 
HETATM   10  C   UNK N   1      21.931  18.762   3.633  0.00  0.00     0.038 A 
HETATM   11  C   UNK N   1      22.776  18.064   4.490  0.00  0.00     0.032 A 
BRANCH   9  12
HETATM   12  N   UNK N   1      21.533  20.583   2.060  0.00  0.00    -0.116 N 
HETATM   13  O   UNK N   1      21.821  20.741   0.912  0.00  0.00    -0.532 OA
HETATM   14  O   UNK N   1      20.399  21.073   2.517  0.00  0.00    -0.532 OA
ENDBRANCH   9  12
ENDBRANCH   4   6
ENDBRANCH   1   2
BRANCH   1  15
HETATM   15  C   UNK N   1      26.725  14.699   6.071  0.00  0.00     0.009 C 
BRANCH  15  16
HETATM   16  C   UNK N   1      25.348  14.254   6.558  0.00  0.00     0.002 C 
BRANCH  16  17
HETATM   17  C   UNK N   1      25.282  13.934   8.052  0.00  0.00     0.017 C 
BRANCH  17  18
HETATM   18  C   UNK N   1      24.348  12.771   8.391  0.00  0.00     0.072 C 
HETATM   19  C   UNK N   1      23.808  12.893   9.795  0.00  0.00     0.123 C 
HETATM   20  C   UNK N   1      22.674  11.895   9.847  0.00  0.00     0.119 C 
HETATM   21  N   UNK N   1      24.522  12.602  11.007  0.00  0.00    -0.335 N 
HETATM   22  C   UNK N   1      21.686  12.470   8.873  0.00  0.00     0.101 C 
HETATM   23  N   UNK N   1      22.448  11.782  11.265  0.00  0.00    -0.336 N 
HETATM   24  S   UNK N   1      22.772  12.878   7.416  0.00  0.00    -0.160 SA
HETATM   25  C   UNK N   1      23.618  12.088  11.855  0.00  0.00     0.316 C 
HETATM   26  H   UNK N   1      21.608  11.532  11.712  0.00  0.00     0.164 HD
HETATM   27  O   UNK N   1      23.837  11.915  13.043  0.00  0.00    -0.247 OA
HETATM   28  H   UNK N   1      25.479  12.749  11.181  0.00  0.00     0.164 HD
ENDBRANCH  17  18
ENDBRANCH  16  17
ENDBRANCH  15  16
ENDBRANCH   1  15
TORSDOF 7
ENDMDL
MODEL 6
REMARK VINA RESULT:      -6.6      2.659     10.776
REMARK  7 active torsions:
REMARK  status: ('A' for Active; 'I' for Inactive)
REMARK    1  A    between atoms: C_1  and  C_2 
REMARK       I    between atoms: C_1  and  N_16 
REMARK    2  A    between atoms: C_2  and  C_3 
REMARK    3  A    between atoms: C_3  and  C_4 
REMARK    4  A    between atoms: C_4  and  C_5 
REMARK    5  A    between atoms: C_6  and  C_5 
REMARK    6  A    between atoms: N_16  and  C_17 
REMARK    7  A    between atoms: C_20  and  N_23 
ROOT
HETATM    1  C   UNK N   1      28.046  17.024   5.916  0.00  0.00     0.103 C 
ENDROOT
BRANCH   1   2
HETATM    2  C   UNK N   1      26.868  17.353   5.073  0.00  0.00     0.222 C 
HETATM    3  O   UNK N   1      26.691  16.743   4.030  0.00  0.00    -0.273 OA
HETATM    4  N   UNK N   1      26.017  18.337   5.467  0.00  0.00    -0.327 N 
HETATM    5  H   UNK N   1      26.128  18.706   6.374  0.00  0.00     0.169 HD
BRANCH   4   6
HETATM    6  C   UNK N   1      24.978  18.869   4.655  0.00  0.00     0.034 A 
HETATM    7  C   UNK N   1      23.687  18.343   4.755  0.00  0.00     0.032 A 
HETATM    8  C   UNK N   1      22.647  18.885   3.991  0.00  0.00     0.038 A 
HETATM    9  C   UNK N   1      22.889  19.973   3.132  0.00  0.00     0.103 A 
HETATM   10  C   UNK N   1      24.179  20.505   3.049  0.00  0.00     0.038 A 
HETATM   11  C   UNK N   1      25.212  19.960   3.804  0.00  0.00     0.032 A 
BRANCH   9  12
HETATM   12  N   UNK N   1      21.840  20.534   2.356  0.00  0.00    -0.116 N 
HETATM   13  O   UNK N   1      21.915  20.557   1.165  0.00  0.00    -0.532 OA
HETATM   14  O   UNK N   1      20.776  21.036   2.949  0.00  0.00    -0.532 OA
ENDBRANCH   9  12
ENDBRANCH   4   6
ENDBRANCH   1   2
BRANCH   1  15
HETATM   15  C   UNK N   1      28.275  18.126   6.948  0.00  0.00     0.009 C 
BRANCH  15  16
HETATM   16  C   UNK N   1      29.560  17.946   7.753  0.00  0.00     0.002 C 
BRANCH  16  17
HETATM   17  C   UNK N   1      30.279  16.619   7.501  0.00  0.00     0.017 C 
BRANCH  17  18
HETATM   18  C   UNK N   1      31.701  16.783   6.964  0.00  0.00     0.072 C 
HETATM   19  C   UNK N   1      32.727  16.397   8.001  0.00  0.00     0.123 C 
HETATM   20  C   UNK N   1      34.019  16.286   7.225  0.00  0.00     0.119 C 
HETATM   21  N   UNK N   1      33.123  17.182   9.137  0.00  0.00    -0.335 N 
HETATM   22  C   UNK N   1      33.756  15.121   6.314  0.00  0.00     0.101 C 
HETATM   23  N   UNK N   1      34.997  16.288   8.283  0.00  0.00    -0.336 N 
HETATM   24  S   UNK N   1      32.064  15.525   5.648  0.00  0.00    -0.160 SA
HETATM   25  C   UNK N   1      34.433  16.945   9.311  0.00  0.00     0.316 C 
HETATM   26  H   UNK N   1      35.896  15.889   8.258  0.00  0.00     0.164 HD
HETATM   27  O   UNK N   1      35.048  17.294  10.306  0.00  0.00    -0.247 OA
HETATM   28  H   UNK N   1      32.552  17.774   9.677  0.00  0.00     0.164 HD
ENDBRANCH  17  18
ENDBRANCH  16  17
ENDBRANCH  15  16
ENDBRANCH   1  15
TORSDOF 7
ENDMDL
MODEL 7
REMARK VINA RESULT:      -6.6      9.604     13.729
REMARK  7 active torsions:
REMARK  status: ('A' for Active; 'I' for Inactive)
REMARK    1  A    between atoms: C_1  and  C_2 
REMARK       I    between atoms: C_1  and  N_16 
REMARK    2  A    between atoms: C_2  and  C_3 
REMARK    3  A    between atoms: C_3  and  C_4 
REMARK    4  A    between atoms: C_4  and  C_5 
REMARK    5  A    between atoms: C_6  and  C_5 
REMARK    6  A    between atoms: N_16  and  C_17 
REMARK    7  A    between atoms: C_20  and  N_23 
ROOT
HETATM    1  C   UNK N   1      35.815  14.074  13.398  0.00  0.00     0.103 C 
ENDROOT
BRANCH   1   2
HETATM    2  C   UNK N   1      36.073  13.402  14.698  0.00  0.00     0.222 C 
HETATM    3  O   UNK N   1      37.211  13.058  14.977  0.00  0.00    -0.273 OA
HETATM    4  N   UNK N   1      35.037  13.167  15.546  0.00  0.00    -0.327 N 
HETATM    5  H   UNK N   1      34.167  13.579  15.337  0.00  0.00     0.169 HD
BRANCH   4   6
HETATM    6  C   UNK N   1      35.128  12.365  16.717  0.00  0.00     0.034 A 
HETATM    7  C   UNK N   1      35.224  12.979  17.969  0.00  0.00     0.032 A 
HETATM    8  C   UNK N   1      35.273  12.202  19.131  0.00  0.00     0.038 A 
HETATM    9  C   UNK N   1      35.208  10.799  19.050  0.00  0.00     0.103 A 
HETATM   10  C   UNK N   1      35.095  10.190  17.796  0.00  0.00     0.038 A 
HETATM   11  C   UNK N   1      35.055  10.965  16.642  0.00  0.00     0.032 A 
BRANCH   9  12
HETATM   12  N   UNK N   1      35.252   9.998  20.223  0.00  0.00    -0.116 N 
HETATM   13  O   UNK N   1      34.476   9.105  20.375  0.00  0.00    -0.532 OA
HETATM   14  O   UNK N   1      36.153  10.241  21.153  0.00  0.00    -0.532 OA
ENDBRANCH   9  12
ENDBRANCH   4   6
ENDBRANCH   1   2
BRANCH   1  15
HETATM   15  C   UNK N   1      35.962  13.073  12.254  0.00  0.00     0.009 C 
BRANCH  15  16
HETATM   16  C   UNK N   1      35.261  13.512  10.971  0.00  0.00     0.002 C 
BRANCH  16  17
HETATM   17  C   UNK N   1      34.137  14.527  11.184  0.00  0.00     0.017 C 
BRANCH  17  18
HETATM   18  C   UNK N   1      33.496  15.017   9.884  0.00  0.00     0.072 C 
HETATM   19  C   UNK N   1      34.370  16.034   9.192  0.00  0.00     0.123 C 
HETATM   20  C   UNK N   1      33.780  16.149   7.805  0.00  0.00     0.119 C 
HETATM   21  N   UNK N   1      34.530  17.411   9.567  0.00  0.00    -0.335 N 
HETATM   22  C   UNK N   1      34.033  14.787   7.226  0.00  0.00     0.101 C 
HETATM   23  N   UNK N   1      34.391  17.364   7.327  0.00  0.00    -0.336 N 
HETATM   24  S   UNK N   1      33.473  13.670   8.606  0.00  0.00    -0.160 SA
HETATM   25  C   UNK N   1      34.676  18.093   8.421  0.00  0.00     0.316 C 
HETATM   26  H   UNK N   1      34.564  17.610   6.390  0.00  0.00     0.164 HD
HETATM   27  O   UNK N   1      35.034  19.259   8.377  0.00  0.00    -0.247 OA
HETATM   28  H   UNK N   1      34.532  17.780  10.480  0.00  0.00     0.164 HD
ENDBRANCH  17  18
ENDBRANCH  16  17
ENDBRANCH  15  16
ENDBRANCH   1  15
TORSDOF 7
ENDMDL
MODEL 8
REMARK VINA RESULT:      -6.5      4.022      4.995
REMARK  7 active torsions:
REMARK  status: ('A' for Active; 'I' for Inactive)
REMARK    1  A    between atoms: C_1  and  C_2 
REMARK       I    between atoms: C_1  and  N_16 
REMARK    2  A    between atoms: C_2  and  C_3 
REMARK    3  A    between atoms: C_3  and  C_4 
REMARK    4  A    between atoms: C_4  and  C_5 
REMARK    5  A    between atoms: C_6  and  C_5 
REMARK    6  A    between atoms: N_16  and  C_17 
REMARK    7  A    between atoms: C_20  and  N_23 
ROOT
HETATM    1  C   UNK N   1      27.894  15.061   1.784  0.00  0.00     0.103 C 
ENDROOT
BRANCH   1   2
HETATM    2  C   UNK N   1      29.041  15.252   2.709  0.00  0.00     0.222 C 
HETATM    3  O   UNK N   1      29.414  14.316   3.399  0.00  0.00    -0.273 OA
HETATM    4  N   UNK N   1      29.643  16.469   2.785  0.00  0.00    -0.327 N 
HETATM    5  H   UNK N   1      29.394  17.148   2.118  0.00  0.00     0.169 HD
BRANCH   4   6
HETATM    6  C   UNK N   1      30.610  16.822   3.766  0.00  0.00     0.034 A 
HETATM    7  C   UNK N   1      30.238  16.881   5.112  0.00  0.00     0.032 A 
HETATM    8  C   UNK N   1      31.190  17.188   6.091  0.00  0.00     0.038 A 
HETATM    9  C   UNK N   1      32.529  17.421   5.730  0.00  0.00     0.103 A 
HETATM   10  C   UNK N   1      32.899  17.345   4.384  0.00  0.00     0.038 A 
HETATM   11  C   UNK N   1      31.949  17.048   3.412  0.00  0.00     0.032 A 
BRANCH   9  12
HETATM   12  N   UNK N   1      33.506  17.729   6.715  0.00  0.00    -0.116 N 
HETATM   13  O   UNK N   1      34.665  17.549   6.496  0.00  0.00    -0.532 OA
HETATM   14  O   UNK N   1      33.135  18.215   7.882  0.00  0.00    -0.532 OA
ENDBRANCH   9  12
ENDBRANCH   4   6
ENDBRANCH   1   2
BRANCH   1  15
HETATM   15  C   UNK N   1      26.581  15.109   2.561  0.00  0.00     0.009 C 
BRANCH  15  16
HETATM   16  C   UNK N   1      26.115  16.528   2.877  0.00  0.00     0.002 C 
BRANCH  16  17
HETATM   17  C   UNK N   1      25.415  16.675   4.229  0.00  0.00     0.017 C 
BRANCH  17  18
HETATM   18  C   UNK N   1      25.419  18.105   4.771  0.00  0.00     0.072 C 
HETATM   19  C   UNK N   1      26.750  18.453   5.392  0.00  0.00     0.123 C 
HETATM   20  C   UNK N   1      26.704  19.955   5.556  0.00  0.00     0.119 C 
HETATM   21  N   UNK N   1      27.225  18.022   6.678  0.00  0.00    -0.335 N 
HETATM   22  C   UNK N   1      26.667  20.439   4.136  0.00  0.00     0.101 C 
HETATM   23  N   UNK N   1      27.798  20.182   6.467  0.00  0.00    -0.336 N 
HETATM   24  S   UNK N   1      25.363  19.341   3.386  0.00  0.00    -0.160 SA
HETATM   25  C   UNK N   1      27.943  19.044   7.168  0.00  0.00     0.316 C 
HETATM   26  H   UNK N   1      28.331  21.005   6.556  0.00  0.00     0.164 HD
HETATM   27  O   UNK N   1      28.657  18.947   8.153  0.00  0.00    -0.247 OA
HETATM   28  H   UNK N   1      27.057  17.155   7.111  0.00  0.00     0.164 HD
ENDBRANCH  17  18
ENDBRANCH  16  17
ENDBRANCH  15  16
ENDBRANCH   1  15
TORSDOF 7
ENDMDL
MODEL 9
REMARK VINA RESULT:      -6.5      4.747      7.896
REMARK  7 active torsions:
REMARK  status: ('A' for Active; 'I' for Inactive)
REMARK    1  A    between atoms: C_1  and  C_2 
REMARK       I    between atoms: C_1  and  N_16 
REMARK    2  A    between atoms: C_2  and  C_3 
REMARK    3  A    between atoms: C_3  and  C_4 
REMARK    4  A    between atoms: C_4  and  C_5 
REMARK    5  A    between atoms: C_6  and  C_5 
REMARK    6  A    between atoms: N_16  and  C_17 
REMARK    7  A    between atoms: C_20  and  N_23 
ROOT
HETATM    1  C   UNK N   1      34.167  17.971   7.770  0.00  0.00     0.103 C 
ENDROOT
BRANCH   1   2
HETATM    2  C   UNK N   1      34.722  17.265   8.953  0.00  0.00     0.222 C 
HETATM    3  O   UNK N   1      35.338  17.901   9.794  0.00  0.00    -0.273 OA
HETATM    4  N   UNK N   1      34.553  15.921   9.070  0.00  0.00    -0.327 N 
HETATM    5  H   UNK N   1      33.940  15.478   8.439  0.00  0.00     0.169 HD
BRANCH   4   6
HETATM    6  C   UNK N   1      35.201  15.115  10.045  0.00  0.00     0.034 A 
HETATM    7  C   UNK N   1      34.567  14.864  11.266  0.00  0.00     0.032 A 
HETATM    8  C   UNK N   1      35.177  14.039  12.218  0.00  0.00     0.038 A 
HETATM    9  C   UNK N   1      36.422  13.442  11.946  0.00  0.00     0.103 A 
HETATM   10  C   UNK N   1      37.043  13.683  10.717  0.00  0.00     0.038 A 
HETATM   11  C   UNK N   1      36.439  14.510   9.776  0.00  0.00     0.032 A 
BRANCH   9  12
HETATM   12  N   UNK N   1      37.049  12.599  12.902  0.00  0.00    -0.116 N 
HETATM   13  O   UNK N   1      37.760  11.708  12.549  0.00  0.00    -0.532 OA
HETATM   14  O   UNK N   1      36.846  12.795  14.189  0.00  0.00    -0.532 OA
ENDBRANCH   9  12
ENDBRANCH   4   6
ENDBRANCH   1   2
BRANCH   1  15
HETATM   15  C   UNK N   1      33.848  16.969   6.664  0.00  0.00     0.009 C 
BRANCH  15  16
HETATM   16  C   UNK N   1      32.416  17.076   6.143  0.00  0.00     0.002 C 
BRANCH  16  17
HETATM   17  C   UNK N   1      31.350  16.593   7.128  0.00  0.00     0.017 C 
BRANCH  17  18
HETATM   18  C   UNK N   1      30.447  17.709   7.653  0.00  0.00     0.072 C 
HETATM   19  C   UNK N   1      29.123  17.729   6.928  0.00  0.00     0.123 C 
HETATM   20  C   UNK N   1      28.250  18.629   7.772  0.00  0.00     0.119 C 
HETATM   21  N   UNK N   1      28.888  18.235   5.604  0.00  0.00    -0.335 N 
HETATM   22  C   UNK N   1      28.115  17.851   9.050  0.00  0.00     0.101 C 
HETATM   23  N   UNK N   1      27.161  18.909   6.870  0.00  0.00    -0.336 N 
HETATM   24  S   UNK N   1      29.876  17.345   9.382  0.00  0.00    -0.160 SA
HETATM   25  C   UNK N   1      27.663  18.781   5.629  0.00  0.00     0.316 C 
HETATM   26  H   UNK N   1      26.238  19.146   7.114  0.00  0.00     0.164 HD
HETATM   27  O   UNK N   1      27.064  19.126   4.623  0.00  0.00    -0.247 OA
HETATM   28  H   UNK N   1      29.501  18.192   4.836  0.00  0.00     0.164 HD
ENDBRANCH  17  18
ENDBRANCH  16  17
ENDBRANCH  15  16
ENDBRANCH   1  15
TORSDOF 7
ENDMDL
