MODEL 1
REMARK VINA RESULT:      -6.8      0.000      0.000
REMARK  7 active torsions:
REMARK  status: ('A' for Active; 'I' for Inactive)
REMARK    1  A    between atoms: C_1  and  N_11 
REMARK    2  A    between atoms: C_4  and  C_7 
REMARK    3  A    between atoms: C_7  and  N_10 
REMARK    4  A    between atoms: N_11  and  N_12 
REMARK    5  A    between atoms: N_14  and  C_16 
REMARK    6  A    between atoms: C_19  and  C_22 
REMARK    7  A    between atoms: C_22  and  N_25 
ROOT
HETATM    1  N   UNK N   1      36.880  13.194  13.711  0.00  0.00    -0.242 N 
ATOM      2  HN  UNK N   1      36.934  14.037  14.282  1.00  0.00     0.208 HD
HETATM    3  N   UNK N   1      36.457  12.157  14.247  0.00  0.00    -0.287 N 
ATOM      4  HN  UNK N   1      36.379  11.281  13.731  1.00  0.00     0.188 HD
ENDROOT
BRANCH   1   5
HETATM    5  N   UNK N   1      37.279  13.280  12.404  0.00  0.00    -0.287 N 
HETATM    6  H   UNK N   1      38.047  12.771  12.059  0.00  0.00     0.188 HD
BRANCH   5   7
HETATM    7  C   UNK N   1      36.520  14.146  11.580  0.00  0.00     0.049 A 
HETATM    8  C   UNK N   1      36.044  15.348  12.128  0.00  0.00     0.032 A 
HETATM    9  C   UNK N   1      35.297  16.233  11.372  0.00  0.00     0.017 A 
HETATM   10  C   UNK N   1      35.003  15.942  10.042  0.00  0.00     0.007 A 
HETATM   11  C   UNK N   1      35.473  14.738   9.476  0.00  0.00     0.017 A 
HETATM   12  C   UNK N   1      36.232  13.838  10.245  0.00  0.00     0.032 A 
BRANCH  10  13
HETATM   13  C   UNK N   1      34.203  16.910   9.264  0.00  0.00     0.102 C 
HETATM   14  N   UNK N   1      32.971  16.676   9.002  0.00  0.00    -0.385 N 
HETATM   15  H   UNK N   1      32.550  15.845   9.320  0.00  0.00     0.157 HD
ATOM     16  HN  UNK N   1      32.427  17.350   8.464  1.00  0.00     0.157 HD
BRANCH  13  17
HETATM   17  N   UNK N   1      34.797  18.110   8.801  0.00  0.00    -0.385 N 
HETATM   18  H   UNK N   1      34.862  18.889   9.398  0.00  0.00     0.157 HD
HETATM   19  H   UNK N   1      35.145  18.163   7.882  0.00  0.00     0.157 HD
ENDBRANCH  13  17
ENDBRANCH  10  13
ENDBRANCH   5   7
ENDBRANCH   1   5
BRANCH   3  20
HETATM   20  C   UNK N   1      36.087  12.251  15.615  0.00  0.00     0.049 A 
HETATM   21  C   UNK N   1      35.701  13.464  16.195  0.00  0.00     0.032 A 
HETATM   22  C   UNK N   1      35.345  13.500  17.555  0.00  0.00     0.017 A 
HETATM   23  C   UNK N   1      35.374  12.323  18.333  0.00  0.00     0.007 A 
HETATM   24  C   UNK N   1      35.759  11.122  17.743  0.00  0.00     0.017 A 
HETATM   25  C   UNK N   1      36.110  11.087  16.405  0.00  0.00     0.032 A 
BRANCH  23  26
HETATM   26  C   UNK N   1      35.006  12.325  19.763  0.00  0.00     0.102 C 
HETATM   27  N   UNK N   1      34.964  11.232  20.428  0.00  0.00    -0.385 N 
HETATM   28  H   UNK N   1      34.717  11.244  21.381  0.00  0.00     0.157 HD
ATOM     29  HN  UNK N   1      35.186  10.347  19.969  1.00  0.00     0.157 HD
BRANCH  26  30
HETATM   30  N   UNK N   1      34.695  13.545  20.411  0.00  0.00    -0.385 N 
HETATM   31  H   UNK N   1      35.287  14.324  20.304  0.00  0.00     0.157 HD
HETATM   32  H   UNK N   1      33.886  13.615  20.968  0.00  0.00     0.157 HD
ENDBRANCH  26  30
ENDBRANCH  23  26
ENDBRANCH   3  20
TORSDOF 7
ENDMDL
MODEL 2
REMARK VINA RESULT:      -6.6      3.944     10.036
REMARK  7 active torsions:
REMARK  status: ('A' for Active; 'I' for Inactive)
REMARK    1  A    between atoms: C_1  and  N_11 
REMARK    2  A    between atoms: C_4  and  C_7 
REMARK    3  A    between atoms: C_7  and  N_10 
REMARK    4  A    between atoms: N_11  and  N_12 
REMARK    5  A    between atoms: N_14  and  C_16 
REMARK    6  A    between atoms: C_19  and  C_22 
REMARK    7  A    between atoms: C_22  and  N_25 
ROOT
HETATM    1  N   UNK N   1      34.571  17.161   9.679  0.00  0.00    -0.242 N 
ATOM      2  HN  UNK N   1      35.118  17.497   8.887  1.00  0.00     0.208 HD
HETATM    3  N   UNK N   1      33.381  16.867   9.478  0.00  0.00    -0.287 N 
ATOM      4  HN  UNK N   1      32.780  16.526  10.229  1.00  0.00     0.188 HD
ENDROOT
BRANCH   1   5
HETATM    5  N   UNK N   1      35.196  17.064  10.893  0.00  0.00    -0.287 N 
HETATM    6  H   UNK N   1      35.224  17.816  11.527  0.00  0.00     0.188 HD
BRANCH   5   7
HETATM    7  C   UNK N   1      35.801  15.816  11.181  0.00  0.00     0.049 A 
HETATM    8  C   UNK N   1      35.671  15.290  12.476  0.00  0.00     0.032 A 
HETATM    9  C   UNK N   1      36.240  14.076  12.816  0.00  0.00     0.017 A 
HETATM   10  C   UNK N   1      36.956  13.349  11.868  0.00  0.00     0.007 A 
HETATM   11  C   UNK N   1      37.096  13.863  10.562  0.00  0.00     0.017 A 
HETATM   12  C   UNK N   1      36.518  15.098  10.216  0.00  0.00     0.032 A 
BRANCH  10  13
HETATM   13  C   UNK N   1      37.550  12.056  12.265  0.00  0.00     0.102 C 
HETATM   14  N   UNK N   1      37.913  11.851  13.476  0.00  0.00    -0.385 N 
HETATM   15  H   UNK N   1      37.797  12.558  14.151  0.00  0.00     0.157 HD
ATOM     16  HN  UNK N   1      38.322  10.955  13.741  1.00  0.00     0.157 HD
BRANCH  13  17
HETATM   17  N   UNK N   1      37.722  11.030  11.304  0.00  0.00    -0.385 N 
HETATM   18  H   UNK N   1      38.439  11.099  10.634  0.00  0.00     0.157 HD
HETATM   19  H   UNK N   1      37.123  10.249  11.306  0.00  0.00     0.157 HD
ENDBRANCH  13  17
ENDBRANCH  10  13
ENDBRANCH   5   7
ENDBRANCH   1   5
BRANCH   3  20
HETATM   20  C   UNK N   1      32.898  17.030   8.153  0.00  0.00     0.049 A 
HETATM   21  C   UNK N   1      33.742  17.388   7.097  0.00  0.00     0.032 A 
HETATM   22  C   UNK N   1      33.211  17.536   5.804  0.00  0.00     0.017 A 
HETATM   23  C   UNK N   1      31.835  17.326   5.568  0.00  0.00     0.007 A 
HETATM   24  C   UNK N   1      31.006  16.970   6.628  0.00  0.00     0.017 A 
HETATM   25  C   UNK N   1      31.530  16.825   7.901  0.00  0.00     0.032 A 
BRANCH  23  26
HETATM   26  C   UNK N   1      31.244  17.472   4.223  0.00  0.00     0.102 C 
HETATM   27  N   UNK N   1      29.997  17.726   4.082  0.00  0.00    -0.385 N 
HETATM   28  H   UNK N   1      29.613  17.822   3.181  0.00  0.00     0.157 HD
ATOM     29  HN  UNK N   1      29.401  17.828   4.904  1.00  0.00     0.157 HD
BRANCH  26  30
HETATM   30  N   UNK N   1      32.059  17.332   3.073  0.00  0.00    -0.385 N 
HETATM   31  H   UNK N   1      31.748  16.792   2.312  0.00  0.00     0.157 HD
HETATM   32  H   UNK N   1      32.938  17.776   3.035  0.00  0.00     0.157 HD
ENDBRANCH  26  30
ENDBRANCH  23  26
ENDBRANCH   3  20
TORSDOF 7
ENDMDL
MODEL 3
REMARK VINA RESULT:      -6.4      3.965      6.621
REMARK  7 active torsions:
REMARK  status: ('A' for Active; 'I' for Inactive)
REMARK    1  A    between atoms: C_1  and  N_11 
REMARK    2  A    between atoms: C_4  and  C_7 
REMARK    3  A    between atoms: C_7  and  N_10 
REMARK    4  A    between atoms: N_11  and  N_12 
REMARK    5  A    between atoms: N_14  and  C_16 
REMARK    6  A    between atoms: C_19  and  C_22 
REMARK    7  A    between atoms: C_22  and  N_25 
ROOT
HETATM    1  N   UNK N   1      34.004  16.727   9.687  0.00  0.00    -0.242 N 
ATOM      2  HN  UNK N   1      33.745  15.770   9.445  1.00  0.00     0.208 HD
HETATM    3  N   UNK N   1      34.942  16.889  10.484  0.00  0.00    -0.287 N 
ATOM      4  HN  UNK N   1      35.249  17.820  10.766  1.00  0.00     0.188 HD
ENDROOT
BRANCH   1   5
HETATM    5  N   UNK N   1      33.293  17.746   9.113  0.00  0.00    -0.287 N 
HETATM    6  H   UNK N   1      33.049  18.558   9.612  0.00  0.00     0.188 HD
BRANCH   5   7
HETATM    7  C   UNK N   1      32.931  17.561   7.756  0.00  0.00     0.049 A 
HETATM    8  C   UNK N   1      31.586  17.298   7.450  0.00  0.00     0.032 A 
HETATM    9  C   UNK N   1      31.172  17.109   6.144  0.00  0.00     0.017 A 
HETATM   10  C   UNK N   1      32.094  17.177   5.102  0.00  0.00     0.007 A 
HETATM   11  C   UNK N   1      33.449  17.440   5.391  0.00  0.00     0.017 A 
HETATM   12  C   UNK N   1      33.869  17.633   6.720  0.00  0.00     0.032 A 
BRANCH  10  13
HETATM   13  C   UNK N   1      31.617  16.969   3.719  0.00  0.00     0.102 C 
HETATM   14  N   UNK N   1      30.373  17.081   3.435  0.00  0.00    -0.385 N 
HETATM   15  H   UNK N   1      29.726  17.307   4.141  0.00  0.00     0.157 HD
ATOM     16  HN  UNK N   1      30.054  16.936   2.477  1.00  0.00     0.157 HD
BRANCH  13  17
HETATM   17  N   UNK N   1      32.539  16.643   2.694  0.00  0.00    -0.385 N 
HETATM   18  H   UNK N   1      33.132  15.865   2.795  0.00  0.00     0.157 HD
HETATM   19  H   UNK N   1      32.585  17.196   1.881  0.00  0.00     0.157 HD
ENDBRANCH  13  17
ENDBRANCH  10  13
ENDBRANCH   5   7
ENDBRANCH   1   5
BRANCH   3  20
HETATM   20  C   UNK N   1      35.567  15.716  10.982  0.00  0.00     0.049 A 
HETATM   21  C   UNK N   1      35.405  15.298  12.307  0.00  0.00     0.032 A 
HETATM   22  C   UNK N   1      36.048  14.127  12.748  0.00  0.00     0.017 A 
HETATM   23  C   UNK N   1      36.850  13.376  11.863  0.00  0.00     0.007 A 
HETATM   24  C   UNK N   1      37.002  13.803  10.547  0.00  0.00     0.017 A 
HETATM   25  C   UNK N   1      36.371  14.955  10.113  0.00  0.00     0.032 A 
BRANCH  23  26
HETATM   26  C   UNK N   1      37.539  12.142  12.293  0.00  0.00     0.102 C 
HETATM   27  N   UNK N   1      37.933  12.003  13.503  0.00  0.00    -0.385 N 
HETATM   28  H   UNK N   1      38.391  11.177  13.780  0.00  0.00     0.157 HD
ATOM     29  HN  UNK N   1      37.773  12.749  14.181  1.00  0.00     0.157 HD
BRANCH  26  30
HETATM   30  N   UNK N   1      37.767  11.099  11.363  0.00  0.00    -0.385 N 
HETATM   31  H   UNK N   1      38.573  10.539  11.439  0.00  0.00     0.157 HD
HETATM   32  H   UNK N   1      37.120  10.933  10.640  0.00  0.00     0.157 HD
ENDBRANCH  26  30
ENDBRANCH  23  26
ENDBRANCH   3  20
TORSDOF 7
ENDMDL
MODEL 4
REMARK VINA RESULT:      -6.4     12.542     15.214
REMARK  7 active torsions:
REMARK  status: ('A' for Active; 'I' for Inactive)
REMARK    1  A    between atoms: C_1  and  N_11 
REMARK    2  A    between atoms: C_4  and  C_7 
REMARK    3  A    between atoms: C_7  and  N_10 
REMARK    4  A    between atoms: N_11  and  N_12 
REMARK    5  A    between atoms: N_14  and  C_16 
REMARK    6  A    between atoms: C_19  and  C_22 
REMARK    7  A    between atoms: C_22  and  N_25 
ROOT
HETATM    1  N   UNK N   1      24.090  16.005   6.348  0.00  0.00    -0.242 N 
ATOM      2  HN  UNK N   1      23.599  16.472   7.111  1.00  0.00     0.208 HD
HETATM    3  N   UNK N   1      24.321  14.790   6.465  0.00  0.00    -0.287 N 
ATOM      4  HN  UNK N   1      24.808  14.266   5.738  1.00  0.00     0.188 HD
ENDROOT
BRANCH   1   5
HETATM    5  N   UNK N   1      24.450  16.759   5.264  0.00  0.00    -0.287 N 
HETATM    6  H   UNK N   1      25.391  16.872   4.997  0.00  0.00     0.188 HD
BRANCH   5   7
HETATM    7  C   UNK N   1      23.388  17.366   4.550  0.00  0.00     0.049 A 
HETATM    8  C   UNK N   1      22.301  16.568   4.159  0.00  0.00     0.032 A 
HETATM    9  C   UNK N   1      21.234  17.105   3.460  0.00  0.00     0.017 A 
HETATM   10  C   UNK N   1      21.224  18.458   3.131  0.00  0.00     0.007 A 
HETATM   11  C   UNK N   1      22.308  19.274   3.516  0.00  0.00     0.017 A 
HETATM   12  C   UNK N   1      23.392  18.728   4.227  0.00  0.00     0.032 A 
BRANCH  10  13
HETATM   13  C   UNK N   1      20.069  18.997   2.384  0.00  0.00     0.102 C 
HETATM   14  N   UNK N   1      18.918  18.443   2.475  0.00  0.00    -0.385 N 
HETATM   15  H   UNK N   1      18.797  17.651   3.046  0.00  0.00     0.157 HD
ATOM     16  HN  UNK N   1      18.126  18.823   1.955  1.00  0.00     0.157 HD
BRANCH  13  17
HETATM   17  N   UNK N   1      20.229  20.137   1.558  0.00  0.00    -0.385 N 
HETATM   18  H   UNK N   1      20.233  20.039   0.579  0.00  0.00     0.157 HD
HETATM   19  H   UNK N   1      20.337  21.027   1.964  0.00  0.00     0.157 HD
ENDBRANCH  13  17
ENDBRANCH  10  13
ENDBRANCH   5   7
ENDBRANCH   1   5
BRANCH   3  20
HETATM   20  C   UNK N   1      23.874  14.168   7.660  0.00  0.00     0.049 A 
HETATM   21  C   UNK N   1      22.522  14.130   8.013  0.00  0.00     0.032 A 
HETATM   22  C   UNK N   1      22.134  13.500   9.209  0.00  0.00     0.017 A 
HETATM   23  C   UNK N   1      23.100  12.907  10.050  0.00  0.00     0.007 A 
HETATM   24  C   UNK N   1      24.443  12.952   9.686  0.00  0.00     0.017 A 
HETATM   25  C   UNK N   1      24.824  13.572   8.509  0.00  0.00     0.032 A 
BRANCH  23  26
HETATM   26  C   UNK N   1      22.728  12.238  11.312  0.00  0.00     0.102 C 
HETATM   27  N   UNK N   1      21.557  11.743  11.468  0.00  0.00    -0.385 N 
HETATM   28  H   UNK N   1      21.319  11.299  12.314  0.00  0.00     0.157 HD
ATOM     29  HN  UNK N   1      20.871  11.811  10.716  1.00  0.00     0.157 HD
BRANCH  26  30
HETATM   30  N   UNK N   1      23.671  12.137  12.364  0.00  0.00    -0.385 N 
HETATM   31  H   UNK N   1      23.619  12.751  13.132  0.00  0.00     0.157 HD
HETATM   32  H   UNK N   1      24.378  11.453  12.329  0.00  0.00     0.157 HD
ENDBRANCH  26  30
ENDBRANCH  23  26
ENDBRANCH   3  20
TORSDOF 7
ENDMDL
MODEL 5
REMARK VINA RESULT:      -6.3      8.088     13.958
REMARK  7 active torsions:
REMARK  status: ('A' for Active; 'I' for Inactive)
REMARK    1  A    between atoms: C_1  and  N_11 
REMARK    2  A    between atoms: C_4  and  C_7 
REMARK    3  A    between atoms: C_7  and  N_10 
REMARK    4  A    between atoms: N_11  and  N_12 
REMARK    5  A    between atoms: N_14  and  C_16 
REMARK    6  A    between atoms: C_19  and  C_22 
REMARK    7  A    between atoms: C_22  and  N_25 
ROOT
HETATM    1  N   UNK N   1      29.014  17.416   3.668  0.00  0.00    -0.242 N 
ATOM      2  HN  UNK N   1      28.323  16.687   3.488  1.00  0.00     0.208 HD
HETATM    3  N   UNK N   1      28.597  18.556   3.930  0.00  0.00    -0.287 N 
ATOM      4  HN  UNK N   1      29.236  19.329   4.119  1.00  0.00     0.188 HD
ENDROOT
BRANCH   1   5
HETATM    5  N   UNK N   1      30.337  17.072   3.606  0.00  0.00    -0.287 N 
HETATM    6  H   UNK N   1      30.756  16.760   2.772  0.00  0.00     0.188 HD
BRANCH   5   7
HETATM    7  C   UNK N   1      31.067  17.194   4.814  0.00  0.00     0.049 A 
HETATM    8  C   UNK N   1      32.437  17.493   4.743  0.00  0.00     0.032 A 
HETATM    9  C   UNK N   1      33.201  17.624   5.889  0.00  0.00     0.017 A 
HETATM   10  C   UNK N   1      32.616  17.459   7.142  0.00  0.00     0.007 A 
HETATM   11  C   UNK N   1      31.241  17.158   7.231  0.00  0.00     0.017 A 
HETATM   12  C   UNK N   1      30.464  17.025   6.065  0.00  0.00     0.032 A 
BRANCH  10  13
HETATM   13  C   UNK N   1      33.462  17.606   8.344  0.00  0.00     0.102 C 
HETATM   14  N   UNK N   1      33.248  16.888   9.383  0.00  0.00    -0.385 N 
HETATM   15  H   UNK N   1      32.515  16.231   9.385  0.00  0.00     0.157 HD
ATOM     16  HN  UNK N   1      33.838  16.996  10.209  1.00  0.00     0.157 HD
BRANCH  13  17
HETATM   17  N   UNK N   1      34.521  18.547   8.355  0.00  0.00    -0.385 N 
HETATM   18  H   UNK N   1      34.491  19.328   7.757  0.00  0.00     0.157 HD
HETATM   19  H   UNK N   1      35.286  18.420   8.961  0.00  0.00     0.157 HD
ENDBRANCH  13  17
ENDBRANCH  10  13
ENDBRANCH   5   7
ENDBRANCH   1   5
BRANCH   3  20
HETATM   20  C   UNK N   1      27.189  18.732   3.952  0.00  0.00     0.049 A 
HETATM   21  C   UNK N   1      26.599  19.995   3.844  0.00  0.00     0.032 A 
HETATM   22  C   UNK N   1      25.198  20.112   3.872  0.00  0.00     0.017 A 
HETATM   23  C   UNK N   1      24.388  18.964   4.008  0.00  0.00     0.007 A 
HETATM   24  C   UNK N   1      24.988  17.712   4.115  0.00  0.00     0.017 A 
HETATM   25  C   UNK N   1      26.367  17.598   4.087  0.00  0.00     0.032 A 
BRANCH  23  26
HETATM   26  C   UNK N   1      22.914  19.051   4.041  0.00  0.00     0.102 C 
HETATM   27  N   UNK N   1      22.287  19.806   3.219  0.00  0.00    -0.385 N 
HETATM   28  H   UNK N   1      21.304  19.857   3.249  0.00  0.00     0.157 HD
ATOM     29  HN  UNK N   1      22.805  20.355   2.533  1.00  0.00     0.157 HD
BRANCH  26  30
HETATM   30  N   UNK N   1      22.183  18.294   4.988  0.00  0.00    -0.385 N 
HETATM   31  H   UNK N   1      22.436  18.318   5.939  0.00  0.00     0.157 HD
HETATM   32  H   UNK N   1      21.420  17.743   4.696  0.00  0.00     0.157 HD
ENDBRANCH  26  30
ENDBRANCH  23  26
ENDBRANCH   3  20
TORSDOF 7
ENDMDL
MODEL 6
REMARK VINA RESULT:      -6.3      1.067      8.502
REMARK  7 active torsions:
REMARK  status: ('A' for Active; 'I' for Inactive)
REMARK    1  A    between atoms: C_1  and  N_11 
REMARK    2  A    between atoms: C_4  and  C_7 
REMARK    3  A    between atoms: C_7  and  N_10 
REMARK    4  A    between atoms: N_11  and  N_12 
REMARK    5  A    between atoms: N_14  and  C_16 
REMARK    6  A    between atoms: C_19  and  C_22 
REMARK    7  A    between atoms: C_22  and  N_25 
ROOT
HETATM    1  N   UNK N   1      36.524  11.767  13.826  0.00  0.00    -0.242 N 
ATOM      2  HN  UNK N   1      35.540  12.024  13.749  1.00  0.00     0.208 HD
HETATM    3  N   UNK N   1      37.329  12.326  13.063  0.00  0.00    -0.287 N 
ATOM      4  HN  UNK N   1      38.327  12.113  13.089  1.00  0.00     0.188 HD
ENDROOT
BRANCH   1   5
HETATM    5  N   UNK N   1      36.870  10.831  14.763  0.00  0.00    -0.287 N 
HETATM    6  H   UNK N   1      37.406  10.038  14.534  0.00  0.00     0.188 HD
BRANCH   5   7
HETATM    7  C   UNK N   1      36.408  11.073  16.080  0.00  0.00     0.049 A 
HETATM    8  C   UNK N   1      35.751  12.284  16.349  0.00  0.00     0.032 A 
HETATM    9  C   UNK N   1      35.279  12.576  17.616  0.00  0.00     0.017 A 
HETATM   10  C   UNK N   1      35.450  11.663  18.654  0.00  0.00     0.007 A 
HETATM   11  C   UNK N   1      36.108  10.441  18.400  0.00  0.00     0.017 A 
HETATM   12  C   UNK N   1      36.588  10.145  17.112  0.00  0.00     0.032 A 
BRANCH  10  13
HETATM   13  C   UNK N   1      34.933  12.007  19.994  0.00  0.00     0.102 C 
HETATM   14  N   UNK N   1      34.655  11.087  20.841  0.00  0.00    -0.385 N 
HETATM   15  H   UNK N   1      34.785  10.142  20.601  0.00  0.00     0.157 HD
ATOM     16  HN  UNK N   1      34.298  11.335  21.765  1.00  0.00     0.157 HD
BRANCH  13  17
HETATM   17  N   UNK N   1      34.741  13.364  20.352  0.00  0.00    -0.385 N 
HETATM   18  H   UNK N   1      34.176  13.945  19.794  0.00  0.00     0.157 HD
HETATM   19  H   UNK N   1      35.172  13.726  21.159  0.00  0.00     0.157 HD
ENDBRANCH  13  17
ENDBRANCH  10  13
ENDBRANCH   5   7
ENDBRANCH   1   5
BRANCH   3  20
HETATM   20  C   UNK N   1      36.793  13.274  12.151  0.00  0.00     0.049 A 
HETATM   21  C   UNK N   1      37.396  13.535  10.917  0.00  0.00     0.032 A 
HETATM   22  C   UNK N   1      36.822  14.485  10.053  0.00  0.00     0.017 A 
HETATM   23  C   UNK N   1      35.647  15.171  10.424  0.00  0.00     0.007 A 
HETATM   24  C   UNK N   1      35.057  14.901  11.656  0.00  0.00     0.017 A 
HETATM   25  C   UNK N   1      35.622  13.967  12.506  0.00  0.00     0.032 A 
BRANCH  23  26
HETATM   26  C   UNK N   1      35.019  16.174   9.541  0.00  0.00     0.102 C 
HETATM   27  N   UNK N   1      34.642  17.307  10.004  0.00  0.00    -0.385 N 
HETATM   28  H   UNK N   1      34.224  17.969   9.407  0.00  0.00     0.157 HD
ATOM     29  HN  UNK N   1      34.775  17.524  10.992  1.00  0.00     0.157 HD
BRANCH  26  30
HETATM   30  N   UNK N   1      34.828  15.886   8.168  0.00  0.00    -0.385 N 
HETATM   31  H   UNK N   1      35.547  15.457   7.650  0.00  0.00     0.157 HD
HETATM   32  H   UNK N   1      33.976  16.116   7.730  0.00  0.00     0.157 HD
ENDBRANCH  26  30
ENDBRANCH  23  26
ENDBRANCH   3  20
TORSDOF 7
ENDMDL
MODEL 7
REMARK VINA RESULT:      -6.2      1.059      8.609
REMARK  7 active torsions:
REMARK  status: ('A' for Active; 'I' for Inactive)
REMARK    1  A    between atoms: C_1  and  N_11 
REMARK    2  A    between atoms: C_4  and  C_7 
REMARK    3  A    between atoms: C_7  and  N_10 
REMARK    4  A    between atoms: N_11  and  N_12 
REMARK    5  A    between atoms: N_14  and  C_16 
REMARK    6  A    between atoms: C_19  and  C_22 
REMARK    7  A    between atoms: C_22  and  N_25 
ROOT
HETATM    1  N   UNK N   1      36.882  12.980  12.564  0.00  0.00    -0.242 N 
ATOM      2  HN  UNK N   1      35.893  13.151  12.746  1.00  0.00     0.208 HD
HETATM    3  N   UNK N   1      37.416  13.606  11.634  0.00  0.00    -0.287 N 
ATOM      4  HN  UNK N   1      38.401  13.480  11.401  1.00  0.00     0.188 HD
ENDROOT
BRANCH   1   5
HETATM    5  N   UNK N   1      37.531  12.075  13.360  0.00  0.00    -0.287 N 
HETATM    6  H   UNK N   1      38.355  11.623  13.069  0.00  0.00     0.188 HD
BRANCH   5   7
HETATM    7  C   UNK N   1      36.944  11.829  14.625  0.00  0.00     0.049 A 
HETATM    8  C   UNK N   1      37.118  10.566  15.212  0.00  0.00     0.032 A 
HETATM    9  C   UNK N   1      36.569  10.268  16.446  0.00  0.00     0.017 A 
HETATM   10  C   UNK N   1      35.828  11.227  17.132  0.00  0.00     0.007 A 
HETATM   11  C   UNK N   1      35.643  12.502  16.556  0.00  0.00     0.017 A 
HETATM   12  C   UNK N   1      36.202  12.804  15.301  0.00  0.00     0.032 A 
BRANCH  10  13
HETATM   13  C   UNK N   1      35.256  10.875  18.447  0.00  0.00     0.102 C 
HETATM   14  N   UNK N   1      34.698   9.736  18.631  0.00  0.00    -0.385 N 
HETATM   15  H   UNK N   1      34.648   9.088  17.893  0.00  0.00     0.157 HD
ATOM     16  HN  UNK N   1      34.305   9.502  19.544  1.00  0.00     0.157 HD
BRANCH  13  17
HETATM   17  N   UNK N   1      35.321  11.799  19.519  0.00  0.00    -0.385 N 
HETATM   18  H   UNK N   1      35.549  11.487  20.424  0.00  0.00     0.157 HD
HETATM   19  H   UNK N   1      35.139  12.752  19.358  0.00  0.00     0.157 HD
ENDBRANCH  13  17
ENDBRANCH  10  13
ENDBRANCH   5   7
ENDBRANCH   1   5
BRANCH   3  20
HETATM   20  C   UNK N   1      36.590  14.507  10.912  0.00  0.00     0.049 A 
HETATM   21  C   UNK N   1      36.209  14.262   9.589  0.00  0.00     0.032 A 
HETATM   22  C   UNK N   1      35.388  15.188   8.921  0.00  0.00     0.017 A 
HETATM   23  C   UNK N   1      34.949  16.358   9.577  0.00  0.00     0.007 A 
HETATM   24  C   UNK N   1      35.335  16.589  10.895  0.00  0.00     0.017 A 
HETATM   25  C   UNK N   1      36.143  15.677  11.552  0.00  0.00     0.032 A 
BRANCH  23  26
HETATM   26  C   UNK N   1      34.087  17.350   8.905  0.00  0.00     0.102 C 
HETATM   27  N   UNK N   1      34.591  18.404   8.380  0.00  0.00    -0.385 N 
HETATM   28  H   UNK N   1      34.008  19.059   7.934  0.00  0.00     0.157 HD
ATOM     29  HN  UNK N   1      35.598  18.563   8.424  1.00  0.00     0.157 HD
BRANCH  26  30
HETATM   30  N   UNK N   1      32.688  17.141   8.838  0.00  0.00    -0.385 N 
HETATM   31  H   UNK N   1      32.072  17.908   8.887  0.00  0.00     0.157 HD
HETATM   32  H   UNK N   1      32.330  16.229   8.742  0.00  0.00     0.157 HD
ENDBRANCH  26  30
ENDBRANCH  23  26
ENDBRANCH   3  20
TORSDOF 7
ENDMDL
MODEL 8
REMARK VINA RESULT:      -6.1     10.805     16.451
REMARK  7 active torsions:
REMARK  status: ('A' for Active; 'I' for Inactive)
REMARK    1  A    between atoms: C_1  and  N_11 
REMARK    2  A    between atoms: C_4  and  C_7 
REMARK    3  A    between atoms: C_7  and  N_10 
REMARK    4  A    between atoms: N_11  and  N_12 
REMARK    5  A    between atoms: N_14  and  C_16 
REMARK    6  A    between atoms: C_19  and  C_22 
REMARK    7  A    between atoms: C_22  and  N_25 
ROOT
HETATM    1  N   UNK N   1      25.360  20.210   4.673  0.00  0.00    -0.242 N 
ATOM      2  HN  UNK N   1      24.826  19.704   5.380  1.00  0.00     0.208 HD
HETATM    3  N   UNK N   1      24.829  20.387   3.564  0.00  0.00    -0.287 N 
ATOM      4  HN  UNK N   1      25.310  20.885   2.814  1.00  0.00     0.188 HD
ENDROOT
BRANCH   1   5
HETATM    5  N   UNK N   1      26.612  20.649   5.009  0.00  0.00    -0.287 N 
HETATM    6  H   UNK N   1      26.863  21.599   4.955  0.00  0.00     0.188 HD
BRANCH   5   7
HETATM    7  C   UNK N   1      27.523  19.654   5.439  0.00  0.00     0.049 A 
HETATM    8  C   UNK N   1      27.729  19.483   6.817  0.00  0.00     0.032 A 
HETATM    9  C   UNK N   1      28.606  18.527   7.297  0.00  0.00     0.017 A 
HETATM   10  C   UNK N   1      29.305  17.711   6.410  0.00  0.00     0.007 A 
HETATM   11  C   UNK N   1      29.110  17.870   5.022  0.00  0.00     0.017 A 
HETATM   12  C   UNK N   1      28.218  18.842   4.535  0.00  0.00     0.032 A 
BRANCH  10  13
HETATM   13  C   UNK N   1      30.234  16.701   6.956  0.00  0.00     0.102 C 
HETATM   14  N   UNK N   1      30.504  15.638   6.294  0.00  0.00    -0.385 N 
HETATM   15  H   UNK N   1      30.092  15.490   5.413  0.00  0.00     0.157 HD
ATOM     16  HN  UNK N   1      31.147  14.946   6.680  1.00  0.00     0.157 HD
BRANCH  13  17
HETATM   17  N   UNK N   1      30.834  16.903   8.224  0.00  0.00    -0.385 N 
HETATM   18  H   UNK N   1      30.357  17.410   8.919  0.00  0.00     0.157 HD
HETATM   19  H   UNK N   1      31.729  16.536   8.408  0.00  0.00     0.157 HD
ENDBRANCH  13  17
ENDBRANCH  10  13
ENDBRANCH   5   7
ENDBRANCH   1   5
BRANCH   3  20
HETATM   20  C   UNK N   1      23.522  19.862   3.390  0.00  0.00     0.049 A 
HETATM   21  C   UNK N   1      22.549  20.533   2.642  0.00  0.00     0.032 A 
HETATM   22  C   UNK N   1      21.269  19.966   2.503  0.00  0.00     0.017 A 
HETATM   23  C   UNK N   1      20.964  18.731   3.112  0.00  0.00     0.007 A 
HETATM   24  C   UNK N   1      21.942  18.074   3.854  0.00  0.00     0.017 A 
HETATM   25  C   UNK N   1      23.201  18.631   3.991  0.00  0.00     0.032 A 
BRANCH  23  26
HETATM   26  C   UNK N   1      19.631  18.108   2.985  0.00  0.00     0.102 C 
HETATM   27  N   UNK N   1      18.700  18.689   2.325  0.00  0.00    -0.385 N 
HETATM   28  H   UNK N   1      17.814  18.266   2.247  0.00  0.00     0.157 HD
ATOM     29  HN  UNK N   1      18.876  19.590   1.880  1.00  0.00     0.157 HD
BRANCH  26  30
HETATM   30  N   UNK N   1      19.373  16.858   3.598  0.00  0.00    -0.385 N 
HETATM   31  H   UNK N   1      18.938  16.822   4.480  0.00  0.00     0.157 HD
HETATM   32  H   UNK N   1      19.629  16.024   3.141  0.00  0.00     0.157 HD
ENDBRANCH  26  30
ENDBRANCH  23  26
ENDBRANCH   3  20
TORSDOF 7
ENDMDL
MODEL 9
REMARK VINA RESULT:      -6.1     12.565     17.054
REMARK  7 active torsions:
REMARK  status: ('A' for Active; 'I' for Inactive)
REMARK    1  A    between atoms: C_1  and  N_11 
REMARK    2  A    between atoms: C_4  and  C_7 
REMARK    3  A    between atoms: C_7  and  N_10 
REMARK    4  A    between atoms: N_11  and  N_12 
REMARK    5  A    between atoms: N_14  and  C_16 
REMARK    6  A    between atoms: C_19  and  C_22 
REMARK    7  A    between atoms: C_22  and  N_25 
ROOT
HETATM    1  N   UNK N   1      23.839  15.123   6.464  0.00  0.00    -0.242 N 
ATOM      2  HN  UNK N   1      22.872  14.843   6.299  1.00  0.00     0.208 HD
HETATM    3  N   UNK N   1      24.210  16.220   6.015  0.00  0.00    -0.287 N 
ATOM      4  HN  UNK N   1      25.163  16.557   6.147  1.00  0.00     0.188 HD
ENDROOT
BRANCH   1   5
HETATM    5  N   UNK N   1      24.641  14.265   7.167  0.00  0.00    -0.287 N 
HETATM    6  H   UNK N   1      25.562  14.064   6.885  0.00  0.00     0.188 HD
BRANCH   5   7
HETATM    7  C   UNK N   1      24.065  13.685   8.324  0.00  0.00     0.049 A 
HETATM    8  C   UNK N   1      22.684  13.826   8.528  0.00  0.00     0.032 A 
HETATM    9  C   UNK N   1      22.065  13.281   9.639  0.00  0.00     0.017 A 
HETATM   10  C   UNK N   1      22.812  12.578  10.581  0.00  0.00     0.007 A 
HETATM   11  C   UNK N   1      24.202  12.427  10.391  0.00  0.00     0.017 A 
HETATM   12  C   UNK N   1      24.830  12.981   9.261  0.00  0.00     0.032 A 
BRANCH  10  13
HETATM   13  C   UNK N   1      22.119  12.009  11.755  0.00  0.00     0.102 C 
HETATM   14  N   UNK N   1      20.845  11.881  11.761  0.00  0.00    -0.385 N 
HETATM   15  H   UNK N   1      20.319  12.162  10.978  0.00  0.00     0.157 HD
ATOM     16  HN  UNK N   1      20.375  11.488  12.577  1.00  0.00     0.157 HD
BRANCH  13  17
HETATM   17  N   UNK N   1      22.865  11.601  12.888  0.00  0.00    -0.385 N 
HETATM   18  H   UNK N   1      23.742  12.007  13.073  0.00  0.00     0.157 HD
HETATM   19  H   UNK N   1      22.505  10.910  13.491  0.00  0.00     0.157 HD
ENDBRANCH  13  17
ENDBRANCH  10  13
ENDBRANCH   5   7
ENDBRANCH   1   5
BRANCH   3  20
HETATM   20  C   UNK N   1      23.241  16.981   5.309  0.00  0.00     0.049 A 
HETATM   21  C   UNK N   1      21.879  16.664   5.349  0.00  0.00     0.032 A 
HETATM   22  C   UNK N   1      20.963  17.453   4.631  0.00  0.00     0.017 A 
HETATM   23  C   UNK N   1      21.409  18.557   3.873  0.00  0.00     0.007 A 
HETATM   24  C   UNK N   1      22.767  18.861   3.843  0.00  0.00     0.017 A 
HETATM   25  C   UNK N   1      23.669  18.085   4.550  0.00  0.00     0.032 A 
BRANCH  23  26
HETATM   26  C   UNK N   1      20.474  19.405   3.108  0.00  0.00     0.102 C 
HETATM   27  N   UNK N   1      20.340  20.647   3.389  0.00  0.00    -0.385 N 
HETATM   28  H   UNK N   1      19.714  21.204   2.872  0.00  0.00     0.157 HD
ATOM     29  HN  UNK N   1      20.883  21.060   4.148  1.00  0.00     0.157 HD
BRANCH  26  30
HETATM   30  N   UNK N   1      19.715  18.846   2.052  0.00  0.00    -0.385 N 
HETATM   31  H   UNK N   1      19.740  19.255   1.156  0.00  0.00     0.157 HD
HETATM   32  H   UNK N   1      19.161  18.047   2.211  0.00  0.00     0.157 HD
ENDBRANCH  26  30
ENDBRANCH  23  26
ENDBRANCH   3  20
TORSDOF 7
ENDMDL
