MODEL 1
REMARK VINA RESULT:      -7.5      0.000      0.000
REMARK  1 active torsions:
REMARK  status: ('A' for Active; 'I' for Inactive)
REMARK    1  A    between atoms: N_20  and  O_22 
ROOT
HETATM    1  C   UNK N   1      26.281  25.760  -5.397  0.00  0.00     0.021 A 
HETATM    2  C   UNK N   1      26.892  24.555  -5.943  0.00  0.00     0.094 A 
HETATM    3  C   UNK N   1      27.026  26.142  -4.301  0.00  0.00     0.045 A 
HETATM    4  N   UNK N   1      28.112  25.265  -4.069  0.00  0.00    -0.353 N 
HETATM    5  C   UNK N   1      26.691  27.271  -3.557  0.00  0.00     0.030 A 
HETATM    6  C   UNK N   1      25.565  28.017  -3.954  0.00  0.00     0.002 A 
HETATM    7  C   UNK N   1      24.805  27.622  -5.077  0.00  0.00     0.001 A 
HETATM    8  C   UNK N   1      25.163  26.480  -5.811  0.00  0.00     0.016 A 
HETATM    9  C   UNK N   1      28.055  24.264  -5.076  0.00  0.00     0.079 A 
HETATM   10  C   UNK N   1      28.946  23.248  -5.166  0.00  0.00     0.073 A 
HETATM   11  C   UNK N   1      30.098  22.991  -4.278  0.00  0.00     0.259 A 
HETATM   12  N   UNK N   1      30.773  21.886  -4.666  0.00  0.00    -0.322 N 
HETATM   13  C   UNK N   1      30.110  21.376  -5.803  0.00  0.00     0.047 A 
HETATM   14  C   UNK N   1      29.019  22.149  -6.140  0.00  0.00     0.009 A 
HETATM   15  C   UNK N   1      30.461  20.242  -6.536  0.00  0.00     0.049 A 
HETATM   16  C   UNK N   1      29.664  19.900  -7.645  0.00  0.00     0.013 A 
HETATM   17  C   UNK N   1      28.550  20.688  -7.990  0.00  0.00     0.020 A 
HETATM   18  C   UNK N   1      28.223  21.820  -7.234  0.00  0.00     0.016 A 
HETATM   19  O   UNK N   1      30.427  23.666  -3.314  0.00  0.00    -0.267 OA
HETATM   20  N   UNK N   1      26.494  23.889  -6.967  0.00  0.00    -0.266 N 
ATOM     21  HN  UNK N   1      27.010  23.056  -7.251  1.00  0.00     0.194 HD
HETATM   22 Br   UNK N   1      30.078  18.368  -8.695  0.00  0.00    -0.051 Br
HETATM   23  H   UNK N   1      28.778  25.335  -3.347  0.00  0.00     0.166 HD
HETATM   24  H   UNK N   1      31.574  21.509  -4.237  0.00  0.00     0.169 HD
ENDROOT
BRANCH  20  25
HETATM   25  O   UNK N   1      25.436  24.257  -7.656  0.00  0.00    -0.289 OA
HETATM   26  H   UNK N   1      25.437  25.073  -8.117  0.00  0.00     0.244 HD
ENDBRANCH  20  25
TORSDOF 1
ENDMDL
MODEL 2
REMARK VINA RESULT:      -7.4     15.012     17.256
REMARK  1 active torsions:
REMARK  status: ('A' for Active; 'I' for Inactive)
REMARK    1  A    between atoms: N_20  and  O_22 
ROOT
HETATM    1  C   UNK N   1      32.542  15.609   5.299  0.00  0.00     0.021 A 
HETATM    2  C   UNK N   1      33.046  15.231   6.612  0.00  0.00     0.094 A 
HETATM    3  C   UNK N   1      32.847  16.940   5.106  0.00  0.00     0.045 A 
HETATM    4  N   UNK N   1      33.531  17.491   6.215  0.00  0.00    -0.353 N 
HETATM    5  C   UNK N   1      32.493  17.601   3.932  0.00  0.00     0.030 A 
HETATM    6  C   UNK N   1      31.810  16.870   2.940  0.00  0.00     0.002 A 
HETATM    7  C   UNK N   1      31.499  15.507   3.141  0.00  0.00     0.001 A 
HETATM    8  C   UNK N   1      31.868  14.864   4.334  0.00  0.00     0.016 A 
HETATM    9  C   UNK N   1      33.671  16.449   7.171  0.00  0.00     0.079 A 
HETATM   10  C   UNK N   1      34.282  16.616   8.368  0.00  0.00     0.073 A 
HETATM   11  C   UNK N   1      34.895  17.853   8.892  0.00  0.00     0.259 A 
HETATM   12  N   UNK N   1      35.414  17.653  10.124  0.00  0.00    -0.322 N 
HETATM   13  C   UNK N   1      35.171  16.304  10.461  0.00  0.00     0.047 A 
HETATM   14  C   UNK N   1      34.502  15.645   9.452  0.00  0.00     0.009 A 
HETATM   15  C   UNK N   1      35.535  15.660  11.644  0.00  0.00     0.049 A 
HETATM   16  C   UNK N   1      35.197  14.300  11.785  0.00  0.00     0.013 A 
HETATM   17  C   UNK N   1      34.513  13.626  10.756  0.00  0.00     0.020 A 
HETATM   18  C   UNK N   1      34.162  14.301   9.580  0.00  0.00     0.016 A 
HETATM   19  O   UNK N   1      34.945  18.929   8.317  0.00  0.00    -0.267 OA
HETATM   20  N   UNK N   1      32.960  14.073   7.163  0.00  0.00    -0.266 N 
ATOM     21  HN  UNK N   1      33.355  13.932   8.093  1.00  0.00     0.194 HD
HETATM   22 Br   UNK N   1      35.658  13.351  13.369  0.00  0.00    -0.051 Br
HETATM   23  H   UNK N   1      33.850  18.419   6.306  0.00  0.00     0.166 HD
HETATM   24  H   UNK N   1      35.874  18.322  10.681  0.00  0.00     0.169 HD
ENDROOT
BRANCH  20  25
HETATM   25  O   UNK N   1      32.375  13.065   6.554  0.00  0.00    -0.289 OA
HETATM   26  H   UNK N   1      32.887  12.349   6.233  0.00  0.00     0.244 HD
ENDBRANCH  20  25
TORSDOF 1
ENDMDL
MODEL 3
REMARK VINA RESULT:      -7.4     13.398     15.752
REMARK  1 active torsions:
REMARK  status: ('A' for Active; 'I' for Inactive)
REMARK    1  A    between atoms: N_20  and  O_22 
ROOT
HETATM    1  C   UNK N   1      32.304  15.414   7.542  0.00  0.00     0.021 A 
HETATM    2  C   UNK N   1      31.284  16.197   6.855  0.00  0.00     0.094 A 
HETATM    3  C   UNK N   1      32.173  15.657   8.892  0.00  0.00     0.045 A 
HETATM    4  N   UNK N   1      31.120  16.563   9.166  0.00  0.00    -0.353 N 
HETATM    5  C   UNK N   1      33.012  15.049   9.823  0.00  0.00     0.030 A 
HETATM    6  C   UNK N   1      34.005  14.173   9.344  0.00  0.00     0.002 A 
HETATM    7  C   UNK N   1      34.137  13.926   7.960  0.00  0.00     0.001 A 
HETATM    8  C   UNK N   1      33.278  14.552   7.043  0.00  0.00     0.016 A 
HETATM    9  C   UNK N   1      30.547  16.918   7.915  0.00  0.00     0.079 A 
HETATM   10  C   UNK N   1      29.505  17.775   7.791  0.00  0.00     0.073 A 
HETATM   11  C   UNK N   1      28.793  18.477   8.878  0.00  0.00     0.259 A 
HETATM   12  N   UNK N   1      27.803  19.254   8.386  0.00  0.00    -0.322 N 
HETATM   13  C   UNK N   1      27.818  19.103   6.983  0.00  0.00     0.047 A 
HETATM   14  C   UNK N   1      28.810  18.235   6.579  0.00  0.00     0.009 A 
HETATM   15  C   UNK N   1      26.967  19.723   6.067  0.00  0.00     0.049 A 
HETATM   16  C   UNK N   1      27.148  19.436   4.701  0.00  0.00     0.013 A 
HETATM   17  C   UNK N   1      28.160  18.550   4.287  0.00  0.00     0.020 A 
HETATM   18  C   UNK N   1      28.998  17.944   5.231  0.00  0.00     0.016 A 
HETATM   19  O   UNK N   1      29.039  18.389  10.072  0.00  0.00    -0.267 OA
HETATM   20  N   UNK N   1      31.077  16.244   5.588  0.00  0.00    -0.266 N 
ATOM     21  HN  UNK N   1      30.328  16.834   5.227  1.00  0.00     0.194 HD
HETATM   22 Br   UNK N   1      26.027  20.241   3.390  0.00  0.00    -0.051 Br
HETATM   23  H   UNK N   1      30.839  16.885  10.054  0.00  0.00     0.166 HD
HETATM   24  H   UNK N   1      27.189  19.818   8.908  0.00  0.00     0.169 HD
ENDROOT
BRANCH  20  25
HETATM   25  O   UNK N   1      31.811  15.549   4.746  0.00  0.00    -0.289 OA
HETATM   26  H   UNK N   1      32.496  15.968   4.264  0.00  0.00     0.244 HD
ENDBRANCH  20  25
TORSDOF 1
ENDMDL
MODEL 4
REMARK VINA RESULT:      -7.3     12.685     14.015
REMARK  1 active torsions:
REMARK  status: ('A' for Active; 'I' for Inactive)
REMARK    1  A    between atoms: N_20  and  O_22 
ROOT
HETATM    1  C   UNK N   1      28.008  18.934   5.045  0.00  0.00     0.021 A 
HETATM    2  C   UNK N   1      29.021  17.927   5.331  0.00  0.00     0.094 A 
HETATM    3  C   UNK N   1      27.670  19.533   6.239  0.00  0.00     0.045 A 
HETATM    4  N   UNK N   1      28.397  18.991   7.326  0.00  0.00    -0.353 N 
HETATM    5  C   UNK N   1      26.717  20.547   6.297  0.00  0.00     0.030 A 
HETATM    6  C   UNK N   1      26.103  20.947   5.095  0.00  0.00     0.002 A 
HETATM    7  C   UNK N   1      26.450  20.332   3.873  0.00  0.00     0.001 A 
HETATM    8  C   UNK N   1      27.414  19.311   3.842  0.00  0.00     0.016 A 
HETATM    9  C   UNK N   1      29.248  17.987   6.791  0.00  0.00     0.079 A 
HETATM   10  C   UNK N   1      30.096  17.250   7.548  0.00  0.00     0.073 A 
HETATM   11  C   UNK N   1      30.295  17.339   9.008  0.00  0.00     0.259 A 
HETATM   12  N   UNK N   1      31.223  16.450   9.427  0.00  0.00    -0.322 N 
HETATM   13  C   UNK N   1      31.667  15.749   8.286  0.00  0.00     0.047 A 
HETATM   14  C   UNK N   1      31.029  16.186   7.144  0.00  0.00     0.009 A 
HETATM   15  C   UNK N   1      32.625  14.735   8.249  0.00  0.00     0.049 A 
HETATM   16  C   UNK N   1      32.928  14.159   7.000  0.00  0.00     0.013 A 
HETATM   17  C   UNK N   1      32.278  14.605   5.834  0.00  0.00     0.020 A 
HETATM   18  C   UNK N   1      31.321  15.625   5.905  0.00  0.00     0.016 A 
HETATM   19  O   UNK N   1      29.717  18.103   9.767  0.00  0.00    -0.267 OA
HETATM   20  N   UNK N   1      29.593  17.151   4.481  0.00  0.00    -0.266 N 
ATOM     21  HN  UNK N   1      30.292  16.483   4.807  1.00  0.00     0.194 HD
HETATM   22 Br   UNK N   1      34.223  12.771   6.867  0.00  0.00    -0.051 Br
HETATM   23  H   UNK N   1      28.327  19.259   8.271  0.00  0.00     0.166 HD
HETATM   24  H   UNK N   1      31.529  16.317  10.353  0.00  0.00     0.169 HD
ENDROOT
BRANCH  20  25
HETATM   25  O   UNK N   1      29.298  17.199   3.200  0.00  0.00    -0.289 OA
HETATM   26  H   UNK N   1      29.036  18.009   2.809  0.00  0.00     0.244 HD
ENDBRANCH  20  25
TORSDOF 1
ENDMDL
MODEL 5
REMARK VINA RESULT:      -7.3     18.130     20.536
REMARK  1 active torsions:
REMARK  status: ('A' for Active; 'I' for Inactive)
REMARK    1  A    between atoms: N_20  and  O_22 
ROOT
HETATM    1  C   UNK N   1      35.522  13.212  13.015  0.00  0.00     0.021 A 
HETATM    2  C   UNK N   1      34.920  13.377  11.698  0.00  0.00     0.094 A 
HETATM    3  C   UNK N   1      36.105  14.413  13.358  0.00  0.00     0.045 A 
HETATM    4  N   UNK N   1      35.934  15.390  12.349  0.00  0.00    -0.353 N 
HETATM    5  C   UNK N   1      36.769  14.575  14.572  0.00  0.00     0.030 A 
HETATM    6  C   UNK N   1      36.829  13.473  15.446  0.00  0.00     0.002 A 
HETATM    7  C   UNK N   1      36.231  12.244  15.092  0.00  0.00     0.001 A 
HETATM    8  C   UNK N   1      35.568  12.106  13.862  0.00  0.00     0.016 A 
HETATM    9  C   UNK N   1      35.198  14.774  11.300  0.00  0.00     0.079 A 
HETATM   10  C   UNK N   1      34.848  15.417  10.161  0.00  0.00     0.073 A 
HETATM   11  C   UNK N   1      35.146  16.817   9.799  0.00  0.00     0.259 A 
HETATM   12  N   UNK N   1      34.641  17.122   8.583  0.00  0.00    -0.322 N 
HETATM   13  C   UNK N   1      34.001  15.961   8.099  0.00  0.00     0.047 A 
HETATM   14  C   UNK N   1      34.095  14.920   8.998  0.00  0.00     0.009 A 
HETATM   15  C   UNK N   1      33.341  15.819   6.878  0.00  0.00     0.049 A 
HETATM   16  C   UNK N   1      32.764  14.569   6.582  0.00  0.00     0.013 A 
HETATM   17  C   UNK N   1      32.860  13.506   7.499  0.00  0.00     0.020 A 
HETATM   18  C   UNK N   1      33.530  13.681   8.716  0.00  0.00     0.016 A 
HETATM   19  O   UNK N   1      35.763  17.620  10.483  0.00  0.00    -0.267 OA
HETATM   20  N   UNK N   1      34.280  12.486  11.030  0.00  0.00    -0.266 N 
ATOM     21  HN  UNK N   1      33.903  12.726  10.113  1.00  0.00     0.194 HD
HETATM   22 Br   UNK N   1      31.847  14.295   4.937  0.00  0.00    -0.051 Br
HETATM   23  H   UNK N   1      36.262  16.318  12.369  0.00  0.00     0.166 HD
HETATM   24  H   UNK N   1      34.707  17.990   8.123  0.00  0.00     0.169 HD
ENDROOT
BRANCH  20  25
HETATM   25  O   UNK N   1      34.100  11.271  11.501  0.00  0.00    -0.289 OA
HETATM   26  H   UNK N   1      33.353  11.081  12.033  0.00  0.00     0.244 HD
ENDBRANCH  20  25
TORSDOF 1
ENDMDL
MODEL 6
REMARK VINA RESULT:      -7.3     17.642     19.761
REMARK  1 active torsions:
REMARK  status: ('A' for Active; 'I' for Inactive)
REMARK    1  A    between atoms: N_20  and  O_22 
ROOT
HETATM    1  C   UNK N   1      33.181  15.848   8.324  0.00  0.00     0.021 A 
HETATM    2  C   UNK N   1      33.737  15.102   9.445  0.00  0.00     0.094 A 
HETATM    3  C   UNK N   1      34.159  15.933   7.356  0.00  0.00     0.045 A 
HETATM    4  N   UNK N   1      35.353  15.287   7.754  0.00  0.00    -0.353 N 
HETATM    5  C   UNK N   1      33.930  16.594   6.151  0.00  0.00     0.030 A 
HETATM    6  C   UNK N   1      32.664  17.176   5.945  0.00  0.00     0.002 A 
HETATM    7  C   UNK N   1      31.664  17.086   6.938  0.00  0.00     0.001 A 
HETATM    8  C   UNK N   1      31.920  16.415   8.145  0.00  0.00     0.016 A 
HETATM    9  C   UNK N   1      35.122  14.759   9.053  0.00  0.00     0.079 A 
HETATM   10  C   UNK N   1      36.055  14.070   9.752  0.00  0.00     0.073 A 
HETATM   11  C   UNK N   1      37.431  13.746   9.326  0.00  0.00     0.259 A 
HETATM   12  N   UNK N   1      38.082  13.044  10.279  0.00  0.00    -0.322 N 
HETATM   13  C   UNK N   1      37.184  12.876  11.355  0.00  0.00     0.047 A 
HETATM   14  C   UNK N   1      35.966  13.467  11.092  0.00  0.00     0.009 A 
HETATM   15  C   UNK N   1      37.433  12.210  12.555  0.00  0.00     0.049 A 
HETATM   16  C   UNK N   1      36.396  12.155  13.506  0.00  0.00     0.013 A 
HETATM   17  C   UNK N   1      35.153  12.758  13.239  0.00  0.00     0.020 A 
HETATM   18  C   UNK N   1      34.934  13.419  12.024  0.00  0.00     0.016 A 
HETATM   19  O   UNK N   1      37.944  14.056   8.261  0.00  0.00    -0.267 OA
HETATM   20  N   UNK N   1      33.140  14.808  10.544  0.00  0.00    -0.266 N 
ATOM     21  HN  UNK N   1      33.640  14.278  11.257  1.00  0.00     0.194 HD
HETATM   22 Br   UNK N   1      36.658  11.265  15.168  0.00  0.00    -0.051 Br
HETATM   23  H   UNK N   1      36.185  15.218   7.231  0.00  0.00     0.166 HD
HETATM   24  H   UNK N   1      39.008  12.712  10.232  0.00  0.00     0.169 HD
ENDROOT
BRANCH  20  25
HETATM   25  O   UNK N   1      31.897  15.176  10.769  0.00  0.00    -0.289 OA
HETATM   26  H   UNK N   1      31.718  15.902  11.334  0.00  0.00     0.244 HD
ENDBRANCH  20  25
TORSDOF 1
ENDMDL
MODEL 7
REMARK VINA RESULT:      -7.2      1.390      3.452
REMARK  1 active torsions:
REMARK  status: ('A' for Active; 'I' for Inactive)
REMARK    1  A    between atoms: N_20  and  O_22 
ROOT
HETATM    1  C   UNK N   1      26.946  25.950  -4.840  0.00  0.00     0.021 A 
HETATM    2  C   UNK N   1      27.484  24.727  -5.420  0.00  0.00     0.094 A 
HETATM    3  C   UNK N   1      25.753  26.220  -5.476  0.00  0.00     0.045 A 
HETATM    4  N   UNK N   1      25.446  25.249  -6.459  0.00  0.00    -0.353 N 
HETATM    5  C   UNK N   1      24.989  27.336  -5.140  0.00  0.00     0.030 A 
HETATM    6  C   UNK N   1      25.471  28.187  -4.126  0.00  0.00     0.002 A 
HETATM    7  C   UNK N   1      26.693  27.908  -3.477  0.00  0.00     0.001 A 
HETATM    8  C   UNK N   1      27.444  26.776  -3.834  0.00  0.00     0.016 A 
HETATM    9  C   UNK N   1      26.508  24.305  -6.448  0.00  0.00     0.079 A 
HETATM   10  C   UNK N   1      26.552  23.226  -7.266  0.00  0.00     0.073 A 
HETATM   11  C   UNK N   1      25.554  22.837  -8.283  0.00  0.00     0.259 A 
HETATM   12  N   UNK N   1      25.923  21.701  -8.915  0.00  0.00    -0.322 N 
HETATM   13  C   UNK N   1      27.155  21.299  -8.356  0.00  0.00     0.047 A 
HETATM   14  C   UNK N   1      27.571  22.171  -7.372  0.00  0.00     0.009 A 
HETATM   15  C   UNK N   1      27.905  20.176  -8.707  0.00  0.00     0.049 A 
HETATM   16  C   UNK N   1      29.115  19.951  -8.023  0.00  0.00     0.013 A 
HETATM   17  C   UNK N   1      29.541  20.840  -7.019  0.00  0.00     0.020 A 
HETATM   18  C   UNK N   1      28.766  21.959  -6.690  0.00  0.00     0.016 A 
HETATM   19  O   UNK N   1      24.522  23.438  -8.544  0.00  0.00    -0.267 OA
HETATM   20  N   UNK N   1      28.583  24.144  -5.098  0.00  0.00    -0.266 N 
ATOM     21  HN  UNK N   1      28.852  23.287  -5.581  1.00  0.00     0.194 HD
HETATM   22 Br   UNK N   1      30.195  18.442  -8.444  0.00  0.00    -0.051 Br
HETATM   23  H   UNK N   1      24.651  25.232  -7.038  0.00  0.00     0.166 HD
HETATM   24  H   UNK N   1      25.427  21.242  -9.630  0.00  0.00     0.169 HD
ENDROOT
BRANCH  20  25
HETATM   25  O   UNK N   1      29.367  24.627  -4.159  0.00  0.00    -0.289 OA
HETATM   26  H   UNK N   1      30.255  24.850  -4.359  0.00  0.00     0.244 HD
ENDBRANCH  20  25
TORSDOF 1
ENDMDL
MODEL 8
REMARK VINA RESULT:      -7.1      2.234      2.959
REMARK  1 active torsions:
REMARK  status: ('A' for Active; 'I' for Inactive)
REMARK    1  A    between atoms: N_20  and  O_22 
ROOT
HETATM    1  C   UNK N   1      27.683  23.899  -5.576  0.00  0.00     0.021 A 
HETATM    2  C   UNK N   1      28.829  23.013  -5.737  0.00  0.00     0.094 A 
HETATM    3  C   UNK N   1      27.664  24.318  -4.263  0.00  0.00     0.045 A 
HETATM    4  N   UNK N   1      28.734  23.767  -3.517  0.00  0.00    -0.353 N 
HETATM    5  C   UNK N   1      26.678  25.183  -3.793  0.00  0.00     0.030 A 
HETATM    6  C   UNK N   1      25.695  25.621  -4.700  0.00  0.00     0.002 A 
HETATM    7  C   UNK N   1      25.717  25.191  -6.044  0.00  0.00     0.001 A 
HETATM    8  C   UNK N   1      26.722  24.319  -6.494  0.00  0.00     0.016 A 
HETATM    9  C   UNK N   1      29.478  22.948  -4.409  0.00  0.00     0.079 A 
HETATM   10  C   UNK N   1      30.581  22.257  -4.038  0.00  0.00     0.073 A 
HETATM   11  C   UNK N   1      31.201  22.218  -2.698  0.00  0.00     0.259 A 
HETATM   12  N   UNK N   1      32.293  21.422  -2.692  0.00  0.00    -0.322 N 
HETATM   13  C   UNK N   1      32.440  20.911  -3.999  0.00  0.00     0.047 A 
HETATM   14  C   UNK N   1      31.449  21.377  -4.837  0.00  0.00     0.009 A 
HETATM   15  C   UNK N   1      33.436  20.045  -4.451  0.00  0.00     0.049 A 
HETATM   16  C   UNK N   1      33.405  19.651  -5.802  0.00  0.00     0.013 A 
HETATM   17  C   UNK N   1      32.394  20.126  -6.659  0.00  0.00     0.020 A 
HETATM   18  C   UNK N   1      31.408  20.995  -6.175  0.00  0.00     0.016 A 
HETATM   19  O   UNK N   1      30.806  22.812  -1.706  0.00  0.00    -0.267 OA
HETATM   20  N   UNK N   1      29.192  22.416  -6.815  0.00  0.00    -0.266 N 
ATOM     21  HN  UNK N   1      30.018  21.817  -6.799  1.00  0.00     0.194 HD
HETATM   22 Br   UNK N   1      34.728  18.472  -6.494  0.00  0.00    -0.051 Br
HETATM   23  H   UNK N   1      28.925  23.921  -2.564  0.00  0.00     0.166 HD
HETATM   24  H   UNK N   1      32.876  21.234  -1.921  0.00  0.00     0.169 HD
ENDROOT
BRANCH  20  25
HETATM   25  O   UNK N   1      28.522  22.559  -7.938  0.00  0.00    -0.289 OA
HETATM   26  H   UNK N   1      28.767  23.225  -8.549  0.00  0.00     0.244 HD
ENDBRANCH  20  25
TORSDOF 1
ENDMDL
MODEL 9
REMARK VINA RESULT:      -7.1     16.562     17.527
REMARK  1 active torsions:
REMARK  status: ('A' for Active; 'I' for Inactive)
REMARK    1  A    between atoms: N_20  and  O_22 
ROOT
HETATM    1  C   UNK N   1      22.353  13.297   9.620  0.00  0.00     0.021 A 
HETATM    2  C   UNK N   1      21.901  14.097   8.489  0.00  0.00     0.094 A 
HETATM    3  C   UNK N   1      23.703  13.070   9.453  0.00  0.00     0.045 A 
HETATM    4  N   UNK N   1      24.198  13.671   8.272  0.00  0.00    -0.353 N 
HETATM    5  C   UNK N   1      24.432  12.327  10.380  0.00  0.00     0.030 A 
HETATM    6  C   UNK N   1      23.750  11.811  11.498  0.00  0.00     0.002 A 
HETATM    7  C   UNK N   1      22.367  12.045  11.665  0.00  0.00     0.001 A 
HETATM    8  C   UNK N   1      21.655  12.797  10.717  0.00  0.00     0.016 A 
HETATM    9  C   UNK N   1      23.098  14.319   7.648  0.00  0.00     0.079 A 
HETATM   10  C   UNK N   1      23.201  15.004   6.484  0.00  0.00     0.073 A 
HETATM   11  C   UNK N   1      24.417  15.204   5.671  0.00  0.00     0.259 A 
HETATM   12  N   UNK N   1      24.150  15.941   4.571  0.00  0.00    -0.322 N 
HETATM   13  C   UNK N   1      22.774  16.254   4.607  0.00  0.00     0.047 A 
HETATM   14  C   UNK N   1      22.165  15.721   5.724  0.00  0.00     0.009 A 
HETATM   15  C   UNK N   1      22.062  17.000   3.668  0.00  0.00     0.049 A 
HETATM   16  C   UNK N   1      20.686  17.200   3.891  0.00  0.00     0.013 A 
HETATM   17  C   UNK N   1      20.063  16.656   5.030  0.00  0.00     0.020 A 
HETATM   18  C   UNK N   1      20.806  15.911   5.954  0.00  0.00     0.016 A 
HETATM   19  O   UNK N   1      25.532  14.775   5.930  0.00  0.00    -0.267 OA
HETATM   20  N   UNK N   1      20.707  14.518   8.276  0.00  0.00    -0.266 N 
ATOM     21  HN  UNK N   1      20.515  15.074   7.442  1.00  0.00     0.194 HD
HETATM   22 Br   UNK N   1      19.645  18.207   2.656  0.00  0.00    -0.051 Br
HETATM   23  H   UNK N   1      25.127  13.644   7.944  0.00  0.00     0.166 HD
HETATM   24  H   UNK N   1      24.793  16.209   3.876  0.00  0.00     0.169 HD
ENDROOT
BRANCH  20  25
HETATM   25  O   UNK N   1      19.725  14.249   9.109  0.00  0.00    -0.289 OA
HETATM   26  H   UNK N   1      19.482  13.360   9.276  0.00  0.00     0.244 HD
ENDBRANCH  20  25
TORSDOF 1
ENDMDL
