REMARK  1 active torsions:
REMARK  status: ('A' for Active; 'I' for Inactive)
REMARK    1  A    between atoms: N_20  and  O_22 
ROOT
HETATM    1  C   UNK N   1      -1.838   2.247  -0.000  0.00  0.00     0.021 A 
HETATM    2  C   UNK N   1      -0.894   1.137  -0.000  0.00  0.00     0.094 A 
HETATM    3  C   UNK N   1      -3.108   1.711   0.000  0.00  0.00     0.045 A 
HETATM    4  N   UNK N   1      -3.084   0.296   0.000  0.00  0.00    -0.353 N 
HETATM    5  C   UNK N   1      -4.238   2.526   0.000  0.00  0.00     0.030 A 
HETATM    6  C   UNK N   1      -4.048   3.921   0.000  0.00  0.00     0.002 A 
HETATM    7  C   UNK N   1      -2.746   4.467   0.000  0.00  0.00     0.001 A 
HETATM    8  C   UNK N   1      -1.623   3.624   0.000  0.00  0.00     0.016 A 
HETATM    9  C   UNK N   1      -1.717  -0.092  -0.000  0.00  0.00     0.079 A 
HETATM   10  C   UNK N   1      -1.311  -1.384  -0.000  0.00  0.00     0.073 A 
HETATM   11  C   UNK N   1      -2.166  -2.588  -0.000  0.00  0.00     0.259 A 
HETATM   12  N   UNK N   1      -1.419  -3.714   0.000  0.00  0.00    -0.322 N 
HETATM   13  C   UNK N   1      -0.066  -3.312  -0.000  0.00  0.00     0.047 A 
HETATM   14  C   UNK N   1       0.052  -1.938  -0.000  0.00  0.00     0.009 A 
HETATM   15  C   UNK N   1       1.053  -4.145   0.000  0.00  0.00     0.049 A 
HETATM   16  C   UNK N   1       2.325  -3.541   0.000  0.00  0.00     0.013 A 
HETATM   17  C   UNK N   1       2.447  -2.139  -0.000  0.00  0.00     0.020 A 
HETATM   18  C   UNK N   1       1.304  -1.330  -0.000  0.00  0.00     0.016 A 
HETATM   19  O   UNK N   1      -3.388  -2.601   0.000  0.00  0.00    -0.267 OA
HETATM   20  N   UNK N   1       0.388   1.220  -0.000  0.00  0.00    -0.266 N 
ATOM     21  HN  UNK N   1       0.943   0.364  -0.000  1.00  0.00     0.194 HD
HETATM   22 Br   UNK N   1       3.900  -4.609   0.000  0.00  0.00    -0.051 Br
HETATM   23  H   UNK N   1      -3.865  -0.304   0.000  0.00  0.00     0.166 HD
HETATM   24  H   UNK N   1      -1.755  -4.639   0.000  0.00  0.00     0.169 HD
ENDROOT
BRANCH  20  25
HETATM   25  O   UNK N   1       1.001   2.384  -0.000  0.00  0.00    -0.289 OA
HETATM   26  H   UNK N   1       1.937   2.421  -0.000  0.00  0.00     0.244 HD
ENDBRANCH  20  25
TORSDOF 1
