MODEL 1
REMARK VINA RESULT:      -6.4      0.000      0.000
REMARK  5 active torsions:
REMARK  status: ('A' for Active; 'I' for Inactive)
REMARK    1  A    between atoms: O_1  and  C_2 
REMARK    2  A    between atoms: C_3  and  C_2 
REMARK    3  A    between atoms: C_5  and  N_6 
REMARK    4  A    between atoms: C_13  and  C_14 
REMARK    5  A    between atoms: C_21  and  O_22 
ROOT
HETATM    1  N   UNK N   1      29.344  18.106   7.522  0.00  0.00    -0.281 N 
HETATM    2  C   UNK N   1      30.044  17.594   6.477  0.00  0.00     0.117 A 
HETATM    3  C   UNK N   1      29.886  18.024   8.797  0.00  0.00     0.331 A 
HETATM    4  O   UNK N   1      29.293  18.471   9.764  0.00  0.00    -0.246 OA
HETATM    5  N   UNK N   1      31.114  17.440   8.981  0.00  0.00    -0.275 N 
HETATM    6  C   UNK N   1      31.831  16.938   7.926  0.00  0.00     0.262 A 
HETATM    7  O   UNK N   1      32.924  16.440   8.127  0.00  0.00    -0.267 OA
HETATM    8  C   UNK N   1      31.293  17.007   6.631  0.00  0.00     0.065 A 
HETATM    9  H   UNK N   1      31.489  17.381   9.889  0.00  0.00     0.173 HD
ENDROOT
BRANCH   1  10
HETATM   10  C   UNK N   1      28.063  18.744   7.155  0.00  0.00     0.235 C 
HETATM   11  O   UNK N   1      28.211  20.156   7.163  0.00  0.00    -0.356 OA
HETATM   12  C   UNK N   1      27.370  20.643   6.149  0.00  0.00     0.176 C 
HETATM   13  C   UNK N   1      27.374  19.596   5.052  0.00  0.00     0.153 C 
HETATM   14  C   UNK N   1      27.426  18.317   5.830  0.00  0.00     0.088 C 
BRANCH  12  15
HETATM   15  C   UNK N   1      25.974  20.971   6.712  0.00  0.00     0.198 C 
BRANCH  15  16
HETATM   16  O   UNK N   1      25.956  21.049   8.105  0.00  0.00    -0.398 OA
HETATM   17  H   UNK N   1      26.049  21.310   9.035  0.00  0.00     0.209 HD
ENDBRANCH  15  16
ENDBRANCH  12  15
BRANCH  13  18
HETATM   18  O   UNK N   1      28.558  19.699   4.316  0.00  0.00    -0.393 OA
HETATM   19  H   UNK N   1      29.526  19.644   4.336  0.00  0.00     0.210 HD
ENDBRANCH  13  18
ENDBRANCH   1  10
BRANCH   8  20
HETATM   20  C   UNK N   1      31.977  16.529   5.407  0.00  0.00     0.023 A 
HETATM   21  C   UNK N   1      32.429  17.368   4.376  0.00  0.00     0.022 A 
HETATM   22  C   UNK N   1      33.106  16.674   3.336  0.00  0.00     0.028 A 
HETATM   23  C   UNK N   1      33.186  15.300   3.564  0.00  0.00     0.052 A 
HETATM   24  S   UNK N   1      32.428  14.984   5.004  0.00  0.00    -0.082 SA
HETATM   25 Br   UNK N   1      34.056  14.031   2.442  0.00  0.00    -0.043 Br
ENDBRANCH   8  20
TORSDOF 5
ENDMDL
MODEL 2
REMARK VINA RESULT:      -6.4      5.597      7.641
REMARK  5 active torsions:
REMARK  status: ('A' for Active; 'I' for Inactive)
REMARK    1  A    between atoms: O_1  and  C_2 
REMARK    2  A    between atoms: C_3  and  C_2 
REMARK    3  A    between atoms: C_5  and  N_6 
REMARK    4  A    between atoms: C_13  and  C_14 
REMARK    5  A    between atoms: C_21  and  O_22 
ROOT
HETATM    1  N   UNK N   1      34.525  15.540   9.951  0.00  0.00    -0.281 N 
HETATM    2  C   UNK N   1      34.414  14.255  10.377  0.00  0.00     0.117 A 
HETATM    3  C   UNK N   1      35.374  16.402  10.631  0.00  0.00     0.331 A 
HETATM    4  O   UNK N   1      35.505  17.562  10.282  0.00  0.00    -0.246 OA
HETATM    5  N   UNK N   1      36.091  15.945  11.709  0.00  0.00    -0.275 N 
HETATM    6  C   UNK N   1      35.995  14.644  12.130  0.00  0.00     0.262 A 
HETATM    7  O   UNK N   1      36.656  14.272  13.083  0.00  0.00    -0.267 OA
HETATM    8  C   UNK N   1      35.133  13.763  11.458  0.00  0.00     0.065 A 
HETATM    9  H   UNK N   1      36.687  16.564  12.188  0.00  0.00     0.173 HD
ENDROOT
BRANCH   1  10
HETATM   10  C   UNK N   1      33.728  15.864   8.750  0.00  0.00     0.235 C 
HETATM   11  O   UNK N   1      32.815  16.911   9.047  0.00  0.00    -0.356 OA
HETATM   12  C   UNK N   1      32.688  17.665   7.870  0.00  0.00     0.176 C 
HETATM   13  C   UNK N   1      34.041  17.619   7.186  0.00  0.00     0.153 C 
HETATM   14  C   UNK N   1      34.499  16.223   7.477  0.00  0.00     0.088 C 
BRANCH  12  15
HETATM   15  C   UNK N   1      31.521  17.141   7.012  0.00  0.00     0.198 C 
BRANCH  15  16
HETATM   16  O   UNK N   1      30.393  16.822   7.769  0.00  0.00    -0.398 OA
HETATM   17  H   UNK N   1      29.726  16.399   8.334  0.00  0.00     0.209 HD
ENDBRANCH  15  16
ENDBRANCH  12  15
BRANCH  13  18
HETATM   18  O   UNK N   1      34.915  18.501   7.826  0.00  0.00    -0.393 OA
HETATM   19  H   UNK N   1      35.014  19.187   8.504  0.00  0.00     0.210 HD
ENDBRANCH  13  18
ENDBRANCH   1  10
BRANCH   8  20
HETATM   20  C   UNK N   1      34.962  12.330  11.795  0.00  0.00     0.023 A 
HETATM   21  C   UNK N   1      34.526  11.858  13.043  0.00  0.00     0.022 A 
HETATM   22  C   UNK N   1      34.387  10.444  13.097  0.00  0.00     0.028 A 
HETATM   23  C   UNK N   1      34.709   9.821  11.891  0.00  0.00     0.052 A 
HETATM   24  S   UNK N   1      35.154  11.002  10.817  0.00  0.00    -0.082 SA
HETATM   25 Br   UNK N   1      34.603   7.954  11.536  0.00  0.00    -0.043 Br
ENDBRANCH   8  20
TORSDOF 5
ENDMDL
MODEL 3
REMARK VINA RESULT:      -6.3      6.790      9.148
REMARK  5 active torsions:
REMARK  status: ('A' for Active; 'I' for Inactive)
REMARK    1  A    between atoms: O_1  and  C_2 
REMARK    2  A    between atoms: C_3  and  C_2 
REMARK    3  A    between atoms: C_5  and  N_6 
REMARK    4  A    between atoms: C_13  and  C_14 
REMARK    5  A    between atoms: C_21  and  O_22 
ROOT
HETATM    1  N   UNK N   1      34.856  14.462  10.193  0.00  0.00    -0.281 N 
HETATM    2  C   UNK N   1      35.080  14.435  11.533  0.00  0.00     0.117 A 
HETATM    3  C   UNK N   1      35.193  13.350   9.434  0.00  0.00     0.331 A 
HETATM    4  O   UNK N   1      35.007  13.330   8.229  0.00  0.00    -0.246 OA
HETATM    5  N   UNK N   1      35.734  12.245  10.043  0.00  0.00    -0.275 N 
HETATM    6  C   UNK N   1      35.945  12.208  11.397  0.00  0.00     0.262 A 
HETATM    7  O   UNK N   1      36.415  11.205  11.904  0.00  0.00    -0.267 OA
HETATM    8  C   UNK N   1      35.617  13.329  12.177  0.00  0.00     0.065 A 
HETATM    9  H   UNK N   1      35.975  11.463   9.497  0.00  0.00     0.173 HD
ENDROOT
BRANCH   1  10
HETATM   10  C   UNK N   1      34.224  15.701   9.697  0.00  0.00     0.235 C 
HETATM   11  O   UNK N   1      35.038  16.287   8.692  0.00  0.00    -0.356 OA
HETATM   12  C   UNK N   1      34.159  16.893   7.780  0.00  0.00     0.176 C 
HETATM   13  C   UNK N   1      32.916  16.026   7.745  0.00  0.00     0.153 C 
HETATM   14  C   UNK N   1      32.789  15.590   9.174  0.00  0.00     0.088 C 
BRANCH  12  15
HETATM   15  C   UNK N   1      33.902  18.361   8.167  0.00  0.00     0.198 C 
BRANCH  15  16
HETATM   16  O   UNK N   1      35.079  19.077   8.391  0.00  0.00    -0.398 OA
HETATM   17  H   UNK N   1      35.808  19.598   8.763  0.00  0.00     0.209 HD
ENDBRANCH  15  16
ENDBRANCH  12  15
BRANCH  13  18
HETATM   18  O   UNK N   1      33.163  14.890   6.971  0.00  0.00    -0.393 OA
HETATM   19  H   UNK N   1      32.968  14.419   6.145  0.00  0.00     0.210 HD
ENDBRANCH  13  18
ENDBRANCH   1  10
BRANCH   8  20
HETATM   20  C   UNK N   1      35.769  13.404  13.649  0.00  0.00     0.023 A 
HETATM   21  C   UNK N   1      36.688  14.236  14.308  0.00  0.00     0.022 A 
HETATM   22  C   UNK N   1      36.598  14.170  15.725  0.00  0.00     0.028 A 
HETATM   23  C   UNK N   1      35.606  13.294  16.165  0.00  0.00     0.052 A 
HETATM   24  S   UNK N   1      34.889  12.632  14.826  0.00  0.00    -0.082 SA
HETATM   25 Br   UNK N   1      35.134  12.963  17.980  0.00  0.00    -0.043 Br
ENDBRANCH   8  20
TORSDOF 5
ENDMDL
MODEL 4
REMARK VINA RESULT:      -6.3      5.934      8.173
REMARK  5 active torsions:
REMARK  status: ('A' for Active; 'I' for Inactive)
REMARK    1  A    between atoms: O_1  and  C_2 
REMARK    2  A    between atoms: C_3  and  C_2 
REMARK    3  A    between atoms: C_5  and  N_6 
REMARK    4  A    between atoms: C_13  and  C_14 
REMARK    5  A    between atoms: C_21  and  O_22 
ROOT
HETATM    1  N   UNK N   1      22.050  18.734   4.203  0.00  0.00    -0.281 N 
HETATM    2  C   UNK N   1      23.389  18.674   4.420  0.00  0.00     0.117 A 
HETATM    3  C   UNK N   1      21.558  19.666   3.299  0.00  0.00     0.331 A 
HETATM    4  O   UNK N   1      20.364  19.754   3.073  0.00  0.00    -0.246 OA
HETATM    5  N   UNK N   1      22.425  20.498   2.637  0.00  0.00    -0.275 N 
HETATM    6  C   UNK N   1      23.779  20.428   2.841  0.00  0.00     0.262 A 
HETATM    7  O   UNK N   1      24.518  21.174   2.224  0.00  0.00    -0.267 OA
HETATM    8  C   UNK N   1      24.291  19.496   3.758  0.00  0.00     0.065 A 
HETATM    9  H   UNK N   1      22.068  21.159   2.002  0.00  0.00     0.173 HD
ENDROOT
BRANCH   1  10
HETATM   10  C   UNK N   1      21.257  17.740   4.954  0.00  0.00     0.235 C 
HETATM   11  O   UNK N   1      21.397  16.461   4.354  0.00  0.00    -0.356 OA
HETATM   12  C   UNK N   1      21.340  15.528   5.402  0.00  0.00     0.176 C 
HETATM   13  C   UNK N   1      21.981  16.196   6.603  0.00  0.00     0.153 C 
HETATM   14  C   UNK N   1      21.532  17.618   6.456  0.00  0.00     0.088 C 
BRANCH  12  15
HETATM   15  C   UNK N   1      19.892  15.057   5.632  0.00  0.00     0.198 C 
BRANCH  15  16
HETATM   16  O   UNK N   1      19.621  14.768   6.970  0.00  0.00    -0.398 OA
HETATM   17  H   UNK N   1      19.563  14.376   7.856  0.00  0.00     0.209 HD
ENDBRANCH  15  16
ENDBRANCH  12  15
BRANCH  13  18
HETATM   18  O   UNK N   1      23.370  16.168   6.463  0.00  0.00    -0.393 OA
HETATM   19  H   UNK N   1      24.119  15.918   5.899  0.00  0.00     0.210 HD
ENDBRANCH  13  18
ENDBRANCH   1  10
BRANCH   8  20
HETATM   20  C   UNK N   1      25.731  19.300   4.046  0.00  0.00     0.023 A 
HETATM   21  C   UNK N   1      26.593  20.314   4.494  0.00  0.00     0.022 A 
HETATM   22  C   UNK N   1      27.915  19.860   4.754  0.00  0.00     0.028 A 
HETATM   23  C   UNK N   1      28.077  18.495   4.514  0.00  0.00     0.052 A 
HETATM   24  S   UNK N   1      26.621  17.900   3.991  0.00  0.00    -0.082 SA
HETATM   25 Br   UNK N   1      29.673  17.495   4.789  0.00  0.00    -0.043 Br
ENDBRANCH   8  20
TORSDOF 5
ENDMDL
MODEL 5
REMARK VINA RESULT:      -6.3      3.320      6.215
REMARK  5 active torsions:
REMARK  status: ('A' for Active; 'I' for Inactive)
REMARK    1  A    between atoms: O_1  and  C_2 
REMARK    2  A    between atoms: C_3  and  C_2 
REMARK    3  A    between atoms: C_5  and  N_6 
REMARK    4  A    between atoms: C_13  and  C_14 
REMARK    5  A    between atoms: C_21  and  O_22 
ROOT
HETATM    1  N   UNK N   1      31.236  16.747   6.915  0.00  0.00    -0.281 N 
HETATM    2  C   UNK N   1      30.175  17.443   6.430  0.00  0.00     0.117 A 
HETATM    3  C   UNK N   1      31.340  16.551   8.285  0.00  0.00     0.331 A 
HETATM    4  O   UNK N   1      32.275  15.931   8.764  0.00  0.00    -0.246 OA
HETATM    5  N   UNK N   1      30.375  17.050   9.122  0.00  0.00    -0.275 N 
HETATM    6  C   UNK N   1      29.293  17.739   8.635  0.00  0.00     0.262 A 
HETATM    7  O   UNK N   1      28.449  18.155   9.408  0.00  0.00    -0.267 OA
HETATM    8  C   UNK N   1      29.178  17.952   7.252  0.00  0.00     0.065 A 
HETATM    9  H   UNK N   1      30.459  16.912  10.093  0.00  0.00     0.173 HD
ENDROOT
BRANCH   1  10
HETATM   10  C   UNK N   1      32.161  16.233   5.885  0.00  0.00     0.235 C 
HETATM   11  O   UNK N   1      31.424  15.594   4.853  0.00  0.00    -0.356 OA
HETATM   12  C   UNK N   1      32.132  15.830   3.663  0.00  0.00     0.176 C 
HETATM   13  C   UNK N   1      32.759  17.203   3.805  0.00  0.00     0.153 C 
HETATM   14  C   UNK N   1      33.131  17.237   5.256  0.00  0.00     0.088 C 
BRANCH  12  15
HETATM   15  C   UNK N   1      33.137  14.694   3.394  0.00  0.00     0.198 C 
BRANCH  15  16
HETATM   16  O   UNK N   1      33.941  14.933   2.279  0.00  0.00    -0.398 OA
HETATM   17  H   UNK N   1      34.632  15.216   1.660  0.00  0.00     0.209 HD
ENDBRANCH  15  16
ENDBRANCH  12  15
BRANCH  13  18
HETATM   18  O   UNK N   1      31.786  18.182   3.588  0.00  0.00    -0.393 OA
HETATM   19  H   UNK N   1      31.612  19.121   3.414  0.00  0.00     0.210 HD
ENDBRANCH  13  18
ENDBRANCH   1  10
BRANCH   8  20
HETATM   20  C   UNK N   1      28.047  18.652   6.598  0.00  0.00     0.023 A 
HETATM   21  C   UNK N   1      27.701  19.991   6.839  0.00  0.00     0.022 A 
HETATM   22  C   UNK N   1      26.614  20.446   6.044  0.00  0.00     0.028 A 
HETATM   23  C   UNK N   1      26.121  19.464   5.184  0.00  0.00     0.052 A 
HETATM   24  S   UNK N   1      27.014  18.089   5.427  0.00  0.00    -0.082 SA
HETATM   25 Br   UNK N   1      24.711  19.687   3.925  0.00  0.00    -0.043 Br
ENDBRANCH   8  20
TORSDOF 5
ENDMDL
MODEL 6
REMARK VINA RESULT:      -6.3      6.591      9.876
REMARK  5 active torsions:
REMARK  status: ('A' for Active; 'I' for Inactive)
REMARK    1  A    between atoms: O_1  and  C_2 
REMARK    2  A    between atoms: C_3  and  C_2 
REMARK    3  A    between atoms: C_5  and  N_6 
REMARK    4  A    between atoms: C_13  and  C_14 
REMARK    5  A    between atoms: C_21  and  O_22 
ROOT
HETATM    1  N   UNK N   1      35.637  14.064  11.958  0.00  0.00    -0.281 N 
HETATM    2  C   UNK N   1      34.732  14.803  11.266  0.00  0.00     0.117 A 
HETATM    3  C   UNK N   1      36.670  13.448  11.264  0.00  0.00     0.331 A 
HETATM    4  O   UNK N   1      37.506  12.777  11.845  0.00  0.00    -0.246 OA
HETATM    5  N   UNK N   1      36.766  13.601   9.904  0.00  0.00    -0.275 N 
HETATM    6  C   UNK N   1      35.863  14.360   9.205  0.00  0.00     0.262 A 
HETATM    7  O   UNK N   1      35.988  14.483   8.000  0.00  0.00    -0.267 OA
HETATM    8  C   UNK N   1      34.808  14.982   9.891  0.00  0.00     0.065 A 
HETATM    9  H   UNK N   1      37.498  13.156   9.420  0.00  0.00     0.173 HD
ENDROOT
BRANCH   1  10
HETATM   10  C   UNK N   1      35.426  14.037  13.419  0.00  0.00     0.235 C 
HETATM   11  O   UNK N   1      34.964  12.754  13.814  0.00  0.00    -0.356 OA
HETATM   12  C   UNK N   1      35.500  12.520  15.091  0.00  0.00     0.176 C 
HETATM   13  C   UNK N   1      36.857  13.196  15.114  0.00  0.00     0.153 C 
HETATM   14  C   UNK N   1      36.613  14.432  14.303  0.00  0.00     0.088 C 
BRANCH  12  15
HETATM   15  C   UNK N   1      34.529  13.003  16.185  0.00  0.00     0.198 C 
BRANCH  15  16
HETATM   16  O   UNK N   1      35.178  13.362  17.367  0.00  0.00    -0.398 OA
HETATM   17  H   UNK N   1      35.811  13.503  18.088  0.00  0.00     0.209 HD
ENDBRANCH  15  16
ENDBRANCH  12  15
BRANCH  13  18
HETATM   18  O   UNK N   1      37.781  12.406  14.425  0.00  0.00    -0.393 OA
HETATM   19  H   UNK N   1      38.092  11.506  14.240  0.00  0.00     0.210 HD
ENDBRANCH  13  18
ENDBRANCH   1  10
BRANCH   8  20
HETATM   20  C   UNK N   1      33.787  15.851   9.260  0.00  0.00     0.023 A 
HETATM   21  C   UNK N   1      33.983  17.208   8.956  0.00  0.00     0.022 A 
HETATM   22  C   UNK N   1      32.873  17.806   8.299  0.00  0.00     0.028 A 
HETATM   23  C   UNK N   1      31.821  16.914   8.089  0.00  0.00     0.052 A 
HETATM   24  S   UNK N   1      32.274  15.447   8.711  0.00  0.00    -0.082 SA
HETATM   25 Br   UNK N   1      30.184  17.308   7.199  0.00  0.00    -0.043 Br
ENDBRANCH   8  20
TORSDOF 5
ENDMDL
MODEL 7
REMARK VINA RESULT:      -6.3      4.763      8.273
REMARK  5 active torsions:
REMARK  status: ('A' for Active; 'I' for Inactive)
REMARK    1  A    between atoms: O_1  and  C_2 
REMARK    2  A    between atoms: C_3  and  C_2 
REMARK    3  A    between atoms: C_5  and  N_6 
REMARK    4  A    between atoms: C_13  and  C_14 
REMARK    5  A    between atoms: C_21  and  O_22 
ROOT
HETATM    1  N   UNK N   1      34.445  15.479  10.245  0.00  0.00    -0.281 N 
HETATM    2  C   UNK N   1      33.348  15.534   9.447  0.00  0.00     0.117 A 
HETATM    3  C   UNK N   1      35.357  16.525  10.206  0.00  0.00     0.331 A 
HETATM    4  O   UNK N   1      36.355  16.518  10.906  0.00  0.00    -0.246 OA
HETATM    5  N   UNK N   1      35.134  17.594   9.375  0.00  0.00    -0.275 N 
HETATM    6  C   UNK N   1      34.019  17.661   8.581  0.00  0.00     0.262 A 
HETATM    7  O   UNK N   1      33.848  18.633   7.866  0.00  0.00    -0.267 OA
HETATM    8  C   UNK N   1      33.092  16.607   8.603  0.00  0.00     0.065 A 
HETATM    9  H   UNK N   1      35.788  18.329   9.349  0.00  0.00     0.173 HD
ENDROOT
BRANCH   1  10
HETATM   10  C   UNK N   1      34.517  14.289  11.117  0.00  0.00     0.235 C 
HETATM   11  O   UNK N   1      34.938  13.164  10.360  0.00  0.00    -0.356 OA
HETATM   12  C   UNK N   1      35.701  12.369  11.231  0.00  0.00     0.176 C 
HETATM   13  C   UNK N   1      36.412  13.325  12.167  0.00  0.00     0.153 C 
HETATM   14  C   UNK N   1      35.384  14.396  12.374  0.00  0.00     0.088 C 
BRANCH  12  15
HETATM   15  C   UNK N   1      34.811  11.328  11.936  0.00  0.00     0.198 C 
BRANCH  15  16
HETATM   16  O   UNK N   1      33.719  10.934  11.161  0.00  0.00    -0.398 OA
HETATM   17  H   UNK N   1      32.968  10.469  10.760  0.00  0.00     0.209 HD
ENDBRANCH  15  16
ENDBRANCH  12  15
BRANCH  13  18
HETATM   18  O   UNK N   1      37.502  13.898  11.507  0.00  0.00    -0.393 OA
HETATM   19  H   UNK N   1      38.343  14.372  11.601  0.00  0.00     0.210 HD
ENDBRANCH  13  18
ENDBRANCH   1  10
BRANCH   8  20
HETATM   20  C   UNK N   1      31.836  16.572   7.818  0.00  0.00     0.023 A 
HETATM   21  C   UNK N   1      31.635  15.769   6.684  0.00  0.00     0.022 A 
HETATM   22  C   UNK N   1      30.324  15.871   6.142  0.00  0.00     0.028 A 
HETATM   23  C   UNK N   1      29.508  16.746   6.859  0.00  0.00     0.052 A 
HETATM   24  S   UNK N   1      30.406  17.364   8.108  0.00  0.00    -0.082 SA
HETATM   25 Br   UNK N   1      27.677  17.118   6.492  0.00  0.00    -0.043 Br
ENDBRANCH   8  20
TORSDOF 5
ENDMDL
MODEL 8
REMARK VINA RESULT:      -6.2      2.608      5.357
REMARK  5 active torsions:
REMARK  status: ('A' for Active; 'I' for Inactive)
REMARK    1  A    between atoms: O_1  and  C_2 
REMARK    2  A    between atoms: C_3  and  C_2 
REMARK    3  A    between atoms: C_5  and  N_6 
REMARK    4  A    between atoms: C_13  and  C_14 
REMARK    5  A    between atoms: C_21  and  O_22 
ROOT
HETATM    1  N   UNK N   1      30.918  17.676   8.142  0.00  0.00    -0.281 N 
HETATM    2  C   UNK N   1      30.751  17.079   6.933  0.00  0.00     0.117 A 
HETATM    3  C   UNK N   1      29.833  18.310   8.731  0.00  0.00     0.331 A 
HETATM    4  O   UNK N   1      29.937  18.858   9.815  0.00  0.00    -0.246 OA
HETATM    5  N   UNK N   1      28.617  18.318   8.095  0.00  0.00    -0.275 N 
HETATM    6  C   UNK N   1      28.442  17.701   6.883  0.00  0.00     0.262 A 
HETATM    7  O   UNK N   1      27.345  17.717   6.355  0.00  0.00    -0.267 OA
HETATM    8  C   UNK N   1      29.531  17.062   6.270  0.00  0.00     0.065 A 
HETATM    9  H   UNK N   1      27.855  18.775   8.517  0.00  0.00     0.173 HD
ENDROOT
BRANCH   1  10
HETATM   10  C   UNK N   1      32.270  17.538   8.718  0.00  0.00     0.235 C 
HETATM   11  O   UNK N   1      32.794  16.254   8.415  0.00  0.00    -0.356 OA
HETATM   12  C   UNK N   1      34.179  16.422   8.257  0.00  0.00     0.176 C 
HETATM   13  C   UNK N   1      34.374  17.800   7.656  0.00  0.00     0.153 C 
HETATM   14  C   UNK N   1      33.304  18.600   8.333  0.00  0.00     0.088 C 
BRANCH  12  15
HETATM   15  C   UNK N   1      34.909  16.200   9.595  0.00  0.00     0.198 C 
BRANCH  15  16
HETATM   16  O   UNK N   1      35.547  17.350  10.062  0.00  0.00    -0.398 OA
HETATM   17  H   UNK N   1      35.770  18.223  10.422  0.00  0.00     0.209 HD
ENDBRANCH  15  16
ENDBRANCH  12  15
BRANCH  13  18
HETATM   18  O   UNK N   1      34.080  17.757   6.291  0.00  0.00    -0.393 OA
HETATM   19  H   UNK N   1      34.438  17.753   5.389  0.00  0.00     0.210 HD
ENDBRANCH  13  18
ENDBRANCH   1  10
BRANCH   8  20
HETATM   20  C   UNK N   1      29.467  16.336   4.980  0.00  0.00     0.023 A 
HETATM   21  C   UNK N   1      29.904  16.862   3.754  0.00  0.00     0.022 A 
HETATM   22  C   UNK N   1      29.789  15.947   2.672  0.00  0.00     0.028 A 
HETATM   23  C   UNK N   1      29.270  14.711   3.059  0.00  0.00     0.052 A 
HETATM   24  S   UNK N   1      28.965  14.781   4.686  0.00  0.00    -0.082 SA
HETATM   25 Br   UNK N   1      29.011  13.205   1.924  0.00  0.00    -0.043 Br
ENDBRANCH   8  20
TORSDOF 5
ENDMDL
MODEL 9
REMARK VINA RESULT:      -6.2     12.050     14.547
REMARK  5 active torsions:
REMARK  status: ('A' for Active; 'I' for Inactive)
REMARK    1  A    between atoms: O_1  and  C_2 
REMARK    2  A    between atoms: C_3  and  C_2 
REMARK    3  A    between atoms: C_5  and  N_6 
REMARK    4  A    between atoms: C_13  and  C_14 
REMARK    5  A    between atoms: C_21  and  O_22 
ROOT
HETATM    1  N   UNK N   1      28.929  22.849  -5.413  0.00  0.00    -0.281 N 
HETATM    2  C   UNK N   1      28.410  24.005  -4.925  0.00  0.00     0.117 A 
HETATM    3  C   UNK N   1      28.542  22.419  -6.674  0.00  0.00     0.331 A 
HETATM    4  O   UNK N   1      28.984  21.388  -7.152  0.00  0.00    -0.246 OA
HETATM    5  N   UNK N   1      27.655  23.166  -7.408  0.00  0.00    -0.275 N 
HETATM    6  C   UNK N   1      27.142  24.342  -6.926  0.00  0.00     0.262 A 
HETATM    7  O   UNK N   1      26.367  24.985  -7.612  0.00  0.00    -0.267 OA
HETATM    8  C   UNK N   1      27.518  24.786  -5.648  0.00  0.00     0.065 A 
HETATM    9  H   UNK N   1      27.381  22.851  -8.299  0.00  0.00     0.173 HD
ENDROOT
BRANCH   1  10
HETATM   10  C   UNK N   1      29.906  22.187  -4.525  0.00  0.00     0.235 C 
HETATM   11  O   UNK N   1      31.219  22.621  -4.847  0.00  0.00    -0.356 OA
HETATM   12  C   UNK N   1      31.934  22.640  -3.639  0.00  0.00     0.176 C 
HETATM   13  C   UNK N   1      30.940  23.027  -2.562  0.00  0.00     0.153 C 
HETATM   14  C   UNK N   1      29.690  22.336  -3.016  0.00  0.00     0.088 C 
BRANCH  12  15
HETATM   15  C   UNK N   1      32.637  21.290  -3.403  0.00  0.00     0.198 C 
BRANCH  15  16
HETATM   16  O   UNK N   1      32.916  21.052  -2.056  0.00  0.00    -0.398 OA
HETATM   17  H   UNK N   1      33.091  21.120  -1.104  0.00  0.00     0.209 HD
ENDBRANCH  15  16
ENDBRANCH  12  15
BRANCH  13  18
HETATM   18  O   UNK N   1      30.712  24.404  -2.613  0.00  0.00    -0.393 OA
HETATM   19  H   UNK N   1      30.636  25.188  -3.180  0.00  0.00     0.210 HD
ENDBRANCH  13  18
ENDBRANCH   1  10
BRANCH   8  20
HETATM   20  C   UNK N   1      27.060  26.051  -5.027  0.00  0.00     0.023 A 
HETATM   21  C   UNK N   1      26.192  26.121  -3.926  0.00  0.00     0.022 A 
HETATM   22  C   UNK N   1      25.950  27.450  -3.479  0.00  0.00     0.028 A 
HETATM   23  C   UNK N   1      26.634  28.407  -4.228  0.00  0.00     0.052 A 
HETATM   24  S   UNK N   1      27.493  27.610  -5.400  0.00  0.00    -0.082 SA
HETATM   25 Br   UNK N   1      26.619  30.286  -3.920  0.00  0.00    -0.043 Br
ENDBRANCH   8  20
TORSDOF 5
ENDMDL
