MODEL 1
REMARK VINA RESULT:      -7.1      0.000      0.000
REMARK  3 active torsions:
REMARK  status: ('A' for Active; 'I' for Inactive)
REMARK    1  A    between atoms: C_4  and  C_9 
REMARK    2  A    between atoms: C_8  and  C_12 
REMARK       I    between atoms: C_12  and  N_13 
REMARK    3  A    between atoms: C_17  and  O_18 
ROOT
HETATM    1  C   UNK N   1      21.070  16.907   7.234  0.00  0.00     0.076 A 
HETATM    2  N   UNK N   1      21.370  18.030   6.578  0.00  0.00    -0.339 N 
ATOM      3  HN  UNK N   1      21.020  18.972   6.758  1.00  0.00     0.167 HD
HETATM    4  C   UNK N   1      22.243  17.636   5.621  0.00  0.00     0.116 A 
HETATM    5  N   UNK N   1      22.499  16.301   5.657  0.00  0.00    -0.340 N 
HETATM    6  C   UNK N   1      21.747  15.862   6.684  0.00  0.00     0.061 A 
HETATM    7  C   UNK N   1      21.622  14.566   7.172  0.00  0.00     0.032 A 
HETATM    8  C   UNK N   1      20.206  16.756   8.321  0.00  0.00     0.060 A 
HETATM    9  C   UNK N   1      20.056  15.453   8.842  0.00  0.00     0.019 A 
HETATM   10  C   UNK N   1      20.760  14.365   8.270  0.00  0.00     0.003 A 
HETATM   11  H   UNK N   1      23.094  15.778   5.071  0.00  0.00     0.167 HD
ENDROOT
BRANCH   4  12
HETATM   12  C   UNK N   1      22.824  18.587   4.669  0.00  0.00     0.011 A 
HETATM   13  C   UNK N   1      21.958  19.320   3.854  0.00  0.00     0.052 A 
HETATM   14  C   UNK N   1      22.449  20.243   2.925  0.00  0.00     0.069 A 
HETATM   15  C   UNK N   1      23.831  20.431   2.816  0.00  0.00     0.037 A 
HETATM   16  C   UNK N   1      24.707  19.700   3.629  0.00  0.00     0.004 A 
HETATM   17  C   UNK N   1      24.207  18.777   4.557  0.00  0.00     0.015 A 
BRANCH  14  18
HETATM   18  O   UNK N   1      21.611  20.955   2.134  0.00  0.00    -0.356 OA
HETATM   19  C   UNK N   1      20.902  20.390   1.093  0.00  0.00     0.210 C 
ENDBRANCH  14  18
ENDBRANCH   4  12
BRANCH   8  20
HETATM   20  C   UNK N   1      19.477  17.910   8.907  0.00  0.00     0.251 C 
HETATM   21  N   UNK N   1      18.157  17.818   9.165  0.00  0.00    -0.366 N 
HETATM   22  H   UNK N   1      17.678  18.586   9.553  0.00  0.00     0.159 HD
HETATM   23  H   UNK N   1      17.673  16.986   8.965  0.00  0.00     0.159 HD
HETATM   24  O   UNK N   1      20.065  18.950   9.160  0.00  0.00    -0.268 OA
ENDBRANCH   8  20
TORSDOF 3
ENDMDL
MODEL 2
REMARK VINA RESULT:      -6.8      1.757      6.321
REMARK  3 active torsions:
REMARK  status: ('A' for Active; 'I' for Inactive)
REMARK    1  A    between atoms: C_4  and  C_9 
REMARK    2  A    between atoms: C_8  and  C_12 
REMARK       I    between atoms: C_12  and  N_13 
REMARK    3  A    between atoms: C_17  and  O_18 
ROOT
HETATM    1  C   UNK N   1      22.613  18.913   4.220  0.00  0.00     0.076 A 
HETATM    2  N   UNK N   1      21.740  18.173   4.908  0.00  0.00    -0.339 N 
ATOM      3  HN  UNK N   1      20.721  18.203   4.862  1.00  0.00     0.167 HD
HETATM    4  C   UNK N   1      22.514  17.374   5.680  0.00  0.00     0.116 A 
HETATM    5  N   UNK N   1      23.844  17.590   5.498  0.00  0.00    -0.340 N 
HETATM    6  C   UNK N   1      23.881  18.566   4.572  0.00  0.00     0.061 A 
HETATM    7  C   UNK N   1      24.994  19.181   4.008  0.00  0.00     0.032 A 
HETATM    8  C   UNK N   1      22.336  19.903   3.276  0.00  0.00     0.060 A 
HETATM    9  C   UNK N   1      23.444  20.548   2.683  0.00  0.00     0.019 A 
HETATM   10  C   UNK N   1      24.764  20.188   3.047  0.00  0.00     0.003 A 
HETATM   11  H   UNK N   1      24.601  17.139   5.938  0.00  0.00     0.167 HD
ENDROOT
BRANCH   4  12
HETATM   12  C   UNK N   1      21.931  16.393   6.600  0.00  0.00     0.011 A 
HETATM   13  C   UNK N   1      20.702  16.691   7.194  0.00  0.00     0.052 A 
HETATM   14  C   UNK N   1      20.093  15.798   8.081  0.00  0.00     0.069 A 
HETATM   15  C   UNK N   1      20.730  14.588   8.375  0.00  0.00     0.037 A 
HETATM   16  C   UNK N   1      21.964  14.280   7.785  0.00  0.00     0.004 A 
HETATM   17  C   UNK N   1      22.567  15.181   6.897  0.00  0.00     0.015 A 
BRANCH  14  18
HETATM   18  O   UNK N   1      18.901  16.085   8.657  0.00  0.00    -0.356 OA
HETATM   19  C   UNK N   1      18.527  17.365   9.007  0.00  0.00     0.210 C 
ENDBRANCH  14  18
ENDBRANCH   4  12
BRANCH   8  20
HETATM   20  C   UNK N   1      20.944  20.267   2.907  0.00  0.00     0.251 C 
HETATM   21  N   UNK N   1      20.517  20.117   1.638  0.00  0.00    -0.366 N 
HETATM   22  H   UNK N   1      19.593  20.359   1.398  0.00  0.00     0.159 HD
HETATM   23  H   UNK N   1      21.127  19.767   0.951  0.00  0.00     0.159 HD
HETATM   24  O   UNK N   1      20.174  20.703   3.749  0.00  0.00    -0.268 OA
ENDBRANCH   8  20
TORSDOF 3
ENDMDL
MODEL 3
REMARK VINA RESULT:      -6.8      5.411      7.234
REMARK  3 active torsions:
REMARK  status: ('A' for Active; 'I' for Inactive)
REMARK    1  A    between atoms: C_4  and  C_9 
REMARK    2  A    between atoms: C_8  and  C_12 
REMARK       I    between atoms: C_12  and  N_13 
REMARK    3  A    between atoms: C_17  and  O_18 
ROOT
HETATM    1  C   UNK N   1      29.122  17.912   6.694  0.00  0.00     0.076 A 
HETATM    2  N   UNK N   1      27.962  18.527   6.448  0.00  0.00    -0.339 N 
ATOM      3  HN  UNK N   1      27.292  18.892   7.126  1.00  0.00     0.167 HD
HETATM    4  C   UNK N   1      27.878  18.556   5.098  0.00  0.00     0.116 A 
HETATM    5  N   UNK N   1      28.949  17.979   4.488  0.00  0.00    -0.340 N 
HETATM    6  C   UNK N   1      29.720  17.580   5.517  0.00  0.00     0.061 A 
HETATM    7  C   UNK N   1      30.947  16.927   5.475  0.00  0.00     0.032 A 
HETATM    8  C   UNK N   1      29.691  17.624   7.936  0.00  0.00     0.060 A 
HETATM    9  C   UNK N   1      30.937  16.961   7.930  0.00  0.00     0.019 A 
HETATM   10  C   UNK N   1      31.560  16.615   6.706  0.00  0.00     0.003 A 
HETATM   11  H   UNK N   1      29.119  17.877   3.524  0.00  0.00     0.167 HD
ENDROOT
BRANCH   4  12
HETATM   12  C   UNK N   1      26.732  19.158   4.410  0.00  0.00     0.011 A 
HETATM   13  C   UNK N   1      25.454  18.682   4.712  0.00  0.00     0.052 A 
HETATM   14  C   UNK N   1      24.320  19.214   4.090  0.00  0.00     0.069 A 
HETATM   15  C   UNK N   1      24.474  20.239   3.152  0.00  0.00     0.037 A 
HETATM   16  C   UNK N   1      25.753  20.723   2.842  0.00  0.00     0.004 A 
HETATM   17  C   UNK N   1      26.884  20.185   3.469  0.00  0.00     0.015 A 
BRANCH  14  18
HETATM   18  O   UNK N   1      23.079  18.753   4.382  0.00  0.00    -0.356 OA
HETATM   19  C   UNK N   1      21.958  19.113   3.664  0.00  0.00     0.210 C 
ENDBRANCH  14  18
ENDBRANCH   4  12
BRANCH   8  20
HETATM   20  C   UNK N   1      29.021  17.996   9.209  0.00  0.00     0.251 C 
HETATM   21  N   UNK N   1      29.708  18.633  10.177  0.00  0.00    -0.366 N 
HETATM   22  H   UNK N   1      29.260  18.877  11.019  0.00  0.00     0.159 HD
HETATM   23  H   UNK N   1      30.657  18.854  10.043  0.00  0.00     0.159 HD
HETATM   24  O   UNK N   1      27.843  17.728   9.389  0.00  0.00    -0.268 OA
ENDBRANCH   8  20
TORSDOF 3
ENDMDL
MODEL 4
REMARK VINA RESULT:      -6.5     13.356     14.564
REMARK  3 active torsions:
REMARK  status: ('A' for Active; 'I' for Inactive)
REMARK    1  A    between atoms: C_4  and  C_9 
REMARK    2  A    between atoms: C_8  and  C_12 
REMARK       I    between atoms: C_12  and  N_13 
REMARK    3  A    between atoms: C_17  and  O_18 
ROOT
HETATM    1  C   UNK N   1      29.055  23.036  -4.621  0.00  0.00     0.076 A 
HETATM    2  N   UNK N   1      28.405  24.095  -4.133  0.00  0.00    -0.339 N 
ATOM      3  HN  UNK N   1      28.488  24.505  -3.202  1.00  0.00     0.167 HD
HETATM    4  C   UNK N   1      27.613  24.500  -5.153  0.00  0.00     0.116 A 
HETATM    5  N   UNK N   1      27.745  23.729  -6.265  0.00  0.00    -0.340 N 
HETATM    6  C   UNK N   1      28.662  22.811  -5.905  0.00  0.00     0.061 A 
HETATM    7  C   UNK N   1      29.180  21.765  -6.660  0.00  0.00     0.032 A 
HETATM    8  C   UNK N   1      30.002  22.240  -3.973  0.00  0.00     0.060 A 
HETATM    9  C   UNK N   1      30.549  21.168  -4.711  0.00  0.00     0.019 A 
HETATM   10  C   UNK N   1      30.140  20.933  -6.046  0.00  0.00     0.003 A 
HETATM   11  H   UNK N   1      27.281  23.820  -7.129  0.00  0.00     0.167 HD
ENDROOT
BRANCH   4  12
HETATM   12  C   UNK N   1      26.721  25.657  -5.023  0.00  0.00     0.011 A 
HETATM   13  C   UNK N   1      26.969  26.572  -3.997  0.00  0.00     0.052 A 
HETATM   14  C   UNK N   1      26.156  27.695  -3.819  0.00  0.00     0.069 A 
HETATM   15  C   UNK N   1      25.078  27.901  -4.688  0.00  0.00     0.037 A 
HETATM   16  C   UNK N   1      24.822  26.989  -5.721  0.00  0.00     0.004 A 
HETATM   17  C   UNK N   1      25.642  25.866  -5.891  0.00  0.00     0.015 A 
BRANCH  14  18
HETATM   18  O   UNK N   1      26.394  28.583  -2.824  0.00  0.00    -0.356 OA
HETATM   19  C   UNK N   1      27.645  29.105  -2.569  0.00  0.00     0.210 C 
ENDBRANCH  14  18
ENDBRANCH   4  12
BRANCH   8  20
HETATM   20  C   UNK N   1      30.417  22.503  -2.571  0.00  0.00     0.251 C 
HETATM   21  N   UNK N   1      29.517  22.934  -1.666  0.00  0.00    -0.366 N 
HETATM   22  H   UNK N   1      29.797  23.107  -0.737  0.00  0.00     0.159 HD
HETATM   23  H   UNK N   1      28.580  23.076  -1.931  0.00  0.00     0.159 HD
HETATM   24  O   UNK N   1      31.576  22.332  -2.227  0.00  0.00    -0.268 OA
ENDBRANCH   8  20
TORSDOF 3
ENDMDL
MODEL 5
REMARK VINA RESULT:      -6.4      5.505      7.568
REMARK  3 active torsions:
REMARK  status: ('A' for Active; 'I' for Inactive)
REMARK    1  A    between atoms: C_4  and  C_9 
REMARK    2  A    between atoms: C_8  and  C_12 
REMARK       I    between atoms: C_12  and  N_13 
REMARK    3  A    between atoms: C_17  and  O_18 
ROOT
HETATM    1  C   UNK N   1      28.983  17.932   6.807  0.00  0.00     0.076 A 
HETATM    2  N   UNK N   1      28.431  18.162   5.613  0.00  0.00    -0.339 N 
ATOM      3  HN  UNK N   1      28.734  17.805   4.706  1.00  0.00     0.167 HD
HETATM    4  C   UNK N   1      27.381  18.974   5.879  0.00  0.00     0.116 A 
HETATM    5  N   UNK N   1      27.257  19.261   7.203  0.00  0.00    -0.340 N 
HETATM    6  C   UNK N   1      28.279  18.592   7.768  0.00  0.00     0.061 A 
HETATM    7  C   UNK N   1      28.633  18.529   9.112  0.00  0.00     0.032 A 
HETATM    8  C   UNK N   1      30.103  17.151   7.096  0.00  0.00     0.060 A 
HETATM    9  C   UNK N   1      30.490  17.065   8.451  0.00  0.00     0.019 A 
HETATM   10  C   UNK N   1      29.759  17.751   9.452  0.00  0.00     0.003 A 
HETATM   11  H   UNK N   1      26.580  19.824   7.643  0.00  0.00     0.167 HD
ENDROOT
BRANCH   4  12
HETATM   12  C   UNK N   1      26.499  19.466   4.817  0.00  0.00     0.011 A 
HETATM   13  C   UNK N   1      25.154  19.091   4.847  0.00  0.00     0.052 A 
HETATM   14  C   UNK N   1      24.261  19.527   3.863  0.00  0.00     0.069 A 
HETATM   15  C   UNK N   1      24.728  20.352   2.835  0.00  0.00     0.037 A 
HETATM   16  C   UNK N   1      26.077  20.733   2.796  0.00  0.00     0.004 A 
HETATM   17  C   UNK N   1      26.965  20.292   3.785  0.00  0.00     0.015 A 
BRANCH  14  18
HETATM   18  O   UNK N   1      22.956  19.165   3.891  0.00  0.00    -0.356 OA
HETATM   19  C   UNK N   1      22.459  18.216   4.761  0.00  0.00     0.210 C 
ENDBRANCH  14  18
ENDBRANCH   4  12
BRANCH   8  20
HETATM   20  C   UNK N   1      30.856  16.439   6.032  0.00  0.00     0.251 C 
HETATM   21  N   UNK N   1      31.127  15.125   6.155  0.00  0.00    -0.366 N 
HETATM   22  H   UNK N   1      31.627  14.658   5.447  0.00  0.00     0.159 HD
HETATM   23  H   UNK N   1      30.826  14.633   6.951  0.00  0.00     0.159 HD
HETATM   24  O   UNK N   1      31.237  17.038   5.037  0.00  0.00    -0.268 OA
ENDBRANCH   8  20
TORSDOF 3
ENDMDL
MODEL 6
REMARK VINA RESULT:      -6.4     14.033     15.303
REMARK  3 active torsions:
REMARK  status: ('A' for Active; 'I' for Inactive)
REMARK    1  A    between atoms: C_4  and  C_9 
REMARK    2  A    between atoms: C_8  and  C_12 
REMARK       I    between atoms: C_12  and  N_13 
REMARK    3  A    between atoms: C_17  and  O_18 
ROOT
HETATM    1  C   UNK N   1      26.926  25.059  -5.538  0.00  0.00     0.076 A 
HETATM    2  N   UNK N   1      27.695  24.019  -5.869  0.00  0.00    -0.339 N 
ATOM      3  HN  UNK N   1      27.707  23.506  -6.752  1.00  0.00     0.167 HD
HETATM    4  C   UNK N   1      28.455  23.800  -4.770  0.00  0.00     0.116 A 
HETATM    5  N   UNK N   1      28.186  24.671  -3.760  0.00  0.00    -0.340 N 
HETATM    6  C   UNK N   1      27.218  25.455  -4.269  0.00  0.00     0.061 A 
HETATM    7  C   UNK N   1      26.564  26.523  -3.664  0.00  0.00     0.032 A 
HETATM    8  C   UNK N   1      25.957  25.689  -6.320  0.00  0.00     0.060 A 
HETATM    9  C   UNK N   1      25.273  26.778  -5.737  0.00  0.00     0.019 A 
HETATM   10  C   UNK N   1      25.576  27.191  -4.417  0.00  0.00     0.003 A 
HETATM   11  H   UNK N   1      28.601  24.716  -2.868  0.00  0.00     0.167 HD
ENDROOT
BRANCH   4  12
HETATM   12  C   UNK N   1      29.450  22.725  -4.722  0.00  0.00     0.011 A 
HETATM   13  C   UNK N   1      30.290  22.649  -3.609  0.00  0.00     0.052 A 
HETATM   14  C   UNK N   1      31.260  21.648  -3.503  0.00  0.00     0.069 A 
HETATM   15  C   UNK N   1      31.385  20.708  -4.531  0.00  0.00     0.037 A 
HETATM   16  C   UNK N   1      30.546  20.775  -5.652  0.00  0.00     0.004 A 
HETATM   17  C   UNK N   1      29.578  21.782  -5.751  0.00  0.00     0.015 A 
BRANCH  14  18
HETATM   18  O   UNK N   1      32.076  21.573  -2.424  0.00  0.00    -0.356 OA
HETATM   19  C   UNK N   1      33.359  21.070  -2.487  0.00  0.00     0.210 C 
ENDBRANCH  14  18
ENDBRANCH   4  12
BRANCH   8  20
HETATM   20  C   UNK N   1      25.654  25.240  -7.704  0.00  0.00     0.251 C 
HETATM   21  N   UNK N   1      25.815  26.084  -8.742  0.00  0.00    -0.366 N 
HETATM   22  H   UNK N   1      25.613  25.782  -9.657  0.00  0.00     0.159 HD
HETATM   23  H   UNK N   1      26.133  27.002  -8.586  0.00  0.00     0.159 HD
HETATM   24  O   UNK N   1      25.258  24.104  -7.913  0.00  0.00    -0.268 OA
ENDBRANCH   8  20
TORSDOF 3
ENDMDL
MODEL 7
REMARK VINA RESULT:      -6.4      2.157      6.693
REMARK  3 active torsions:
REMARK  status: ('A' for Active; 'I' for Inactive)
REMARK    1  A    between atoms: C_4  and  C_9 
REMARK    2  A    between atoms: C_8  and  C_12 
REMARK       I    between atoms: C_12  and  N_13 
REMARK    3  A    between atoms: C_17  and  O_18 
ROOT
HETATM    1  C   UNK N   1      22.674  18.993   4.240  0.00  0.00     0.076 A 
HETATM    2  N   UNK N   1      21.733  18.360   4.945  0.00  0.00    -0.339 N 
ATOM      3  HN  UNK N   1      20.721  18.479   4.885  1.00  0.00     0.167 HD
HETATM    4  C   UNK N   1      22.426  17.528   5.757  0.00  0.00     0.116 A 
HETATM    5  N   UNK N   1      23.772  17.618   5.583  0.00  0.00    -0.340 N 
HETATM    6  C   UNK N   1      23.904  18.549   4.621  0.00  0.00     0.061 A 
HETATM    7  C   UNK N   1      25.072  19.040   4.047  0.00  0.00     0.032 A 
HETATM    8  C   UNK N   1      22.496  19.965   3.254  0.00  0.00     0.060 A 
HETATM    9  C   UNK N   1      23.661  20.485   2.651  0.00  0.00     0.019 A 
HETATM   10  C   UNK N   1      24.941  20.025   3.045  0.00  0.00     0.003 A 
HETATM   11  H   UNK N   1      24.481  17.120   6.051  0.00  0.00     0.167 HD
ENDROOT
BRANCH   4  12
HETATM   12  C   UNK N   1      21.750  16.640   6.708  0.00  0.00     0.011 A 
HETATM   13  C   UNK N   1      22.286  15.367   6.922  0.00  0.00     0.052 A 
HETATM   14  C   UNK N   1      21.689  14.473   7.815  0.00  0.00     0.069 A 
HETATM   15  C   UNK N   1      20.536  14.865   8.504  0.00  0.00     0.037 A 
HETATM   16  C   UNK N   1      19.991  16.140   8.297  0.00  0.00     0.004 A 
HETATM   17  C   UNK N   1      20.596  17.030   7.399  0.00  0.00     0.015 A 
BRANCH  14  18
HETATM   18  O   UNK N   1      22.207  13.239   8.023  0.00  0.00    -0.356 OA
HETATM   19  C   UNK N   1      21.874  12.460   9.112  0.00  0.00     0.210 C 
ENDBRANCH  14  18
ENDBRANCH   4  12
BRANCH   8  20
HETATM   20  C   UNK N   1      21.144  20.435   2.854  0.00  0.00     0.251 C 
HETATM   21  N   UNK N   1      20.828  20.561   1.550  0.00  0.00    -0.366 N 
HETATM   22  H   UNK N   1      19.931  20.873   1.290  0.00  0.00     0.159 HD
HETATM   23  H   UNK N   1      21.493  20.343   0.859  0.00  0.00     0.159 HD
HETATM   24  O   UNK N   1      20.309  20.710   3.701  0.00  0.00    -0.268 OA
ENDBRANCH   8  20
TORSDOF 3
ENDMDL
MODEL 8
REMARK VINA RESULT:      -6.4      3.580      5.655
REMARK  3 active torsions:
REMARK  status: ('A' for Active; 'I' for Inactive)
REMARK    1  A    between atoms: C_4  and  C_9 
REMARK    2  A    between atoms: C_8  and  C_12 
REMARK       I    between atoms: C_12  and  N_13 
REMARK    3  A    between atoms: C_17  and  O_18 
ROOT
HETATM    1  C   UNK N   1      22.130  19.033   3.349  0.00  0.00     0.076 A 
HETATM    2  N   UNK N   1      23.319  19.641   3.381  0.00  0.00    -0.339 N 
ATOM      3  HN  UNK N   1      23.579  20.529   2.950  1.00  0.00     0.167 HD
HETATM    4  C   UNK N   1      24.099  18.812   4.114  0.00  0.00     0.116 A 
HETATM    5  N   UNK N   1      23.438  17.704   4.543  0.00  0.00    -0.340 N 
HETATM    6  C   UNK N   1      22.197  17.866   4.048  0.00  0.00     0.061 A 
HETATM    7  C   UNK N   1      21.097  17.026   4.180  0.00  0.00     0.032 A 
HETATM    8  C   UNK N   1      20.963  19.469   2.719  0.00  0.00     0.060 A 
HETATM    9  C   UNK N   1      19.827  18.639   2.834  0.00  0.00     0.019 A 
HETATM   10  C   UNK N   1      19.894  17.425   3.560  0.00  0.00     0.003 A 
HETATM   11  H   UNK N   1      23.784  16.960   5.087  0.00  0.00     0.167 HD
ENDROOT
BRANCH   4  12
HETATM   12  C   UNK N   1      25.506  19.121   4.389  0.00  0.00     0.011 A 
HETATM   13  C   UNK N   1      26.464  18.142   4.118  0.00  0.00     0.052 A 
HETATM   14  C   UNK N   1      27.822  18.374   4.359  0.00  0.00     0.069 A 
HETATM   15  C   UNK N   1      28.221  19.609   4.878  0.00  0.00     0.037 A 
HETATM   16  C   UNK N   1      27.267  20.599   5.153  0.00  0.00     0.004 A 
HETATM   17  C   UNK N   1      25.908  20.358   4.909  0.00  0.00     0.015 A 
BRANCH  14  18
HETATM   18  O   UNK N   1      28.752  17.425   4.097  0.00  0.00    -0.356 OA
HETATM   19  C   UNK N   1      28.570  16.437   3.151  0.00  0.00     0.210 C 
ENDBRANCH  14  18
ENDBRANCH   4  12
BRANCH   8  20
HETATM   20  C   UNK N   1      20.913  20.746   1.962  0.00  0.00     0.251 C 
HETATM   21  N   UNK N   1      20.280  20.806   0.774  0.00  0.00    -0.366 N 
HETATM   22  H   UNK N   1      20.249  21.655   0.276  0.00  0.00     0.159 HD
HETATM   23  H   UNK N   1      19.849  20.003   0.404  0.00  0.00     0.159 HD
HETATM   24  O   UNK N   1      21.444  21.752   2.408  0.00  0.00    -0.268 OA
ENDBRANCH   8  20
TORSDOF 3
ENDMDL
MODEL 9
REMARK VINA RESULT:      -6.4     16.308     17.280
REMARK  3 active torsions:
REMARK  status: ('A' for Active; 'I' for Inactive)
REMARK    1  A    between atoms: C_4  and  C_9 
REMARK    2  A    between atoms: C_8  and  C_12 
REMARK       I    between atoms: C_12  and  N_13 
REMARK    3  A    between atoms: C_17  and  O_18 
ROOT
HETATM    1  C   UNK N   1      35.787  13.036  15.956  0.00  0.00     0.076 A 
HETATM    2  N   UNK N   1      36.132  13.865  14.967  0.00  0.00    -0.339 N 
ATOM      3  HN  UNK N   1      36.337  14.863  15.030  1.00  0.00     0.167 HD
HETATM    4  C   UNK N   1      36.150  13.080  13.864  0.00  0.00     0.116 A 
HETATM    5  N   UNK N   1      35.826  11.786  14.130  0.00  0.00    -0.340 N 
HETATM    6  C   UNK N   1      35.601  11.784  15.457  0.00  0.00     0.061 A 
HETATM    7  C   UNK N   1      35.234  10.716  16.269  0.00  0.00     0.032 A 
HETATM    8  C   UNK N   1      35.624  13.341  17.308  0.00  0.00     0.060 A 
HETATM    9  C   UNK N   1      35.251  12.280  18.162  0.00  0.00     0.019 A 
HETATM   10  C   UNK N   1      35.058  10.976  17.644  0.00  0.00     0.003 A 
HETATM   11  H   UNK N   1      35.770  11.031  13.501  0.00  0.00     0.167 HD
ENDROOT
BRANCH   4  12
HETATM   12  C   UNK N   1      36.489  13.617  12.542  0.00  0.00     0.011 A 
HETATM   13  C   UNK N   1      36.007  14.881  12.198  0.00  0.00     0.052 A 
HETATM   14  C   UNK N   1      36.294  15.450  10.953  0.00  0.00     0.069 A 
HETATM   15  C   UNK N   1      37.078  14.734  10.042  0.00  0.00     0.037 A 
HETATM   16  C   UNK N   1      37.567  13.464  10.378  0.00  0.00     0.004 A 
HETATM   17  C   UNK N   1      37.274  12.903  11.628  0.00  0.00     0.015 A 
BRANCH  14  18
HETATM   18  O   UNK N   1      35.827  16.676  10.617  0.00  0.00    -0.356 OA
HETATM   19  C   UNK N   1      34.843  16.870   9.669  0.00  0.00     0.210 C 
ENDBRANCH  14  18
ENDBRANCH   4  12
BRANCH   8  20
HETATM   20  C   UNK N   1      35.831  14.715  17.832  0.00  0.00     0.251 C 
HETATM   21  N   UNK N   1      35.037  15.197  18.809  0.00  0.00    -0.366 N 
HETATM   22  H   UNK N   1      35.179  16.109  19.153  0.00  0.00     0.159 HD
HETATM   23  H   UNK N   1      34.317  14.638  19.178  0.00  0.00     0.159 HD
HETATM   24  O   UNK N   1      36.721  15.421  17.383  0.00  0.00    -0.268 OA
ENDBRANCH   8  20
TORSDOF 3
ENDMDL
