MODEL 1
REMARK VINA RESULT:      -6.6      0.000      0.000
REMARK  10 active torsions:
REMARK  status: ('A' for Active; 'I' for Inactive)
REMARK       I    between atoms: N_1  and  C_2 
REMARK    1  A    between atoms: C_10  and  N_1 
REMARK       I    between atoms: C_2  and  N_4 
REMARK    2  A    between atoms: C_10  and  C_11 
REMARK    3  A    between atoms: C_10  and  C_26 
REMARK       I    between atoms: C_11  and  N_13 
REMARK    4  A    between atoms: C_14  and  N_13 
REMARK    5  A    between atoms: C_14  and  C_15 
REMARK    6  A    between atoms: C_14  and  C_17 
REMARK    7  A    between atoms: C_17  and  S_18 
REMARK    8  A    between atoms: S_18  and  C_19 
REMARK    9  A    between atoms: C_19  and  C_20 
REMARK   10  A    between atoms: C_26  and  C_27 
ROOT
HETATM    1  C   UNK N   1      33.246  16.492   7.773  0.00  0.00     0.182 C 
ENDROOT
BRANCH   1   2
HETATM    2  N   UNK N   1      34.402  15.990   8.495  0.00  0.00    -0.329 N 
HETATM    3  C   UNK N   1      34.675  14.703   8.839  0.00  0.00     0.319 C 
HETATM    4  O   UNK N   1      34.059  13.770   8.337  0.00  0.00    -0.247 OA
HETATM    5  N   UNK N   1      35.559  14.464   9.840  0.00  0.00    -0.330 N 
HETATM    6  C   UNK N   1      36.170  15.565  10.548  0.00  0.00     0.153 C 
HETATM    7  C   UNK N   1      35.667  13.156  10.434  0.00  0.00     0.153 C 
HETATM    8  C   UNK N   1      35.594  15.539  11.964  0.00  0.00     0.187 C 
HETATM    9  O   UNK N   1      35.859  14.286  12.561  0.00  0.00    -0.388 OA
HETATM   10  C   UNK N   1      35.129  13.297  11.863  0.00  0.00     0.187 C 
HETATM   11  H   UNK N   1      35.068  16.662   8.767  0.00  0.00     0.165 HD
ENDBRANCH   1   2
BRANCH   1  12
HETATM   12  C   UNK N   1      33.778  16.973   6.440  0.00  0.00     0.241 C 
HETATM   13  O   UNK N   1      34.440  18.001   6.410  0.00  0.00    -0.271 OA
HETATM   14  N   UNK N   1      33.554  16.315   5.274  0.00  0.00    -0.348 N 
HETATM   15  H   UNK N   1      34.001  16.661   4.468  0.00  0.00     0.163 HD
BRANCH  14  16
HETATM   16  C   UNK N   1      32.712  15.150   5.118  0.00  0.00     0.155 C 
BRANCH  16  17
HETATM   17  C   UNK N   1      33.573  13.977   4.788  0.00  0.00     0.257 C 
HETATM   18  O   UNK N   1      34.789  14.082   4.783  0.00  0.00    -0.305 OA
ENDBRANCH  16  17
BRANCH  16  19
HETATM   19  C   UNK N   1      31.656  15.370   4.024  0.00  0.00     0.106 C 
BRANCH  19  20
HETATM   20  S   UNK N   1      31.100  17.102   3.868  0.00  0.00    -0.162 SA
BRANCH  20  21
HETATM   21  C   UNK N   1      29.371  16.630   3.500  0.00  0.00     0.112 C 
BRANCH  21  22
HETATM   22  C   UNK N   1      28.342  17.536   4.112  0.00  0.00    -0.049 A 
HETATM   23  C   UNK N   1      27.036  17.064   4.286  0.00  0.00     0.008 A 
HETATM   24  C   UNK N   1      26.059  17.891   4.851  0.00  0.00     0.001 A 
HETATM   25  C   UNK N   1      26.381  19.197   5.234  0.00  0.00     0.000 A 
HETATM   26  C   UNK N   1      27.682  19.674   5.060  0.00  0.00     0.001 A 
HETATM   27  C   UNK N   1      28.656  18.843   4.509  0.00  0.00     0.008 A 
ENDBRANCH  21  22
ENDBRANCH  20  21
ENDBRANCH  19  20
ENDBRANCH  16  19
ENDBRANCH  14  16
ENDBRANCH   1  12
BRANCH   1  28
HETATM   28  C   UNK N   1      32.575  17.714   8.432  0.00  0.00     0.073 C 
BRANCH  28  29
HETATM   29  C   UNK N   1      31.073  17.774   8.399  0.00  0.00    -0.056 A 
HETATM   30  C   UNK N   1      30.394  16.893   7.553  0.00  0.00     0.007 A 
HETATM   31  C   UNK N   1      28.997  16.901   7.500  0.00  0.00     0.001 A 
HETATM   32  C   UNK N   1      28.271  17.795   8.291  0.00  0.00     0.000 A 
HETATM   33  C   UNK N   1      28.943  18.685   9.134  0.00  0.00     0.001 A 
HETATM   34  C   UNK N   1      30.339  18.676   9.187  0.00  0.00     0.007 A 
ENDBRANCH  28  29
ENDBRANCH   1  28
TORSDOF 10
ENDMDL
MODEL 2
REMARK VINA RESULT:      -6.4      3.737      5.964
REMARK  10 active torsions:
REMARK  status: ('A' for Active; 'I' for Inactive)
REMARK       I    between atoms: N_1  and  C_2 
REMARK    1  A    between atoms: C_10  and  N_1 
REMARK       I    between atoms: C_2  and  N_4 
REMARK    2  A    between atoms: C_10  and  C_11 
REMARK    3  A    between atoms: C_10  and  C_26 
REMARK       I    between atoms: C_11  and  N_13 
REMARK    4  A    between atoms: C_14  and  N_13 
REMARK    5  A    between atoms: C_14  and  C_15 
REMARK    6  A    between atoms: C_14  and  C_17 
REMARK    7  A    between atoms: C_17  and  S_18 
REMARK    8  A    between atoms: S_18  and  C_19 
REMARK    9  A    between atoms: C_19  and  C_20 
REMARK   10  A    between atoms: C_26  and  C_27 
ROOT
HETATM    1  C   UNK N   1      28.976  16.652   5.894  0.00  0.00     0.182 C 
ENDROOT
BRANCH   1   2
HETATM    2  N   UNK N   1      30.303  16.252   6.329  0.00  0.00    -0.329 N 
HETATM    3  C   UNK N   1      30.945  16.601   7.476  0.00  0.00     0.319 C 
HETATM    4  O   UNK N   1      30.339  17.117   8.407  0.00  0.00    -0.247 OA
HETATM    5  N   UNK N   1      32.296  16.483   7.535  0.00  0.00    -0.330 N 
HETATM    6  C   UNK N   1      33.037  16.026   6.382  0.00  0.00     0.153 C 
HETATM    7  C   UNK N   1      33.046  17.100   8.599  0.00  0.00     0.153 C 
HETATM    8  C   UNK N   1      33.840  17.228   5.884  0.00  0.00     0.187 C 
HETATM    9  O   UNK N   1      34.675  17.704   6.920  0.00  0.00    -0.388 OA
HETATM   10  C   UNK N   1      33.855  18.227   7.946  0.00  0.00     0.187 C 
HETATM   11  H   UNK N   1      30.797  15.656   5.720  0.00  0.00     0.165 HD
ENDBRANCH   1   2
BRANCH   1  12
HETATM   12  C   UNK N   1      28.402  15.445   5.184  0.00  0.00     0.241 C 
HETATM   13  O   UNK N   1      29.118  14.827   4.408  0.00  0.00    -0.271 OA
HETATM   14  N   UNK N   1      27.127  15.017   5.367  0.00  0.00    -0.348 N 
HETATM   15  H   UNK N   1      26.863  14.181   4.920  0.00  0.00     0.163 HD
BRANCH  14  16
HETATM   16  C   UNK N   1      26.124  15.689   6.164  0.00  0.00     0.155 C 
BRANCH  16  17
HETATM   17  C   UNK N   1      25.221  14.664   6.762  0.00  0.00     0.257 C 
HETATM   18  O   UNK N   1      25.434  14.225   7.880  0.00  0.00    -0.305 OA
ENDBRANCH  16  17
BRANCH  16  19
HETATM   19  C   UNK N   1      25.322  16.689   5.318  0.00  0.00     0.106 C 
BRANCH  19  20
HETATM   20  S   UNK N   1      23.880  15.956   4.472  0.00  0.00    -0.162 SA
BRANCH  20  21
HETATM   21  C   UNK N   1      22.716  17.198   5.143  0.00  0.00     0.112 C 
BRANCH  21  22
HETATM   22  C   UNK N   1      22.322  18.266   4.163  0.00  0.00    -0.049 A 
HETATM   23  C   UNK N   1      21.047  18.226   3.589  0.00  0.00     0.008 A 
HETATM   24  C   UNK N   1      20.658  19.209   2.672  0.00  0.00     0.001 A 
HETATM   25  C   UNK N   1      21.547  20.228   2.316  0.00  0.00     0.000 A 
HETATM   26  C   UNK N   1      22.821  20.271   2.885  0.00  0.00     0.001 A 
HETATM   27  C   UNK N   1      23.201  19.298   3.809  0.00  0.00     0.008 A 
ENDBRANCH  21  22
ENDBRANCH  20  21
ENDBRANCH  19  20
ENDBRANCH  16  19
ENDBRANCH  14  16
ENDBRANCH   1  12
BRANCH   1  28
HETATM   28  C   UNK N   1      28.972  17.798   4.863  0.00  0.00     0.073 C 
BRANCH  28  29
HETATM   29  C   UNK N   1      28.057  18.961   5.132  0.00  0.00    -0.056 A 
HETATM   30  C   UNK N   1      27.929  19.412   6.448  0.00  0.00     0.007 A 
HETATM   31  C   UNK N   1      27.102  20.499   6.745  0.00  0.00     0.001 A 
HETATM   32  C   UNK N   1      26.394  21.139   5.725  0.00  0.00     0.000 A 
HETATM   33  C   UNK N   1      26.509  20.689   4.407  0.00  0.00     0.001 A 
HETATM   34  C   UNK N   1      27.336  19.603   4.111  0.00  0.00     0.007 A 
ENDBRANCH  28  29
ENDBRANCH   1  28
TORSDOF 10
ENDMDL
MODEL 3
REMARK VINA RESULT:      -6.4     13.583     16.636
REMARK  10 active torsions:
REMARK  status: ('A' for Active; 'I' for Inactive)
REMARK       I    between atoms: N_1  and  C_2 
REMARK    1  A    between atoms: C_10  and  N_1 
REMARK       I    between atoms: C_2  and  N_4 
REMARK    2  A    between atoms: C_10  and  C_11 
REMARK    3  A    between atoms: C_10  and  C_26 
REMARK       I    between atoms: C_11  and  N_13 
REMARK    4  A    between atoms: C_14  and  N_13 
REMARK    5  A    between atoms: C_14  and  C_15 
REMARK    6  A    between atoms: C_14  and  C_17 
REMARK    7  A    between atoms: C_17  and  S_18 
REMARK    8  A    between atoms: S_18  and  C_19 
REMARK    9  A    between atoms: C_19  and  C_20 
REMARK   10  A    between atoms: C_26  and  C_27 
ROOT
HETATM    1  C   UNK N   1      27.795  25.049  -4.535  0.00  0.00     0.182 C 
ENDROOT
BRANCH   1   2
HETATM    2  N   UNK N   1      27.614  26.489  -4.491  0.00  0.00    -0.329 N 
HETATM    3  C   UNK N   1      28.471  27.451  -4.925  0.00  0.00     0.319 C 
HETATM    4  O   UNK N   1      29.418  27.172  -5.651  0.00  0.00    -0.247 OA
HETATM    5  N   UNK N   1      28.338  28.714  -4.447  0.00  0.00    -0.330 N 
HETATM    6  C   UNK N   1      27.322  29.017  -3.466  0.00  0.00     0.153 C 
HETATM    7  C   UNK N   1      29.378  29.692  -4.644  0.00  0.00     0.153 C 
HETATM    8  C   UNK N   1      28.060  29.326  -2.164  0.00  0.00     0.187 C 
HETATM    9  O   UNK N   1      28.961  30.395  -2.370  0.00  0.00    -0.388 OA
HETATM   10  C   UNK N   1      29.973  29.959  -3.256  0.00  0.00     0.187 C 
HETATM   11  H   UNK N   1      26.768  26.807  -4.099  0.00  0.00     0.165 HD
ENDBRANCH   1   2
BRANCH   1  12
HETATM   12  C   UNK N   1      26.399  24.466  -4.584  0.00  0.00     0.241 C 
HETATM   13  O   UNK N   1      25.913  24.026  -3.551  0.00  0.00    -0.271 OA
HETATM   14  N   UNK N   1      25.661  24.408  -5.722  0.00  0.00    -0.348 N 
HETATM   15  H   UNK N   1      24.737  24.080  -5.643  0.00  0.00     0.163 HD
BRANCH  14  16
HETATM   16  C   UNK N   1      26.122  24.787  -7.039  0.00  0.00     0.155 C 
BRANCH  16  17
HETATM   17  C   UNK N   1      25.636  26.164  -7.339  0.00  0.00     0.257 C 
HETATM   18  O   UNK N   1      25.273  26.904  -6.439  0.00  0.00    -0.305 OA
ENDBRANCH  16  17
BRANCH  16  19
HETATM   19  C   UNK N   1      25.631  23.796  -8.105  0.00  0.00     0.106 C 
BRANCH  19  20
HETATM   20  S   UNK N   1      25.453  22.083  -7.499  0.00  0.00    -0.162 SA
BRANCH  20  21
HETATM   21  C   UNK N   1      26.758  21.438  -8.608  0.00  0.00     0.112 C 
BRANCH  21  22
HETATM   22  C   UNK N   1      28.019  21.028  -7.901  0.00  0.00    -0.049 A 
HETATM   23  C   UNK N   1      28.559  19.762  -8.152  0.00  0.00     0.008 A 
HETATM   24  C   UNK N   1      29.731  19.356  -7.504  0.00  0.00     0.001 A 
HETATM   25  C   UNK N   1      30.360  20.211  -6.593  0.00  0.00     0.000 A 
HETATM   26  C   UNK N   1      29.824  21.474  -6.337  0.00  0.00     0.001 A 
HETATM   27  C   UNK N   1      28.664  21.880  -6.995  0.00  0.00     0.008 A 
ENDBRANCH  21  22
ENDBRANCH  20  21
ENDBRANCH  19  20
ENDBRANCH  16  19
ENDBRANCH  14  16
ENDBRANCH   1  12
BRANCH   1  28
HETATM   28  C   UNK N   1      28.462  24.460  -3.277  0.00  0.00     0.073 C 
BRANCH  28  29
HETATM   29  C   UNK N   1      29.800  23.797  -3.454  0.00  0.00    -0.056 A 
HETATM   30  C   UNK N   1      30.027  22.580  -2.805  0.00  0.00     0.007 A 
HETATM   31  C   UNK N   1      31.249  21.918  -2.953  0.00  0.00     0.001 A 
HETATM   32  C   UNK N   1      32.254  22.473  -3.748  0.00  0.00     0.000 A 
HETATM   33  C   UNK N   1      32.039  23.694  -4.394  0.00  0.00     0.001 A 
HETATM   34  C   UNK N   1      30.817  24.354  -4.246  0.00  0.00     0.007 A 
ENDBRANCH  28  29
ENDBRANCH   1  28
TORSDOF 10
ENDMDL
MODEL 4
REMARK VINA RESULT:      -6.4      6.983     10.613
REMARK  10 active torsions:
REMARK  status: ('A' for Active; 'I' for Inactive)
REMARK       I    between atoms: N_1  and  C_2 
REMARK    1  A    between atoms: C_10  and  N_1 
REMARK       I    between atoms: C_2  and  N_4 
REMARK    2  A    between atoms: C_10  and  C_11 
REMARK    3  A    between atoms: C_10  and  C_26 
REMARK       I    between atoms: C_11  and  N_13 
REMARK    4  A    between atoms: C_14  and  N_13 
REMARK    5  A    between atoms: C_14  and  C_15 
REMARK    6  A    between atoms: C_14  and  C_17 
REMARK    7  A    between atoms: C_17  and  S_18 
REMARK    8  A    between atoms: S_18  and  C_19 
REMARK    9  A    between atoms: C_19  and  C_20 
REMARK   10  A    between atoms: C_26  and  C_27 
ROOT
HETATM    1  C   UNK N   1      22.860  17.367   5.090  0.00  0.00     0.182 C 
ENDROOT
BRANCH   1   2
HETATM    2  N   UNK N   1      24.152  17.972   5.363  0.00  0.00    -0.329 N 
HETATM    3  C   UNK N   1      25.052  18.458   4.466  0.00  0.00     0.319 C 
HETATM    4  O   UNK N   1      24.734  18.659   3.300  0.00  0.00    -0.247 OA
HETATM    5  N   UNK N   1      26.346  18.605   4.847  0.00  0.00    -0.330 N 
HETATM    6  C   UNK N   1      26.761  18.216   6.175  0.00  0.00     0.153 C 
HETATM    7  C   UNK N   1      27.381  18.835   3.872  0.00  0.00     0.153 C 
HETATM    8  C   UNK N   1      27.657  16.989   6.003  0.00  0.00     0.187 C 
HETATM    9  O   UNK N   1      28.744  17.309   5.159  0.00  0.00    -0.388 OA
HETATM   10  C   UNK N   1      28.240  17.564   3.863  0.00  0.00     0.187 C 
HETATM   11  H   UNK N   1      24.407  18.038   6.312  0.00  0.00     0.165 HD
ENDBRANCH   1   2
BRANCH   1  12
HETATM   12  C   UNK N   1      21.834  18.400   5.504  0.00  0.00     0.241 C 
HETATM   13  O   UNK N   1      21.606  18.553   6.696  0.00  0.00    -0.271 OA
HETATM   14  N   UNK N   1      21.152  19.163   4.613  0.00  0.00    -0.348 N 
HETATM   15  H   UNK N   1      20.559  19.859   4.976  0.00  0.00     0.163 HD
BRANCH  14  16
HETATM   16  C   UNK N   1      21.225  19.037   3.174  0.00  0.00     0.155 C 
BRANCH  16  17
HETATM   17  C   UNK N   1      21.493  20.382   2.588  0.00  0.00     0.257 C 
HETATM   18  O   UNK N   1      22.494  21.006   2.898  0.00  0.00    -0.305 OA
ENDBRANCH  16  17
BRANCH  16  19
HETATM   19  C   UNK N   1      19.926  18.447   2.602  0.00  0.00     0.106 C 
BRANCH  19  20
HETATM   20  S   UNK N   1      20.188  17.261   1.238  0.00  0.00    -0.162 SA
BRANCH  20  21
HETATM   21  C   UNK N   1      20.999  16.027   2.320  0.00  0.00     0.112 C 
BRANCH  21  22
HETATM   22  C   UNK N   1      21.562  14.842   1.589  0.00  0.00    -0.049 A 
HETATM   23  C   UNK N   1      22.919  14.834   1.248  0.00  0.00     0.008 A 
HETATM   24  C   UNK N   1      23.465  13.742   0.565  0.00  0.00     0.001 A 
HETATM   25  C   UNK N   1      22.655  12.660   0.210  0.00  0.00     0.000 A 
HETATM   26  C   UNK N   1      21.300  12.664   0.546  0.00  0.00     0.001 A 
HETATM   27  C   UNK N   1      20.761  13.747   1.238  0.00  0.00     0.008 A 
ENDBRANCH  21  22
ENDBRANCH  20  21
ENDBRANCH  19  20
ENDBRANCH  16  19
ENDBRANCH  14  16
ENDBRANCH   1  12
BRANCH   1  28
HETATM   28  C   UNK N   1      22.565  16.108   5.930  0.00  0.00     0.073 C 
BRANCH  28  29
HETATM   29  C   UNK N   1      22.793  14.775   5.273  0.00  0.00    -0.056 A 
HETATM   30  C   UNK N   1      24.074  14.482   4.797  0.00  0.00     0.007 A 
HETATM   31  C   UNK N   1      24.338  13.249   4.193  0.00  0.00     0.001 A 
HETATM   32  C   UNK N   1      23.319  12.303   4.058  0.00  0.00     0.000 A 
HETATM   33  C   UNK N   1      22.033  12.592   4.523  0.00  0.00     0.001 A 
HETATM   34  C   UNK N   1      21.770  13.823   5.127  0.00  0.00     0.007 A 
ENDBRANCH  28  29
ENDBRANCH   1  28
TORSDOF 10
ENDMDL
MODEL 5
REMARK VINA RESULT:      -6.3      2.294      5.152
REMARK  10 active torsions:
REMARK  status: ('A' for Active; 'I' for Inactive)
REMARK       I    between atoms: N_1  and  C_2 
REMARK    1  A    between atoms: C_10  and  N_1 
REMARK       I    between atoms: C_2  and  N_4 
REMARK    2  A    between atoms: C_10  and  C_11 
REMARK    3  A    between atoms: C_10  and  C_26 
REMARK       I    between atoms: C_11  and  N_13 
REMARK    4  A    between atoms: C_14  and  N_13 
REMARK    5  A    between atoms: C_14  and  C_15 
REMARK    6  A    between atoms: C_14  and  C_17 
REMARK    7  A    between atoms: C_17  and  S_18 
REMARK    8  A    between atoms: S_18  and  C_19 
REMARK    9  A    between atoms: C_19  and  C_20 
REMARK   10  A    between atoms: C_26  and  C_27 
ROOT
HETATM    1  C   UNK N   1      34.786  15.359   9.719  0.00  0.00     0.182 C 
ENDROOT
BRANCH   1   2
HETATM    2  N   UNK N   1      36.166  14.963   9.501  0.00  0.00    -0.329 N 
HETATM    3  C   UNK N   1      36.696  14.358   8.405  0.00  0.00     0.319 C 
HETATM    4  O   UNK N   1      36.075  14.307   7.349  0.00  0.00    -0.247 OA
HETATM    5  N   UNK N   1      37.877  13.700   8.523  0.00  0.00    -0.330 N 
HETATM    6  C   UNK N   1      38.538  13.618   9.805  0.00  0.00     0.153 C 
HETATM    7  C   UNK N   1      38.335  12.810   7.487  0.00  0.00     0.153 C 
HETATM    8  C   UNK N   1      38.453  12.155  10.240  0.00  0.00     0.187 C 
HETATM    9  O   UNK N   1      39.053  11.333   9.260  0.00  0.00    -0.388 OA
HETATM   10  C   UNK N   1      38.269  11.399   8.084  0.00  0.00     0.187 C 
HETATM   11  H   UNK N   1      36.793  15.155  10.235  0.00  0.00     0.165 HD
ENDBRANCH   1   2
BRANCH   1  12
HETATM   12  C   UNK N   1      34.798  16.873   9.740  0.00  0.00     0.241 C 
HETATM   13  O   UNK N   1      35.524  17.441  10.543  0.00  0.00    -0.271 OA
HETATM   14  N   UNK N   1      34.037  17.629   8.908  0.00  0.00    -0.348 N 
HETATM   15  H   UNK N   1      34.165  18.605   8.943  0.00  0.00     0.163 HD
BRANCH  14  16
HETATM   16  C   UNK N   1      33.055  17.121   7.977  0.00  0.00     0.155 C 
BRANCH  16  17
HETATM   17  C   UNK N   1      33.404  17.592   6.606  0.00  0.00     0.257 C 
HETATM   18  O   UNK N   1      34.517  17.395   6.147  0.00  0.00    -0.305 OA
ENDBRANCH  16  17
BRANCH  16  19
HETATM   19  C   UNK N   1      31.638  17.576   8.361  0.00  0.00     0.106 C 
BRANCH  19  20
HETATM   20  S   UNK N   1      30.324  16.890   7.295  0.00  0.00    -0.162 SA
BRANCH  20  21
HETATM   21  C   UNK N   1      29.073  18.090   7.878  0.00  0.00     0.112 C 
BRANCH  21  22
HETATM   22  C   UNK N   1      28.404  18.866   6.778  0.00  0.00    -0.049 A 
HETATM   23  C   UNK N   1      27.661  20.006   7.104  0.00  0.00     0.008 A 
HETATM   24  C   UNK N   1      27.028  20.743   6.097  0.00  0.00     0.001 A 
HETATM   25  C   UNK N   1      27.126  20.336   4.763  0.00  0.00     0.000 A 
HETATM   26  C   UNK N   1      27.863  19.198   4.433  0.00  0.00     0.001 A 
HETATM   27  C   UNK N   1      28.505  18.473   5.437  0.00  0.00     0.008 A 
ENDBRANCH  21  22
ENDBRANCH  20  21
ENDBRANCH  19  20
ENDBRANCH  16  19
ENDBRANCH  14  16
ENDBRANCH   1  12
BRANCH   1  28
HETATM   28  C   UNK N   1      34.212  14.916  11.080  0.00  0.00     0.073 C 
BRANCH  28  29
HETATM   29  C   UNK N   1      35.011  13.917  11.870  0.00  0.00    -0.056 A 
HETATM   30  C   UNK N   1      35.853  14.392  12.880  0.00  0.00     0.007 A 
HETATM   31  C   UNK N   1      36.604  13.500  13.650  0.00  0.00     0.001 A 
HETATM   32  C   UNK N   1      36.519  12.126  13.412  0.00  0.00     0.000 A 
HETATM   33  C   UNK N   1      35.687  11.643  12.398  0.00  0.00     0.001 A 
HETATM   34  C   UNK N   1      34.937  12.535  11.629  0.00  0.00     0.007 A 
ENDBRANCH  28  29
ENDBRANCH   1  28
TORSDOF 10
ENDMDL
MODEL 6
REMARK VINA RESULT:      -6.3      6.872     10.530
REMARK  10 active torsions:
REMARK  status: ('A' for Active; 'I' for Inactive)
REMARK       I    between atoms: N_1  and  C_2 
REMARK    1  A    between atoms: C_10  and  N_1 
REMARK       I    between atoms: C_2  and  N_4 
REMARK    2  A    between atoms: C_10  and  C_11 
REMARK    3  A    between atoms: C_10  and  C_26 
REMARK       I    between atoms: C_11  and  N_13 
REMARK    4  A    between atoms: C_14  and  N_13 
REMARK    5  A    between atoms: C_14  and  C_15 
REMARK    6  A    between atoms: C_14  and  C_17 
REMARK    7  A    between atoms: C_17  and  S_18 
REMARK    8  A    between atoms: S_18  and  C_19 
REMARK    9  A    between atoms: C_19  and  C_20 
REMARK   10  A    between atoms: C_26  and  C_27 
ROOT
HETATM    1  C   UNK N   1      23.774  16.999   3.681  0.00  0.00     0.182 C 
ENDROOT
BRANCH   1   2
HETATM    2  N   UNK N   1      25.130  17.514   3.765  0.00  0.00    -0.329 N 
HETATM    3  C   UNK N   1      26.024  17.347   4.776  0.00  0.00     0.319 C 
HETATM    4  O   UNK N   1      25.843  16.502   5.646  0.00  0.00    -0.247 OA
HETATM    5  N   UNK N   1      27.065  18.211   4.883  0.00  0.00    -0.330 N 
HETATM    6  C   UNK N   1      27.195  19.309   3.954  0.00  0.00     0.153 C 
HETATM    7  C   UNK N   1      27.865  18.260   6.079  0.00  0.00     0.153 C 
HETATM    8  C   UNK N   1      26.933  20.584   4.756  0.00  0.00     0.187 C 
HETATM    9  O   UNK N   1      27.845  20.664   5.833  0.00  0.00    -0.388 OA
HETATM   10  C   UNK N   1      27.560  19.612   6.735  0.00  0.00     0.187 C 
HETATM   11  H   UNK N   1      25.439  18.048   2.998  0.00  0.00     0.165 HD
ENDBRANCH   1   2
BRANCH   1  12
HETATM   12  C   UNK N   1      22.965  17.829   4.655  0.00  0.00     0.241 C 
HETATM   13  O   UNK N   1      22.747  17.375   5.770  0.00  0.00    -0.271 OA
HETATM   14  N   UNK N   1      22.468  19.054   4.347  0.00  0.00    -0.348 N 
HETATM   15  H   UNK N   1      22.017  19.551   5.067  0.00  0.00     0.163 HD
BRANCH  14  16
HETATM   16  C   UNK N   1      22.545  19.687   3.049  0.00  0.00     0.155 C 
BRANCH  16  17
HETATM   17  C   UNK N   1      23.661  20.677   3.065  0.00  0.00     0.257 C 
HETATM   18  O   UNK N   1      24.405  20.789   2.104  0.00  0.00    -0.305 OA
ENDBRANCH  16  17
BRANCH  16  19
HETATM   19  C   UNK N   1      21.219  20.372   2.686  0.00  0.00     0.106 C 
BRANCH  19  20
HETATM   20  S   UNK N   1      19.770  19.263   2.749  0.00  0.00    -0.162 SA
BRANCH  20  21
HETATM   21  C   UNK N   1      20.471  18.098   1.524  0.00  0.00     0.112 C 
BRANCH  21  22
HETATM   22  C   UNK N   1      20.140  16.657   1.785  0.00  0.00    -0.049 A 
HETATM   23  C   UNK N   1      20.014  16.215   3.106  0.00  0.00     0.008 A 
HETATM   24  C   UNK N   1      19.708  14.877   3.374  0.00  0.00     0.001 A 
HETATM   25  C   UNK N   1      19.539  13.971   2.322  0.00  0.00     0.000 A 
HETATM   26  C   UNK N   1      19.666  14.406   1.002  0.00  0.00     0.001 A 
HETATM   27  C   UNK N   1      19.958  15.744   0.737  0.00  0.00     0.008 A 
ENDBRANCH  21  22
ENDBRANCH  20  21
ENDBRANCH  19  20
ENDBRANCH  16  19
ENDBRANCH  14  16
ENDBRANCH   1  12
BRANCH   1  28
HETATM   28  C   UNK N   1      23.628  15.535   4.142  0.00  0.00     0.073 C 
BRANCH  28  29
HETATM   29  C   UNK N   1      23.383  14.502   3.077  0.00  0.00    -0.056 A 
HETATM   30  C   UNK N   1      23.512  14.885   1.740  0.00  0.00     0.007 A 
HETATM   31  C   UNK N   1      23.308  13.956   0.716  0.00  0.00     0.001 A 
HETATM   32  C   UNK N   1      22.971  12.636   1.024  0.00  0.00     0.000 A 
HETATM   33  C   UNK N   1      22.831  12.246   2.359  0.00  0.00     0.001 A 
HETATM   34  C   UNK N   1      23.035  13.175   3.382  0.00  0.00     0.007 A 
ENDBRANCH  28  29
ENDBRANCH   1  28
TORSDOF 10
ENDMDL
MODEL 7
REMARK VINA RESULT:      -6.2     14.038     17.186
REMARK  10 active torsions:
REMARK  status: ('A' for Active; 'I' for Inactive)
REMARK       I    between atoms: N_1  and  C_2 
REMARK    1  A    between atoms: C_10  and  N_1 
REMARK       I    between atoms: C_2  and  N_4 
REMARK    2  A    between atoms: C_10  and  C_11 
REMARK    3  A    between atoms: C_10  and  C_26 
REMARK       I    between atoms: C_11  and  N_13 
REMARK    4  A    between atoms: C_14  and  N_13 
REMARK    5  A    between atoms: C_14  and  C_15 
REMARK    6  A    between atoms: C_14  and  C_17 
REMARK    7  A    between atoms: C_17  and  S_18 
REMARK    8  A    between atoms: S_18  and  C_19 
REMARK    9  A    between atoms: C_19  and  C_20 
REMARK   10  A    between atoms: C_26  and  C_27 
ROOT
HETATM    1  C   UNK N   1      26.975  25.283  -5.305  0.00  0.00     0.182 C 
ENDROOT
BRANCH   1   2
HETATM    2  N   UNK N   1      26.719  26.713  -5.310  0.00  0.00    -0.329 N 
HETATM    3  C   UNK N   1      27.515  27.701  -5.801  0.00  0.00     0.319 C 
HETATM    4  O   UNK N   1      28.459  27.442  -6.539  0.00  0.00    -0.247 OA
HETATM    5  N   UNK N   1      27.328  28.973  -5.368  0.00  0.00    -0.330 N 
HETATM    6  C   UNK N   1      26.319  29.260  -4.374  0.00  0.00     0.153 C 
HETATM    7  C   UNK N   1      28.310  29.994  -5.627  0.00  0.00     0.153 C 
HETATM    8  C   UNK N   1      27.070  29.656  -3.102  0.00  0.00     0.187 C 
HETATM    9  O   UNK N   1      27.909  30.761  -3.370  0.00  0.00    -0.388 OA
HETATM   10  C   UNK N   1      28.922  30.344  -4.264  0.00  0.00     0.187 C 
HETATM   11  H   UNK N   1      25.867  27.002  -4.909  0.00  0.00     0.165 HD
ENDBRANCH   1   2
BRANCH   1  12
HETATM   12  C   UNK N   1      25.707  24.644  -5.832  0.00  0.00     0.241 C 
HETATM   13  O   UNK N   1      24.760  24.509  -5.070  0.00  0.00    -0.271 OA
HETATM   14  N   UNK N   1      25.574  24.212  -7.111  0.00  0.00    -0.348 N 
HETATM   15  H   UNK N   1      24.690  23.877  -7.384  0.00  0.00     0.163 HD
BRANCH  14  16
HETATM   16  C   UNK N   1      26.624  24.202  -8.106  0.00  0.00     0.155 C 
BRANCH  16  17
HETATM   17  C   UNK N   1      26.412  25.346  -9.039  0.00  0.00     0.257 C 
HETATM   18  O   UNK N   1      26.062  26.436  -8.615  0.00  0.00    -0.305 OA
ENDBRANCH  16  17
BRANCH  16  19
HETATM   19  C   UNK N   1      26.647  22.873  -8.877  0.00  0.00     0.106 C 
BRANCH  19  20
HETATM   20  S   UNK N   1      27.689  21.587  -8.107  0.00  0.00    -0.162 SA
BRANCH  20  21
HETATM   21  C   UNK N   1      28.829  22.806  -7.355  0.00  0.00     0.112 C 
BRANCH  21  22
HETATM   22  C   UNK N   1      30.039  22.198  -6.705  0.00  0.00    -0.049 A 
HETATM   23  C   UNK N   1      29.867  21.168  -5.774  0.00  0.00     0.008 A 
HETATM   24  C   UNK N   1      30.980  20.588  -5.155  0.00  0.00     0.001 A 
HETATM   25  C   UNK N   1      32.267  21.044  -5.455  0.00  0.00     0.000 A 
HETATM   26  C   UNK N   1      32.444  22.073  -6.381  0.00  0.00     0.001 A 
HETATM   27  C   UNK N   1      31.334  22.640  -7.007  0.00  0.00     0.008 A 
ENDBRANCH  21  22
ENDBRANCH  20  21
ENDBRANCH  19  20
ENDBRANCH  16  19
ENDBRANCH  14  16
ENDBRANCH   1  12
BRANCH   1  28
HETATM   28  C   UNK N   1      27.203  24.690  -3.901  0.00  0.00     0.073 C 
BRANCH  28  29
HETATM   29  C   UNK N   1      28.599  24.250  -3.559  0.00  0.00    -0.056 A 
HETATM   30  C   UNK N   1      29.669  24.901  -4.179  0.00  0.00     0.007 A 
HETATM   31  C   UNK N   1      30.985  24.537  -3.882  0.00  0.00     0.001 A 
HETATM   32  C   UNK N   1      31.239  23.515  -2.965  0.00  0.00     0.000 A 
HETATM   33  C   UNK N   1      30.175  22.852  -2.347  0.00  0.00     0.001 A 
HETATM   34  C   UNK N   1      28.860  23.217  -2.644  0.00  0.00     0.007 A 
ENDBRANCH  28  29
ENDBRANCH   1  28
TORSDOF 10
ENDMDL
MODEL 8
REMARK VINA RESULT:      -6.2      2.346      3.394
REMARK  10 active torsions:
REMARK  status: ('A' for Active; 'I' for Inactive)
REMARK       I    between atoms: N_1  and  C_2 
REMARK    1  A    between atoms: C_10  and  N_1 
REMARK       I    between atoms: C_2  and  N_4 
REMARK    2  A    between atoms: C_10  and  C_11 
REMARK    3  A    between atoms: C_10  and  C_26 
REMARK       I    between atoms: C_11  and  N_13 
REMARK    4  A    between atoms: C_14  and  N_13 
REMARK    5  A    between atoms: C_14  and  C_15 
REMARK    6  A    between atoms: C_14  and  C_17 
REMARK    7  A    between atoms: C_17  and  S_18 
REMARK    8  A    between atoms: S_18  and  C_19 
REMARK    9  A    between atoms: C_19  and  C_20 
REMARK   10  A    between atoms: C_26  and  C_27 
ROOT
HETATM    1  C   UNK N   1      30.850  15.368   5.829  0.00  0.00     0.182 C 
ENDROOT
BRANCH   1   2
HETATM    2  N   UNK N   1      32.235  15.490   6.249  0.00  0.00    -0.329 N 
HETATM    3  C   UNK N   1      32.829  14.931   7.338  0.00  0.00     0.319 C 
HETATM    4  O   UNK N   1      32.280  14.033   7.964  0.00  0.00    -0.247 OA
HETATM    5  N   UNK N   1      33.988  15.464   7.800  0.00  0.00    -0.330 N 
HETATM    6  C   UNK N   1      34.559  16.627   7.161  0.00  0.00     0.153 C 
HETATM    7  C   UNK N   1      34.501  15.104   9.097  0.00  0.00     0.153 C 
HETATM    8  C   UNK N   1      34.421  17.776   8.160  0.00  0.00     0.187 C 
HETATM    9  O   UNK N   1      35.073  17.437   9.367  0.00  0.00    -0.388 OA
HETATM   10  C   UNK N   1      34.372  16.363   9.964  0.00  0.00     0.187 C 
HETATM   11  H   UNK N   1      32.814  16.043   5.676  0.00  0.00     0.165 HD
ENDBRANCH   1   2
BRANCH   1  12
HETATM   12  C   UNK N   1      30.903  14.908   4.388  0.00  0.00     0.241 C 
HETATM   13  O   UNK N   1      31.792  15.340   3.668  0.00  0.00    -0.271 OA
HETATM   14  N   UNK N   1      30.006  14.038   3.857  0.00  0.00    -0.348 N 
HETATM   15  H   UNK N   1      30.162  13.739   2.932  0.00  0.00     0.163 HD
BRANCH  14  16
HETATM   16  C   UNK N   1      28.841  13.516   4.537  0.00  0.00     0.155 C 
BRANCH  16  17
HETATM   17  C   UNK N   1      28.921  12.027   4.551  0.00  0.00     0.257 C 
HETATM   18  O   UNK N   1      29.940  11.464   4.917  0.00  0.00    -0.305 OA
ENDBRANCH  16  17
BRANCH  16  19
HETATM   19  C   UNK N   1      27.545  13.982   3.854  0.00  0.00     0.106 C 
BRANCH  19  20
HETATM   20  S   UNK N   1      26.670  15.309   4.752  0.00  0.00    -0.162 SA
BRANCH  20  21
HETATM   21  C   UNK N   1      26.789  16.483   3.354  0.00  0.00     0.112 C 
BRANCH  21  22
HETATM   22  C   UNK N   1      26.646  17.926   3.747  0.00  0.00    -0.049 A 
HETATM   23  C   UNK N   1      27.777  18.630   4.175  0.00  0.00     0.008 A 
HETATM   24  C   UNK N   1      27.668  19.974   4.548  0.00  0.00     0.001 A 
HETATM   25  C   UNK N   1      26.426  20.615   4.508  0.00  0.00     0.000 A 
HETATM   26  C   UNK N   1      25.294  19.916   4.085  0.00  0.00     0.001 A 
HETATM   27  C   UNK N   1      25.408  18.581   3.700  0.00  0.00     0.008 A 
ENDBRANCH  21  22
ENDBRANCH  20  21
ENDBRANCH  19  20
ENDBRANCH  16  19
ENDBRANCH  14  16
ENDBRANCH   1  12
BRANCH   1  28
HETATM   28  C   UNK N   1      30.075  16.701   5.825  0.00  0.00     0.073 C 
BRANCH  28  29
HETATM   29  C   UNK N   1      29.683  17.272   7.160  0.00  0.00    -0.056 A 
HETATM   30  C   UNK N   1      30.676  17.869   7.942  0.00  0.00     0.007 A 
HETATM   31  C   UNK N   1      30.357  18.426   9.183  0.00  0.00     0.001 A 
HETATM   32  C   UNK N   1      29.042  18.387   9.652  0.00  0.00     0.000 A 
HETATM   33  C   UNK N   1      28.044  17.784   8.880  0.00  0.00     0.001 A 
HETATM   34  C   UNK N   1      28.364  17.227   7.640  0.00  0.00     0.007 A 
ENDBRANCH  28  29
ENDBRANCH   1  28
TORSDOF 10
ENDMDL
MODEL 9
REMARK VINA RESULT:      -6.2     10.250     12.332
REMARK  10 active torsions:
REMARK  status: ('A' for Active; 'I' for Inactive)
REMARK       I    between atoms: N_1  and  C_2 
REMARK    1  A    between atoms: C_10  and  N_1 
REMARK       I    between atoms: C_2  and  N_4 
REMARK    2  A    between atoms: C_10  and  C_11 
REMARK    3  A    between atoms: C_10  and  C_26 
REMARK       I    between atoms: C_11  and  N_13 
REMARK    4  A    between atoms: C_14  and  N_13 
REMARK    5  A    between atoms: C_14  and  C_15 
REMARK    6  A    between atoms: C_14  and  C_17 
REMARK    7  A    between atoms: C_17  and  S_18 
REMARK    8  A    between atoms: S_18  and  C_19 
REMARK    9  A    between atoms: C_19  and  C_20 
REMARK   10  A    between atoms: C_26  and  C_27 
ROOT
HETATM    1  C   UNK N   1      20.609  14.206   5.675  0.00  0.00     0.182 C 
ENDROOT
BRANCH   1   2
HETATM    2  N   UNK N   1      21.013  14.407   7.056  0.00  0.00    -0.329 N 
HETATM    3  C   UNK N   1      22.165  14.001   7.655  0.00  0.00     0.319 C 
HETATM    4  O   UNK N   1      23.122  13.620   6.990  0.00  0.00    -0.247 OA
HETATM    5  N   UNK N   1      22.204  13.906   9.008  0.00  0.00    -0.330 N 
HETATM    6  C   UNK N   1      21.027  14.200   9.791  0.00  0.00     0.153 C 
HETATM    7  C   UNK N   1      23.282  13.216   9.669  0.00  0.00     0.153 C 
HETATM    8  C   UNK N   1      20.564  12.870  10.387  0.00  0.00     0.187 C 
HETATM    9  O   UNK N   1      21.608  12.304  11.154  0.00  0.00    -0.388 OA
HETATM   10  C   UNK N   1      22.662  11.953  10.280  0.00  0.00     0.187 C 
HETATM   11  H   UNK N   1      20.377  14.896   7.627  0.00  0.00     0.165 HD
ENDBRANCH   1   2
BRANCH   1  12
HETATM   12  C   UNK N   1      19.516  15.223   5.422  0.00  0.00     0.241 C 
HETATM   13  O   UNK N   1      18.354  14.842   5.413  0.00  0.00    -0.271 OA
HETATM   14  N   UNK N   1      19.767  16.538   5.203  0.00  0.00    -0.348 N 
HETATM   15  H   UNK N   1      18.991  17.138   5.120  0.00  0.00     0.163 HD
BRANCH  14  16
HETATM   16  C   UNK N   1      21.080  17.131   5.078  0.00  0.00     0.155 C 
BRANCH  16  17
HETATM   17  C   UNK N   1      21.355  17.947   6.296  0.00  0.00     0.257 C 
HETATM   18  O   UNK N   1      20.968  17.576   7.392  0.00  0.00    -0.305 OA
ENDBRANCH  16  17
BRANCH  16  19
HETATM   19  C   UNK N   1      21.181  17.997   3.813  0.00  0.00     0.106 C 
BRANCH  19  20
HETATM   20  S   UNK N   1      20.304  17.305   2.369  0.00  0.00    -0.162 SA
BRANCH  20  21
HETATM   21  C   UNK N   1      21.454  15.891   2.210  0.00  0.00     0.112 C 
BRANCH  21  22
HETATM   22  C   UNK N   1      20.827  14.647   1.648  0.00  0.00    -0.049 A 
HETATM   23  C   UNK N   1      19.475  14.391   1.904  0.00  0.00     0.008 A 
HETATM   24  C   UNK N   1      18.869  13.238   1.393  0.00  0.00     0.001 A 
HETATM   25  C   UNK N   1      19.616  12.331   0.634  0.00  0.00     0.000 A 
HETATM   26  C   UNK N   1      20.965  12.580   0.378  0.00  0.00     0.001 A 
HETATM   27  C   UNK N   1      21.563  13.737   0.877  0.00  0.00     0.008 A 
ENDBRANCH  21  22
ENDBRANCH  20  21
ENDBRANCH  19  20
ENDBRANCH  16  19
ENDBRANCH  14  16
ENDBRANCH   1  12
BRANCH   1  28
HETATM   28  C   UNK N   1      19.982  12.825   5.399  0.00  0.00     0.073 C 
BRANCH  28  29
HETATM   29  C   UNK N   1      20.748  11.890   4.503  0.00  0.00    -0.056 A 
HETATM   30  C   UNK N   1      20.081  10.778   3.983  0.00  0.00     0.007 A 
HETATM   31  C   UNK N   1      20.746   9.889   3.134  0.00  0.00     0.001 A 
HETATM   32  C   UNK N   1      22.086  10.106   2.804  0.00  0.00     0.000 A 
HETATM   33  C   UNK N   1      22.763  11.212   3.327  0.00  0.00     0.001 A 
HETATM   34  C   UNK N   1      22.097  12.099   4.175  0.00  0.00     0.007 A 
ENDBRANCH  28  29
ENDBRANCH   1  28
TORSDOF 10
ENDMDL
