REMARK  19 active torsions:
REMARK  status: ('A' for Active; 'I' for Inactive)
REMARK    1  A    between atoms: C_2  and  C_3 
REMARK    2  A    between atoms: C_3  and  C_4 
REMARK    3  A    between atoms: C_4  and  C_5 
REMARK    4  A    between atoms: C_5  and  C_6 
REMARK    5  A    between atoms: C_6  and  C_7 
REMARK    6  A    between atoms: C_7  and  C_8 
REMARK    7  A    between atoms: C_8  and  O_9 
REMARK    8  A    between atoms: O_9  and  C_10 
REMARK    9  A    between atoms: C_10  and  C_11 
REMARK   10  A    between atoms: C_11  and  O_12 
REMARK   11  A    between atoms: O_12  and  C_13 
REMARK   12  A    between atoms: C_13  and  C_14 
REMARK   13  A    between atoms: C_14  and  O_15 
REMARK   14  A    between atoms: O_15  and  C_16 
REMARK   15  A    between atoms: C_16  and  C_17 
REMARK   16  A    between atoms: C_17  and  O_18 
REMARK   17  A    between atoms: O_18  and  C_19 
REMARK   18  A    between atoms: C_19  and  C_20 
REMARK   19  A    between atoms: C_20  and  O_21 
ROOT
HETATM    1  C   UNK N   1       0.691  -0.419   0.476  0.00  0.00     0.193 C 
ENDROOT
BRANCH   1   2
HETATM    2  C   UNK N   1      -0.467  -1.012  -0.306  0.00  0.00     0.193 C 
BRANCH   2   3
HETATM    3  O   UNK N   1      -1.462  -0.046  -0.462  0.00  0.00    -0.389 OA
BRANCH   3   4
HETATM    4  C   UNK N   1      -2.637  -0.642  -0.006  0.00  0.00     0.167 C 
BRANCH   4   5
HETATM    5  C   UNK N   1      -3.756   0.380  -0.052  0.00  0.00     0.026 C 
BRANCH   5   6
HETATM    6  C   UNK N   1      -5.085  -0.305   0.184  0.00  0.00     0.002 C 
BRANCH   6   7
HETATM    7  C   UNK N   1      -6.209   0.700   0.038  0.00  0.00     0.000 C 
BRANCH   7   8
HETATM    8  C   UNK N   1      -7.533  -0.031   0.098  0.00  0.00     0.000 C 
BRANCH   8   9
HETATM    9  C   UNK N   1      -8.677   0.955  -0.016  0.00  0.00    -0.000 C 
BRANCH   9  10
HETATM   10  C   UNK N   1      -9.987   0.197   0.015  0.00  0.00    -0.005 C 
HETATM   11  C   UNK N   1     -11.143   1.173  -0.033  0.00  0.00     0.005 C 
ENDBRANCH   9  10
ENDBRANCH   8   9
ENDBRANCH   7   8
ENDBRANCH   6   7
ENDBRANCH   5   6
ENDBRANCH   4   5
ENDBRANCH   3   4
ENDBRANCH   2   3
ENDBRANCH   1   2
BRANCH   1  12
HETATM   12  O   UNK N   1       1.872  -1.090   0.153  0.00  0.00    -0.387 OA
BRANCH  12  13
HETATM   13  C   UNK N   1       2.718  -0.108  -0.367  0.00  0.00     0.193 C 
BRANCH  13  14
HETATM   14  C   UNK N   1       3.946   0.032   0.520  0.00  0.00     0.193 C 
BRANCH  14  15
HETATM   15  O   UNK N   1       4.836   0.959  -0.029  0.00  0.00    -0.387 OA
BRANCH  15  16
HETATM   16  C   UNK N   1       5.918   0.201  -0.487  0.00  0.00     0.193 C 
BRANCH  16  17
HETATM   17  C   UNK N   1       7.138   0.444   0.387  0.00  0.00     0.193 C 
BRANCH  17  18
HETATM   18  O   UNK N   1       8.168  -0.411  -0.013  0.00  0.00    -0.387 OA
BRANCH  18  19
HETATM   19  C   UNK N   1       9.280   0.412  -0.198  0.00  0.00     0.193 C 
BRANCH  19  20
HETATM   20  C   UNK N   1      10.537  -0.363   0.148  0.00  0.00     0.190 C 
BRANCH  20  21
HETATM   21  O   UNK N   1      11.657   0.443  -0.049  0.00  0.00    -0.399 OA
HETATM   22  H   UNK N   1      12.532   0.049  -0.186  0.00  0.00     0.209 HD
ENDBRANCH  20  21
ENDBRANCH  19  20
ENDBRANCH  18  19
ENDBRANCH  17  18
ENDBRANCH  16  17
ENDBRANCH  15  16
ENDBRANCH  14  15
ENDBRANCH  13  14
ENDBRANCH  12  13
ENDBRANCH   1  12
TORSDOF 19
