MODEL 1
REMARK VINA RESULT:      -4.5      0.000      0.000
REMARK  19 active torsions:
REMARK  status: ('A' for Active; 'I' for Inactive)
REMARK    1  A    between atoms: C_2  and  C_3 
REMARK    2  A    between atoms: C_3  and  C_4 
REMARK    3  A    between atoms: C_4  and  C_5 
REMARK    4  A    between atoms: C_5  and  C_6 
REMARK    5  A    between atoms: C_6  and  C_7 
REMARK    6  A    between atoms: C_7  and  C_8 
REMARK    7  A    between atoms: C_8  and  O_9 
REMARK    8  A    between atoms: O_9  and  C_10 
REMARK    9  A    between atoms: C_10  and  C_11 
REMARK   10  A    between atoms: C_11  and  O_12 
REMARK   11  A    between atoms: O_12  and  C_13 
REMARK   12  A    between atoms: C_13  and  C_14 
REMARK   13  A    between atoms: C_14  and  O_15 
REMARK   14  A    between atoms: O_15  and  C_16 
REMARK   15  A    between atoms: C_16  and  C_17 
REMARK   16  A    between atoms: C_17  and  O_18 
REMARK   17  A    between atoms: O_18  and  C_19 
REMARK   18  A    between atoms: C_19  and  C_20 
REMARK   19  A    between atoms: C_20  and  O_21 
ROOT
HETATM    1  C   UNK N   1      35.621  13.348  11.353  0.00  0.00     0.193 C 
ENDROOT
BRANCH   1   2
HETATM    2  C   UNK N   1      36.887  13.194  12.176  0.00  0.00     0.193 C 
BRANCH   2   3
HETATM    3  O   UNK N   1      36.554  12.757  13.459  0.00  0.00    -0.389 OA
BRANCH   3   4
HETATM    4  C   UNK N   1      36.112  13.891  14.138  0.00  0.00     0.167 C 
BRANCH   4   5
HETATM    5  C   UNK N   1      36.257  13.658  15.629  0.00  0.00     0.026 C 
BRANCH   5   6
HETATM    6  C   UNK N   1      34.987  13.044  16.178  0.00  0.00     0.002 C 
BRANCH   6   7
HETATM    7  C   UNK N   1      35.336  11.962  17.178  0.00  0.00     0.000 C 
BRANCH   7   8
HETATM    8  C   UNK N   1      35.300  10.618  16.482  0.00  0.00     0.000 C 
BRANCH   8   9
HETATM    9  C   UNK N   1      34.207  10.606  15.433  0.00  0.00    -0.000 C 
BRANCH   9  10
HETATM   10  C   UNK N   1      34.705   9.865  14.210  0.00  0.00    -0.005 C 
HETATM   11  C   UNK N   1      33.970  10.356  12.981  0.00  0.00     0.005 C 
ENDBRANCH   9  10
ENDBRANCH   8   9
ENDBRANCH   7   8
ENDBRANCH   6   7
ENDBRANCH   5   6
ENDBRANCH   4   5
ENDBRANCH   3   4
ENDBRANCH   2   3
ENDBRANCH   1   2
BRANCH   1  12
HETATM   12  O   UNK N   1      35.793  14.361  10.407  0.00  0.00    -0.387 OA
BRANCH  12  13
HETATM   13  C   UNK N   1      34.769  15.276  10.664  0.00  0.00     0.193 C 
BRANCH  13  14
HETATM   14  C   UNK N   1      35.368  16.627  11.023  0.00  0.00     0.193 C 
BRANCH  14  15
HETATM   15  O   UNK N   1      35.437  17.442   9.890  0.00  0.00    -0.387 OA
BRANCH  15  16
HETATM   16  C   UNK N   1      34.237  17.222   9.207  0.00  0.00     0.193 C 
BRANCH  16  17
HETATM   17  C   UNK N   1      34.030  18.294   8.149  0.00  0.00     0.193 C 
BRANCH  17  18
HETATM   18  O   UNK N   1      34.640  17.889   6.959  0.00  0.00    -0.387 OA
BRANCH  18  19
HETATM   19  C   UNK N   1      34.074  16.649   6.658  0.00  0.00     0.193 C 
BRANCH  19  20
HETATM   20  C   UNK N   1      33.740  16.599   5.179  0.00  0.00     0.190 C 
BRANCH  20  21
HETATM   21  O   UNK N   1      32.746  17.533   4.889  0.00  0.00    -0.399 OA
HETATM   22  H   UNK N   1      32.969  18.379   4.471  0.00  0.00     0.209 HD
ENDBRANCH  20  21
ENDBRANCH  19  20
ENDBRANCH  18  19
ENDBRANCH  17  18
ENDBRANCH  16  17
ENDBRANCH  15  16
ENDBRANCH  14  15
ENDBRANCH  13  14
ENDBRANCH  12  13
ENDBRANCH   1  12
TORSDOF 19
ENDMDL
MODEL 2
REMARK VINA RESULT:      -4.5      1.814      2.740
REMARK  19 active torsions:
REMARK  status: ('A' for Active; 'I' for Inactive)
REMARK    1  A    between atoms: C_2  and  C_3 
REMARK    2  A    between atoms: C_3  and  C_4 
REMARK    3  A    between atoms: C_4  and  C_5 
REMARK    4  A    between atoms: C_5  and  C_6 
REMARK    5  A    between atoms: C_6  and  C_7 
REMARK    6  A    between atoms: C_7  and  C_8 
REMARK    7  A    between atoms: C_8  and  O_9 
REMARK    8  A    between atoms: O_9  and  C_10 
REMARK    9  A    between atoms: C_10  and  C_11 
REMARK   10  A    between atoms: C_11  and  O_12 
REMARK   11  A    between atoms: O_12  and  C_13 
REMARK   12  A    between atoms: C_13  and  C_14 
REMARK   13  A    between atoms: C_14  and  O_15 
REMARK   14  A    between atoms: O_15  and  C_16 
REMARK   15  A    between atoms: C_16  and  C_17 
REMARK   16  A    between atoms: C_17  and  O_18 
REMARK   17  A    between atoms: O_18  and  C_19 
REMARK   18  A    between atoms: C_19  and  C_20 
REMARK   19  A    between atoms: C_20  and  O_21 
ROOT
HETATM    1  C   UNK N   1      35.351  13.595  11.680  0.00  0.00     0.193 C 
ENDROOT
BRANCH   1   2
HETATM    2  C   UNK N   1      35.529  12.804  12.963  0.00  0.00     0.193 C 
BRANCH   2   3
HETATM    3  O   UNK N   1      36.707  13.206  13.595  0.00  0.00    -0.389 OA
BRANCH   3   4
HETATM    4  C   UNK N   1      36.623  12.708  14.894  0.00  0.00     0.167 C 
BRANCH   4   5
HETATM    5  C   UNK N   1      35.351  13.224  15.538  0.00  0.00     0.026 C 
BRANCH   5   6
HETATM    6  C   UNK N   1      35.141  12.545  16.874  0.00  0.00     0.002 C 
BRANCH   6   7
HETATM    7  C   UNK N   1      35.234  13.569  17.986  0.00  0.00     0.000 C 
BRANCH   7   8
HETATM    8  C   UNK N   1      35.115  12.860  19.318  0.00  0.00     0.000 C 
BRANCH   8   9
HETATM    9  C   UNK N   1      35.492  11.401  19.166  0.00  0.00    -0.000 C 
BRANCH   9  10
HETATM   10  C   UNK N   1      34.949  10.625  20.347  0.00  0.00    -0.005 C 
HETATM   11  C   UNK N   1      34.082   9.486  19.856  0.00  0.00     0.005 C 
ENDBRANCH   9  10
ENDBRANCH   8   9
ENDBRANCH   7   8
ENDBRANCH   6   7
ENDBRANCH   5   6
ENDBRANCH   4   5
ENDBRANCH   3   4
ENDBRANCH   2   3
ENDBRANCH   1   2
BRANCH   1  12
HETATM   12  O   UNK N   1      34.285  14.485  11.818  0.00  0.00    -0.387 OA
BRANCH  12  13
HETATM   13  C   UNK N   1      34.433  15.397  10.771  0.00  0.00     0.193 C 
BRANCH  13  14
HETATM   14  C   UNK N   1      35.609  16.319  11.057  0.00  0.00     0.193 C 
BRANCH  14  15
HETATM   15  O   UNK N   1      35.559  17.439  10.223  0.00  0.00    -0.387 OA
BRANCH  15  16
HETATM   16  C   UNK N   1      34.715  17.075   9.170  0.00  0.00     0.193 C 
BRANCH  16  17
HETATM   17  C   UNK N   1      34.471  18.264   8.256  0.00  0.00     0.193 C 
BRANCH  17  18
HETATM   18  O   UNK N   1      33.336  18.021   7.478  0.00  0.00    -0.387 OA
BRANCH  18  19
HETATM   19  C   UNK N   1      32.310  17.769   8.390  0.00  0.00     0.193 C 
BRANCH  19  20
HETATM   20  C   UNK N   1      31.145  17.124   7.664  0.00  0.00     0.190 C 
BRANCH  20  21
HETATM   21  O   UNK N   1      31.380  17.136   6.291  0.00  0.00    -0.399 OA
HETATM   22  H   UNK N   1      31.697  16.341   5.836  0.00  0.00     0.209 HD
ENDBRANCH  20  21
ENDBRANCH  19  20
ENDBRANCH  18  19
ENDBRANCH  17  18
ENDBRANCH  16  17
ENDBRANCH  15  16
ENDBRANCH  14  15
ENDBRANCH  13  14
ENDBRANCH  12  13
ENDBRANCH   1  12
TORSDOF 19
ENDMDL
MODEL 3
REMARK VINA RESULT:      -4.2      2.025      2.373
REMARK  19 active torsions:
REMARK  status: ('A' for Active; 'I' for Inactive)
REMARK    1  A    between atoms: C_2  and  C_3 
REMARK    2  A    between atoms: C_3  and  C_4 
REMARK    3  A    between atoms: C_4  and  C_5 
REMARK    4  A    between atoms: C_5  and  C_6 
REMARK    5  A    between atoms: C_6  and  C_7 
REMARK    6  A    between atoms: C_7  and  C_8 
REMARK    7  A    between atoms: C_8  and  O_9 
REMARK    8  A    between atoms: O_9  and  C_10 
REMARK    9  A    between atoms: C_10  and  C_11 
REMARK   10  A    between atoms: C_11  and  O_12 
REMARK   11  A    between atoms: O_12  and  C_13 
REMARK   12  A    between atoms: C_13  and  C_14 
REMARK   13  A    between atoms: C_14  and  O_15 
REMARK   14  A    between atoms: O_15  and  C_16 
REMARK   15  A    between atoms: C_16  and  C_17 
REMARK   16  A    between atoms: C_17  and  O_18 
REMARK   17  A    between atoms: O_18  and  C_19 
REMARK   18  A    between atoms: C_19  and  C_20 
REMARK   19  A    between atoms: C_20  and  O_21 
ROOT
HETATM    1  C   UNK N   1      36.175  13.062  10.470  0.00  0.00     0.193 C 
ENDROOT
BRANCH   1   2
HETATM    2  C   UNK N   1      36.964  13.542  11.674  0.00  0.00     0.193 C 
BRANCH   2   3
HETATM    3  O   UNK N   1      36.523  12.869  12.814  0.00  0.00    -0.389 OA
BRANCH   3   4
HETATM    4  C   UNK N   1      35.961  13.848  13.633  0.00  0.00     0.167 C 
BRANCH   4   5
HETATM    5  C   UNK N   1      36.422  13.619  15.059  0.00  0.00     0.026 C 
BRANCH   5   6
HETATM    6  C   UNK N   1      36.523  12.133  15.332  0.00  0.00     0.002 C 
BRANCH   6   7
HETATM    7  C   UNK N   1      35.352  11.692  16.187  0.00  0.00     0.000 C 
BRANCH   7   8
HETATM    8  C   UNK N   1      34.737  10.452  15.575  0.00  0.00     0.000 C 
BRANCH   8   9
HETATM    9  C   UNK N   1      33.581  10.835  14.674  0.00  0.00    -0.000 C 
BRANCH   9  10
HETATM   10  C   UNK N   1      33.926  10.471  13.246  0.00  0.00    -0.005 C 
HETATM   11  C   UNK N   1      35.041   9.447  13.236  0.00  0.00     0.005 C 
ENDBRANCH   9  10
ENDBRANCH   8   9
ENDBRANCH   7   8
ENDBRANCH   6   7
ENDBRANCH   5   6
ENDBRANCH   4   5
ENDBRANCH   3   4
ENDBRANCH   2   3
ENDBRANCH   1   2
BRANCH   1  12
HETATM   12  O   UNK N   1      35.204  14.007  10.134  0.00  0.00    -0.387 OA
BRANCH  12  13
HETATM   13  C   UNK N   1      35.887  15.223  10.065  0.00  0.00     0.193 C 
BRANCH  13  14
HETATM   14  C   UNK N   1      35.000  16.341  10.590  0.00  0.00     0.193 C 
BRANCH  14  15
HETATM   15  O   UNK N   1      34.758  17.280   9.584  0.00  0.00    -0.387 OA
BRANCH  15  16
HETATM   16  C   UNK N   1      33.711  16.745   8.827  0.00  0.00     0.193 C 
BRANCH  16  17
HETATM   17  C   UNK N   1      32.745  17.845   8.415  0.00  0.00     0.193 C 
BRANCH  17  18
HETATM   18  O   UNK N   1      31.648  17.273   7.766  0.00  0.00    -0.387 OA
BRANCH  18  19
HETATM   19  C   UNK N   1      30.632  17.236   8.723  0.00  0.00     0.193 C 
BRANCH  19  20
HETATM   20  C   UNK N   1      30.254  18.655   9.104  0.00  0.00     0.190 C 
BRANCH  20  21
HETATM   21  O   UNK N   1      29.788  18.682  10.417  0.00  0.00    -0.399 OA
HETATM   22  H   UNK N   1      29.189  19.383  10.715  0.00  0.00     0.209 HD
ENDBRANCH  20  21
ENDBRANCH  19  20
ENDBRANCH  18  19
ENDBRANCH  17  18
ENDBRANCH  16  17
ENDBRANCH  15  16
ENDBRANCH  14  15
ENDBRANCH  13  14
ENDBRANCH  12  13
ENDBRANCH   1  12
TORSDOF 19
ENDMDL
MODEL 4
REMARK VINA RESULT:      -4.2     11.820     14.909
REMARK  19 active torsions:
REMARK  status: ('A' for Active; 'I' for Inactive)
REMARK    1  A    between atoms: C_2  and  C_3 
REMARK    2  A    between atoms: C_3  and  C_4 
REMARK    3  A    between atoms: C_4  and  C_5 
REMARK    4  A    between atoms: C_5  and  C_6 
REMARK    5  A    between atoms: C_6  and  C_7 
REMARK    6  A    between atoms: C_7  and  C_8 
REMARK    7  A    between atoms: C_8  and  O_9 
REMARK    8  A    between atoms: O_9  and  C_10 
REMARK    9  A    between atoms: C_10  and  C_11 
REMARK   10  A    between atoms: C_11  and  O_12 
REMARK   11  A    between atoms: O_12  and  C_13 
REMARK   12  A    between atoms: C_13  and  C_14 
REMARK   13  A    between atoms: C_14  and  O_15 
REMARK   14  A    between atoms: O_15  and  C_16 
REMARK   15  A    between atoms: C_16  and  C_17 
REMARK   16  A    between atoms: C_17  and  O_18 
REMARK   17  A    between atoms: O_18  and  C_19 
REMARK   18  A    between atoms: C_19  and  C_20 
REMARK   19  A    between atoms: C_20  and  O_21 
ROOT
HETATM    1  C   UNK N   1      20.534  17.936   2.661  0.00  0.00     0.193 C 
ENDROOT
BRANCH   1   2
HETATM    2  C   UNK N   1      20.194  16.762   3.561  0.00  0.00     0.193 C 
BRANCH   2   3
HETATM    3  O   UNK N   1      21.244  16.545   4.454  0.00  0.00    -0.389 OA
BRANCH   3   4
HETATM    4  C   UNK N   1      20.763  16.941   5.702  0.00  0.00     0.167 C 
BRANCH   4   5
HETATM    5  C   UNK N   1      21.269  15.973   6.753  0.00  0.00     0.026 C 
BRANCH   5   6
HETATM    6  C   UNK N   1      20.180  15.707   7.770  0.00  0.00     0.002 C 
BRANCH   6   7
HETATM    7  C   UNK N   1      20.805  15.378   9.111  0.00  0.00     0.000 C 
BRANCH   7   8
HETATM    8  C   UNK N   1      20.816  13.876   9.292  0.00  0.00     0.000 C 
BRANCH   8   9
HETATM    9  C   UNK N   1      22.096  13.445   9.978  0.00  0.00    -0.000 C 
BRANCH   9  10
HETATM   10  C   UNK N   1      21.821  12.206  10.804  0.00  0.00    -0.005 C 
HETATM   11  C   UNK N   1      22.948  11.991  11.792  0.00  0.00     0.005 C 
ENDBRANCH   9  10
ENDBRANCH   8   9
ENDBRANCH   7   8
ENDBRANCH   6   7
ENDBRANCH   5   6
ENDBRANCH   4   5
ENDBRANCH   3   4
ENDBRANCH   2   3
ENDBRANCH   1   2
BRANCH   1  12
HETATM   12  O   UNK N   1      19.741  19.035   2.997  0.00  0.00    -0.387 OA
BRANCH  12  13
HETATM   13  C   UNK N   1      20.636  20.006   3.449  0.00  0.00     0.193 C 
BRANCH  13  14
HETATM   14  C   UNK N   1      21.392  20.596   2.267  0.00  0.00     0.193 C 
BRANCH  14  15
HETATM   15  O   UNK N   1      22.549  21.243   2.707  0.00  0.00    -0.387 OA
BRANCH  15  16
HETATM   16  C   UNK N   1      23.384  20.224   3.175  0.00  0.00     0.193 C 
BRANCH  16  17
HETATM   17  C   UNK N   1      24.826  20.505   2.785  0.00  0.00     0.193 C 
BRANCH  17  18
HETATM   18  O   UNK N   1      25.617  19.404   3.124  0.00  0.00    -0.387 OA
BRANCH  18  19
HETATM   19  C   UNK N   1      25.889  19.550   4.485  0.00  0.00     0.193 C 
BRANCH  19  20
HETATM   20  C   UNK N   1      27.158  20.363   4.656  0.00  0.00     0.190 C 
BRANCH  20  21
HETATM   21  O   UNK N   1      28.200  19.766   3.948  0.00  0.00    -0.399 OA
HETATM   22  H   UNK N   1      28.842  19.197   4.399  0.00  0.00     0.209 HD
ENDBRANCH  20  21
ENDBRANCH  19  20
ENDBRANCH  18  19
ENDBRANCH  17  18
ENDBRANCH  16  17
ENDBRANCH  15  16
ENDBRANCH  14  15
ENDBRANCH  13  14
ENDBRANCH  12  13
ENDBRANCH   1  12
TORSDOF 19
ENDMDL
MODEL 5
REMARK VINA RESULT:      -4.1      4.324      9.880
REMARK  19 active torsions:
REMARK  status: ('A' for Active; 'I' for Inactive)
REMARK    1  A    between atoms: C_2  and  C_3 
REMARK    2  A    between atoms: C_3  and  C_4 
REMARK    3  A    between atoms: C_4  and  C_5 
REMARK    4  A    between atoms: C_5  and  C_6 
REMARK    5  A    between atoms: C_6  and  C_7 
REMARK    6  A    between atoms: C_7  and  C_8 
REMARK    7  A    between atoms: C_8  and  O_9 
REMARK    8  A    between atoms: O_9  and  C_10 
REMARK    9  A    between atoms: C_10  and  C_11 
REMARK   10  A    between atoms: C_11  and  O_12 
REMARK   11  A    between atoms: O_12  and  C_13 
REMARK   12  A    between atoms: C_13  and  C_14 
REMARK   13  A    between atoms: C_14  and  O_15 
REMARK   14  A    between atoms: O_15  and  C_16 
REMARK   15  A    between atoms: C_16  and  C_17 
REMARK   16  A    between atoms: C_17  and  O_18 
REMARK   17  A    between atoms: O_18  and  C_19 
REMARK   18  A    between atoms: C_19  and  C_20 
REMARK   19  A    between atoms: C_20  and  O_21 
ROOT
HETATM    1  C   UNK N   1      32.456  15.120   4.924  0.00  0.00     0.193 C 
ENDROOT
BRANCH   1   2
HETATM    2  C   UNK N   1      31.696  15.036   3.612  0.00  0.00     0.193 C 
BRANCH   2   3
HETATM    3  O   UNK N   1      30.366  15.400   3.825  0.00  0.00    -0.389 OA
BRANCH   3   4
HETATM    4  C   UNK N   1      30.104  15.100   5.161  0.00  0.00     0.167 C 
BRANCH   4   5
HETATM    5  C   UNK N   1      29.049  16.057   5.681  0.00  0.00     0.026 C 
BRANCH   5   6
HETATM    6  C   UNK N   1      29.713  17.206   6.408  0.00  0.00     0.002 C 
BRANCH   6   7
HETATM    7  C   UNK N   1      28.658  18.071   7.066  0.00  0.00     0.000 C 
BRANCH   7   8
HETATM    8  C   UNK N   1      28.046  18.980   6.022  0.00  0.00     0.000 C 
BRANCH   8   9
HETATM    9  C   UNK N   1      27.621  20.288   6.656  0.00  0.00    -0.000 C 
BRANCH   9  10
HETATM   10  C   UNK N   1      26.872  21.113   5.631  0.00  0.00    -0.005 C 
HETATM   11  C   UNK N   1      26.871  20.395   4.299  0.00  0.00     0.005 C 
ENDBRANCH   9  10
ENDBRANCH   8   9
ENDBRANCH   7   8
ENDBRANCH   6   7
ENDBRANCH   5   6
ENDBRANCH   4   5
ENDBRANCH   3   4
ENDBRANCH   2   3
ENDBRANCH   1   2
BRANCH   1  12
HETATM   12  O   UNK N   1      33.450  16.096   4.831  0.00  0.00    -0.387 OA
BRANCH  12  13
HETATM   13  C   UNK N   1      34.523  15.593   5.571  0.00  0.00     0.193 C 
BRANCH  13  14
HETATM   14  C   UNK N   1      34.620  16.330   6.898  0.00  0.00     0.193 C 
BRANCH  14  15
HETATM   15  O   UNK N   1      34.345  17.688   6.718  0.00  0.00    -0.387 OA
BRANCH  15  16
HETATM   16  C   UNK N   1      34.430  18.251   7.995  0.00  0.00     0.193 C 
BRANCH  16  17
HETATM   17  C   UNK N   1      34.601  17.161   9.041  0.00  0.00     0.193 C 
BRANCH  17  18
HETATM   18  O   UNK N   1      35.364  17.656  10.101  0.00  0.00    -0.387 OA
BRANCH  18  19
HETATM   19  C   UNK N   1      35.530  16.577  10.971  0.00  0.00     0.193 C 
BRANCH  19  20
HETATM   20  C   UNK N   1      36.043  15.382  10.191  0.00  0.00     0.190 C 
BRANCH  20  21
HETATM   21  O   UNK N   1      37.417  15.249  10.382  0.00  0.00    -0.399 OA
HETATM   22  H   UNK N   1      37.861  15.703  11.114  0.00  0.00     0.209 HD
ENDBRANCH  20  21
ENDBRANCH  19  20
ENDBRANCH  18  19
ENDBRANCH  17  18
ENDBRANCH  16  17
ENDBRANCH  15  16
ENDBRANCH  14  15
ENDBRANCH  13  14
ENDBRANCH  12  13
ENDBRANCH   1  12
TORSDOF 19
ENDMDL
MODEL 6
REMARK VINA RESULT:      -4.1      1.474      2.573
REMARK  19 active torsions:
REMARK  status: ('A' for Active; 'I' for Inactive)
REMARK    1  A    between atoms: C_2  and  C_3 
REMARK    2  A    between atoms: C_3  and  C_4 
REMARK    3  A    between atoms: C_4  and  C_5 
REMARK    4  A    between atoms: C_5  and  C_6 
REMARK    5  A    between atoms: C_6  and  C_7 
REMARK    6  A    between atoms: C_7  and  C_8 
REMARK    7  A    between atoms: C_8  and  O_9 
REMARK    8  A    between atoms: O_9  and  C_10 
REMARK    9  A    between atoms: C_10  and  C_11 
REMARK   10  A    between atoms: C_11  and  O_12 
REMARK   11  A    between atoms: O_12  and  C_13 
REMARK   12  A    between atoms: C_13  and  C_14 
REMARK   13  A    between atoms: C_14  and  O_15 
REMARK   14  A    between atoms: O_15  and  C_16 
REMARK   15  A    between atoms: C_16  and  C_17 
REMARK   16  A    between atoms: C_17  and  O_18 
REMARK   17  A    between atoms: O_18  and  C_19 
REMARK   18  A    between atoms: C_19  and  C_20 
REMARK   19  A    between atoms: C_20  and  O_21 
ROOT
HETATM    1  C   UNK N   1      34.995  14.662  11.679  0.00  0.00     0.193 C 
ENDROOT
BRANCH   1   2
HETATM    2  C   UNK N   1      35.675  13.845  12.763  0.00  0.00     0.193 C 
BRANCH   2   3
HETATM    3  O   UNK N   1      34.708  13.315  13.617  0.00  0.00    -0.389 OA
BRANCH   3   4
HETATM    4  C   UNK N   1      35.327  13.207  14.862  0.00  0.00     0.167 C 
BRANCH   4   5
HETATM    5  C   UNK N   1      34.461  12.354  15.769  0.00  0.00     0.026 C 
BRANCH   5   6
HETATM    6  C   UNK N   1      34.638  10.892  15.418  0.00  0.00     0.002 C 
BRANCH   6   7
HETATM    7  C   UNK N   1      34.758  10.075  16.687  0.00  0.00     0.000 C 
BRANCH   7   8
HETATM    8  C   UNK N   1      35.719  10.768  17.630  0.00  0.00     0.000 C 
BRANCH   8   9
HETATM    9  C   UNK N   1      35.429  10.362  19.059  0.00  0.00    -0.000 C 
BRANCH   9  10
HETATM   10  C   UNK N   1      35.669  11.548  19.968  0.00  0.00    -0.005 C 
HETATM   11  C   UNK N   1      35.231  12.820  19.275  0.00  0.00     0.005 C 
ENDBRANCH   9  10
ENDBRANCH   8   9
ENDBRANCH   7   8
ENDBRANCH   6   7
ENDBRANCH   5   6
ENDBRANCH   4   5
ENDBRANCH   3   4
ENDBRANCH   2   3
ENDBRANCH   1   2
BRANCH   1  12
HETATM   12  O   UNK N   1      35.436  14.240  10.423  0.00  0.00    -0.387 OA
BRANCH  12  13
HETATM   13  C   UNK N   1      35.882  15.400   9.786  0.00  0.00     0.193 C 
BRANCH  13  14
HETATM   14  C   UNK N   1      35.409  16.622  10.557  0.00  0.00     0.193 C 
BRANCH  14  15
HETATM   15  O   UNK N   1      35.190  17.691   9.683  0.00  0.00    -0.387 OA
BRANCH  15  16
HETATM   16  C   UNK N   1      34.492  17.143   8.602  0.00  0.00     0.193 C 
BRANCH  16  17
HETATM   17  C   UNK N   1      33.008  17.450   8.725  0.00  0.00     0.193 C 
BRANCH  17  18
HETATM   18  O   UNK N   1      32.497  17.761   7.462  0.00  0.00    -0.387 OA
BRANCH  18  19
HETATM   19  C   UNK N   1      32.555  16.570   6.737  0.00  0.00     0.193 C 
BRANCH  19  20
HETATM   20  C   UNK N   1      32.766  16.889   5.269  0.00  0.00     0.190 C 
BRANCH  20  21
HETATM   21  O   UNK N   1      33.664  17.947   5.141  0.00  0.00    -0.399 OA
HETATM   22  H   UNK N   1      33.808  18.373   4.282  0.00  0.00     0.209 HD
ENDBRANCH  20  21
ENDBRANCH  19  20
ENDBRANCH  18  19
ENDBRANCH  17  18
ENDBRANCH  16  17
ENDBRANCH  15  16
ENDBRANCH  14  15
ENDBRANCH  13  14
ENDBRANCH  12  13
ENDBRANCH   1  12
TORSDOF 19
ENDMDL
MODEL 7
REMARK VINA RESULT:      -4.0      1.645      3.127
REMARK  19 active torsions:
REMARK  status: ('A' for Active; 'I' for Inactive)
REMARK    1  A    between atoms: C_2  and  C_3 
REMARK    2  A    between atoms: C_3  and  C_4 
REMARK    3  A    between atoms: C_4  and  C_5 
REMARK    4  A    between atoms: C_5  and  C_6 
REMARK    5  A    between atoms: C_6  and  C_7 
REMARK    6  A    between atoms: C_7  and  C_8 
REMARK    7  A    between atoms: C_8  and  O_9 
REMARK    8  A    between atoms: O_9  and  C_10 
REMARK    9  A    between atoms: C_10  and  C_11 
REMARK   10  A    between atoms: C_11  and  O_12 
REMARK   11  A    between atoms: O_12  and  C_13 
REMARK   12  A    between atoms: C_13  and  C_14 
REMARK   13  A    between atoms: C_14  and  O_15 
REMARK   14  A    between atoms: O_15  and  C_16 
REMARK   15  A    between atoms: C_16  and  C_17 
REMARK   16  A    between atoms: C_17  and  O_18 
REMARK   17  A    between atoms: O_18  and  C_19 
REMARK   18  A    between atoms: C_19  and  C_20 
REMARK   19  A    between atoms: C_20  and  O_21 
ROOT
HETATM    1  C   UNK N   1      35.638  15.384   9.665  0.00  0.00     0.193 C 
ENDROOT
BRANCH   1   2
HETATM    2  C   UNK N   1      35.563  16.241  10.915  0.00  0.00     0.193 C 
BRANCH   2   3
HETATM    3  O   UNK N   1      36.058  15.518  12.002  0.00  0.00    -0.389 OA
BRANCH   3   4
HETATM    4  C   UNK N   1      35.683  14.195  11.772  0.00  0.00     0.167 C 
BRANCH   4   5
HETATM    5  C   UNK N   1      36.209  13.332  12.903  0.00  0.00     0.026 C 
BRANCH   5   6
HETATM    6  C   UNK N   1      36.248  14.137  14.185  0.00  0.00     0.002 C 
BRANCH   6   7
HETATM    7  C   UNK N   1      36.704  13.252  15.327  0.00  0.00     0.000 C 
BRANCH   7   8
HETATM    8  C   UNK N   1      35.862  13.555  16.549  0.00  0.00     0.000 C 
BRANCH   8   9
HETATM    9  C   UNK N   1      35.140  12.304  17.005  0.00  0.00    -0.000 C 
BRANCH   9  10
HETATM   10  C   UNK N   1      35.742  11.103  16.307  0.00  0.00    -0.005 C 
HETATM   11  C   UNK N   1      34.656  10.099  15.988  0.00  0.00     0.005 C 
ENDBRANCH   9  10
ENDBRANCH   8   9
ENDBRANCH   7   8
ENDBRANCH   6   7
ENDBRANCH   5   6
ENDBRANCH   4   5
ENDBRANCH   3   4
ENDBRANCH   2   3
ENDBRANCH   1   2
BRANCH   1  12
HETATM   12  O   UNK N   1      34.974  16.021   8.615  0.00  0.00    -0.387 OA
BRANCH  12  13
HETATM   13  C   UNK N   1      34.770  17.331   9.055  0.00  0.00     0.193 C 
BRANCH  13  14
HETATM   14  C   UNK N   1      34.055  18.128   7.975  0.00  0.00     0.193 C 
BRANCH  14  15
HETATM   15  O   UNK N   1      34.530  17.766   6.711  0.00  0.00    -0.387 OA
BRANCH  15  16
HETATM   16  C   UNK N   1      33.386  17.532   5.943  0.00  0.00     0.193 C 
BRANCH  16  17
HETATM   17  C   UNK N   1      33.648  16.425   4.934  0.00  0.00     0.193 C 
BRANCH  17  18
HETATM   18  O   UNK N   1      33.924  15.237   5.616  0.00  0.00    -0.387 OA
BRANCH  18  19
HETATM   19  C   UNK N   1      32.728  14.885   6.244  0.00  0.00     0.193 C 
BRANCH  19  20
HETATM   20  C   UNK N   1      32.944  13.622   7.055  0.00  0.00     0.190 C 
BRANCH  20  21
HETATM   21  O   UNK N   1      32.290  13.732   8.281  0.00  0.00    -0.399 OA
HETATM   22  H   UNK N   1      32.286  12.992   8.908  0.00  0.00     0.209 HD
ENDBRANCH  20  21
ENDBRANCH  19  20
ENDBRANCH  18  19
ENDBRANCH  17  18
ENDBRANCH  16  17
ENDBRANCH  15  16
ENDBRANCH  14  15
ENDBRANCH  13  14
ENDBRANCH  12  13
ENDBRANCH   1  12
TORSDOF 19
ENDMDL
MODEL 8
REMARK VINA RESULT:      -4.0      2.669      4.057
REMARK  19 active torsions:
REMARK  status: ('A' for Active; 'I' for Inactive)
REMARK    1  A    between atoms: C_2  and  C_3 
REMARK    2  A    between atoms: C_3  and  C_4 
REMARK    3  A    between atoms: C_4  and  C_5 
REMARK    4  A    between atoms: C_5  and  C_6 
REMARK    5  A    between atoms: C_6  and  C_7 
REMARK    6  A    between atoms: C_7  and  C_8 
REMARK    7  A    between atoms: C_8  and  O_9 
REMARK    8  A    between atoms: O_9  and  C_10 
REMARK    9  A    between atoms: C_10  and  C_11 
REMARK   10  A    between atoms: C_11  and  O_12 
REMARK   11  A    between atoms: O_12  and  C_13 
REMARK   12  A    between atoms: C_13  and  C_14 
REMARK   13  A    between atoms: C_14  and  O_15 
REMARK   14  A    between atoms: O_15  and  C_16 
REMARK   15  A    between atoms: C_16  and  C_17 
REMARK   16  A    between atoms: C_17  and  O_18 
REMARK   17  A    between atoms: O_18  and  C_19 
REMARK   18  A    between atoms: C_19  and  C_20 
REMARK   19  A    between atoms: C_20  and  O_21 
ROOT
HETATM    1  C   UNK N   1      33.704  15.085   9.700  0.00  0.00     0.193 C 
ENDROOT
BRANCH   1   2
HETATM    2  C   UNK N   1      34.540  13.968  10.298  0.00  0.00     0.193 C 
BRANCH   2   3
HETATM    3  O   UNK N   1      34.783  14.243  11.645  0.00  0.00    -0.389 OA
BRANCH   3   4
HETATM    4  C   UNK N   1      35.428  13.114  12.147  0.00  0.00     0.167 C 
BRANCH   4   5
HETATM    5  C   UNK N   1      35.311  13.113  13.659  0.00  0.00     0.026 C 
BRANCH   5   6
HETATM    6  C   UNK N   1      36.371  14.014  14.255  0.00  0.00     0.002 C 
BRANCH   6   7
HETATM    7  C   UNK N   1      36.544  13.692  15.725  0.00  0.00     0.000 C 
BRANCH   7   8
HETATM    8  C   UNK N   1      35.183  13.449  16.339  0.00  0.00     0.000 C 
BRANCH   8   9
HETATM    9  C   UNK N   1      35.265  12.335  17.362  0.00  0.00    -0.000 C 
BRANCH   9  10
HETATM   10  C   UNK N   1      35.157  12.930  18.750  0.00  0.00    -0.005 C 
HETATM   11  C   UNK N   1      35.530  11.888  19.783  0.00  0.00     0.005 C 
ENDBRANCH   9  10
ENDBRANCH   8   9
ENDBRANCH   7   8
ENDBRANCH   6   7
ENDBRANCH   5   6
ENDBRANCH   4   5
ENDBRANCH   3   4
ENDBRANCH   2   3
ENDBRANCH   1   2
BRANCH   1  12
HETATM   12  O   UNK N   1      34.486  16.232   9.550  0.00  0.00    -0.387 OA
BRANCH  12  13
HETATM   13  C   UNK N   1      34.247  16.669   8.246  0.00  0.00     0.193 C 
BRANCH  13  14
HETATM   14  C   UNK N   1      33.690  18.084   8.273  0.00  0.00     0.193 C 
BRANCH  14  15
HETATM   15  O   UNK N   1      32.303  18.062   8.110  0.00  0.00    -0.387 OA
BRANCH  15  16
HETATM   16  C   UNK N   1      32.072  17.167   7.061  0.00  0.00     0.193 C 
BRANCH  16  17
HETATM   17  C   UNK N   1      30.578  16.996   6.834  0.00  0.00     0.193 C 
BRANCH  17  18
HETATM   18  O   UNK N   1      29.894  18.030   7.477  0.00  0.00    -0.387 OA
BRANCH  18  19
HETATM   19  C   UNK N   1      28.865  17.408   8.186  0.00  0.00     0.193 C 
BRANCH  19  20
HETATM   20  C   UNK N   1      28.770  18.023   9.569  0.00  0.00     0.190 C 
BRANCH  20  21
HETATM   21  O   UNK N   1      30.037  18.408  10.003  0.00  0.00    -0.399 OA
HETATM   22  H   UNK N   1      30.815  17.868   9.797  0.00  0.00     0.209 HD
ENDBRANCH  20  21
ENDBRANCH  19  20
ENDBRANCH  18  19
ENDBRANCH  17  18
ENDBRANCH  16  17
ENDBRANCH  15  16
ENDBRANCH  14  15
ENDBRANCH  13  14
ENDBRANCH  12  13
ENDBRANCH   1  12
TORSDOF 19
ENDMDL
MODEL 9
REMARK VINA RESULT:      -3.9      4.033      9.645
REMARK  19 active torsions:
REMARK  status: ('A' for Active; 'I' for Inactive)
REMARK    1  A    between atoms: C_2  and  C_3 
REMARK    2  A    between atoms: C_3  and  C_4 
REMARK    3  A    between atoms: C_4  and  C_5 
REMARK    4  A    between atoms: C_5  and  C_6 
REMARK    5  A    between atoms: C_6  and  C_7 
REMARK    6  A    between atoms: C_7  and  C_8 
REMARK    7  A    between atoms: C_8  and  O_9 
REMARK    8  A    between atoms: O_9  and  C_10 
REMARK    9  A    between atoms: C_10  and  C_11 
REMARK   10  A    between atoms: C_11  and  O_12 
REMARK   11  A    between atoms: O_12  and  C_13 
REMARK   12  A    between atoms: C_13  and  C_14 
REMARK   13  A    between atoms: C_14  and  O_15 
REMARK   14  A    between atoms: O_15  and  C_16 
REMARK   15  A    between atoms: C_16  and  C_17 
REMARK   16  A    between atoms: C_17  and  O_18 
REMARK   17  A    between atoms: O_18  and  C_19 
REMARK   18  A    between atoms: C_19  and  C_20 
REMARK   19  A    between atoms: C_20  and  O_21 
ROOT
HETATM    1  C   UNK N   1      33.898  17.743   7.535  0.00  0.00     0.193 C 
ENDROOT
BRANCH   1   2
HETATM    2  C   UNK N   1      32.429  17.423   7.332  0.00  0.00     0.193 C 
BRANCH   2   3
HETATM    3  O   UNK N   1      31.672  18.099   8.290  0.00  0.00    -0.389 OA
BRANCH   3   4
HETATM    4  C   UNK N   1      30.397  17.538   8.225  0.00  0.00     0.167 C 
BRANCH   4   5
HETATM    5  C   UNK N   1      30.369  16.513   7.108  0.00  0.00     0.026 C 
BRANCH   5   6
HETATM    6  C   UNK N   1      29.084  16.650   6.320  0.00  0.00     0.002 C 
BRANCH   6   7
HETATM    7  C   UNK N   1      29.119  17.930   5.509  0.00  0.00     0.000 C 
BRANCH   7   8
HETATM    8  C   UNK N   1      27.750  18.575   5.551  0.00  0.00     0.000 C 
BRANCH   8   9
HETATM    9  C   UNK N   1      27.428  19.199   4.209  0.00  0.00    -0.000 C 
BRANCH   9  10
HETATM   10  C   UNK N   1      26.864  20.586   4.432  0.00  0.00    -0.005 C 
HETATM   11  C   UNK N   1      27.224  21.066   5.822  0.00  0.00     0.005 C 
ENDBRANCH   9  10
ENDBRANCH   8   9
ENDBRANCH   7   8
ENDBRANCH   6   7
ENDBRANCH   5   6
ENDBRANCH   4   5
ENDBRANCH   3   4
ENDBRANCH   2   3
ENDBRANCH   1   2
BRANCH   1  12
HETATM   12  O   UNK N   1      34.615  17.426   6.379  0.00  0.00    -0.387 OA
BRANCH  12  13
HETATM   13  C   UNK N   1      34.015  16.265   5.886  0.00  0.00     0.193 C 
BRANCH  13  14
HETATM   14  C   UNK N   1      35.089  15.277   5.457  0.00  0.00     0.193 C 
BRANCH  14  15
HETATM   15  O   UNK N   1      35.746  14.760   6.576  0.00  0.00    -0.387 OA
BRANCH  15  16
HETATM   16  C   UNK N   1      34.833  13.875   7.160  0.00  0.00     0.193 C 
BRANCH  16  17
HETATM   17  C   UNK N   1      35.106  13.746   8.650  0.00  0.00     0.193 C 
BRANCH  17  18
HETATM   18  O   UNK N   1      35.984  14.758   9.047  0.00  0.00    -0.387 OA
BRANCH  18  19
HETATM   19  C   UNK N   1      35.335  15.422  10.089  0.00  0.00     0.193 C 
BRANCH  19  20
HETATM   20  C   UNK N   1      34.497  14.426  10.868  0.00  0.00     0.190 C 
BRANCH  20  21
HETATM   21  O   UNK N   1      33.273  15.003  11.205  0.00  0.00    -0.399 OA
HETATM   22  H   UNK N   1      32.443  14.634  10.866  0.00  0.00     0.209 HD
ENDBRANCH  20  21
ENDBRANCH  19  20
ENDBRANCH  18  19
ENDBRANCH  17  18
ENDBRANCH  16  17
ENDBRANCH  15  16
ENDBRANCH  14  15
ENDBRANCH  13  14
ENDBRANCH  12  13
ENDBRANCH   1  12
TORSDOF 19
ENDMDL
