MODEL 1
REMARK VINA RESULT:      -8.4      0.000      0.000
REMARK  12 active torsions:
REMARK  status: ('A' for Active; 'I' for Inactive)
REMARK       I    between atoms: C_2  and  N_3 
REMARK    1  A    between atoms: C_10  and  C_14 
REMARK    2  A    between atoms: C_14  and  N_15 
REMARK    3  A    between atoms: N_15  and  C_19 
REMARK    4  A    between atoms: N_15  and  C_34 
REMARK    5  A    between atoms: C_16  and  C_22 
REMARK       I    between atoms: C_22  and  N_24 
REMARK    6  A    between atoms: C_25  and  N_24 
REMARK    7  A    between atoms: C_25  and  C_26 
REMARK    8  A    between atoms: C_25  and  C_31 
REMARK    9  A    between atoms: C_26  and  C_27 
REMARK   10  A    between atoms: C_27  and  C_28 
REMARK   11  A    between atoms: C_28  and  O_30 
REMARK   12  A    between atoms: C_31  and  O_33 
ROOT
HETATM    1  C   UNK N   1      27.418  21.228   5.967  0.00  0.00     0.216 C 
HETATM    2  C   UNK N   1      26.477  21.451   7.072  0.00  0.00    -0.098 C 
HETATM    3  C   UNK N   1      25.678  21.710   7.934  0.00  0.00     0.014 C 
ENDROOT
BRANCH   1   4
HETATM    4  N   UNK N   1      27.181  19.965   5.304  0.00  0.00    -0.366 N 
BRANCH   4   5
HETATM    5  C   UNK N   1      26.498  19.942   4.009  0.00  0.00     0.162 C 
BRANCH   5   6
HETATM    6  C   UNK N   1      25.107  19.452   4.082  0.00  0.00    -0.039 A 
HETATM    7  C   UNK N   1      24.069  20.182   3.497  0.00  0.00     0.028 A 
HETATM    8  C   UNK N   1      22.783  19.630   3.452  0.00  0.00     0.060 A 
HETATM    9  C   UNK N   1      21.709  20.279   2.833  0.00  0.00     0.272 A 
HETATM   10  C   UNK N   1      22.558  18.348   4.001  0.00  0.00     0.065 A 
HETATM   11  N   UNK N   1      20.512  19.625   2.702  0.00  0.00    -0.156 N 
HETATM   12  O   UNK N   1      21.836  21.405   2.380  0.00  0.00    -0.267 OA
HETATM   13  C   UNK N   1      20.347  18.362   3.186  0.00  0.00     0.679 A 
ATOM     14  HN  UNK N   1      19.734  20.091   2.236  1.00  0.00     0.187 HD
HETATM   15  N   UNK N   1      21.355  17.750   3.854  0.00  0.00    -0.191 N 
HETATM   16  N   UNK N   1      19.149  17.668   2.943  0.00  0.00    -0.234 N 
HETATM   17  H   UNK N   1      21.207  16.855   4.237  0.00  0.00     0.184 HD
HETATM   18  H   UNK N   1      18.294  18.152   2.879  0.00  0.00     0.174 HD
HETATM   19  H   UNK N   1      19.165  16.689   2.836  0.00  0.00     0.174 HD
HETATM   20  C   UNK N   1      23.581  17.674   4.655  0.00  0.00     0.032 A 
HETATM   21  C   UNK N   1      24.850  18.228   4.701  0.00  0.00     0.011 A 
ENDBRANCH   5   6
ENDBRANCH   4   5
BRANCH   4  22
HETATM   22  C   UNK N   1      28.089  18.894   5.542  0.00  0.00     0.031 A 
HETATM   23  C   UNK N   1      28.520  18.563   6.843  0.00  0.00     0.030 A 
HETATM   24  C   UNK N   1      29.584  17.672   7.019  0.00  0.00     0.019 A 
HETATM   25  C   UNK N   1      30.203  17.108   5.895  0.00  0.00     0.032 A 
HETATM   26  C   UNK N   1      29.758  17.414   4.618  0.00  0.00     0.019 A 
HETATM   27  C   UNK N   1      28.696  18.269   4.443  0.00  0.00     0.030 A 
BRANCH  25  28
HETATM   28  C   UNK N   1      31.536  16.575   6.015  0.00  0.00     0.252 C 
HETATM   29  O   UNK N   1      32.275  16.503   5.045  0.00  0.00    -0.268 OA
HETATM   30  N   UNK N   1      31.865  16.046   7.226  0.00  0.00    -0.343 N 
HETATM   31  H   UNK N   1      31.229  16.212   7.958  0.00  0.00     0.163 HD
BRANCH  30  32
HETATM   32  C   UNK N   1      33.035  15.269   7.563  0.00  0.00     0.183 C 
BRANCH  32  33
HETATM   33  C   UNK N   1      33.851  15.919   8.701  0.00  0.00     0.046 C 
BRANCH  33  34
HETATM   34  C   UNK N   1      33.638  17.413   8.898  0.00  0.00     0.112 C 
BRANCH  34  35
HETATM   35  C   UNK N   1      34.516  18.229   8.018  0.00  0.00     0.139 C 
HETATM   36  O   UNK N   1      35.247  19.082   8.494  0.00  0.00    -0.650 OA
BRANCH  35  37
HETATM   37  O   UNK N   1      34.470  18.051   6.686  0.00  0.00    -0.776 OA
HETATM   38  H   UNK N   1      33.946  18.618   6.154  0.00  0.00     0.167 HD
ENDBRANCH  35  37
ENDBRANCH  34  35
ENDBRANCH  33  34
ENDBRANCH  32  33
BRANCH  32  39
HETATM   39  C   UNK N   1      32.715  13.816   7.776  0.00  0.00     0.163 C 
HETATM   40  O   UNK N   1      32.541  13.397   8.908  0.00  0.00    -0.648 OA
BRANCH  39  41
HETATM   41  O   UNK N   1      32.694  12.956   6.739  0.00  0.00    -0.775 OA
HETATM   42  H   UNK N   1      33.184  12.346   6.225  0.00  0.00     0.167 HD
ENDBRANCH  39  41
ENDBRANCH  32  39
ENDBRANCH  30  32
ENDBRANCH  25  28
ENDBRANCH   4  22
ENDBRANCH   1   4
TORSDOF 12
ENDMDL
MODEL 2
REMARK VINA RESULT:      -8.4      1.123      1.406
REMARK  12 active torsions:
REMARK  status: ('A' for Active; 'I' for Inactive)
REMARK       I    between atoms: C_2  and  N_3 
REMARK    1  A    between atoms: C_10  and  C_14 
REMARK    2  A    between atoms: C_14  and  N_15 
REMARK    3  A    between atoms: N_15  and  C_19 
REMARK    4  A    between atoms: N_15  and  C_34 
REMARK    5  A    between atoms: C_16  and  C_22 
REMARK       I    between atoms: C_22  and  N_24 
REMARK    6  A    between atoms: C_25  and  N_24 
REMARK    7  A    between atoms: C_25  and  C_26 
REMARK    8  A    between atoms: C_25  and  C_31 
REMARK    9  A    between atoms: C_26  and  C_27 
REMARK   10  A    between atoms: C_27  and  C_28 
REMARK   11  A    between atoms: C_28  and  O_30 
REMARK   12  A    between atoms: C_31  and  O_33 
ROOT
HETATM    1  C   UNK N   1      27.853  20.536   5.385  0.00  0.00     0.216 C 
HETATM    2  C   UNK N   1      26.898  21.166   6.305  0.00  0.00    -0.098 C 
HETATM    3  C   UNK N   1      26.107  21.751   7.000  0.00  0.00     0.014 C 
ENDROOT
BRANCH   1   4
HETATM    4  N   UNK N   1      27.406  19.229   4.956  0.00  0.00    -0.366 N 
BRANCH   4   5
HETATM    5  C   UNK N   1      26.746  19.077   3.658  0.00  0.00     0.162 C 
BRANCH   5   6
HETATM    6  C   UNK N   1      25.301  18.788   3.759  0.00  0.00    -0.039 A 
HETATM    7  C   UNK N   1      24.360  19.774   3.450  0.00  0.00     0.028 A 
HETATM    8  C   UNK N   1      23.002  19.436   3.412  0.00  0.00     0.060 A 
HETATM    9  C   UNK N   1      22.010  20.357   3.056  0.00  0.00     0.272 A 
HETATM   10  C   UNK N   1      22.607  18.110   3.691  0.00  0.00     0.065 A 
HETATM   11  N   UNK N   1      20.717  19.929   2.904  0.00  0.00    -0.156 N 
HETATM   12  O   UNK N   1      22.288  21.527   2.845  0.00  0.00    -0.267 OA
HETATM   13  C   UNK N   1      20.381  18.626   3.118  0.00  0.00     0.679 A 
ATOM     14  HN  UNK N   1      19.997  20.596   2.628  1.00  0.00     0.187 HD
HETATM   15  N   UNK N   1      21.316  17.740   3.537  0.00  0.00    -0.191 N 
HETATM   16  N   UNK N   1      19.074  18.185   2.849  0.00  0.00    -0.234 N 
HETATM   17  H   UNK N   1      21.050  16.811   3.730  0.00  0.00     0.184 HD
HETATM   18  H   UNK N   1      18.305  18.788   2.975  0.00  0.00     0.174 HD
HETATM   19  H   UNK N   1      18.924  17.264   2.532  0.00  0.00     0.174 HD
HETATM   20  C   UNK N   1      23.547  17.164   4.082  0.00  0.00     0.032 A 
HETATM   21  C   UNK N   1      24.889  17.505   4.122  0.00  0.00     0.011 A 
ENDBRANCH   5   6
ENDBRANCH   4   5
BRANCH   4  22
HETATM   22  C   UNK N   1      28.109  18.085   5.429  0.00  0.00     0.031 A 
HETATM   23  C   UNK N   1      28.385  17.898   6.799  0.00  0.00     0.030 A 
HETATM   24  C   UNK N   1      29.275  16.896   7.200  0.00  0.00     0.019 A 
HETATM   25  C   UNK N   1      29.875  16.079   6.231  0.00  0.00     0.032 A 
HETATM   26  C   UNK N   1      29.579  16.246   4.888  0.00  0.00     0.019 A 
HETATM   27  C   UNK N   1      28.684  17.213   4.493  0.00  0.00     0.030 A 
BRANCH  25  28
HETATM   28  C   UNK N   1      31.092  15.378   6.553  0.00  0.00     0.252 C 
HETATM   29  O   UNK N   1      31.367  14.317   6.016  0.00  0.00    -0.268 OA
HETATM   30  N   UNK N   1      31.834  15.898   7.569  0.00  0.00    -0.343 N 
HETATM   31  H   UNK N   1      31.564  16.788   7.891  0.00  0.00     0.163 HD
BRANCH  30  32
HETATM   32  C   UNK N   1      32.970  15.298   8.231  0.00  0.00     0.183 C 
BRANCH  32  33
HETATM   33  C   UNK N   1      34.303  15.920   7.767  0.00  0.00     0.046 C 
BRANCH  33  34
HETATM   34  C   UNK N   1      34.283  17.423   7.522  0.00  0.00     0.112 C 
BRANCH  34  35
HETATM   35  C   UNK N   1      34.930  18.183   8.623  0.00  0.00     0.139 C 
HETATM   36  O   UNK N   1      35.244  19.351   8.467  0.00  0.00    -0.650 OA
BRANCH  35  37
HETATM   37  O   UNK N   1      35.206  17.563   9.785  0.00  0.00    -0.776 OA
HETATM   38  H   UNK N   1      34.511  17.205  10.302  0.00  0.00     0.167 HD
ENDBRANCH  35  37
ENDBRANCH  34  35
ENDBRANCH  33  34
ENDBRANCH  32  33
BRANCH  32  39
HETATM   39  C   UNK N   1      32.796  15.239   9.724  0.00  0.00     0.163 C 
HETATM   40  O   UNK N   1      33.769  15.062  10.437  0.00  0.00    -0.648 OA
BRANCH  39  41
HETATM   41  O   UNK N   1      31.569  15.302  10.277  0.00  0.00    -0.775 OA
HETATM   42  H   UNK N   1      31.069  15.244  11.067  0.00  0.00     0.167 HD
ENDBRANCH  39  41
ENDBRANCH  32  39
ENDBRANCH  30  32
ENDBRANCH  25  28
ENDBRANCH   4  22
ENDBRANCH   1   4
TORSDOF 12
ENDMDL
MODEL 3
REMARK VINA RESULT:      -8.3      1.651      2.658
REMARK  12 active torsions:
REMARK  status: ('A' for Active; 'I' for Inactive)
REMARK       I    between atoms: C_2  and  N_3 
REMARK    1  A    between atoms: C_10  and  C_14 
REMARK    2  A    between atoms: C_14  and  N_15 
REMARK    3  A    between atoms: N_15  and  C_19 
REMARK    4  A    between atoms: N_15  and  C_34 
REMARK    5  A    between atoms: C_16  and  C_22 
REMARK       I    between atoms: C_22  and  N_24 
REMARK    6  A    between atoms: C_25  and  N_24 
REMARK    7  A    between atoms: C_25  and  C_26 
REMARK    8  A    between atoms: C_25  and  C_31 
REMARK    9  A    between atoms: C_26  and  C_27 
REMARK   10  A    between atoms: C_27  and  C_28 
REMARK   11  A    between atoms: C_28  and  O_30 
REMARK   12  A    between atoms: C_31  and  O_33 
ROOT
HETATM    1  C   UNK N   1      26.907  20.085   4.368  0.00  0.00     0.216 C 
HETATM    2  C   UNK N   1      26.974  20.982   5.528  0.00  0.00    -0.098 C 
HETATM    3  C   UNK N   1      26.954  21.760   6.447  0.00  0.00     0.014 C 
ENDROOT
BRANCH   1   4
HETATM    4  N   UNK N   1      26.769  18.701   4.764  0.00  0.00    -0.366 N 
BRANCH   4   5
HETATM    5  C   UNK N   1      26.139  17.744   3.853  0.00  0.00     0.162 C 
BRANCH   5   6
HETATM    6  C   UNK N   1      24.665  17.831   3.830  0.00  0.00    -0.039 A 
HETATM    7  C   UNK N   1      24.033  19.038   3.518  0.00  0.00     0.028 A 
HETATM    8  C   UNK N   1      22.642  19.062   3.360  0.00  0.00     0.060 A 
HETATM    9  C   UNK N   1      21.949  20.221   2.993  0.00  0.00     0.272 A 
HETATM   10  C   UNK N   1      21.903  17.870   3.524  0.00  0.00     0.065 A 
HETATM   11  N   UNK N   1      20.608  20.146   2.721  0.00  0.00    -0.156 N 
HETATM   12  O   UNK N   1      22.530  21.289   2.880  0.00  0.00    -0.267 OA
HETATM   13  C   UNK N   1      19.937  18.965   2.825  0.00  0.00     0.679 A 
ATOM     14  HN  UNK N   1      20.105  20.987   2.437  1.00  0.00     0.187 HD
HETATM   15  N   UNK N   1      20.579  17.851   3.253  0.00  0.00    -0.191 N 
HETATM   16  N   UNK N   1      18.589  18.886   2.434  0.00  0.00    -0.234 N 
HETATM   17  H   UNK N   1      20.072  17.014   3.366  0.00  0.00     0.184 HD
HETATM   18  H   UNK N   1      17.990  19.660   2.543  0.00  0.00     0.174 HD
HETATM   19  H   UNK N   1      18.240  18.050   2.048  0.00  0.00     0.174 HD
HETATM   20  C   UNK N   1      22.537  16.699   3.919  0.00  0.00     0.032 A 
HETATM   21  C   UNK N   1      23.912  16.683   4.078  0.00  0.00     0.011 A 
ENDBRANCH   5   6
ENDBRANCH   4   5
BRANCH   4  22
HETATM   22  C   UNK N   1      27.727  18.156   5.666  0.00  0.00     0.031 A 
HETATM   23  C   UNK N   1      27.461  18.029   7.044  0.00  0.00     0.030 A 
HETATM   24  C   UNK N   1      28.500  17.717   7.928  0.00  0.00     0.019 A 
HETATM   25  C   UNK N   1      29.795  17.521   7.429  0.00  0.00     0.032 A 
HETATM   26  C   UNK N   1      30.047  17.619   6.069  0.00  0.00     0.019 A 
HETATM   27  C   UNK N   1      29.023  17.900   5.195  0.00  0.00     0.030 A 
BRANCH  25  28
HETATM   28  C   UNK N   1      30.922  17.652   8.316  0.00  0.00     0.252 C 
HETATM   29  O   UNK N   1      30.878  18.395   9.284  0.00  0.00    -0.268 OA
HETATM   30  N   UNK N   1      32.061  17.008   7.939  0.00  0.00    -0.343 N 
HETATM   31  H   UNK N   1      31.975  16.383   7.183  0.00  0.00     0.163 HD
BRANCH  30  32
HETATM   32  C   UNK N   1      33.380  17.132   8.516  0.00  0.00     0.183 C 
BRANCH  32  33
HETATM   33  C   UNK N   1      34.020  15.756   8.795  0.00  0.00     0.046 C 
BRANCH  33  34
HETATM   34  C   UNK N   1      34.652  15.586  10.170  0.00  0.00     0.112 C 
BRANCH  34  35
HETATM   35  C   UNK N   1      36.123  15.386  10.095  0.00  0.00     0.139 C 
HETATM   36  O   UNK N   1      36.598  14.578   9.314  0.00  0.00    -0.650 OA
BRANCH  35  37
HETATM   37  O   UNK N   1      36.929  16.072  10.925  0.00  0.00    -0.776 OA
HETATM   38  H   UNK N   1      37.837  15.846  10.989  0.00  0.00     0.167 HD
ENDBRANCH  35  37
ENDBRANCH  34  35
ENDBRANCH  33  34
ENDBRANCH  32  33
BRANCH  32  39
HETATM   39  C   UNK N   1      34.254  18.082   7.746  0.00  0.00     0.163 C 
HETATM   40  O   UNK N   1      34.438  17.899   6.554  0.00  0.00    -0.648 OA
BRANCH  39  41
HETATM   41  O   UNK N   1      34.897  19.088   8.371  0.00  0.00    -0.775 OA
HETATM   42  H   UNK N   1      35.513  19.321   9.036  0.00  0.00     0.167 HD
ENDBRANCH  39  41
ENDBRANCH  32  39
ENDBRANCH  30  32
ENDBRANCH  25  28
ENDBRANCH   4  22
ENDBRANCH   1   4
TORSDOF 12
ENDMDL
MODEL 4
REMARK VINA RESULT:      -7.8      2.770      3.922
REMARK  12 active torsions:
REMARK  status: ('A' for Active; 'I' for Inactive)
REMARK       I    between atoms: C_2  and  N_3 
REMARK    1  A    between atoms: C_10  and  C_14 
REMARK    2  A    between atoms: C_14  and  N_15 
REMARK    3  A    between atoms: N_15  and  C_19 
REMARK    4  A    between atoms: N_15  and  C_34 
REMARK    5  A    between atoms: C_16  and  C_22 
REMARK       I    between atoms: C_22  and  N_24 
REMARK    6  A    between atoms: C_25  and  N_24 
REMARK    7  A    between atoms: C_25  and  C_26 
REMARK    8  A    between atoms: C_25  and  C_31 
REMARK    9  A    between atoms: C_26  and  C_27 
REMARK   10  A    between atoms: C_27  and  C_28 
REMARK   11  A    between atoms: C_28  and  O_30 
REMARK   12  A    between atoms: C_31  and  O_33 
ROOT
HETATM    1  C   UNK N   1      26.820  19.646   4.210  0.00  0.00     0.216 C 
HETATM    2  C   UNK N   1      26.989  20.687   5.230  0.00  0.00    -0.098 C 
HETATM    3  C   UNK N   1      27.052  21.582   6.034  0.00  0.00     0.014 C 
ENDROOT
BRANCH   1   4
HETATM    4  N   UNK N   1      26.650  18.336   4.799  0.00  0.00    -0.366 N 
BRANCH   4   5
HETATM    5  C   UNK N   1      25.807  17.344   4.131  0.00  0.00     0.162 C 
BRANCH   5   6
HETATM    6  C   UNK N   1      24.489  17.158   4.772  0.00  0.00    -0.039 A 
HETATM    7  C   UNK N   1      24.232  16.022   5.544  0.00  0.00     0.028 A 
HETATM    8  C   UNK N   1      23.031  15.936   6.258  0.00  0.00     0.060 A 
HETATM    9  C   UNK N   1      22.732  14.856   7.096  0.00  0.00     0.272 A 
HETATM   10  C   UNK N   1      22.100  16.995   6.182  0.00  0.00     0.065 A 
HETATM   11  N   UNK N   1      21.604  14.897   7.872  0.00  0.00    -0.156 N 
HETATM   12  O   UNK N   1      23.480  13.893   7.168  0.00  0.00    -0.267 OA
HETATM   13  C   UNK N   1      20.759  15.965   7.823  0.00  0.00     0.679 A 
ATOM     14  HN  UNK N   1      21.394  14.118   8.495  1.00  0.00     0.187 HD
HETATM   15  N   UNK N   1      20.996  16.984   6.962  0.00  0.00    -0.191 N 
HETATM   16  N   UNK N   1      19.669  16.040   8.708  0.00  0.00    -0.234 N 
HETATM   17  H   UNK N   1      20.354  17.729   6.905  0.00  0.00     0.184 HD
HETATM   18  H   UNK N   1      19.210  15.221   9.007  0.00  0.00     0.174 HD
HETATM   19  H   UNK N   1      19.361  16.918   9.031  0.00  0.00     0.174 HD
HETATM   20  C   UNK N   1      22.332  18.077   5.342  0.00  0.00     0.032 A 
HETATM   21  C   UNK N   1      23.520  18.153   4.634  0.00  0.00     0.011 A 
ENDBRANCH   5   6
ENDBRANCH   4   5
BRANCH   4  22
HETATM   22  C   UNK N   1      27.704  17.812   5.600  0.00  0.00     0.031 A 
HETATM   23  C   UNK N   1      27.524  17.523   6.968  0.00  0.00     0.030 A 
HETATM   24  C   UNK N   1      28.633  17.239   7.772  0.00  0.00     0.019 A 
HETATM   25  C   UNK N   1      29.914  17.234   7.203  0.00  0.00     0.032 A 
HETATM   26  C   UNK N   1      30.085  17.491   5.852  0.00  0.00     0.019 A 
HETATM   27  C   UNK N   1      28.994  17.744   5.053  0.00  0.00     0.030 A 
BRANCH  25  28
HETATM   28  C   UNK N   1      31.065  17.398   8.052  0.00  0.00     0.252 C 
HETATM   29  O   UNK N   1      31.073  18.225   8.951  0.00  0.00    -0.268 OA
HETATM   30  N   UNK N   1      32.170  16.678   7.712  0.00  0.00    -0.343 N 
HETATM   31  H   UNK N   1      32.044  15.993   7.016  0.00  0.00     0.163 HD
BRANCH  30  32
HETATM   32  C   UNK N   1      33.506  16.801   8.249  0.00  0.00     0.183 C 
BRANCH  32  33
HETATM   33  C   UNK N   1      34.215  15.434   8.351  0.00  0.00     0.046 C 
BRANCH  33  34
HETATM   34  C   UNK N   1      35.276  15.318   9.436  0.00  0.00     0.112 C 
BRANCH  34  35
HETATM   35  C   UNK N   1      34.743  15.642  10.785  0.00  0.00     0.139 C 
HETATM   36  O   UNK N   1      35.262  16.513  11.463  0.00  0.00    -0.650 OA
BRANCH  35  37
HETATM   37  O   UNK N   1      33.705  14.940  11.274  0.00  0.00    -0.776 OA
HETATM   38  H   UNK N   1      33.064  15.363  11.812  0.00  0.00     0.167 HD
ENDBRANCH  35  37
ENDBRANCH  34  35
ENDBRANCH  33  34
ENDBRANCH  32  33
BRANCH  32  39
HETATM   39  C   UNK N   1      34.306  17.868   7.555  0.00  0.00     0.163 C 
HETATM   40  O   UNK N   1      34.529  17.772   6.359  0.00  0.00    -0.648 OA
BRANCH  39  41
HETATM   41  O   UNK N   1      34.843  18.889   8.251  0.00  0.00    -0.775 OA
HETATM   42  H   UNK N   1      34.784  19.422   9.019  0.00  0.00     0.167 HD
ENDBRANCH  39  41
ENDBRANCH  32  39
ENDBRANCH  30  32
ENDBRANCH  25  28
ENDBRANCH   4  22
ENDBRANCH   1   4
TORSDOF 12
ENDMDL
MODEL 5
REMARK VINA RESULT:      -7.8      2.831     10.857
REMARK  12 active torsions:
REMARK  status: ('A' for Active; 'I' for Inactive)
REMARK       I    between atoms: C_2  and  N_3 
REMARK    1  A    between atoms: C_10  and  C_14 
REMARK    2  A    between atoms: C_14  and  N_15 
REMARK    3  A    between atoms: N_15  and  C_19 
REMARK    4  A    between atoms: N_15  and  C_34 
REMARK    5  A    between atoms: C_16  and  C_22 
REMARK       I    between atoms: C_22  and  N_24 
REMARK    6  A    between atoms: C_25  and  N_24 
REMARK    7  A    between atoms: C_25  and  C_26 
REMARK    8  A    between atoms: C_25  and  C_31 
REMARK    9  A    between atoms: C_26  and  C_27 
REMARK   10  A    between atoms: C_27  and  C_28 
REMARK   11  A    between atoms: C_28  and  O_30 
REMARK   12  A    between atoms: C_31  and  O_33 
ROOT
HETATM    1  C   UNK N   1      27.524  15.388   4.175  0.00  0.00     0.216 C 
HETATM    2  C   UNK N   1      26.963  15.254   2.825  0.00  0.00    -0.098 C 
HETATM    3  C   UNK N   1      26.458  15.069   1.747  0.00  0.00     0.014 C 
ENDROOT
BRANCH   1   4
HETATM    4  N   UNK N   1      27.163  16.649   4.785  0.00  0.00    -0.366 N 
BRANCH   4   5
HETATM    5  C   UNK N   1      28.052  17.804   4.645  0.00  0.00     0.162 C 
BRANCH   5   6
HETATM    6  C   UNK N   1      29.350  17.638   5.330  0.00  0.00    -0.039 A 
HETATM    7  C   UNK N   1      29.406  17.526   6.722  0.00  0.00     0.028 A 
HETATM    8  C   UNK N   1      30.627  17.226   7.336  0.00  0.00     0.060 A 
HETATM    9  C   UNK N   1      30.746  17.043   8.719  0.00  0.00     0.272 A 
HETATM   10  C   UNK N   1      31.780  17.047   6.541  0.00  0.00     0.065 A 
HETATM   11  N   UNK N   1      31.939  16.616   9.241  0.00  0.00    -0.156 N 
HETATM   12  O   UNK N   1      29.793  17.227   9.459  0.00  0.00    -0.267 OA
HETATM   13  C   UNK N   1      33.015  16.389   8.437  0.00  0.00     0.679 A 
ATOM     14  HN  UNK N   1      32.021  16.466  10.247  1.00  0.00     0.187 HD
HETATM   15  N   UNK N   1      32.936  16.634   7.107  0.00  0.00    -0.191 N 
HETATM   16  N   UNK N   1      34.193  15.845   8.977  0.00  0.00    -0.234 N 
HETATM   17  H   UNK N   1      33.735  16.508   6.544  0.00  0.00     0.184 HD
HETATM   18  H   UNK N   1      34.462  16.051   9.902  0.00  0.00     0.174 HD
HETATM   19  H   UNK N   1      34.755  15.252   8.426  0.00  0.00     0.174 HD
HETATM   20  C   UNK N   1      31.725  17.248   5.168  0.00  0.00     0.032 A 
HETATM   21  C   UNK N   1      30.514  17.550   4.566  0.00  0.00     0.011 A 
ENDBRANCH   5   6
ENDBRANCH   4   5
BRANCH   4  22
HETATM   22  C   UNK N   1      25.781  16.949   4.951  0.00  0.00     0.031 A 
HETATM   23  C   UNK N   1      24.909  16.075   5.631  0.00  0.00     0.030 A 
HETATM   24  C   UNK N   1      23.526  16.283   5.569  0.00  0.00     0.019 A 
HETATM   25  C   UNK N   1      23.025  17.370   4.839  0.00  0.00     0.032 A 
HETATM   26  C   UNK N   1      23.887  18.244   4.196  0.00  0.00     0.019 A 
HETATM   27  C   UNK N   1      25.247  18.057   4.277  0.00  0.00     0.030 A 
BRANCH  25  28
HETATM   28  C   UNK N   1      21.657  17.348   4.389  0.00  0.00     0.252 C 
HETATM   29  O   UNK N   1      20.756  16.993   5.131  0.00  0.00    -0.268 OA
HETATM   30  N   UNK N   1      21.454  17.617   3.069  0.00  0.00    -0.343 N 
HETATM   31  H   UNK N   1      22.233  17.956   2.571  0.00  0.00     0.163 HD
BRANCH  30  32
HETATM   32  C   UNK N   1      20.233  17.462   2.312  0.00  0.00     0.183 C 
BRANCH  32  33
HETATM   33  C   UNK N   1      19.398  18.760   2.292  0.00  0.00     0.046 C 
BRANCH  33  34
HETATM   34  C   UNK N   1      20.171  20.048   2.542  0.00  0.00     0.112 C 
BRANCH  34  35
HETATM   35  C   UNK N   1      21.048  20.411   1.397  0.00  0.00     0.139 C 
HETATM   36  O   UNK N   1      22.228  20.661   1.577  0.00  0.00    -0.650 OA
BRANCH  35  37
HETATM   37  O   UNK N   1      20.522  20.503   0.162  0.00  0.00    -0.776 OA
HETATM   38  H   UNK N   1      20.893  20.009  -0.543  0.00  0.00     0.167 HD
ENDBRANCH  35  37
ENDBRANCH  34  35
ENDBRANCH  33  34
ENDBRANCH  32  33
BRANCH  32  39
HETATM   39  C   UNK N   1      20.473  16.854   0.958  0.00  0.00     0.163 C 
HETATM   40  O   UNK N   1      20.936  15.729   0.877  0.00  0.00    -0.648 OA
BRANCH  39  41
HETATM   41  O   UNK N   1      20.252  17.564  -0.165  0.00  0.00    -0.775 OA
HETATM   42  H   UNK N   1      19.934  18.368  -0.527  0.00  0.00     0.167 HD
ENDBRANCH  39  41
ENDBRANCH  32  39
ENDBRANCH  30  32
ENDBRANCH  25  28
ENDBRANCH   4  22
ENDBRANCH   1   4
TORSDOF 12
ENDMDL
MODEL 6
REMARK VINA RESULT:      -7.6      4.466      7.619
REMARK  12 active torsions:
REMARK  status: ('A' for Active; 'I' for Inactive)
REMARK       I    between atoms: C_2  and  N_3 
REMARK    1  A    between atoms: C_10  and  C_14 
REMARK    2  A    between atoms: C_14  and  N_15 
REMARK    3  A    between atoms: N_15  and  C_19 
REMARK    4  A    between atoms: N_15  and  C_34 
REMARK    5  A    between atoms: C_16  and  C_22 
REMARK       I    between atoms: C_22  and  N_24 
REMARK    6  A    between atoms: C_25  and  N_24 
REMARK    7  A    between atoms: C_25  and  C_26 
REMARK    8  A    between atoms: C_25  and  C_31 
REMARK    9  A    between atoms: C_26  and  C_27 
REMARK   10  A    between atoms: C_27  and  C_28 
REMARK   11  A    between atoms: C_28  and  O_30 
REMARK   12  A    between atoms: C_31  and  O_33 
ROOT
HETATM    1  C   UNK N   1      33.678  16.556   5.208  0.00  0.00     0.216 C 
HETATM    2  C   UNK N   1      33.904  15.258   4.562  0.00  0.00    -0.098 C 
HETATM    3  C   UNK N   1      34.179  14.201   4.053  0.00  0.00     0.014 C 
ENDROOT
BRANCH   1   4
HETATM    4  N   UNK N   1      32.742  16.456   6.306  0.00  0.00    -0.366 N 
BRANCH   4   5
HETATM    5  C   UNK N   1      31.446  15.808   6.099  0.00  0.00     0.162 C 
BRANCH   5   6
HETATM    6  C   UNK N   1      30.315  16.755   6.024  0.00  0.00    -0.039 A 
HETATM    7  C   UNK N   1      29.694  17.207   7.192  0.00  0.00     0.028 A 
HETATM    8  C   UNK N   1      28.723  18.212   7.106  0.00  0.00     0.060 A 
HETATM    9  C   UNK N   1      28.101  18.752   8.236  0.00  0.00     0.272 A 
HETATM   10  C   UNK N   1      28.386  18.747   5.843  0.00  0.00     0.065 A 
HETATM   11  N   UNK N   1      27.262  19.827   8.095  0.00  0.00    -0.156 N 
HETATM   12  O   UNK N   1      28.322  18.300   9.349  0.00  0.00    -0.267 OA
HETATM   13  C   UNK N   1      27.009  20.361   6.868  0.00  0.00     0.679 A 
ATOM     14  HN  UNK N   1      26.821  20.232   8.921  1.00  0.00     0.187 HD
HETATM   15  N   UNK N   1      27.544  19.801   5.756  0.00  0.00    -0.191 N 
HETATM   16  N   UNK N   1      26.236  21.530   6.756  0.00  0.00    -0.234 N 
HETATM   17  H   UNK N   1      27.318  20.170   4.872  0.00  0.00     0.184 HD
HETATM   18  H   UNK N   1      25.507  21.712   7.394  0.00  0.00     0.174 HD
HETATM   19  H   UNK N   1      26.425  22.173   6.034  0.00  0.00     0.174 HD
HETATM   20  C   UNK N   1      28.950  18.225   4.685  0.00  0.00     0.032 A 
HETATM   21  C   UNK N   1      29.906  17.228   4.777  0.00  0.00     0.011 A 
ENDBRANCH   5   6
ENDBRANCH   4   5
BRANCH   4  22
HETATM   22  C   UNK N   1      33.258  16.393   7.632  0.00  0.00     0.031 A 
HETATM   23  C   UNK N   1      33.996  17.456   8.191  0.00  0.00     0.030 A 
HETATM   24  C   UNK N   1      34.686  17.269   9.394  0.00  0.00     0.019 A 
HETATM   25  C   UNK N   1      34.624  16.024  10.037  0.00  0.00     0.032 A 
HETATM   26  C   UNK N   1      33.874  14.991   9.499  0.00  0.00     0.019 A 
HETATM   27  C   UNK N   1      33.174  15.180   8.331  0.00  0.00     0.030 A 
BRANCH  25  28
HETATM   28  C   UNK N   1      35.646  15.668  10.987  0.00  0.00     0.252 C 
HETATM   29  O   UNK N   1      36.762  16.161  10.925  0.00  0.00    -0.268 OA
HETATM   30  N   UNK N   1      35.336  14.668  11.857  0.00  0.00    -0.343 N 
HETATM   31  H   UNK N   1      34.393  14.383  11.871  0.00  0.00     0.163 HD
BRANCH  30  32
HETATM   32  C   UNK N   1      36.224  13.975  12.762  0.00  0.00     0.183 C 
BRANCH  32  33
HETATM   33  C   UNK N   1      35.476  13.422  13.994  0.00  0.00     0.046 C 
BRANCH  33  34
HETATM   34  C   UNK N   1      36.157  13.649  15.337  0.00  0.00     0.112 C 
BRANCH  34  35
HETATM   35  C   UNK N   1      35.393  13.053  16.465  0.00  0.00     0.139 C 
HETATM   36  O   UNK N   1      35.231  13.677  17.500  0.00  0.00    -0.650 OA
BRANCH  35  37
HETATM   37  O   UNK N   1      34.913  11.801  16.353  0.00  0.00    -0.776 OA
HETATM   38  H   UNK N   1      34.927  11.366  15.523  0.00  0.00     0.167 HD
ENDBRANCH  35  37
ENDBRANCH  34  35
ENDBRANCH  33  34
ENDBRANCH  32  33
BRANCH  32  39
HETATM   39  C   UNK N   1      37.091  12.970  12.056  0.00  0.00     0.163 C 
HETATM   40  O   UNK N   1      36.865  11.779  12.191  0.00  0.00    -0.648 OA
BRANCH  39  41
HETATM   41  O   UNK N   1      38.159  13.367  11.336  0.00  0.00    -0.775 OA
HETATM   42  H   UNK N   1      38.461  13.716  10.521  0.00  0.00     0.167 HD
ENDBRANCH  39  41
ENDBRANCH  32  39
ENDBRANCH  30  32
ENDBRANCH  25  28
ENDBRANCH   4  22
ENDBRANCH   1   4
TORSDOF 12
ENDMDL
MODEL 7
REMARK VINA RESULT:      -7.6      4.830      8.158
REMARK  12 active torsions:
REMARK  status: ('A' for Active; 'I' for Inactive)
REMARK       I    between atoms: C_2  and  N_3 
REMARK    1  A    between atoms: C_10  and  C_14 
REMARK    2  A    between atoms: C_14  and  N_15 
REMARK    3  A    between atoms: N_15  and  C_19 
REMARK    4  A    between atoms: N_15  and  C_34 
REMARK    5  A    between atoms: C_16  and  C_22 
REMARK       I    between atoms: C_22  and  N_24 
REMARK    6  A    between atoms: C_25  and  N_24 
REMARK    7  A    between atoms: C_25  and  C_26 
REMARK    8  A    between atoms: C_25  and  C_31 
REMARK    9  A    between atoms: C_26  and  C_27 
REMARK   10  A    between atoms: C_27  and  C_28 
REMARK   11  A    between atoms: C_28  and  O_30 
REMARK   12  A    between atoms: C_31  and  O_33 
ROOT
HETATM    1  C   UNK N   1      34.081  17.006   6.861  0.00  0.00     0.216 C 
HETATM    2  C   UNK N   1      34.308  15.962   5.854  0.00  0.00    -0.098 C 
HETATM    3  C   UNK N   1      34.584  15.112   5.047  0.00  0.00     0.014 C 
ENDROOT
BRANCH   1   4
HETATM    4  N   UNK N   1      33.215  16.548   7.926  0.00  0.00    -0.366 N 
BRANCH   4   5
HETATM    5  C   UNK N   1      31.961  15.868   7.600  0.00  0.00     0.162 C 
BRANCH   5   6
HETATM    6  C   UNK N   1      30.842  16.791   7.319  0.00  0.00    -0.039 A 
HETATM    7  C   UNK N   1      30.285  16.856   6.039  0.00  0.00     0.028 A 
HETATM    8  C   UNK N   1      29.135  17.628   5.831  0.00  0.00     0.060 A 
HETATM    9  C   UNK N   1      28.491  17.694   4.591  0.00  0.00     0.272 A 
HETATM   10  C   UNK N   1      28.565  18.330   6.915  0.00  0.00     0.065 A 
HETATM   11  N   UNK N   1      27.295  18.356   4.488  0.00  0.00    -0.156 N 
HETATM   12  O   UNK N   1      28.963  17.142   3.609  0.00  0.00    -0.267 OA
HETATM   13  C   UNK N   1      26.738  18.968   5.570  0.00  0.00     0.679 A 
ATOM     14  HN  UNK N   1      26.816  18.391   3.588  1.00  0.00     0.187 HD
HETATM   15  N   UNK N   1      27.388  18.977   6.759  0.00  0.00    -0.191 N 
HETATM   16  N   UNK N   1      25.460  19.545   5.470  0.00  0.00    -0.234 N 
HETATM   17  H   UNK N   1      26.995  19.461   7.521  0.00  0.00     0.184 HD
HETATM   18  H   UNK N   1      25.156  19.946   4.624  0.00  0.00     0.174 HD
HETATM   19  H   UNK N   1      24.862  19.547   6.254  0.00  0.00     0.174 HD
HETATM   20  C   UNK N   1      29.182  18.324   8.159  0.00  0.00     0.032 A 
HETATM   21  C   UNK N   1      30.321  17.562   8.357  0.00  0.00     0.011 A 
ENDBRANCH   5   6
ENDBRANCH   4   5
BRANCH   4  22
HETATM   22  C   UNK N   1      33.806  16.192   9.171  0.00  0.00     0.031 A 
HETATM   23  C   UNK N   1      34.948  16.853   9.666  0.00  0.00     0.030 A 
HETATM   24  C   UNK N   1      35.637  16.325  10.765  0.00  0.00     0.019 A 
HETATM   25  C   UNK N   1      35.173  15.148  11.369  0.00  0.00     0.032 A 
HETATM   26  C   UNK N   1      34.032  14.518  10.897  0.00  0.00     0.019 A 
HETATM   27  C   UNK N   1      33.339  15.048   9.834  0.00  0.00     0.030 A 
BRANCH  25  28
HETATM   28  C   UNK N   1      36.076  14.361  12.167  0.00  0.00     0.252 C 
HETATM   29  O   UNK N   1      37.041  13.807  11.665  0.00  0.00    -0.268 OA
HETATM   30  N   UNK N   1      35.716  14.167  13.466  0.00  0.00    -0.343 N 
HETATM   31  H   UNK N   1      34.960  14.707  13.792  0.00  0.00     0.163 HD
BRANCH  30  32
HETATM   32  C   UNK N   1      36.312  13.264  14.424  0.00  0.00     0.183 C 
BRANCH  32  33
HETATM   33  C   UNK N   1      36.384  13.884  15.835  0.00  0.00     0.046 C 
BRANCH  33  34
HETATM   34  C   UNK N   1      35.308  13.431  16.813  0.00  0.00     0.112 C 
BRANCH  34  35
HETATM   35  C   UNK N   1      35.433  14.096  18.137  0.00  0.00     0.139 C 
HETATM   36  O   UNK N   1      35.916  15.212  18.226  0.00  0.00    -0.650 OA
BRANCH  35  37
HETATM   37  O   UNK N   1      35.046  13.441  19.246  0.00  0.00    -0.776 OA
HETATM   38  H   UNK N   1      35.325  12.557  19.391  0.00  0.00     0.167 HD
ENDBRANCH  35  37
ENDBRANCH  34  35
ENDBRANCH  33  34
ENDBRANCH  32  33
BRANCH  32  39
HETATM   39  C   UNK N   1      35.697  11.892  14.376  0.00  0.00     0.163 C 
HETATM   40  O   UNK N   1      36.368  10.920  14.680  0.00  0.00    -0.648 OA
BRANCH  39  41
HETATM   41  O   UNK N   1      34.437  11.717  13.930  0.00  0.00    -0.775 OA
HETATM   42  H   UNK N   1      33.545  11.554  14.164  0.00  0.00     0.167 HD
ENDBRANCH  39  41
ENDBRANCH  32  39
ENDBRANCH  30  32
ENDBRANCH  25  28
ENDBRANCH   4  22
ENDBRANCH   1   4
TORSDOF 12
ENDMDL
MODEL 8
REMARK VINA RESULT:      -7.5      3.891      6.585
REMARK  12 active torsions:
REMARK  status: ('A' for Active; 'I' for Inactive)
REMARK       I    between atoms: C_2  and  N_3 
REMARK    1  A    between atoms: C_10  and  C_14 
REMARK    2  A    between atoms: C_14  and  N_15 
REMARK    3  A    between atoms: N_15  and  C_19 
REMARK    4  A    between atoms: N_15  and  C_34 
REMARK    5  A    between atoms: C_16  and  C_22 
REMARK       I    between atoms: C_22  and  N_24 
REMARK    6  A    between atoms: C_25  and  N_24 
REMARK    7  A    between atoms: C_25  and  C_26 
REMARK    8  A    between atoms: C_25  and  C_31 
REMARK    9  A    between atoms: C_26  and  C_27 
REMARK   10  A    between atoms: C_27  and  C_28 
REMARK   11  A    between atoms: C_28  and  O_30 
REMARK   12  A    between atoms: C_31  and  O_33 
ROOT
HETATM    1  C   UNK N   1      32.042  17.106   3.528  0.00  0.00     0.216 C 
HETATM    2  C   UNK N   1      32.900  16.014   3.055  0.00  0.00    -0.098 C 
HETATM    3  C   UNK N   1      33.670  15.180   2.650  0.00  0.00     0.014 C 
ENDROOT
BRANCH   1   4
HETATM    4  N   UNK N   1      31.643  16.920   4.906  0.00  0.00    -0.366 N 
BRANCH   4   5
HETATM    5  C   UNK N   1      30.267  16.533   5.218  0.00  0.00     0.162 C 
BRANCH   5   6
HETATM    6  C   UNK N   1      29.533  17.540   6.010  0.00  0.00    -0.039 A 
HETATM    7  C   UNK N   1      28.792  18.539   5.372  0.00  0.00     0.028 A 
HETATM    8  C   UNK N   1      27.990  19.393   6.139  0.00  0.00     0.060 A 
HETATM    9  C   UNK N   1      27.179  20.377   5.564  0.00  0.00     0.272 A 
HETATM   10  C   UNK N   1      27.948  19.233   7.542  0.00  0.00     0.065 A 
HETATM   11  N   UNK N   1      26.316  21.087   6.357  0.00  0.00    -0.156 N 
HETATM   12  O   UNK N   1      27.207  20.588   4.362  0.00  0.00    -0.267 OA
HETATM   13  C   UNK N   1      26.253  20.862   7.700  0.00  0.00     0.679 A 
ATOM     14  HN  UNK N   1      25.712  21.793   5.936  1.00  0.00     0.187 HD
HETATM   15  N   UNK N   1      27.086  19.965   8.282  0.00  0.00    -0.191 N 
HETATM   16  N   UNK N   1      25.283  21.519   8.477  0.00  0.00    -0.234 N 
HETATM   17  H   UNK N   1      27.061  19.845   9.259  0.00  0.00     0.184 HD
HETATM   18  H   UNK N   1      24.984  22.428   8.242  0.00  0.00     0.174 HD
HETATM   19  H   UNK N   1      24.900  21.067   9.264  0.00  0.00     0.174 HD
HETATM   20  C   UNK N   1      28.758  18.293   8.167  0.00  0.00     0.032 A 
HETATM   21  C   UNK N   1      29.552  17.455   7.403  0.00  0.00     0.011 A 
ENDBRANCH   5   6
ENDBRANCH   4   5
BRANCH   4  22
HETATM   22  C   UNK N   1      32.629  16.504   5.846  0.00  0.00     0.031 A 
HETATM   23  C   UNK N   1      32.532  15.274   6.527  0.00  0.00     0.030 A 
HETATM   24  C   UNK N   1      33.381  15.007   7.607  0.00  0.00     0.019 A 
HETATM   25  C   UNK N   1      34.330  15.965   7.991  0.00  0.00     0.032 A 
HETATM   26  C   UNK N   1      34.442  17.161   7.300  0.00  0.00     0.019 A 
HETATM   27  C   UNK N   1      33.627  17.416   6.223  0.00  0.00     0.030 A 
BRANCH  25  28
HETATM   28  C   UNK N   1      34.879  15.922   9.322  0.00  0.00     0.252 C 
HETATM   29  O   UNK N   1      34.877  16.913  10.036  0.00  0.00    -0.268 OA
HETATM   30  N   UNK N   1      35.506  14.766   9.676  0.00  0.00    -0.343 N 
HETATM   31  H   UNK N   1      35.395  14.007   9.060  0.00  0.00     0.163 HD
BRANCH  30  32
HETATM   32  C   UNK N   1      36.315  14.522  10.849  0.00  0.00     0.183 C 
BRANCH  32  33
HETATM   33  C   UNK N   1      35.581  13.643  11.884  0.00  0.00     0.046 C 
BRANCH  33  34
HETATM   34  C   UNK N   1      35.692  14.096  13.333  0.00  0.00     0.112 C 
BRANCH  34  35
HETATM   35  C   UNK N   1      36.253  13.038  14.214  0.00  0.00     0.139 C 
HETATM   36  O   UNK N   1      35.626  12.643  15.183  0.00  0.00    -0.650 OA
BRANCH  35  37
HETATM   37  O   UNK N   1      37.478  12.544  13.960  0.00  0.00    -0.776 OA
HETATM   38  H   UNK N   1      37.614  11.985  13.220  0.00  0.00     0.167 HD
ENDBRANCH  35  37
ENDBRANCH  34  35
ENDBRANCH  33  34
ENDBRANCH  32  33
BRANCH  32  39
HETATM   39  C   UNK N   1      37.699  14.051  10.501  0.00  0.00     0.163 C 
HETATM   40  O   UNK N   1      38.212  14.409   9.453  0.00  0.00    -0.648 OA
BRANCH  39  41
HETATM   41  O   UNK N   1      38.351  13.180  11.295  0.00  0.00    -0.775 OA
HETATM   42  H   UNK N   1      39.178  12.802  11.521  0.00  0.00     0.167 HD
ENDBRANCH  39  41
ENDBRANCH  32  39
ENDBRANCH  30  32
ENDBRANCH  25  28
ENDBRANCH   4  22
ENDBRANCH   1   4
TORSDOF 12
ENDMDL
MODEL 9
REMARK VINA RESULT:      -7.5      1.282      2.513
REMARK  12 active torsions:
REMARK  status: ('A' for Active; 'I' for Inactive)
REMARK       I    between atoms: C_2  and  N_3 
REMARK    1  A    between atoms: C_10  and  C_14 
REMARK    2  A    between atoms: C_14  and  N_15 
REMARK    3  A    between atoms: N_15  and  C_19 
REMARK    4  A    between atoms: N_15  and  C_34 
REMARK    5  A    between atoms: C_16  and  C_22 
REMARK       I    between atoms: C_22  and  N_24 
REMARK    6  A    between atoms: C_25  and  N_24 
REMARK    7  A    between atoms: C_25  and  C_26 
REMARK    8  A    between atoms: C_25  and  C_31 
REMARK    9  A    between atoms: C_26  and  C_27 
REMARK   10  A    between atoms: C_27  and  C_28 
REMARK   11  A    between atoms: C_28  and  O_30 
REMARK   12  A    between atoms: C_31  and  O_33 
ROOT
HETATM    1  C   UNK N   1      27.877  20.394   5.135  0.00  0.00     0.216 C 
HETATM    2  C   UNK N   1      27.056  21.217   6.031  0.00  0.00    -0.098 C 
HETATM    3  C   UNK N   1      26.353  21.939   6.693  0.00  0.00     0.014 C 
ENDROOT
BRANCH   1   4
HETATM    4  N   UNK N   1      27.530  18.992   5.223  0.00  0.00    -0.366 N 
BRANCH   4   5
HETATM    5  C   UNK N   1      26.989  18.304   4.050  0.00  0.00     0.162 C 
BRANCH   5   6
HETATM    6  C   UNK N   1      25.522  18.142   4.083  0.00  0.00    -0.039 A 
HETATM    7  C   UNK N   1      24.686  19.191   3.692  0.00  0.00     0.028 A 
HETATM    8  C   UNK N   1      23.307  18.969   3.593  0.00  0.00     0.060 A 
HETATM    9  C   UNK N   1      22.418  19.956   3.154  0.00  0.00     0.272 A 
HETATM   10  C   UNK N   1      22.786  17.692   3.895  0.00  0.00     0.065 A 
HETATM   11  N   UNK N   1      21.102  19.633   2.948  0.00  0.00    -0.156 N 
HETATM   12  O   UNK N   1      22.806  21.090   2.920  0.00  0.00    -0.267 OA
HETATM   13  C   UNK N   1      20.644  18.372   3.187  0.00  0.00     0.679 A 
ATOM     14  HN  UNK N   1      20.456  20.348   2.612  1.00  0.00     0.187 HD
HETATM   15  N   UNK N   1      21.477  17.426   3.684  0.00  0.00    -0.191 N 
HETATM   16  N   UNK N   1      19.319  18.033   2.863  0.00  0.00    -0.234 N 
HETATM   17  H   UNK N   1      21.123  16.532   3.893  0.00  0.00     0.184 HD
HETATM   18  H   UNK N   1      18.600  18.704   2.928  0.00  0.00     0.174 HD
HETATM   19  H   UNK N   1      19.107  17.117   2.569  0.00  0.00     0.174 HD
HETATM   20  C   UNK N   1      23.620  16.685   4.365  0.00  0.00     0.032 A 
HETATM   21  C   UNK N   1      24.982  16.913   4.465  0.00  0.00     0.011 A 
ENDBRANCH   5   6
ENDBRANCH   4   5
BRANCH   4  22
HETATM   22  C   UNK N   1      28.245  18.175   6.144  0.00  0.00     0.031 A 
HETATM   23  C   UNK N   1      28.471  18.581   7.475  0.00  0.00     0.030 A 
HETATM   24  C   UNK N   1      29.372  17.871   8.276  0.00  0.00     0.019 A 
HETATM   25  C   UNK N   1      30.032  16.753   7.747  0.00  0.00     0.032 A 
HETATM   26  C   UNK N   1      29.785  16.339   6.447  0.00  0.00     0.019 A 
HETATM   27  C   UNK N   1      28.881  17.020   5.666  0.00  0.00     0.030 A 
BRANCH  25  28
HETATM   28  C   UNK N   1      31.254  16.298   8.359  0.00  0.00     0.252 C 
HETATM   29  O   UNK N   1      31.250  15.791   9.470  0.00  0.00    -0.268 OA
HETATM   30  N   UNK N   1      32.404  16.584   7.690  0.00  0.00    -0.343 N 
HETATM   31  H   UNK N   1      32.298  16.933   6.775  0.00  0.00     0.163 HD
BRANCH  30  32
HETATM   32  C   UNK N   1      33.762  16.437   8.161  0.00  0.00     0.183 C 
BRANCH  32  33
HETATM   33  C   UNK N   1      34.565  15.434   7.305  0.00  0.00     0.046 C 
BRANCH  33  34
HETATM   34  C   UNK N   1      34.807  15.843   5.859  0.00  0.00     0.112 C 
BRANCH  34  35
HETATM   35  C   UNK N   1      33.539  16.046   5.109  0.00  0.00     0.139 C 
HETATM   36  O   UNK N   1      33.231  17.153   4.703  0.00  0.00    -0.650 OA
BRANCH  35  37
HETATM   37  O   UNK N   1      32.710  15.004   4.916  0.00  0.00    -0.776 OA
HETATM   38  H   UNK N   1      32.066  14.791   5.563  0.00  0.00     0.167 HD
ENDBRANCH  35  37
ENDBRANCH  34  35
ENDBRANCH  33  34
ENDBRANCH  32  33
BRANCH  32  39
HETATM   39  C   UNK N   1      34.442  17.762   8.370  0.00  0.00     0.163 C 
HETATM   40  O   UNK N   1      34.254  18.667   7.576  0.00  0.00    -0.648 OA
BRANCH  39  41
HETATM   41  O   UNK N   1      35.314  17.936   9.383  0.00  0.00    -0.775 OA
HETATM   42  H   UNK N   1      35.472  17.827  10.300  0.00  0.00     0.167 HD
ENDBRANCH  39  41
ENDBRANCH  32  39
ENDBRANCH  30  32
ENDBRANCH  25  28
ENDBRANCH   4  22
ENDBRANCH   1   4
TORSDOF 12
ENDMDL
