REMARK  12 active torsions:
REMARK  status: ('A' for Active; 'I' for Inactive)
REMARK       I    between atoms: C_2  and  N_3 
REMARK    1  A    between atoms: C_10  and  C_14 
REMARK    2  A    between atoms: C_14  and  N_15 
REMARK    3  A    between atoms: N_15  and  C_19 
REMARK    4  A    between atoms: N_15  and  C_34 
REMARK    5  A    between atoms: C_16  and  C_22 
REMARK       I    between atoms: C_22  and  N_24 
REMARK    6  A    between atoms: C_25  and  N_24 
REMARK    7  A    between atoms: C_25  and  C_26 
REMARK    8  A    between atoms: C_25  and  C_31 
REMARK    9  A    between atoms: C_26  and  C_27 
REMARK   10  A    between atoms: C_27  and  C_28 
REMARK   11  A    between atoms: C_28  and  O_30 
REMARK   12  A    between atoms: C_31  and  O_33 
ROOT
HETATM    1  C   UNK N   1      -1.361  -2.303   0.605  0.00  0.00     0.216 C 
HETATM    2  C   UNK N   1      -1.998  -3.147  -0.413  0.00  0.00    -0.098 C 
HETATM    3  C   UNK N   1      -2.583  -3.863  -1.185  0.00  0.00     0.014 C 
ENDROOT
BRANCH   1   4
HETATM    4  N   UNK N   1      -1.323  -0.913   0.206  0.00  0.00    -0.366 N 
BRANCH   4   5
HETATM    5  C   UNK N   1      -2.190   0.058   0.875  0.00  0.00     0.162 C 
BRANCH   5   6
HETATM    6  C   UNK N   1      -3.597  -0.379   0.981  0.00  0.00    -0.039 A 
HETATM    7  C   UNK N   1      -4.605   0.315   0.306  0.00  0.00     0.028 A 
HETATM    8  C   UNK N   1      -5.907  -0.200   0.303  0.00  0.00     0.060 A 
HETATM    9  C   UNK N   1      -6.953   0.410  -0.398  0.00  0.00     0.272 A 
HETATM   10  C   UNK N   1      -6.179  -1.406   0.985  0.00  0.00     0.065 A 
HETATM   11  N   UNK N   1      -8.169  -0.217  -0.474  0.00  0.00    -0.156 N 
HETATM   12  O   UNK N   1      -6.786   1.476  -0.970  0.00  0.00    -0.267 OA
HETATM   13  C   UNK N   1      -8.379  -1.414   0.142  0.00  0.00     0.679 A 
ATOM     14  HN  UNK N   1      -8.927   0.219  -0.999  1.00  0.00     0.187 HD
HETATM   15  N   UNK N   1      -7.399  -1.980   0.887  0.00  0.00    -0.191 N 
HETATM   16  N   UNK N   1      -9.596  -2.094  -0.041  0.00  0.00    -0.234 N 
HETATM   17  H   UNK N   1      -7.579  -2.823   1.363  0.00  0.00     0.184 HD
HETATM   18  H   UNK N   1     -10.435  -1.594  -0.169  0.00  0.00     0.174 HD
HETATM   19  H   UNK N   1      -9.610  -3.079  -0.041  0.00  0.00     0.174 HD
HETATM   20  C   UNK N   1      -5.185  -2.036   1.723  0.00  0.00     0.032 A 
HETATM   21  C   UNK N   1      -3.900  -1.519   1.726  0.00  0.00     0.011 A 
ENDBRANCH   5   6
ENDBRANCH   4   5
BRANCH   4  22
HETATM   22  C   UNK N   1      -0.107  -0.394  -0.323  0.00  0.00     0.031 A 
HETATM   23  C   UNK N   1       1.028  -1.209  -0.510  0.00  0.00     0.030 A 
HETATM   24  C   UNK N   1       2.265  -0.624  -0.803  0.00  0.00     0.019 A 
HETATM   25  C   UNK N   1       2.358   0.770  -0.919  0.00  0.00     0.032 A 
HETATM   26  C   UNK N   1       1.234   1.566  -0.763  0.00  0.00     0.019 A 
HETATM   27  C   UNK N   1       0.012   0.992  -0.501  0.00  0.00     0.030 A 
BRANCH  25  28
HETATM   28  C   UNK N   1       3.640   1.408  -0.766  0.00  0.00     0.252 C 
HETATM   29  O   UNK N   1       4.506   1.293  -1.619  0.00  0.00    -0.268 OA
HETATM   30  N   UNK N   1       3.866   2.024   0.427  0.00  0.00    -0.343 N 
HETATM   31  H   UNK N   1       3.086   2.120   1.020  0.00  0.00     0.163 HD
BRANCH  30  32
HETATM   32  C   UNK N   1       5.114   2.554   0.927  0.00  0.00     0.183 C 
BRANCH  32  33
HETATM   33  C   UNK N   1       6.146   1.440   1.201  0.00  0.00     0.046 C 
BRANCH  33  34
HETATM   34  C   UNK N   1       6.428   0.499   0.038  0.00  0.00     0.112 C 
BRANCH  34  35
HETATM   35  C   UNK N   1       7.800   0.671  -0.508  0.00  0.00     0.139 C 
HETATM   36  O   UNK N   1       8.161   1.751  -0.945  0.00  0.00    -0.650 OA
BRANCH  35  37
HETATM   37  O   UNK N   1       8.632  -0.385  -0.556  0.00  0.00    -0.776 OA
HETATM   38  H   UNK N   1       8.284  -1.255  -0.589  0.00  0.00     0.167 HD
ENDBRANCH  35  37
ENDBRANCH  34  35
ENDBRANCH  33  34
ENDBRANCH  32  33
BRANCH  32  39
HETATM   39  C   UNK N   1       5.630   3.690   0.088  0.00  0.00     0.163 C 
HETATM   40  O   UNK N   1       6.630   4.293   0.440  0.00  0.00    -0.648 OA
BRANCH  39  41
HETATM   41  O   UNK N   1       4.959   4.098  -1.007  0.00  0.00    -0.775 OA
HETATM   42  H   UNK N   1       4.972   4.644  -1.768  0.00  0.00     0.167 HD
ENDBRANCH  39  41
ENDBRANCH  32  39
ENDBRANCH  30  32
ENDBRANCH  25  28
ENDBRANCH   4  22
ENDBRANCH   1   4
TORSDOF 12
