REMARK  11 active torsions:
REMARK  status: ('A' for Active; 'I' for Inactive)
REMARK    1  A    between atoms: B_1  and  O_2 
REMARK    2  A    between atoms: B_1  and  O_3 
REMARK    3  A    between atoms: B_1  and  C_4 
REMARK    4  A    between atoms: C_4  and  N_5 
REMARK       I    between atoms: N_5  and  C_6 
REMARK    5  A    between atoms: C_6  and  C_8 
REMARK    6  A    between atoms: C_8  and  C_13 
REMARK    7  A    between atoms: N_9  and  O_11 
REMARK    8  A    between atoms: O_11  and  C_12 
REMARK    9  A    between atoms: C_12  and  C_22 
REMARK   10  A    between atoms: C_16  and  N_17 
REMARK   11  A    between atoms: C_22  and  O_24 
ROOT
HETATM    1  C   UNK N   1       0.137  -0.272   0.205  0.00  0.00     0.149 C 
HETATM    2  N   UNK N   1       1.320   0.270   0.184  0.00  0.00    -0.258 N 
ATOM      3  HN  UNK N   1       2.133  -0.345   0.214  1.00  0.00     0.194 HD
ENDROOT
BRANCH   1   4
HETATM    4  C   UNK N   1      -1.101   0.654   0.169  0.00  0.00     0.271 C 
HETATM    5  N   UNK N   1      -2.412   0.280   0.122  0.00  0.00    -0.359 N 
HETATM    6  H   UNK N   1      -3.054   1.026   0.102  0.00  0.00     0.161 HD
HETATM    7  O   UNK N   1      -0.900   1.856   0.185  0.00  0.00    -0.266 OA
BRANCH   5   8
HETATM    8  C   UNK N   1      -3.002  -1.023   0.097  0.00  0.00     0.143 C 
BRANCH   8   9
HETATM    9  B   UNK N   1      -4.585  -0.907   0.004  0.00  0.00     0.510 B 
BRANCH   9  10
HETATM   10  O   UNK N   1      -5.233   0.403  -0.039  0.00  0.00    -0.436 OA
HETATM   11  H   UNK N   1      -4.695   1.210  -0.068  0.00  0.00     0.184 HD
ENDBRANCH   9  10
BRANCH   9  12
HETATM   12  O   UNK N   1      -5.397  -2.118  -0.029  0.00  0.00    -0.436 OA
HETATM   13  H   UNK N   1      -6.365  -2.053  -0.052  0.00  0.00     0.184 HD
ENDBRANCH   9  12
ENDBRANCH   8   9
ENDBRANCH   5   8
ENDBRANCH   1   4
BRANCH   1  14
HETATM   14  C   UNK N   1       0.155  -1.777   0.190  0.00  0.00     0.075 A 
HETATM   15  C   UNK N   1       1.386  -2.482   0.255  0.00  0.00     0.085 A 
HETATM   16  S   UNK N   1       0.985  -4.086   0.150  0.00  0.00    -0.064 SA
HETATM   17  C   UNK N   1      -0.637  -3.896   0.027  0.00  0.00     0.142 A 
HETATM   18  N   UNK N   1      -0.953  -2.583   0.060  0.00  0.00    -0.335 N 
ATOM     19  HN  UNK N   1      -1.907  -2.228  -0.004  1.00  0.00     0.168 HD
BRANCH  17  20
HETATM   20  N   UNK N   1      -1.581  -4.931  -0.119  0.00  0.00    -0.380 N 
HETATM   21  H   UNK N   1      -2.537  -4.722  -0.222  0.00  0.00     0.158 HD
HETATM   22  H   UNK N   1      -1.282  -5.869  -0.119  0.00  0.00     0.158 HD
ENDBRANCH  17  20
ENDBRANCH   1  14
BRANCH   2  23
HETATM   23  O   UNK N   1       1.524   1.573   0.125  0.00  0.00    -0.258 OA
BRANCH  23  24
HETATM   24  C   UNK N   1       2.603   2.128  -0.545  0.00  0.00     0.166 C 
HETATM   25  C   UNK N   1       3.564   1.061  -1.078  0.00  0.00     0.060 C 
HETATM   26  C   UNK N   1       2.059   2.890  -1.739  0.00  0.00     0.060 C 
BRANCH  24  27
HETATM   27  C   UNK N   1       3.328   3.096   0.356  0.00  0.00     0.178 C 
HETATM   28  O   UNK N   1       2.725   4.037   0.849  0.00  0.00    -0.648 OA
BRANCH  27  29
HETATM   29  O   UNK N   1       4.645   2.951   0.608  0.00  0.00    -0.774 OA
HETATM   30  H   UNK N   1       5.015   2.109   0.783  0.00  0.00     0.167 HD
ENDBRANCH  27  29
ENDBRANCH  24  27
ENDBRANCH  23  24
ENDBRANCH   2  23
TORSDOF 11
