MODEL 1
REMARK VINA RESULT:      -7.0      0.000      0.000
REMARK  4 active torsions:
REMARK  status: ('A' for Active; 'I' for Inactive)
REMARK    1  A    between atoms: C_7  and  C_8 
REMARK    2  A    between atoms: C_8  and  N_9 
REMARK       I    between atoms: N_9  and  C_10 
REMARK    3  A    between atoms: N_9  and  C_17 
REMARK    4  A    between atoms: C_17  and  C_18 
ROOT
HETATM    1  N   UNK N   1      26.520  23.581  -6.129  0.00  0.00    -0.207 N 
HETATM    2  C   UNK N   1      25.763  22.807  -7.061  0.00  0.00     0.709 A 
HETATM    3  N   UNK N   1      24.585  22.221  -6.794  0.00  0.00    -0.118 N 
ATOM      4  HN  UNK N   1      24.067  22.244  -5.915  1.00  0.00     0.207 HD
HETATM    5  N   UNK N   1      24.237  21.609  -7.913  0.00  0.00    -0.212 N 
HETATM    6  N   UNK N   1      25.169  21.811  -8.834  0.00  0.00     0.009 NA
HETATM    7  N   UNK N   1      26.136  22.557  -8.327  0.00  0.00    -0.113 N 
ATOM      8  HN  UNK N   1      26.985  22.874  -8.798  1.00  0.00     0.203 HD
HETATM    9  H   UNK N   1      23.415  21.084  -8.041  0.00  0.00     0.206 HD
ENDROOT
BRANCH   1  10
HETATM   10  C   UNK N   1      27.881  23.975  -6.446  0.00  0.00     0.180 C 
BRANCH  10  11
HETATM   11  C   UNK N   1      28.900  23.323  -5.533  0.00  0.00    -0.040 A 
HETATM   12  C   UNK N   1      29.455  24.063  -4.483  0.00  0.00     0.010 A 
HETATM   13  C   UNK N   1      30.461  23.508  -3.682  0.00  0.00     0.024 A 
HETATM   14  C   UNK N   1      30.920  22.210  -3.930  0.00  0.00     0.034 A 
HETATM   15 Cl   UNK N   1      32.209  21.527  -2.962  0.00  0.00    -0.084 Cl
HETATM   16  C   UNK N   1      30.359  21.458  -4.962  0.00  0.00     0.024 A 
HETATM   17  C   UNK N   1      29.354  22.009  -5.757  0.00  0.00     0.010 A 
ENDBRANCH  10  11
ENDBRANCH   1  10
BRANCH   1  18
HETATM   18  C   UNK N   1      25.968  23.921  -4.829  0.00  0.00     0.180 C 
BRANCH  18  19
HETATM   19  C   UNK N   1      25.938  25.409  -4.557  0.00  0.00    -0.040 A 
HETATM   20  C   UNK N   1      25.340  26.253  -5.498  0.00  0.00     0.010 A 
HETATM   21  C   UNK N   1      25.410  27.642  -5.347  0.00  0.00     0.024 A 
HETATM   22  C   UNK N   1      26.085  28.195  -4.255  0.00  0.00     0.034 A 
HETATM   23 Cl   UNK N   1      26.231  29.933  -4.100  0.00  0.00    -0.084 Cl
HETATM   24  C   UNK N   1      26.665  27.361  -3.298  0.00  0.00     0.024 A 
HETATM   25  C   UNK N   1      26.589  25.974  -3.445  0.00  0.00     0.010 A 
ENDBRANCH  18  19
ENDBRANCH   1  18
TORSDOF 4
ENDMDL
MODEL 2
REMARK VINA RESULT:      -6.9      1.579      5.167
REMARK  4 active torsions:
REMARK  status: ('A' for Active; 'I' for Inactive)
REMARK    1  A    between atoms: C_7  and  C_8 
REMARK    2  A    between atoms: C_8  and  N_9 
REMARK       I    between atoms: N_9  and  C_10 
REMARK    3  A    between atoms: N_9  and  C_17 
REMARK    4  A    between atoms: C_17  and  C_18 
ROOT
HETATM    1  N   UNK N   1      27.020  24.413  -8.004  0.00  0.00    -0.207 N 
HETATM    2  C   UNK N   1      26.113  23.310  -7.982  0.00  0.00     0.709 A 
HETATM    3  N   UNK N   1      26.470  22.026  -7.817  0.00  0.00    -0.118 N 
ATOM      4  HN  UNK N   1      27.412  21.658  -7.683  1.00  0.00     0.207 HD
HETATM    5  N   UNK N   1      25.341  21.340  -7.866  0.00  0.00    -0.212 N 
HETATM    6  N   UNK N   1      24.327  22.173  -8.054  0.00  0.00     0.009 NA
HETATM    7  N   UNK N   1      24.782  23.412  -8.132  0.00  0.00    -0.113 N 
ATOM      8  HN  UNK N   1      24.238  24.263  -8.275  1.00  0.00     0.203 HD
HETATM    9  H   UNK N   1      25.266  20.362  -7.777  0.00  0.00     0.206 HD
ENDROOT
BRANCH   1  10
HETATM   10  C   UNK N   1      26.558  25.727  -8.415  0.00  0.00     0.180 C 
BRANCH  10  11
HETATM   11  C   UNK N   1      26.413  26.681  -7.246  0.00  0.00    -0.040 A 
HETATM   12  C   UNK N   1      27.377  27.676  -7.047  0.00  0.00     0.010 A 
HETATM   13  C   UNK N   1      27.308  28.512  -5.925  0.00  0.00     0.024 A 
HETATM   14  C   UNK N   1      26.276  28.354  -4.994  0.00  0.00     0.034 A 
HETATM   15 Cl   UNK N   1      26.211  29.365  -3.566  0.00  0.00    -0.084 Cl
HETATM   16  C   UNK N   1      25.300  27.378  -5.194  0.00  0.00     0.024 A 
HETATM   17  C   UNK N   1      25.366  26.549  -6.314  0.00  0.00     0.010 A 
ENDBRANCH  10  11
ENDBRANCH   1  10
BRANCH   1  18
HETATM   18  C   UNK N   1      28.424  24.223  -7.687  0.00  0.00     0.180 C 
BRANCH  18  19
HETATM   19  C   UNK N   1      28.670  23.812  -6.252  0.00  0.00    -0.040 A 
HETATM   20  C   UNK N   1      28.202  24.639  -5.226  0.00  0.00     0.010 A 
HETATM   21  C   UNK N   1      28.524  24.363  -3.893  0.00  0.00     0.024 A 
HETATM   22  C   UNK N   1      29.323  23.259  -3.580  0.00  0.00     0.034 A 
HETATM   23 Cl   UNK N   1      29.783  22.950  -1.919  0.00  0.00    -0.084 Cl
HETATM   24  C   UNK N   1      29.775  22.414  -4.594  0.00  0.00     0.024 A 
HETATM   25  C   UNK N   1      29.448  22.687  -5.925  0.00  0.00     0.010 A 
ENDBRANCH  18  19
ENDBRANCH   1  18
TORSDOF 4
ENDMDL
MODEL 3
REMARK VINA RESULT:      -6.9      0.339      5.636
REMARK  4 active torsions:
REMARK  status: ('A' for Active; 'I' for Inactive)
REMARK    1  A    between atoms: C_7  and  C_8 
REMARK    2  A    between atoms: C_8  and  N_9 
REMARK       I    between atoms: N_9  and  C_10 
REMARK    3  A    between atoms: N_9  and  C_17 
REMARK    4  A    between atoms: C_17  and  C_18 
ROOT
HETATM    1  N   UNK N   1      26.723  23.736  -6.042  0.00  0.00    -0.207 N 
HETATM    2  C   UNK N   1      26.030  23.092  -7.112  0.00  0.00     0.709 A 
HETATM    3  N   UNK N   1      26.508  22.945  -8.358  0.00  0.00    -0.118 N 
ATOM      4  HN  UNK N   1      27.411  23.258  -8.716  1.00  0.00     0.207 HD
HETATM    5  N   UNK N   1      25.559  22.309  -9.024  0.00  0.00    -0.212 N 
HETATM    6  N   UNK N   1      24.535  22.074  -8.215  0.00  0.00     0.009 NA
HETATM    7  N   UNK N   1      24.802  22.555  -7.013  0.00  0.00    -0.113 N 
ATOM      8  HN  UNK N   1      24.204  22.524  -6.187  1.00  0.00     0.203 HD
HETATM    9  H   UNK N   1      25.606  22.051  -9.973  0.00  0.00     0.206 HD
ENDROOT
BRANCH   1  10
HETATM   10  C   UNK N   1      26.029  24.043  -4.804  0.00  0.00     0.180 C 
BRANCH  10  11
HETATM   11  C   UNK N   1      25.998  25.530  -4.511  0.00  0.00    -0.040 A 
HETATM   12  C   UNK N   1      25.392  26.398  -5.426  0.00  0.00     0.010 A 
HETATM   13  C   UNK N   1      25.428  27.783  -5.216  0.00  0.00     0.024 A 
HETATM   14  C   UNK N   1      26.074  28.306  -4.091  0.00  0.00     0.034 A 
HETATM   15 Cl   UNK N   1      26.162  30.036  -3.847  0.00  0.00    -0.084 Cl
HETATM   16  C   UNK N   1      26.664  27.447  -3.163  0.00  0.00     0.024 A 
HETATM   17  C   UNK N   1      26.623  26.068  -3.370  0.00  0.00     0.010 A 
ENDBRANCH  10  11
ENDBRANCH   1  10
BRANCH   1  18
HETATM   18  C   UNK N   1      28.105  24.156  -6.202  0.00  0.00     0.180 C 
BRANCH  18  19
HETATM   19  C   UNK N   1      29.066  23.433  -5.285  0.00  0.00    -0.040 A 
HETATM   20  C   UNK N   1      29.660  24.146  -4.237  0.00  0.00     0.010 A 
HETATM   21  C   UNK N   1      30.653  23.551  -3.452  0.00  0.00     0.024 A 
HETATM   22  C   UNK N   1      31.062  22.239  -3.714  0.00  0.00     0.034 A 
HETATM   23 Cl   UNK N   1      32.351  21.516  -2.775  0.00  0.00    -0.084 Cl
HETATM   24  C   UNK N   1      30.459  21.512  -4.741  0.00  0.00     0.024 A 
HETATM   25  C   UNK N   1      29.463  22.105  -5.521  0.00  0.00     0.010 A 
ENDBRANCH  18  19
ENDBRANCH   1  18
TORSDOF 4
ENDMDL
MODEL 4
REMARK VINA RESULT:      -6.8     14.220     15.885
REMARK  4 active torsions:
REMARK  status: ('A' for Active; 'I' for Inactive)
REMARK    1  A    between atoms: C_7  and  C_8 
REMARK    2  A    between atoms: C_8  and  N_9 
REMARK       I    between atoms: N_9  and  C_10 
REMARK    3  A    between atoms: N_9  and  C_17 
REMARK    4  A    between atoms: C_17  and  C_18 
ROOT
HETATM    1  N   UNK N   1      33.103  16.817   7.791  0.00  0.00    -0.207 N 
HETATM    2  C   UNK N   1      33.948  16.855   8.942  0.00  0.00     0.709 A 
HETATM    3  N   UNK N   1      33.623  16.365  10.149  0.00  0.00    -0.118 N 
ATOM      4  HN  UNK N   1      32.753  15.902  10.416  1.00  0.00     0.207 HD
HETATM    5  N   UNK N   1      34.669  16.609  10.920  0.00  0.00    -0.212 N 
HETATM    6  N   UNK N   1      35.604  17.228  10.210  0.00  0.00     0.009 NA
HETATM    7  N   UNK N   1      35.177  17.396   8.970  0.00  0.00    -0.113 N 
ATOM      8  HN  UNK N   1      35.676  17.841   8.199  1.00  0.00     0.203 HD
HETATM    9  H   UNK N   1      34.742  16.370  11.871  0.00  0.00     0.206 HD
ENDROOT
BRANCH   1  10
HETATM   10  C   UNK N   1      33.456  17.574   6.604  0.00  0.00     0.180 C 
BRANCH  10  11
HETATM   11  C   UNK N   1      33.650  16.688   5.389  0.00  0.00    -0.040 A 
HETATM   12  C   UNK N   1      32.961  16.984   4.207  0.00  0.00     0.010 A 
HETATM   13  C   UNK N   1      33.059  16.129   3.100  0.00  0.00     0.024 A 
HETATM   14  C   UNK N   1      33.844  14.974   3.172  0.00  0.00     0.034 A 
HETATM   15 Cl   UNK N   1      33.934  13.879   1.810  0.00  0.00    -0.084 Cl
HETATM   16  C   UNK N   1      34.550  14.682   4.340  0.00  0.00     0.024 A 
HETATM   17  C   UNK N   1      34.456  15.535   5.440  0.00  0.00     0.010 A 
ENDBRANCH  10  11
ENDBRANCH   1  10
BRANCH   1  18
HETATM   18  C   UNK N   1      31.850  16.082   7.816  0.00  0.00     0.180 C 
BRANCH  18  19
HETATM   19  C   UNK N   1      30.627  16.970   7.734  0.00  0.00    -0.040 A 
HETATM   20  C   UNK N   1      29.903  17.008   6.538  0.00  0.00     0.010 A 
HETATM   21  C   UNK N   1      28.849  17.913   6.379  0.00  0.00     0.024 A 
HETATM   22  C   UNK N   1      28.516  18.791   7.416  0.00  0.00     0.034 A 
HETATM   23 Cl   UNK N   1      27.241  19.970   7.194  0.00  0.00    -0.084 Cl
HETATM   24  C   UNK N   1      29.217  18.744   8.622  0.00  0.00     0.024 A 
HETATM   25  C   UNK N   1      30.266  17.835   8.782  0.00  0.00     0.010 A 
ENDBRANCH  18  19
ENDBRANCH   1  18
TORSDOF 4
ENDMDL
MODEL 5
REMARK VINA RESULT:      -6.7     12.241     14.060
REMARK  4 active torsions:
REMARK  status: ('A' for Active; 'I' for Inactive)
REMARK    1  A    between atoms: C_7  and  C_8 
REMARK    2  A    between atoms: C_8  and  N_9 
REMARK       I    between atoms: N_9  and  C_10 
REMARK    3  A    between atoms: N_9  and  C_17 
REMARK    4  A    between atoms: C_17  and  C_18 
ROOT
HETATM    1  N   UNK N   1      28.206  18.705   6.016  0.00  0.00    -0.207 N 
HETATM    2  C   UNK N   1      27.466  19.772   6.610  0.00  0.00     0.709 A 
HETATM    3  N   UNK N   1      26.954  19.754   7.851  0.00  0.00    -0.118 N 
ATOM      4  HN  UNK N   1      27.019  19.001   8.537  1.00  0.00     0.207 HD
HETATM    5  N   UNK N   1      26.347  20.919   7.997  0.00  0.00    -0.212 N 
HETATM    6  N   UNK N   1      26.482  21.629   6.884  0.00  0.00     0.009 NA
HETATM    7  N   UNK N   1      27.176  20.934   5.999  0.00  0.00    -0.113 N 
ATOM      8  HN  UNK N   1      27.436  21.219   5.055  1.00  0.00     0.203 HD
HETATM    9  H   UNK N   1      25.870  21.214   8.805  0.00  0.00     0.206 HD
ENDROOT
BRANCH   1  10
HETATM   10  C   UNK N   1      28.516  18.734   4.598  0.00  0.00     0.180 C 
BRANCH  10  11
HETATM   11  C   UNK N   1      27.805  17.639   3.827  0.00  0.00    -0.040 A 
HETATM   12  C   UNK N   1      26.410  17.663   3.730  0.00  0.00     0.010 A 
HETATM   13  C   UNK N   1      25.728  16.615   3.097  0.00  0.00     0.024 A 
HETATM   14  C   UNK N   1      26.440  15.537   2.561  0.00  0.00     0.034 A 
HETATM   15 Cl   UNK N   1      25.592  14.203   1.810  0.00  0.00    -0.084 Cl
HETATM   16  C   UNK N   1      27.833  15.515   2.636  0.00  0.00     0.024 A 
HETATM   17  C   UNK N   1      28.511  16.560   3.262  0.00  0.00     0.010 A 
ENDBRANCH  10  11
ENDBRANCH   1  10
BRANCH   1  18
HETATM   18  C   UNK N   1      28.597  17.548   6.802  0.00  0.00     0.180 C 
BRANCH  18  19
HETATM   19  C   UNK N   1      30.079  17.492   7.100  0.00  0.00    -0.040 A 
HETATM   20  C   UNK N   1      30.536  17.976   8.330  0.00  0.00     0.010 A 
HETATM   21  C   UNK N   1      31.908  18.065   8.589  0.00  0.00     0.024 A 
HETATM   22  C   UNK N   1      32.832  17.674   7.614  0.00  0.00     0.034 A 
HETATM   23 Cl   UNK N   1      34.549  17.847   7.911  0.00  0.00    -0.084 Cl
HETATM   24  C   UNK N   1      32.385  17.167   6.393  0.00  0.00     0.024 A 
HETATM   25  C   UNK N   1      31.015  17.073   6.138  0.00  0.00     0.010 A 
ENDBRANCH  18  19
ENDBRANCH   1  18
TORSDOF 4
ENDMDL
MODEL 6
REMARK VINA RESULT:      -6.7     11.740     13.054
REMARK  4 active torsions:
REMARK  status: ('A' for Active; 'I' for Inactive)
REMARK    1  A    between atoms: C_7  and  C_8 
REMARK    2  A    between atoms: C_8  and  N_9 
REMARK       I    between atoms: N_9  and  C_10 
REMARK    3  A    between atoms: N_9  and  C_17 
REMARK    4  A    between atoms: C_17  and  C_18 
ROOT
HETATM    1  N   UNK N   1      28.193  18.109   5.715  0.00  0.00    -0.207 N 
HETATM    2  C   UNK N   1      27.982  18.080   7.127  0.00  0.00     0.709 A 
HETATM    3  N   UNK N   1      27.768  19.162   7.894  0.00  0.00    -0.118 N 
ATOM      4  HN  UNK N   1      27.720  20.135   7.591  1.00  0.00     0.207 HD
HETATM    5  N   UNK N   1      27.631  18.697   9.124  0.00  0.00    -0.212 N 
HETATM    6  N   UNK N   1      27.757  17.377   9.113  0.00  0.00     0.009 NA
HETATM    7  N   UNK N   1      27.979  16.965   7.877  0.00  0.00    -0.113 N 
ATOM      8  HN  UNK N   1      28.118  16.005   7.560  1.00  0.00     0.203 HD
HETATM    9  H   UNK N   1      27.463  19.247   9.923  0.00  0.00     0.206 HD
ENDROOT
BRANCH   1  10
HETATM   10  C   UNK N   1      28.640  16.915   5.021  0.00  0.00     0.180 C 
BRANCH  10  11
HETATM   11  C   UNK N   1      30.123  16.658   5.206  0.00  0.00    -0.040 A 
HETATM   12  C   UNK N   1      31.049  17.525   4.615  0.00  0.00     0.010 A 
HETATM   13  C   UNK N   1      32.422  17.258   4.701  0.00  0.00     0.024 A 
HETATM   14  C   UNK N   1      32.874  16.120   5.377  0.00  0.00     0.034 A 
HETATM   15 Cl   UNK N   1      34.585  15.757   5.448  0.00  0.00    -0.084 Cl
HETATM   16  C   UNK N   1      31.960  15.261   5.986  0.00  0.00     0.024 A 
HETATM   17  C   UNK N   1      30.593  15.530   5.904  0.00  0.00     0.010 A 
ENDBRANCH  10  11
ENDBRANCH   1  10
BRANCH   1  18
HETATM   18  C   UNK N   1      28.033  19.344   4.968  0.00  0.00     0.180 C 
BRANCH  18  19
HETATM   19  C   UNK N   1      26.669  19.492   4.331  0.00  0.00    -0.040 A 
HETATM   20  C   UNK N   1      26.509  20.417   3.293  0.00  0.00     0.010 A 
HETATM   21  C   UNK N   1      25.238  20.679   2.770  0.00  0.00     0.024 A 
HETATM   22  C   UNK N   1      24.118  20.021   3.287  0.00  0.00     0.034 A 
HETATM   23 Cl   UNK N   1      22.519  20.397   2.680  0.00  0.00    -0.084 Cl
HETATM   24  C   UNK N   1      24.270  19.079   4.306  0.00  0.00     0.024 A 
HETATM   25  C   UNK N   1      25.540  18.813   4.824  0.00  0.00     0.010 A 
ENDBRANCH  18  19
ENDBRANCH   1  18
TORSDOF 4
ENDMDL
MODEL 7
REMARK VINA RESULT:      -6.3     12.764     14.292
REMARK  4 active torsions:
REMARK  status: ('A' for Active; 'I' for Inactive)
REMARK    1  A    between atoms: C_7  and  C_8 
REMARK    2  A    between atoms: C_8  and  N_9 
REMARK       I    between atoms: N_9  and  C_10 
REMARK    3  A    between atoms: N_9  and  C_17 
REMARK    4  A    between atoms: C_17  and  C_18 
ROOT
HETATM    1  N   UNK N   1      21.332  17.964   3.661  0.00  0.00    -0.207 N 
HETATM    2  C   UNK N   1      21.120  19.056   2.765  0.00  0.00     0.709 A 
HETATM    3  N   UNK N   1      20.416  18.988   1.623  0.00  0.00    -0.118 N 
ATOM      4  HN  UNK N   1      19.938  18.172   1.239  1.00  0.00     0.207 HD
HETATM    5  N   UNK N   1      20.473  20.202   1.103  0.00  0.00    -0.212 N 
HETATM    6  N   UNK N   1      21.187  20.988   1.898  0.00  0.00     0.009 NA
HETATM    7  N   UNK N   1      21.605  20.296   2.944  0.00  0.00    -0.113 N 
ATOM      8  HN  UNK N   1      22.174  20.633   3.721  1.00  0.00     0.203 HD
HETATM    9  H   UNK N   1      20.052  20.478   0.258  0.00  0.00     0.206 HD
ENDROOT
BRANCH   1  10
HETATM   10  C   UNK N   1      22.292  18.086   4.742  0.00  0.00     0.180 C 
BRANCH  10  11
HETATM   11  C   UNK N   1      21.894  17.279   5.963  0.00  0.00    -0.040 A 
HETATM   12  C   UNK N   1      22.537  16.064   6.222  0.00  0.00     0.010 A 
HETATM   13  C   UNK N   1      22.125  15.262   7.295  0.00  0.00     0.024 A 
HETATM   14  C   UNK N   1      21.066  15.671   8.112  0.00  0.00     0.034 A 
HETATM   15 Cl   UNK N   1      20.517  14.653   9.425  0.00  0.00    -0.084 Cl
HETATM   16  C   UNK N   1      20.433  16.891   7.873  0.00  0.00     0.024 A 
HETATM   17  C   UNK N   1      20.846  17.691   6.807  0.00  0.00     0.010 A 
ENDBRANCH  10  11
ENDBRANCH   1  10
BRANCH   1  18
HETATM   18  C   UNK N   1      20.646  16.699   3.460  0.00  0.00     0.180 C 
BRANCH  18  19
HETATM   19  C   UNK N   1      21.351  15.776   2.491  0.00  0.00    -0.040 A 
HETATM   20  C   UNK N   1      20.595  15.129   1.508  0.00  0.00     0.010 A 
HETATM   21  C   UNK N   1      21.185  14.168   0.681  0.00  0.00     0.024 A 
HETATM   22  C   UNK N   1      22.537  13.845   0.836  0.00  0.00     0.034 A 
HETATM   23 Cl   UNK N   1      23.262  12.596  -0.154  0.00  0.00    -0.084 Cl
HETATM   24  C   UNK N   1      23.306  14.503   1.797  0.00  0.00     0.024 A 
HETATM   25  C   UNK N   1      22.717  15.467   2.619  0.00  0.00     0.010 A 
ENDBRANCH  18  19
ENDBRANCH   1  18
TORSDOF 4
ENDMDL
MODEL 8
REMARK VINA RESULT:      -6.3     22.861     24.761
REMARK  4 active torsions:
REMARK  status: ('A' for Active; 'I' for Inactive)
REMARK    1  A    between atoms: C_7  and  C_8 
REMARK    2  A    between atoms: C_8  and  N_9 
REMARK       I    between atoms: N_9  and  C_10 
REMARK    3  A    between atoms: N_9  and  C_17 
REMARK    4  A    between atoms: C_17  and  C_18 
ROOT
HETATM    1  N   UNK N   1      36.240  12.134  11.704  0.00  0.00    -0.207 N 
HETATM    2  C   UNK N   1      37.271  12.870  11.044  0.00  0.00     0.709 A 
HETATM    3  N   UNK N   1      37.262  14.199  10.849  0.00  0.00    -0.118 N 
ATOM      4  HN  UNK N   1      36.542  14.862  11.138  1.00  0.00     0.207 HD
HETATM    5  N   UNK N   1      38.384  14.465  10.203  0.00  0.00    -0.212 N 
HETATM    6  N   UNK N   1      39.058  13.340  10.008  0.00  0.00     0.009 NA
HETATM    7  N   UNK N   1      38.383  12.326  10.524  0.00  0.00    -0.113 N 
ATOM      8  HN  UNK N   1      38.651  11.341  10.525  1.00  0.00     0.203 HD
HETATM    9  H   UNK N   1      38.673  15.359   9.912  0.00  0.00     0.206 HD
ENDROOT
BRANCH   1  10
HETATM   10  C   UNK N   1      36.238  10.683  11.661  0.00  0.00     0.180 C 
BRANCH  10  11
HETATM   11  C   UNK N   1      36.603  10.063  12.995  0.00  0.00    -0.040 A 
HETATM   12  C   UNK N   1      35.693   9.206  13.625  0.00  0.00     0.010 A 
HETATM   13  C   UNK N   1      35.974   8.692  14.898  0.00  0.00     0.024 A 
HETATM   14  C   UNK N   1      37.165   9.034  15.547  0.00  0.00     0.034 A 
HETATM   15 Cl   UNK N   1      37.500   8.432  17.156  0.00  0.00    -0.084 Cl
HETATM   16  C   UNK N   1      38.085   9.872  14.918  0.00  0.00     0.024 A 
HETATM   17  C   UNK N   1      37.808  10.381  13.649  0.00  0.00     0.010 A 
ENDBRANCH  10  11
ENDBRANCH   1  10
BRANCH   1  18
HETATM   18  C   UNK N   1      35.145  12.824  12.365  0.00  0.00     0.180 C 
BRANCH  18  19
HETATM   19  C   UNK N   1      35.328  12.955  13.861  0.00  0.00    -0.040 A 
HETATM   20  C   UNK N   1      34.391  12.353  14.708  0.00  0.00     0.010 A 
HETATM   21  C   UNK N   1      34.450  12.563  16.090  0.00  0.00     0.024 A 
HETATM   22  C   UNK N   1      35.446  13.382  16.632  0.00  0.00     0.034 A 
HETATM   23 Cl   UNK N   1      35.481  13.700  18.354  0.00  0.00    -0.084 Cl
HETATM   24  C   UNK N   1      36.399  13.967  15.798  0.00  0.00     0.024 A 
HETATM   25  C   UNK N   1      36.343  13.752  14.419  0.00  0.00     0.010 A 
ENDBRANCH  18  19
ENDBRANCH   1  18
TORSDOF 4
ENDMDL
MODEL 9
REMARK VINA RESULT:      -6.2     15.928     16.973
REMARK  4 active torsions:
REMARK  status: ('A' for Active; 'I' for Inactive)
REMARK    1  A    between atoms: C_7  and  C_8 
REMARK    2  A    between atoms: C_8  and  N_9 
REMARK       I    between atoms: N_9  and  C_10 
REMARK    3  A    between atoms: N_9  and  C_17 
REMARK    4  A    between atoms: C_17  and  C_18 
ROOT
HETATM    1  N   UNK N   1      20.626  16.146   7.460  0.00  0.00    -0.207 N 
HETATM    2  C   UNK N   1      19.773  16.912   8.312  0.00  0.00     0.709 A 
HETATM    3  N   UNK N   1      19.954  18.208   8.615  0.00  0.00    -0.118 N 
ATOM      4  HN  UNK N   1      20.700  18.822   8.288  1.00  0.00     0.207 HD
HETATM    5  N   UNK N   1      18.957  18.520   9.426  0.00  0.00    -0.212 N 
HETATM    6  N   UNK N   1      18.192  17.454   9.614  0.00  0.00     0.009 NA
HETATM    7  N   UNK N   1      18.681  16.433   8.930  0.00  0.00    -0.113 N 
ATOM      8  HN  UNK N   1      18.307  15.485   8.883  1.00  0.00     0.203 HD
HETATM    9  H   UNK N   1      18.807  19.406   9.827  0.00  0.00     0.206 HD
ENDROOT
BRANCH   1  10
HETATM   10  C   UNK N   1      20.472  14.705   7.382  0.00  0.00     0.180 C 
BRANCH  10  11
HETATM   11  C   UNK N   1      21.419  13.970   8.311  0.00  0.00    -0.040 A 
HETATM   12  C   UNK N   1      20.992  13.633   9.600  0.00  0.00     0.010 A 
HETATM   13  C   UNK N   1      21.879  13.032  10.503  0.00  0.00     0.024 A 
HETATM   14  C   UNK N   1      23.198  12.768  10.121  0.00  0.00     0.034 A 
HETATM   15 Cl   UNK N   1      24.323  12.059  11.259  0.00  0.00    -0.084 Cl
HETATM   16  C   UNK N   1      23.627  13.083   8.832  0.00  0.00     0.024 A 
HETATM   17  C   UNK N   1      22.742  13.677   7.931  0.00  0.00     0.010 A 
ENDBRANCH  10  11
ENDBRANCH   1  10
BRANCH   1  18
HETATM   18  C   UNK N   1      21.699  16.785   6.719  0.00  0.00     0.180 C 
BRANCH  18  19
HETATM   19  C   UNK N   1      21.467  16.816   5.224  0.00  0.00    -0.040 A 
HETATM   20  C   UNK N   1      20.853  17.940   4.662  0.00  0.00     0.010 A 
HETATM   21  C   UNK N   1      20.500  17.950   3.309  0.00  0.00     0.024 A 
HETATM   22  C   UNK N   1      20.755  16.831   2.510  0.00  0.00     0.034 A 
HETATM   23 Cl   UNK N   1      20.254  16.816   0.832  0.00  0.00    -0.084 Cl
HETATM   24  C   UNK N   1      21.389  15.714   3.055  0.00  0.00     0.024 A 
HETATM   25  C   UNK N   1      21.746  15.707   4.406  0.00  0.00     0.010 A 
ENDBRANCH  18  19
ENDBRANCH   1  18
TORSDOF 4
ENDMDL
