MODEL 1
REMARK VINA RESULT:      -4.8      0.000      0.000
REMARK  3 active torsions:
REMARK  status: ('A' for Active; 'I' for Inactive)
REMARK    1  A    between atoms: N_1  and  C_2 
REMARK    2  A    between atoms: N_1  and  C_4 
REMARK    3  A    between atoms: N_1  and  C_5 
ROOT
HETATM    1  N   UNK N   1      35.519  12.452  15.546  0.00  0.00    -0.350 N 
ENDROOT
BRANCH   1   2
HETATM    2  C   UNK N   1      36.712  12.816  15.005  0.00  0.00     0.351 C 
HETATM    3  O   UNK N   1      37.202  13.912  15.228  0.00  0.00    -0.284 OA
ENDBRANCH   1   2
BRANCH   1   4
HETATM    4  C   UNK N   1      35.427  12.322  16.998  0.00  0.00     0.087 A 
HETATM    5  C   UNK N   1      35.098  13.447  17.943  0.00  0.00     0.025 A 
HETATM    6  C   UNK N   1      35.147  12.803  19.321  0.00  0.00     0.002 A 
HETATM    7  C   UNK N   1      35.532  11.328  19.171  0.00  0.00     0.002 A 
HETATM    8  C   UNK N   1      35.730  11.020  17.698  0.00  0.00     0.025 A 
ENDBRANCH   1   4
BRANCH   1   9
HETATM    9  C   UNK N   1      34.397  12.196  14.643  0.00  0.00     0.087 A 
HETATM   10  C   UNK N   1      33.712  10.864  14.853  0.00  0.00     0.025 A 
HETATM   11  C   UNK N   1      34.018  10.509  13.406  0.00  0.00     0.004 A 
HETATM   12  C   UNK N   1      34.799  11.804  13.238  0.00  0.00     0.025 A 
ENDBRANCH   1   9
TORSDOF 3
ENDMDL
MODEL 2
REMARK VINA RESULT:      -4.6     22.103     24.096
REMARK  3 active torsions:
REMARK  status: ('A' for Active; 'I' for Inactive)
REMARK    1  A    between atoms: N_1  and  C_2 
REMARK    2  A    between atoms: N_1  and  C_4 
REMARK    3  A    between atoms: N_1  and  C_5 
ROOT
HETATM    1  N   UNK N   1      29.475  23.291  -3.452  0.00  0.00    -0.350 N 
ENDROOT
BRANCH   1   2
HETATM    2  C   UNK N   1      29.554  22.777  -2.197  0.00  0.00     0.351 C 
HETATM    3  O   UNK N   1      30.452  23.097  -1.433  0.00  0.00    -0.284 OA
ENDBRANCH   1   2
BRANCH   1   4
HETATM    4  C   UNK N   1      28.540  24.387  -3.694  0.00  0.00     0.087 A 
HETATM    5  C   UNK N   1      28.933  25.771  -4.135  0.00  0.00     0.025 A 
HETATM    6  C   UNK N   1      27.614  26.524  -4.222  0.00  0.00     0.002 A 
HETATM    7  C   UNK N   1      26.474  25.588  -3.805  0.00  0.00     0.002 A 
HETATM    8  C   UNK N   1      27.059  24.233  -3.450  0.00  0.00     0.025 A 
ENDBRANCH   1   4
BRANCH   1   9
HETATM    9  C   UNK N   1      30.320  22.710  -4.495  0.00  0.00     0.087 A 
HETATM   10  C   UNK N   1      29.650  22.573  -5.844  0.00  0.00     0.025 A 
HETATM   11  C   UNK N   1      29.924  21.078  -5.799  0.00  0.00     0.004 A 
HETATM   12  C   UNK N   1      30.498  21.210  -4.396  0.00  0.00     0.025 A 
ENDBRANCH   1   9
TORSDOF 3
ENDMDL
MODEL 3
REMARK VINA RESULT:      -4.6     24.779     26.519
REMARK  3 active torsions:
REMARK  status: ('A' for Active; 'I' for Inactive)
REMARK    1  A    between atoms: N_1  and  C_2 
REMARK    2  A    between atoms: N_1  and  C_4 
REMARK    3  A    between atoms: N_1  and  C_5 
ROOT
HETATM    1  N   UNK N   1      26.526  25.455  -4.291  0.00  0.00    -0.350 N 
ENDROOT
BRANCH   1   2
HETATM    2  C   UNK N   1      27.240  24.522  -3.608  0.00  0.00     0.351 C 
HETATM    3  O   UNK N   1      26.836  24.059  -2.553  0.00  0.00    -0.284 OA
ENDBRANCH   1   2
BRANCH   1   4
HETATM    4  C   UNK N   1      26.751  26.865  -3.977  0.00  0.00     0.087 A 
HETATM    5  C   UNK N   1      25.666  27.858  -3.658  0.00  0.00     0.025 A 
HETATM    6  C   UNK N   1      26.413  29.165  -3.429  0.00  0.00     0.002 A 
HETATM    7  C   UNK N   1      27.911  28.930  -3.644  0.00  0.00     0.002 A 
HETATM    8  C   UNK N   1      28.131  27.473  -4.011  0.00  0.00     0.025 A 
ENDBRANCH   1   4
BRANCH   1   9
HETATM    9  C   UNK N   1      25.564  24.998  -5.292  0.00  0.00     0.087 A 
HETATM   10  C   UNK N   1      25.918  23.684  -5.951  0.00  0.00     0.025 A 
HETATM   11  C   UNK N   1      25.896  24.385  -7.301  0.00  0.00     0.004 A 
HETATM   12  C   UNK N   1      25.647  25.722  -6.619  0.00  0.00     0.025 A 
ENDBRANCH   1   9
TORSDOF 3
ENDMDL
MODEL 4
REMARK VINA RESULT:      -4.5     10.623     12.241
REMARK  3 active torsions:
REMARK  status: ('A' for Active; 'I' for Inactive)
REMARK    1  A    between atoms: N_1  and  C_2 
REMARK    2  A    between atoms: N_1  and  C_4 
REMARK    3  A    between atoms: N_1  and  C_5 
ROOT
HETATM    1  N   UNK N   1      32.509  17.217   6.796  0.00  0.00    -0.350 N 
ENDROOT
BRANCH   1   2
HETATM    2  C   UNK N   1      33.493  17.953   7.376  0.00  0.00     0.351 C 
HETATM    3  O   UNK N   1      34.593  18.064   6.857  0.00  0.00    -0.284 OA
ENDBRANCH   1   2
BRANCH   1   4
HETATM    4  C   UNK N   1      32.638  16.881   5.379  0.00  0.00     0.087 A 
HETATM    5  C   UNK N   1      32.231  17.777   4.241  0.00  0.00     0.025 A 
HETATM    6  C   UNK N   1      32.550  16.965   2.994  0.00  0.00     0.002 A 
HETATM    7  C   UNK N   1      33.108  15.601   3.413  0.00  0.00     0.002 A 
HETATM    8  C   UNK N   1      33.150  15.534   4.929  0.00  0.00     0.025 A 
ENDBRANCH   1   4
BRANCH   1   9
HETATM    9  C   UNK N   1      31.368  16.813   7.616  0.00  0.00     0.087 A 
HETATM   10  C   UNK N   1      30.037  16.834   6.897  0.00  0.00     0.025 A 
HETATM   11  C   UNK N   1      29.519  17.812   7.940  0.00  0.00     0.004 A 
HETATM   12  C   UNK N   1      30.893  17.869   8.592  0.00  0.00     0.025 A 
ENDBRANCH   1   9
TORSDOF 3
ENDMDL
MODEL 5
REMARK VINA RESULT:      -4.5      1.866      2.687
REMARK  3 active torsions:
REMARK  status: ('A' for Active; 'I' for Inactive)
REMARK    1  A    between atoms: N_1  and  C_2 
REMARK    2  A    between atoms: N_1  and  C_4 
REMARK    3  A    between atoms: N_1  and  C_5 
ROOT
HETATM    1  N   UNK N   1      36.478  13.883  14.650  0.00  0.00    -0.350 N 
ENDROOT
BRANCH   1   2
HETATM    2  C   UNK N   1      36.912  15.090  15.098  0.00  0.00     0.351 C 
HETATM    3  O   UNK N   1      37.746  15.177  15.985  0.00  0.00    -0.284 OA
ENDBRANCH   1   2
BRANCH   1   4
HETATM    4  C   UNK N   1      36.132  12.862  15.636  0.00  0.00     0.087 A 
HETATM    5  C   UNK N   1      35.205  13.072  16.803  0.00  0.00     0.025 A 
HETATM    6  C   UNK N   1      35.197  11.730  17.520  0.00  0.00     0.002 A 
HETATM    7  C   UNK N   1      36.135  10.765  16.788  0.00  0.00     0.002 A 
HETATM    8  C   UNK N   1      36.748  11.484  15.600  0.00  0.00     0.025 A 
ENDBRANCH   1   4
BRANCH   1   9
HETATM    9  C   UNK N   1      36.393  13.667  13.206  0.00  0.00     0.087 A 
HETATM   10  C   UNK N   1      36.073  14.908  12.403  0.00  0.00     0.025 A 
HETATM   11  C   UNK N   1      34.844  14.201  11.851  0.00  0.00     0.004 A 
HETATM   12  C   UNK N   1      35.115  13.000  12.745  0.00  0.00     0.025 A 
ENDBRANCH   1   9
TORSDOF 3
ENDMDL
MODEL 6
REMARK VINA RESULT:      -4.5      1.844      4.446
REMARK  3 active torsions:
REMARK  status: ('A' for Active; 'I' for Inactive)
REMARK    1  A    between atoms: N_1  and  C_2 
REMARK    2  A    between atoms: N_1  and  C_4 
REMARK    3  A    between atoms: N_1  and  C_5 
ROOT
HETATM    1  N   UNK N   1      36.107  13.719  16.101  0.00  0.00    -0.350 N 
ENDROOT
BRANCH   1   2
HETATM    2  C   UNK N   1      36.762  14.842  16.497  0.00  0.00     0.351 C 
HETATM    3  O   UNK N   1      37.776  15.219  15.932  0.00  0.00    -0.284 OA
ENDBRANCH   1   2
BRANCH   1   4
HETATM    4  C   UNK N   1      36.448  13.140  14.804  0.00  0.00     0.087 A 
HETATM    5  C   UNK N   1      37.389  11.983  14.598  0.00  0.00     0.025 A 
HETATM    6  C   UNK N   1      37.414  11.786  13.090  0.00  0.00     0.002 A 
HETATM    7  C   UNK N   1      36.518  12.840  12.431  0.00  0.00     0.002 A 
HETATM    8  C   UNK N   1      35.915  13.716  13.514  0.00  0.00     0.025 A 
ENDBRANCH   1   4
BRANCH   1   9
HETATM    9  C   UNK N   1      35.088  13.160  16.989  0.00  0.00     0.087 A 
HETATM   10  C   UNK N   1      35.139  13.677  18.409  0.00  0.00     0.025 A 
HETATM   11  C   UNK N   1      35.315  12.247  18.895  0.00  0.00     0.004 A 
HETATM   12  C   UNK N   1      35.372  11.749  17.459  0.00  0.00     0.025 A 
ENDBRANCH   1   9
TORSDOF 3
ENDMDL
MODEL 7
REMARK VINA RESULT:      -4.4     13.818     15.285
REMARK  3 active torsions:
REMARK  status: ('A' for Active; 'I' for Inactive)
REMARK    1  A    between atoms: N_1  and  C_2 
REMARK    2  A    between atoms: N_1  and  C_4 
REMARK    3  A    between atoms: N_1  and  C_5 
ROOT
HETATM    1  N   UNK N   1      21.705  13.685   8.917  0.00  0.00    -0.350 N 
ENDROOT
BRANCH   1   2
HETATM    2  C   UNK N   1      20.707  14.486   9.375  0.00  0.00     0.351 C 
HETATM    3  O   UNK N   1      19.627  14.027   9.713  0.00  0.00    -0.284 OA
ENDBRANCH   1   2
BRANCH   1   4
HETATM    4  C   UNK N   1      22.584  13.046   9.893  0.00  0.00     0.087 A 
HETATM    5  C   UNK N   1      24.084  12.978   9.785  0.00  0.00     0.025 A 
HETATM    6  C   UNK N   1      24.512  12.205  11.024  0.00  0.00     0.002 A 
HETATM    7  C   UNK N   1      23.267  11.807  11.822  0.00  0.00     0.002 A 
HETATM    8  C   UNK N   1      22.035  12.323  11.099  0.00  0.00     0.025 A 
ENDBRANCH   1   4
BRANCH   1   9
HETATM    9  C   UNK N   1      21.851  13.516   7.471  0.00  0.00     0.087 A 
HETATM   10  C   UNK N   1      20.713  14.084   6.654  0.00  0.00     0.025 A 
HETATM   11  C   UNK N   1      20.483  12.700   6.063  0.00  0.00     0.004 A 
HETATM   12  C   UNK N   1      21.557  12.119   6.970  0.00  0.00     0.025 A 
ENDBRANCH   1   9
TORSDOF 3
ENDMDL
MODEL 8
REMARK VINA RESULT:      -4.4     22.321     24.517
REMARK  3 active torsions:
REMARK  status: ('A' for Active; 'I' for Inactive)
REMARK    1  A    between atoms: N_1  and  C_2 
REMARK    2  A    between atoms: N_1  and  C_4 
REMARK    3  A    between atoms: N_1  and  C_5 
ROOT
HETATM    1  N   UNK N   1      29.587  23.938  -3.227  0.00  0.00    -0.350 N 
ENDROOT
BRANCH   1   2
HETATM    2  C   UNK N   1      29.786  22.876  -2.402  0.00  0.00     0.351 C 
HETATM    3  O   UNK N   1      30.466  22.974  -1.393  0.00  0.00    -0.284 OA
ENDBRANCH   1   2
BRANCH   1   4
HETATM    4  C   UNK N   1      28.326  24.018  -3.961  0.00  0.00     0.087 A 
HETATM    5  C   UNK N   1      27.027  24.516  -3.389  0.00  0.00     0.025 A 
HETATM    6  C   UNK N   1      26.037  24.379  -4.536  0.00  0.00     0.002 A 
HETATM    7  C   UNK N   1      26.755  23.779  -5.749  0.00  0.00     0.002 A 
HETATM    8  C   UNK N   1      28.207  23.530  -5.385  0.00  0.00     0.025 A 
ENDBRANCH   1   4
BRANCH   1   9
HETATM    9  C   UNK N   1      30.650  24.936  -3.343  0.00  0.00     0.087 A 
HETATM   10  C   UNK N   1      30.211  26.255  -3.939  0.00  0.00     0.025 A 
HETATM   11  C   UNK N   1      31.251  26.075  -5.035  0.00  0.00     0.004 A 
HETATM   12  C   UNK N   1      31.608  24.700  -4.490  0.00  0.00     0.025 A 
ENDBRANCH   1   9
TORSDOF 3
ENDMDL
MODEL 9
REMARK VINA RESULT:      -4.4      1.665      2.587
REMARK  3 active torsions:
REMARK  status: ('A' for Active; 'I' for Inactive)
REMARK    1  A    between atoms: N_1  and  C_2 
REMARK    2  A    between atoms: N_1  and  C_4 
REMARK    3  A    between atoms: N_1  and  C_5 
ROOT
HETATM    1  N   UNK N   1      35.224  12.158  15.692  0.00  0.00    -0.350 N 
ENDROOT
BRANCH   1   2
HETATM    2  C   UNK N   1      34.066  11.766  15.098  0.00  0.00     0.351 C 
HETATM    3  O   UNK N   1      33.771  10.586  14.997  0.00  0.00    -0.284 OA
ENDBRANCH   1   2
BRANCH   1   4
HETATM    4  C   UNK N   1      35.325  12.058  17.146  0.00  0.00     0.087 A 
HETATM    5  C   UNK N   1      35.078  13.191  18.106  0.00  0.00     0.025 A 
HETATM    6  C   UNK N   1      35.329  12.580  19.477  0.00  0.00     0.002 A 
HETATM    7  C   UNK N   1      35.748  11.116  19.304  0.00  0.00     0.002 A 
HETATM    8  C   UNK N   1      35.765  10.783  17.823  0.00  0.00     0.025 A 
ENDBRANCH   1   4
BRANCH   1   9
HETATM    9  C   UNK N   1      36.300  12.671  14.844  0.00  0.00     0.087 A 
HETATM   10  C   UNK N   1      36.778  14.060  15.206  0.00  0.00     0.025 A 
HETATM   11  C   UNK N   1      36.429  14.517  13.797  0.00  0.00     0.004 A 
HETATM   12  C   UNK N   1      35.851  13.146  13.479  0.00  0.00     0.025 A 
ENDBRANCH   1   9
TORSDOF 3
ENDMDL
