MODEL 1
REMARK VINA RESULT:      -6.5      0.000      0.000
REMARK  5 active torsions:
REMARK  status: ('A' for Active; 'I' for Inactive)
REMARK    1  A    between atoms: C_1  and  C_13 
REMARK    2  A    between atoms: C_9  and  S_10 
REMARK    3  A    between atoms: S_10  and  C_16 
REMARK    4  A    between atoms: C_16  and  C_17 
REMARK    5  A    between atoms: C_17  and  O_18 
ROOT
HETATM    1  O   UNK N   1      36.488  14.703  13.590  0.00  0.00    -0.210 OA
HETATM    2  C   UNK N   1      35.777  13.747  13.043  0.00  0.00     0.210 A 
HETATM    3  N   UNK N   1      35.366  12.864  13.970  0.00  0.00    -0.314 N 
ATOM      4  HN  UNK N   1      34.799  12.026  13.845  1.00  0.00     0.170 HD
HETATM    5  C   UNK N   1      35.888  13.366  15.107  0.00  0.00     0.138 A 
HETATM    6  N   UNK N   1      36.581  14.498  14.869  0.00  0.00    -0.241 N 
ATOM      7  HN  UNK N   1      37.076  15.073  15.552  1.00  0.00     0.196 HD
ENDROOT
BRANCH   5   8
HETATM    8  C   UNK N   1      35.624  12.820  16.447  0.00  0.00     0.011 A 
HETATM    9  C   UNK N   1      35.335  13.680  17.516  0.00  0.00     0.015 A 
HETATM   10  C   UNK N   1      35.154  13.167  18.803  0.00  0.00     0.003 A 
HETATM   11  C   UNK N   1      35.283  11.795  19.034  0.00  0.00     0.024 A 
HETATM   12  C   UNK N   1      35.577  10.933  17.973  0.00  0.00     0.035 A 
HETATM   13  C   UNK N   1      35.743  11.443  16.682  0.00  0.00     0.039 A 
HETATM   14 Cl   UNK N   1      35.779   9.220  18.269  0.00  0.00    -0.084 Cl
ENDBRANCH   5   8
BRANCH   2  15
HETATM   15  S   UNK N   1      35.227  13.727  11.338  0.00  0.00    -0.074 SA
BRANCH  15  16
HETATM   16  C   UNK N   1      34.722  15.476  11.311  0.00  0.00     0.192 C 
BRANCH  16  17
HETATM   17  C   UNK N   1      35.777  16.371  10.733  0.00  0.00     0.149 C 
HETATM   18  O   UNK N   1      35.480  17.409  10.163  0.00  0.00    -0.649 OA
BRANCH  17  19
HETATM   19  O   UNK N   1      37.072  16.029  10.858  0.00  0.00    -0.776 OA
HETATM   20  H   UNK N   1      37.638  15.903  11.594  0.00  0.00     0.167 HD
ENDBRANCH  17  19
ENDBRANCH  16  17
ENDBRANCH  15  16
ENDBRANCH   2  15
TORSDOF 5
ENDMDL
MODEL 2
REMARK VINA RESULT:      -6.2      1.188      1.673
REMARK  5 active torsions:
REMARK  status: ('A' for Active; 'I' for Inactive)
REMARK    1  A    between atoms: C_1  and  C_13 
REMARK    2  A    between atoms: C_9  and  S_10 
REMARK    3  A    between atoms: S_10  and  C_16 
REMARK    4  A    between atoms: C_16  and  C_17 
REMARK    5  A    between atoms: C_17  and  O_18 
ROOT
HETATM    1  O   UNK N   1      36.417  14.609  13.536  0.00  0.00    -0.210 OA
HETATM    2  C   UNK N   1      35.801  13.634  12.912  0.00  0.00     0.210 A 
HETATM    3  N   UNK N   1      35.518  12.626  13.757  0.00  0.00    -0.314 N 
ATOM      4  HN  UNK N   1      35.044  11.745  13.562  1.00  0.00     0.170 HD
HETATM    5  C   UNK N   1      36.014  13.075  14.927  0.00  0.00     0.138 A 
HETATM    6  N   UNK N   1      36.570  14.295  14.787  0.00  0.00    -0.241 N 
ATOM      7  HN  UNK N   1      37.017  14.856  15.513  1.00  0.00     0.196 HD
ENDROOT
BRANCH   5   8
HETATM    8  C   UNK N   1      35.852  12.378  16.212  0.00  0.00     0.011 A 
HETATM    9  C   UNK N   1      36.004  10.986  16.284  0.00  0.00     0.015 A 
HETATM   10  C   UNK N   1      35.781  10.315  17.490  0.00  0.00     0.003 A 
HETATM   11  C   UNK N   1      35.383  11.028  18.624  0.00  0.00     0.024 A 
HETATM   12  C   UNK N   1      35.224  12.416  18.556  0.00  0.00     0.035 A 
HETATM   13  C   UNK N   1      35.462  13.090  17.355  0.00  0.00     0.039 A 
HETATM   14 Cl   UNK N   1      34.686  13.304  19.965  0.00  0.00    -0.084 Cl
ENDBRANCH   5   8
BRANCH   2  15
HETATM   15  S   UNK N   1      35.206  13.712  11.224  0.00  0.00    -0.074 SA
BRANCH  15  16
HETATM   16  C   UNK N   1      34.720  15.465  11.305  0.00  0.00     0.192 C 
BRANCH  16  17
HETATM   17  C   UNK N   1      35.771  16.380  10.752  0.00  0.00     0.149 C 
HETATM   18  O   UNK N   1      35.470  17.438  10.222  0.00  0.00    -0.649 OA
BRANCH  17  19
HETATM   19  O   UNK N   1      37.067  16.034  10.854  0.00  0.00    -0.776 OA
HETATM   20  H   UNK N   1      37.675  16.014  11.567  0.00  0.00     0.167 HD
ENDBRANCH  17  19
ENDBRANCH  16  17
ENDBRANCH  15  16
ENDBRANCH   2  15
TORSDOF 5
ENDMDL
MODEL 3
REMARK VINA RESULT:      -6.2      9.038     11.831
REMARK  5 active torsions:
REMARK  status: ('A' for Active; 'I' for Inactive)
REMARK    1  A    between atoms: C_1  and  C_13 
REMARK    2  A    between atoms: C_9  and  S_10 
REMARK    3  A    between atoms: S_10  and  C_16 
REMARK    4  A    between atoms: C_16  and  C_17 
REMARK    5  A    between atoms: C_17  and  O_18 
ROOT
HETATM    1  O   UNK N   1      30.681  16.842   9.062  0.00  0.00    -0.210 OA
HETATM    2  C   UNK N   1      31.396  16.589   7.992  0.00  0.00     0.210 A 
HETATM    3  N   UNK N   1      30.807  17.089   6.892  0.00  0.00    -0.314 N 
ATOM      4  HN  UNK N   1      31.127  17.052   5.925  1.00  0.00     0.170 HD
HETATM    5  C   UNK N   1      29.688  17.654   7.387  0.00  0.00     0.138 A 
HETATM    6  N   UNK N   1      29.612  17.498   8.724  0.00  0.00    -0.241 N 
ATOM      7  HN  UNK N   1      28.869  17.826   9.342  1.00  0.00     0.196 HD
ENDROOT
BRANCH   5   8
HETATM    8  C   UNK N   1      28.743  18.449   6.588  0.00  0.00     0.011 A 
HETATM    9  C   UNK N   1      28.674  18.276   5.198  0.00  0.00     0.015 A 
HETATM   10  C   UNK N   1      27.827  19.081   4.430  0.00  0.00     0.003 A 
HETATM   11  C   UNK N   1      27.063  20.077   5.043  0.00  0.00     0.024 A 
HETATM   12  C   UNK N   1      27.132  20.258   6.428  0.00  0.00     0.035 A 
HETATM   13  C   UNK N   1      27.966  19.443   7.199  0.00  0.00     0.039 A 
HETATM   14 Cl   UNK N   1      26.206  21.532   7.190  0.00  0.00    -0.084 Cl
ENDBRANCH   5   8
BRANCH   2  15
HETATM   15  S   UNK N   1      33.042  15.882   8.005  0.00  0.00    -0.074 SA
BRANCH  15  16
HETATM   16  C   UNK N   1      33.806  17.266   8.908  0.00  0.00     0.192 C 
BRANCH  16  17
HETATM   17  C   UNK N   1      34.503  18.232   7.998  0.00  0.00     0.149 C 
HETATM   18  O   UNK N   1      34.358  18.174   6.786  0.00  0.00    -0.649 OA
BRANCH  17  19
HETATM   19  O   UNK N   1      35.290  19.186   8.527  0.00  0.00    -0.776 OA
HETATM   20  H   UNK N   1      35.890  19.806   8.159  0.00  0.00     0.167 HD
ENDBRANCH  17  19
ENDBRANCH  16  17
ENDBRANCH  15  16
ENDBRANCH   2  15
TORSDOF 5
ENDMDL
MODEL 4
REMARK VINA RESULT:      -6.1      6.485      9.131
REMARK  5 active torsions:
REMARK  status: ('A' for Active; 'I' for Inactive)
REMARK    1  A    between atoms: C_1  and  C_13 
REMARK    2  A    between atoms: C_9  and  S_10 
REMARK    3  A    between atoms: S_10  and  C_16 
REMARK    4  A    between atoms: C_16  and  C_17 
REMARK    5  A    between atoms: C_17  and  O_18 
ROOT
HETATM    1  O   UNK N   1      35.633  17.522  10.194  0.00  0.00    -0.210 OA
HETATM    2  C   UNK N   1      35.075  16.439  10.678  0.00  0.00     0.210 A 
HETATM    3  N   UNK N   1      33.955  16.132   9.999  0.00  0.00    -0.314 N 
ATOM      4  HN  UNK N   1      33.317  15.350  10.143  1.00  0.00     0.170 HD
HETATM    5  C   UNK N   1      33.889  17.115   9.080  0.00  0.00     0.138 A 
HETATM    6  N   UNK N   1      34.923  17.972   9.204  0.00  0.00    -0.241 N 
ATOM      7  HN  UNK N   1      35.108  18.800   8.638  1.00  0.00     0.196 HD
ENDROOT
BRANCH   5   8
HETATM    8  C   UNK N   1      32.891  17.169   8.001  0.00  0.00     0.011 A 
HETATM    9  C   UNK N   1      31.535  16.950   8.283  0.00  0.00     0.015 A 
HETATM   10  C   UNK N   1      30.595  16.930   7.248  0.00  0.00     0.003 A 
HETATM   11  C   UNK N   1      31.008  17.106   5.925  0.00  0.00     0.024 A 
HETATM   12  C   UNK N   1      32.359  17.319   5.638  0.00  0.00     0.035 A 
HETATM   13  C   UNK N   1      33.298  17.355   6.673  0.00  0.00     0.039 A 
HETATM   14 Cl   UNK N   1      32.882  17.499   3.977  0.00  0.00    -0.084 Cl
ENDBRANCH   5   8
BRANCH   2  15
HETATM   15  S   UNK N   1      35.810  15.375  11.918  0.00  0.00    -0.074 SA
BRANCH  15  16
HETATM   16  C   UNK N   1      36.136  13.996  10.774  0.00  0.00     0.192 C 
BRANCH  16  17
HETATM   17  C   UNK N   1      37.134  14.353   9.713  0.00  0.00     0.149 C 
HETATM   18  O   UNK N   1      36.900  14.145   8.532  0.00  0.00    -0.649 OA
BRANCH  17  19
HETATM   19  O   UNK N   1      38.299  14.924  10.068  0.00  0.00    -0.776 OA
HETATM   20  H   UNK N   1      39.196  14.666   9.981  0.00  0.00     0.167 HD
ENDBRANCH  17  19
ENDBRANCH  16  17
ENDBRANCH  15  16
ENDBRANCH   2  15
TORSDOF 5
ENDMDL
MODEL 5
REMARK VINA RESULT:      -6.1      2.736      3.722
REMARK  5 active torsions:
REMARK  status: ('A' for Active; 'I' for Inactive)
REMARK    1  A    between atoms: C_1  and  C_13 
REMARK    2  A    between atoms: C_9  and  S_10 
REMARK    3  A    between atoms: S_10  and  C_16 
REMARK    4  A    between atoms: C_16  and  C_17 
REMARK    5  A    between atoms: C_17  and  O_18 
ROOT
HETATM    1  O   UNK N   1      35.355  16.337  10.584  0.00  0.00    -0.210 OA
HETATM    2  C   UNK N   1      34.531  15.442  10.094  0.00  0.00     0.210 A 
HETATM    3  N   UNK N   1      34.459  14.366  10.898  0.00  0.00    -0.314 N 
ATOM      4  HN  UNK N   1      33.903  13.520  10.781  1.00  0.00     0.170 HD
HETATM    5  C   UNK N   1      35.304  14.688  11.898  0.00  0.00     0.138 A 
HETATM    6  N   UNK N   1      35.856  15.902  11.700  0.00  0.00    -0.241 N 
ATOM      7  HN  UNK N   1      36.528  16.379  12.302  1.00  0.00     0.196 HD
ENDROOT
BRANCH   5   8
HETATM    8  C   UNK N   1      35.494  13.876  13.109  0.00  0.00     0.011 A 
HETATM    9  C   UNK N   1      36.460  14.241  14.059  0.00  0.00     0.015 A 
HETATM   10  C   UNK N   1      36.691  13.431  15.174  0.00  0.00     0.003 A 
HETATM   11  C   UNK N   1      35.974  12.242  15.336  0.00  0.00     0.024 A 
HETATM   12  C   UNK N   1      35.014  11.871  14.390  0.00  0.00     0.035 A 
HETATM   13  C   UNK N   1      34.771  12.688  13.282  0.00  0.00     0.039 A 
HETATM   14 Cl   UNK N   1      34.146  10.362  14.571  0.00  0.00    -0.084 Cl
ENDBRANCH   5   8
BRANCH   2  15
HETATM   15  S   UNK N   1      33.467  15.697   8.676  0.00  0.00    -0.074 SA
BRANCH  15  16
HETATM   16  C   UNK N   1      33.421  17.511   8.832  0.00  0.00     0.192 C 
BRANCH  16  17
HETATM   17  C   UNK N   1      34.421  18.190   7.943  0.00  0.00     0.149 C 
HETATM   18  O   UNK N   1      34.491  17.922   6.754  0.00  0.00    -0.649 OA
BRANCH  17  19
HETATM   19  O   UNK N   1      35.243  19.118   8.465  0.00  0.00    -0.776 OA
HETATM   20  H   UNK N   1      36.176  19.192   8.527  0.00  0.00     0.167 HD
ENDBRANCH  17  19
ENDBRANCH  16  17
ENDBRANCH  15  16
ENDBRANCH   2  15
TORSDOF 5
ENDMDL
MODEL 6
REMARK VINA RESULT:      -5.9      6.148      9.342
REMARK  5 active torsions:
REMARK  status: ('A' for Active; 'I' for Inactive)
REMARK    1  A    between atoms: C_1  and  C_13 
REMARK    2  A    between atoms: C_9  and  S_10 
REMARK    3  A    between atoms: S_10  and  C_16 
REMARK    4  A    between atoms: C_16  and  C_17 
REMARK    5  A    between atoms: C_17  and  O_18 
ROOT
HETATM    1  O   UNK N   1      35.260  17.943   9.251  0.00  0.00    -0.210 OA
HETATM    2  C   UNK N   1      34.932  16.853   9.902  0.00  0.00     0.210 A 
HETATM    3  N   UNK N   1      33.674  16.478   9.609  0.00  0.00    -0.314 N 
ATOM      4  HN  UNK N   1      33.151  15.675   9.957  1.00  0.00     0.170 HD
HETATM    5  C   UNK N   1      33.279  17.429   8.739  0.00  0.00     0.138 A 
HETATM    6  N   UNK N   1      34.257  18.331   8.522  0.00  0.00    -0.241 N 
ATOM      7  HN  UNK N   1      34.217  19.148   7.913  1.00  0.00     0.196 HD
ENDROOT
BRANCH   5   8
HETATM    8  C   UNK N   1      31.995  17.407   8.022  0.00  0.00     0.011 A 
HETATM    9  C   UNK N   1      31.951  17.063   6.663  0.00  0.00     0.015 A 
HETATM   10  C   UNK N   1      30.742  17.111   5.963  0.00  0.00     0.003 A 
HETATM   11  C   UNK N   1      29.575  17.524   6.611  0.00  0.00     0.024 A 
HETATM   12  C   UNK N   1      29.614  17.874   7.964  0.00  0.00     0.035 A 
HETATM   13  C   UNK N   1      30.819  17.811   8.669  0.00  0.00     0.039 A 
HETATM   14 Cl   UNK N   1      28.161  18.430   8.765  0.00  0.00    -0.084 Cl
ENDBRANCH   5   8
BRANCH   2  15
HETATM   15  S   UNK N   1      36.065  15.860  10.871  0.00  0.00    -0.074 SA
BRANCH  15  16
HETATM   16  C   UNK N   1      35.574  14.275  10.120  0.00  0.00     0.192 C 
BRANCH  16  17
HETATM   17  C   UNK N   1      34.934  13.345  11.107  0.00  0.00     0.149 C 
HETATM   18  O   UNK N   1      34.980  12.134  10.953  0.00  0.00    -0.649 OA
BRANCH  17  19
HETATM   19  O   UNK N   1      34.312  13.854  12.185  0.00  0.00    -0.776 OA
HETATM   20  H   UNK N   1      34.036  14.718  12.423  0.00  0.00     0.167 HD
ENDBRANCH  17  19
ENDBRANCH  16  17
ENDBRANCH  15  16
ENDBRANCH   2  15
TORSDOF 5
ENDMDL
MODEL 7
REMARK VINA RESULT:      -5.9     15.729     17.605
REMARK  5 active torsions:
REMARK  status: ('A' for Active; 'I' for Inactive)
REMARK    1  A    between atoms: C_1  and  C_13 
REMARK    2  A    between atoms: C_9  and  S_10 
REMARK    3  A    between atoms: S_10  and  C_16 
REMARK    4  A    between atoms: C_16  and  C_17 
REMARK    5  A    between atoms: C_17  and  O_18 
ROOT
HETATM    1  O   UNK N   1      22.003  18.067   5.032  0.00  0.00    -0.210 OA
HETATM    2  C   UNK N   1      21.933  18.526   3.806  0.00  0.00     0.210 A 
HETATM    3  N   UNK N   1      23.119  19.025   3.412  0.00  0.00    -0.314 N 
ATOM      4  HN  UNK N   1      23.368  19.444   2.517  1.00  0.00     0.170 HD
HETATM    5  C   UNK N   1      23.895  18.831   4.497  0.00  0.00     0.138 A 
HETATM    6  N   UNK N   1      23.204  18.243   5.494  0.00  0.00    -0.241 N 
ATOM      7  HN  UNK N   1      23.552  17.989   6.419  1.00  0.00     0.196 HD
ENDROOT
BRANCH   5   8
HETATM    8  C   UNK N   1      25.339  19.106   4.537  0.00  0.00     0.011 A 
HETATM    9  C   UNK N   1      26.238  18.257   3.876  0.00  0.00     0.015 A 
HETATM   10  C   UNK N   1      27.615  18.477   3.973  0.00  0.00     0.003 A 
HETATM   11  C   UNK N   1      28.102  19.533   4.748  0.00  0.00     0.024 A 
HETATM   12  C   UNK N   1      27.210  20.379   5.414  0.00  0.00     0.035 A 
HETATM   13  C   UNK N   1      25.833  20.170   5.305  0.00  0.00     0.039 A 
HETATM   14 Cl   UNK N   1      27.821  21.677   6.418  0.00  0.00    -0.084 Cl
ENDBRANCH   5   8
BRANCH   2  15
HETATM   15  S   UNK N   1      20.530  18.317   2.712  0.00  0.00    -0.074 SA
BRANCH  15  16
HETATM   16  C   UNK N   1      20.384  20.084   2.297  0.00  0.00     0.192 C 
BRANCH  16  17
HETATM   17  C   UNK N   1      21.109  20.440   1.034  0.00  0.00     0.149 C 
HETATM   18  O   UNK N   1      22.328  20.510   1.005  0.00  0.00    -0.649 OA
BRANCH  17  19
HETATM   19  O   UNK N   1      20.404  20.673  -0.088  0.00  0.00    -0.776 OA
HETATM   20  H   UNK N   1      19.830  20.147  -0.610  0.00  0.00     0.167 HD
ENDBRANCH  17  19
ENDBRANCH  16  17
ENDBRANCH  15  16
ENDBRANCH   2  15
TORSDOF 5
ENDMDL
MODEL 8
REMARK VINA RESULT:      -5.8      6.700      9.639
REMARK  5 active torsions:
REMARK  status: ('A' for Active; 'I' for Inactive)
REMARK    1  A    between atoms: C_1  and  C_13 
REMARK    2  A    between atoms: C_9  and  S_10 
REMARK    3  A    between atoms: S_10  and  C_16 
REMARK    4  A    between atoms: C_16  and  C_17 
REMARK    5  A    between atoms: C_17  and  O_18 
ROOT
HETATM    1  O   UNK N   1      33.747  15.788   7.750  0.00  0.00    -0.210 OA
HETATM    2  C   UNK N   1      33.418  15.414   8.964  0.00  0.00     0.210 A 
HETATM    3  N   UNK N   1      32.243  15.956   9.331  0.00  0.00    -0.314 N 
ATOM      4  HN  UNK N   1      31.737  15.844  10.209  1.00  0.00     0.170 HD
HETATM    5  C   UNK N   1      31.901  16.681   8.247  0.00  0.00     0.138 A 
HETATM    6  N   UNK N   1      32.830  16.577   7.276  0.00  0.00    -0.241 N 
ATOM      7  HN  UNK N   1      32.817  17.026   6.360  1.00  0.00     0.196 HD
ENDROOT
BRANCH   5   8
HETATM    8  C   UNK N   1      30.618  17.384   8.098  0.00  0.00     0.011 A 
HETATM    9  C   UNK N   1      30.002  17.972   9.212  0.00  0.00     0.015 A 
HETATM   10  C   UNK N   1      28.749  18.579   9.085  0.00  0.00     0.003 A 
HETATM   11  C   UNK N   1      28.096  18.583   7.850  0.00  0.00     0.024 A 
HETATM   12  C   UNK N   1      28.703  17.993   6.737  0.00  0.00     0.035 A 
HETATM   13  C   UNK N   1      29.963  17.400   6.859  0.00  0.00     0.039 A 
HETATM   14 Cl   UNK N   1      27.867  17.961   5.199  0.00  0.00    -0.084 Cl
ENDBRANCH   5   8
BRANCH   2  15
HETATM   15  S   UNK N   1      34.285  14.175   9.923  0.00  0.00    -0.074 SA
BRANCH  15  16
HETATM   16  C   UNK N   1      34.780  15.316  11.253  0.00  0.00     0.192 C 
BRANCH  16  17
HETATM   17  C   UNK N   1      35.818  16.303  10.807  0.00  0.00     0.149 C 
HETATM   18  O   UNK N   1      35.506  17.429  10.452  0.00  0.00    -0.649 OA
BRANCH  17  19
HETATM   19  O   UNK N   1      37.114  15.944  10.813  0.00  0.00    -0.776 OA
HETATM   20  H   UNK N   1      37.798  15.985  10.173  0.00  0.00     0.167 HD
ENDBRANCH  17  19
ENDBRANCH  16  17
ENDBRANCH  15  16
ENDBRANCH   2  15
TORSDOF 5
ENDMDL
MODEL 9
REMARK VINA RESULT:      -5.8      3.960      5.242
REMARK  5 active torsions:
REMARK  status: ('A' for Active; 'I' for Inactive)
REMARK    1  A    between atoms: C_1  and  C_13 
REMARK    2  A    between atoms: C_9  and  S_10 
REMARK    3  A    between atoms: S_10  and  C_16 
REMARK    4  A    between atoms: C_16  and  C_17 
REMARK    5  A    between atoms: C_17  and  O_18 
ROOT
HETATM    1  O   UNK N   1      34.660  17.464   9.764  0.00  0.00    -0.210 OA
HETATM    2  C   UNK N   1      33.704  16.643   9.403  0.00  0.00     0.210 A 
HETATM    3  N   UNK N   1      33.803  15.473  10.059  0.00  0.00    -0.314 N 
ATOM      4  HN  UNK N   1      33.204  14.651   9.990  1.00  0.00     0.170 HD
HETATM    5  C   UNK N   1      34.892  15.660  10.833  0.00  0.00     0.138 A 
HETATM    6  N   UNK N   1      35.419  16.887  10.646  0.00  0.00    -0.241 N 
ATOM      7  HN  UNK N   1      36.242  17.280  11.103  1.00  0.00     0.196 HD
ENDROOT
BRANCH   5   8
HETATM    8  C   UNK N   1      35.361  14.699  11.842  0.00  0.00     0.011 A 
HETATM    9  C   UNK N   1      35.067  13.334  11.707  0.00  0.00     0.015 A 
HETATM   10  C   UNK N   1      35.451  12.430  12.701  0.00  0.00     0.003 A 
HETATM   11  C   UNK N   1      36.110  12.887  13.846  0.00  0.00     0.024 A 
HETATM   12  C   UNK N   1      36.399  14.247  13.988  0.00  0.00     0.035 A 
HETATM   13  C   UNK N   1      36.030  15.150  12.987  0.00  0.00     0.039 A 
HETATM   14 Cl   UNK N   1      37.188  14.825  15.440  0.00  0.00    -0.084 Cl
ENDBRANCH   5   8
BRANCH   2  15
HETATM   15  S   UNK N   1      32.317  17.082   8.358  0.00  0.00    -0.074 SA
BRANCH  15  16
HETATM   16  C   UNK N   1      32.905  16.150   6.909  0.00  0.00     0.192 C 
BRANCH  16  17
HETATM   17  C   UNK N   1      34.137  16.750   6.300  0.00  0.00     0.149 C 
HETATM   18  O   UNK N   1      34.187  17.937   6.020  0.00  0.00    -0.649 OA
BRANCH  17  19
HETATM   19  O   UNK N   1      35.207  15.967   6.070  0.00  0.00    -0.776 OA
HETATM   20  H   UNK N   1      35.332  15.039   6.040  0.00  0.00     0.167 HD
ENDBRANCH  17  19
ENDBRANCH  16  17
ENDBRANCH  15  16
ENDBRANCH   2  15
TORSDOF 5
ENDMDL
