MODEL 1
REMARK VINA RESULT:      -5.9      0.000      0.000
REMARK  10 active torsions:
REMARK  status: ('A' for Active; 'I' for Inactive)
REMARK    1  A    between atoms: C_5  and  N_7 
REMARK       I    between atoms: N_7  and  C_8 
REMARK       I    between atoms: C_8  and  N_10 
REMARK    2  A    between atoms: N_10  and  C_11 
REMARK    3  A    between atoms: C_11  and  C_12 
REMARK    4  A    between atoms: C_12  and  C_13 
REMARK    5  A    between atoms: C_13  and  C_14 
REMARK    6  A    between atoms: C_14  and  C_15 
REMARK    7  A    between atoms: C_15  and  C_16 
REMARK    8  A    between atoms: C_16  and  C_17 
REMARK    9  A    between atoms: C_17  and  C_18 
REMARK   10  A    between atoms: C_18  and  C_19 
ROOT
HETATM    1  N   UNK N   1      36.281  14.042  14.187  0.00  0.00    -0.339 N 
HETATM    2  C   UNK N   1      35.853  14.192  12.908  0.00  0.00     0.316 C 
HETATM    3  O   UNK N   1      34.802  13.678  12.545  0.00  0.00    -0.247 OA
HETATM    4  N   UNK N   1      36.574  14.943  12.044  0.00  0.00    -0.343 N 
HETATM    5  H   UNK N   1      37.136  14.452  14.452  0.00  0.00     0.164 HD
HETATM    6  H   UNK N   1      37.448  15.303  12.322  0.00  0.00     0.164 HD
ENDROOT
BRANCH   4   7
HETATM    7  C   UNK N   1      36.075  15.223  10.721  0.00  0.00     0.124 C 
BRANCH   7   8
HETATM    8  C   UNK N   1      35.399  16.580  10.660  0.00  0.00     0.020 C 
BRANCH   8   9
HETATM    9  C   UNK N   1      34.349  16.587   9.554  0.00  0.00     0.002 C 
BRANCH   9  10
HETATM   10  C   UNK N   1      34.478  17.828   8.683  0.00  0.00     0.000 C 
BRANCH  10  11
HETATM   11  C   UNK N   1      33.241  18.018   7.826  0.00  0.00     0.000 C 
BRANCH  11  12
HETATM   12  C   UNK N   1      32.241  16.927   8.143  0.00  0.00     0.000 C 
BRANCH  12  13
HETATM   13  C   UNK N   1      30.829  17.433   7.937  0.00  0.00     0.000 C 
BRANCH  13  14
HETATM   14  C   UNK N   1      30.511  18.423   9.039  0.00  0.00    -0.000 C 
BRANCH  14  15
HETATM   15  C   UNK N   1      29.025  18.699   9.087  0.00  0.00    -0.005 C 
HETATM   16  C   UNK N   1      28.291  17.403   9.360  0.00  0.00     0.005 C 
ENDBRANCH  14  15
ENDBRANCH  13  14
ENDBRANCH  12  13
ENDBRANCH  11  12
ENDBRANCH  10  11
ENDBRANCH   9  10
ENDBRANCH   8   9
ENDBRANCH   7   8
ENDBRANCH   4   7
BRANCH   1  17
HETATM   17  C   UNK N   1      35.526  13.301  15.176  0.00  0.00     0.086 C 
HETATM   18  C   UNK N   1      35.910  11.824  15.108  0.00  0.00     0.025 C 
HETATM   19  C   UNK N   1      35.148  11.025  16.166  0.00  0.00     0.002 C 
HETATM   20  C   UNK N   1      35.423  11.583  17.561  0.00  0.00     0.000 C 
HETATM   21  C   UNK N   1      35.030  13.055  17.623  0.00  0.00     0.002 C 
HETATM   22  C   UNK N   1      35.819  13.838  16.582  0.00  0.00     0.025 C 
ENDBRANCH   1  17
TORSDOF 10
ENDMDL
MODEL 2
REMARK VINA RESULT:      -5.6      2.191      2.630
REMARK  10 active torsions:
REMARK  status: ('A' for Active; 'I' for Inactive)
REMARK    1  A    between atoms: C_5  and  N_7 
REMARK       I    between atoms: N_7  and  C_8 
REMARK       I    between atoms: C_8  and  N_10 
REMARK    2  A    between atoms: N_10  and  C_11 
REMARK    3  A    between atoms: C_11  and  C_12 
REMARK    4  A    between atoms: C_12  and  C_13 
REMARK    5  A    between atoms: C_13  and  C_14 
REMARK    6  A    between atoms: C_14  and  C_15 
REMARK    7  A    between atoms: C_15  and  C_16 
REMARK    8  A    between atoms: C_16  and  C_17 
REMARK    9  A    between atoms: C_17  and  C_18 
REMARK   10  A    between atoms: C_18  and  C_19 
ROOT
HETATM    1  N   UNK N   1      36.502  13.514  14.806  0.00  0.00    -0.339 N 
HETATM    2  C   UNK N   1      36.049  13.575  13.529  0.00  0.00     0.316 C 
HETATM    3  O   UNK N   1      34.908  13.219  13.261  0.00  0.00    -0.247 OA
HETATM    4  N   UNK N   1      36.852  14.065  12.555  0.00  0.00    -0.343 N 
HETATM    5  H   UNK N   1      37.429  13.792  14.994  0.00  0.00     0.164 HD
HETATM    6  H   UNK N   1      37.788  14.292  12.762  0.00  0.00     0.164 HD
ENDROOT
BRANCH   4   7
HETATM    7  C   UNK N   1      36.350  14.259  11.218  0.00  0.00     0.124 C 
BRANCH   7   8
HETATM    8  C   UNK N   1      35.579  15.561  11.100  0.00  0.00     0.020 C 
BRANCH   8   9
HETATM    9  C   UNK N   1      34.253  15.315  10.389  0.00  0.00     0.002 C 
BRANCH   9  10
HETATM   10  C   UNK N   1      34.248  15.946   9.004  0.00  0.00     0.000 C 
BRANCH  10  11
HETATM   11  C   UNK N   1      34.538  17.433   9.087  0.00  0.00     0.000 C 
BRANCH  11  12
HETATM   12  C   UNK N   1      34.159  18.090   7.778  0.00  0.00     0.000 C 
BRANCH  12  13
HETATM   13  C   UNK N   1      33.993  17.045   6.694  0.00  0.00     0.000 C 
BRANCH  13  14
HETATM   14  C   UNK N   1      32.721  17.349   5.929  0.00  0.00    -0.000 C 
BRANCH  14  15
HETATM   15  C   UNK N   1      33.034  17.621   4.474  0.00  0.00    -0.005 C 
HETATM   16  C   UNK N   1      31.885  17.124   3.622  0.00  0.00     0.005 C 
ENDBRANCH  14  15
ENDBRANCH  13  14
ENDBRANCH  12  13
ENDBRANCH  11  12
ENDBRANCH  10  11
ENDBRANCH   9  10
ENDBRANCH   8   9
ENDBRANCH   7   8
ENDBRANCH   4   7
BRANCH   1  17
HETATM   17  C   UNK N   1      35.675  13.056  15.902  0.00  0.00     0.086 C 
HETATM   18  C   UNK N   1      36.033  11.611  16.242  0.00  0.00     0.025 C 
HETATM   19  C   UNK N   1      35.193  11.114  17.418  0.00  0.00     0.002 C 
HETATM   20  C   UNK N   1      35.392  12.014  18.637  0.00  0.00     0.000 C 
HETATM   21  C   UNK N   1      35.026  13.453  18.292  0.00  0.00     0.002 C 
HETATM   22  C   UNK N   1      35.892  13.938  17.138  0.00  0.00     0.025 C 
ENDBRANCH   1  17
TORSDOF 10
ENDMDL
MODEL 3
REMARK VINA RESULT:      -5.5      2.469      8.280
REMARK  10 active torsions:
REMARK  status: ('A' for Active; 'I' for Inactive)
REMARK    1  A    between atoms: C_5  and  N_7 
REMARK       I    between atoms: N_7  and  C_8 
REMARK       I    between atoms: C_8  and  N_10 
REMARK    2  A    between atoms: N_10  and  C_11 
REMARK    3  A    between atoms: C_11  and  C_12 
REMARK    4  A    between atoms: C_12  and  C_13 
REMARK    5  A    between atoms: C_13  and  C_14 
REMARK    6  A    between atoms: C_14  and  C_15 
REMARK    7  A    between atoms: C_15  and  C_16 
REMARK    8  A    between atoms: C_16  and  C_17 
REMARK    9  A    between atoms: C_17  and  C_18 
REMARK   10  A    between atoms: C_18  and  C_19 
ROOT
HETATM    1  N   UNK N   1      36.231  15.242  12.136  0.00  0.00    -0.339 N 
HETATM    2  C   UNK N   1      36.013  14.351  13.136  0.00  0.00     0.316 C 
HETATM    3  O   UNK N   1      35.016  13.639  13.121  0.00  0.00    -0.247 OA
HETATM    4  N   UNK N   1      36.920  14.227  14.133  0.00  0.00    -0.343 N 
HETATM    5  H   UNK N   1      37.032  15.814  12.177  0.00  0.00     0.164 HD
HETATM    6  H   UNK N   1      37.687  14.842  14.174  0.00  0.00     0.164 HD
ENDROOT
BRANCH   4   7
HETATM    7  C   UNK N   1      36.774  13.200  15.134  0.00  0.00     0.124 C 
BRANCH   7   8
HETATM    8  C   UNK N   1      35.890  13.664  16.278  0.00  0.00     0.020 C 
BRANCH   8   9
HETATM    9  C   UNK N   1      35.139  12.475  16.868  0.00  0.00     0.002 C 
BRANCH   9  10
HETATM   10  C   UNK N   1      35.710  11.159  16.357  0.00  0.00     0.000 C 
BRANCH  10  11
HETATM   11  C   UNK N   1      34.599  10.175  16.043  0.00  0.00     0.000 C 
BRANCH  11  12
HETATM   12  C   UNK N   1      33.755  10.719  14.911  0.00  0.00     0.000 C 
BRANCH  12  13
HETATM   13  C   UNK N   1      34.376  10.367  13.575  0.00  0.00     0.000 C 
BRANCH  13  14
HETATM   14  C   UNK N   1      35.134   9.065  13.730  0.00  0.00    -0.000 C 
BRANCH  14  15
HETATM   15  C   UNK N   1      36.495   9.167  13.077  0.00  0.00    -0.005 C 
HETATM   16  C   UNK N   1      36.663  10.559  12.505  0.00  0.00     0.005 C 
ENDBRANCH  14  15
ENDBRANCH  13  14
ENDBRANCH  12  13
ENDBRANCH  11  12
ENDBRANCH  10  11
ENDBRANCH   9  10
ENDBRANCH   8   9
ENDBRANCH   7   8
ENDBRANCH   4   7
BRANCH   1  17
HETATM   17  C   UNK N   1      35.331  15.382  11.011  0.00  0.00     0.086 C 
HETATM   18  C   UNK N   1      35.327  16.835  10.539  0.00  0.00     0.025 C 
HETATM   19  C   UNK N   1      34.406  17.001   9.330  0.00  0.00     0.002 C 
HETATM   20  C   UNK N   1      34.837  16.073   8.196  0.00  0.00     0.000 C 
HETATM   21  C   UNK N   1      34.831  14.625   8.672  0.00  0.00     0.002 C 
HETATM   22  C   UNK N   1      35.775  14.474   9.858  0.00  0.00     0.025 C 
ENDBRANCH   1  17
TORSDOF 10
ENDMDL
MODEL 4
REMARK VINA RESULT:      -5.5      2.121      8.880
REMARK  10 active torsions:
REMARK  status: ('A' for Active; 'I' for Inactive)
REMARK    1  A    between atoms: C_5  and  N_7 
REMARK       I    between atoms: N_7  and  C_8 
REMARK       I    between atoms: C_8  and  N_10 
REMARK    2  A    between atoms: N_10  and  C_11 
REMARK    3  A    between atoms: C_11  and  C_12 
REMARK    4  A    between atoms: C_12  and  C_13 
REMARK    5  A    between atoms: C_13  and  C_14 
REMARK    6  A    between atoms: C_14  and  C_15 
REMARK    7  A    between atoms: C_15  and  C_16 
REMARK    8  A    between atoms: C_16  and  C_17 
REMARK    9  A    between atoms: C_17  and  C_18 
REMARK   10  A    between atoms: C_18  and  C_19 
ROOT
HETATM    1  N   UNK N   1      33.659  16.472   9.448  0.00  0.00    -0.339 N 
HETATM    2  C   UNK N   1      34.582  15.686  10.057  0.00  0.00     0.316 C 
HETATM    3  O   UNK N   1      35.174  14.823   9.420  0.00  0.00    -0.247 OA
HETATM    4  N   UNK N   1      34.873  15.883  11.364  0.00  0.00    -0.343 N 
HETATM    5  H   UNK N   1      33.185  17.149   9.985  0.00  0.00     0.164 HD
HETATM    6  H   UNK N   1      34.352  16.534  11.888  0.00  0.00     0.164 HD
ENDROOT
BRANCH   4   7
HETATM    7  C   UNK N   1      35.940  15.148  11.997  0.00  0.00     0.124 C 
BRANCH   7   8
HETATM    8  C   UNK N   1      35.399  14.057  12.903  0.00  0.00     0.020 C 
BRANCH   8   9
HETATM    9  C   UNK N   1      36.553  13.326  13.581  0.00  0.00     0.002 C 
BRANCH   9  10
HETATM   10  C   UNK N   1      36.420  13.378  15.096  0.00  0.00     0.000 C 
BRANCH  10  11
HETATM   11  C   UNK N   1      35.008  13.027  15.526  0.00  0.00     0.000 C 
BRANCH  11  12
HETATM   12  C   UNK N   1      35.000  11.640  16.132  0.00  0.00     0.000 C 
BRANCH  12  13
HETATM   13  C   UNK N   1      34.244  10.680  15.237  0.00  0.00     0.000 C 
BRANCH  13  14
HETATM   14  C   UNK N   1      35.223   9.657  14.699  0.00  0.00    -0.000 C 
BRANCH  14  15
HETATM   15  C   UNK N   1      34.926   9.356  13.247  0.00  0.00    -0.005 C 
HETATM   16  C   UNK N   1      33.920  10.364  12.731  0.00  0.00     0.005 C 
ENDBRANCH  14  15
ENDBRANCH  13  14
ENDBRANCH  12  13
ENDBRANCH  11  12
ENDBRANCH  10  11
ENDBRANCH   9  10
ENDBRANCH   8   9
ENDBRANCH   7   8
ENDBRANCH   4   7
BRANCH   1  17
HETATM   17  C   UNK N   1      33.344  16.352   8.041  0.00  0.00     0.086 C 
HETATM   18  C   UNK N   1      31.828  16.327   7.857  0.00  0.00     0.025 C 
HETATM   19  C   UNK N   1      31.471  16.232   6.374  0.00  0.00     0.002 C 
HETATM   20  C   UNK N   1      32.083  17.399   5.599  0.00  0.00     0.000 C 
HETATM   21  C   UNK N   1      33.597  17.412   5.781  0.00  0.00     0.002 C 
HETATM   22  C   UNK N   1      33.932  17.535   7.262  0.00  0.00     0.025 C 
ENDBRANCH   1  17
TORSDOF 10
ENDMDL
MODEL 5
REMARK VINA RESULT:      -5.5      2.497      8.587
REMARK  10 active torsions:
REMARK  status: ('A' for Active; 'I' for Inactive)
REMARK    1  A    between atoms: C_5  and  N_7 
REMARK       I    between atoms: N_7  and  C_8 
REMARK       I    between atoms: C_8  and  N_10 
REMARK    2  A    between atoms: N_10  and  C_11 
REMARK    3  A    between atoms: C_11  and  C_12 
REMARK    4  A    between atoms: C_12  and  C_13 
REMARK    5  A    between atoms: C_13  and  C_14 
REMARK    6  A    between atoms: C_14  and  C_15 
REMARK    7  A    between atoms: C_15  and  C_16 
REMARK    8  A    between atoms: C_16  and  C_17 
REMARK    9  A    between atoms: C_17  and  C_18 
REMARK   10  A    between atoms: C_18  and  C_19 
ROOT
HETATM    1  N   UNK N   1      34.608  15.367   9.928  0.00  0.00    -0.339 N 
HETATM    2  C   UNK N   1      35.517  15.388  10.934  0.00  0.00     0.316 C 
HETATM    3  O   UNK N   1      36.511  16.100  10.853  0.00  0.00    -0.247 OA
HETATM    4  N   UNK N   1      35.305  14.645  12.046  0.00  0.00    -0.343 N 
HETATM    5  H   UNK N   1      33.824  14.775  10.009  0.00  0.00     0.164 HD
HETATM    6  H   UNK N   1      34.539  14.028  12.081  0.00  0.00     0.164 HD
ENDROOT
BRANCH   4   7
HETATM    7  C   UNK N   1      36.190  14.750  13.179  0.00  0.00     0.124 C 
BRANCH   7   8
HETATM    8  C   UNK N   1      36.501  13.385  13.766  0.00  0.00     0.020 C 
BRANCH   8   9
HETATM    9  C   UNK N   1      37.001  12.451  12.669  0.00  0.00     0.002 C 
BRANCH   9  10
HETATM   10  C   UNK N   1      36.316  11.095  12.751  0.00  0.00     0.000 C 
BRANCH  10  11
HETATM   11  C   UNK N   1      34.841  11.213  12.417  0.00  0.00     0.000 C 
BRANCH  11  12
HETATM   12  C   UNK N   1      34.045  10.318  13.342  0.00  0.00     0.000 C 
BRANCH  12  13
HETATM   13  C   UNK N   1      33.754  11.035  14.644  0.00  0.00     0.000 C 
BRANCH  13  14
HETATM   14  C   UNK N   1      34.345  10.223  15.778  0.00  0.00    -0.000 C 
BRANCH  14  15
HETATM   15  C   UNK N   1      35.372  11.040  16.532  0.00  0.00    -0.005 C 
HETATM   16  C   UNK N   1      36.743  10.438  16.304  0.00  0.00     0.005 C 
ENDBRANCH  14  15
ENDBRANCH  13  14
ENDBRANCH  12  13
ENDBRANCH  11  12
ENDBRANCH  10  11
ENDBRANCH   9  10
ENDBRANCH   8   9
ENDBRANCH   7   8
ENDBRANCH   4   7
BRANCH   1  17
HETATM   17  C   UNK N   1      34.746  16.182   8.740  0.00  0.00     0.086 C 
HETATM   18  C   UNK N   1      34.408  15.347   7.506  0.00  0.00     0.025 C 
HETATM   19  C   UNK N   1      34.517  16.196   6.240  0.00  0.00     0.002 C 
HETATM   20  C   UNK N   1      33.597  17.413   6.329  0.00  0.00     0.000 C 
HETATM   21  C   UNK N   1      33.945  18.245   7.558  0.00  0.00     0.002 C 
HETATM   22  C   UNK N   1      33.804  17.390   8.810  0.00  0.00     0.025 C 
ENDBRANCH   1  17
TORSDOF 10
ENDMDL
MODEL 6
REMARK VINA RESULT:      -5.5      7.134     11.597
REMARK  10 active torsions:
REMARK  status: ('A' for Active; 'I' for Inactive)
REMARK    1  A    between atoms: C_5  and  N_7 
REMARK       I    between atoms: N_7  and  C_8 
REMARK       I    between atoms: C_8  and  N_10 
REMARK    2  A    between atoms: N_10  and  C_11 
REMARK    3  A    between atoms: C_11  and  C_12 
REMARK    4  A    between atoms: C_12  and  C_13 
REMARK    5  A    between atoms: C_13  and  C_14 
REMARK    6  A    between atoms: C_14  and  C_15 
REMARK    7  A    between atoms: C_15  and  C_16 
REMARK    8  A    between atoms: C_16  and  C_17 
REMARK    9  A    between atoms: C_17  and  C_18 
REMARK   10  A    between atoms: C_18  and  C_19 
ROOT
HETATM    1  N   UNK N   1      27.251  18.633   5.791  0.00  0.00    -0.339 N 
HETATM    2  C   UNK N   1      27.724  18.977   7.016  0.00  0.00     0.316 C 
HETATM    3  O   UNK N   1      27.459  20.074   7.494  0.00  0.00    -0.247 OA
HETATM    4  N   UNK N   1      28.462  18.089   7.723  0.00  0.00    -0.343 N 
HETATM    5  H   UNK N   1      27.490  17.751   5.422  0.00  0.00     0.164 HD
HETATM    6  H   UNK N   1      28.724  17.235   7.311  0.00  0.00     0.164 HD
ENDROOT
BRANCH   4   7
HETATM    7  C   UNK N   1      28.865  18.384   9.076  0.00  0.00     0.124 C 
BRANCH   7   8
HETATM    8  C   UNK N   1      30.342  18.729   9.149  0.00  0.00     0.020 C 
BRANCH   8   9
HETATM    9  C   UNK N   1      31.158  17.676   8.408  0.00  0.00     0.002 C 
BRANCH   9  10
HETATM   10  C   UNK N   1      32.648  17.862   8.659  0.00  0.00     0.000 C 
BRANCH  10  11
HETATM   11  C   UNK N   1      33.421  17.848   7.354  0.00  0.00     0.000 C 
BRANCH  11  12
HETATM   12  C   UNK N   1      32.536  17.304   6.254  0.00  0.00     0.000 C 
BRANCH  12  13
HETATM   13  C   UNK N   1      33.215  17.455   4.909  0.00  0.00     0.000 C 
BRANCH  13  14
HETATM   14  C   UNK N   1      32.153  17.743   3.868  0.00  0.00    -0.000 C 
BRANCH  14  15
HETATM   15  C   UNK N   1      32.150  16.665   2.806  0.00  0.00    -0.005 C 
HETATM   16  C   UNK N   1      33.426  15.858   2.921  0.00  0.00     0.005 C 
ENDBRANCH  14  15
ENDBRANCH  13  14
ENDBRANCH  12  13
ENDBRANCH  11  12
ENDBRANCH  10  11
ENDBRANCH   9  10
ENDBRANCH   8   9
ENDBRANCH   7   8
ENDBRANCH   4   7
BRANCH   1  17
HETATM   17  C   UNK N   1      26.409  19.513   5.010  0.00  0.00     0.086 C 
HETATM   18  C   UNK N   1      27.178  19.997   3.782  0.00  0.00     0.025 C 
HETATM   19  C   UNK N   1      26.297  20.904   2.923  0.00  0.00     0.002 C 
HETATM   20  C   UNK N   1      25.024  20.172   2.500  0.00  0.00     0.000 C 
HETATM   21  C   UNK N   1      24.258  19.699   3.731  0.00  0.00     0.002 C 
HETATM   22  C   UNK N   1      25.142  18.775   4.558  0.00  0.00     0.025 C 
ENDBRANCH   1  17
TORSDOF 10
ENDMDL
MODEL 7
REMARK VINA RESULT:      -5.4     17.743     21.055
REMARK  10 active torsions:
REMARK  status: ('A' for Active; 'I' for Inactive)
REMARK    1  A    between atoms: C_5  and  N_7 
REMARK       I    between atoms: N_7  and  C_8 
REMARK       I    between atoms: C_8  and  N_10 
REMARK    2  A    between atoms: N_10  and  C_11 
REMARK    3  A    between atoms: C_11  and  C_12 
REMARK    4  A    between atoms: C_12  and  C_13 
REMARK    5  A    between atoms: C_13  and  C_14 
REMARK    6  A    between atoms: C_14  and  C_15 
REMARK    7  A    between atoms: C_15  and  C_16 
REMARK    8  A    between atoms: C_16  and  C_17 
REMARK    9  A    between atoms: C_17  and  C_18 
REMARK   10  A    between atoms: C_18  and  C_19 
ROOT
HETATM    1  N   UNK N   1      27.383  24.660  -3.394  0.00  0.00    -0.339 N 
HETATM    2  C   UNK N   1      28.598  24.071  -3.533  0.00  0.00     0.316 C 
HETATM    3  O   UNK N   1      29.326  24.373  -4.472  0.00  0.00    -0.247 OA
HETATM    4  N   UNK N   1      29.018  23.175  -2.611  0.00  0.00    -0.343 N 
HETATM    5  H   UNK N   1      26.810  24.390  -2.640  0.00  0.00     0.164 HD
HETATM    6  H   UNK N   1      28.407  22.889  -1.894  0.00  0.00     0.164 HD
ENDROOT
BRANCH   4   7
HETATM    7  C   UNK N   1      30.354  22.635  -2.667  0.00  0.00     0.124 C 
BRANCH   7   8
HETATM    8  C   UNK N   1      30.378  21.290  -3.371  0.00  0.00     0.020 C 
BRANCH   8   9
HETATM    9  C   UNK N   1      31.326  21.346  -4.564  0.00  0.00     0.002 C 
BRANCH   9  10
HETATM   10  C   UNK N   1      30.737  20.622  -5.766  0.00  0.00     0.000 C 
BRANCH  10  11
HETATM   11  C   UNK N   1      30.198  21.612  -6.782  0.00  0.00     0.000 C 
BRANCH  11  12
HETATM   12  C   UNK N   1      28.796  21.206  -7.181  0.00  0.00     0.000 C 
BRANCH  12  13
HETATM   13  C   UNK N   1      27.834  22.356  -6.966  0.00  0.00     0.000 C 
BRANCH  13  14
HETATM   14  C   UNK N   1      27.086  22.600  -8.260  0.00  0.00    -0.000 C 
BRANCH  14  15
HETATM   15  C   UNK N   1      25.594  22.615  -8.011  0.00  0.00    -0.005 C 
HETATM   16  C   UNK N   1      25.120  21.195  -7.779  0.00  0.00     0.005 C 
ENDBRANCH  14  15
ENDBRANCH  13  14
ENDBRANCH  12  13
ENDBRANCH  11  12
ENDBRANCH  10  11
ENDBRANCH   9  10
ENDBRANCH   8   9
ENDBRANCH   7   8
ENDBRANCH   4   7
BRANCH   1  17
HETATM   17  C   UNK N   1      26.900  25.668  -4.313  0.00  0.00     0.086 C 
HETATM   18  C   UNK N   1      25.935  25.029  -5.310  0.00  0.00     0.025 C 
HETATM   19  C   UNK N   1      25.386  26.083  -6.272  0.00  0.00     0.002 C 
HETATM   20  C   UNK N   1      24.691  27.204  -5.501  0.00  0.00     0.000 C 
HETATM   21  C   UNK N   1      25.662  27.841  -4.514  0.00  0.00     0.002 C 
HETATM   22  C   UNK N   1      26.176  26.782  -3.547  0.00  0.00     0.025 C 
ENDBRANCH   1  17
TORSDOF 10
ENDMDL
MODEL 8
REMARK VINA RESULT:      -5.4      2.274      8.883
REMARK  10 active torsions:
REMARK  status: ('A' for Active; 'I' for Inactive)
REMARK    1  A    between atoms: C_5  and  N_7 
REMARK       I    between atoms: N_7  and  C_8 
REMARK       I    between atoms: C_8  and  N_10 
REMARK    2  A    between atoms: N_10  and  C_11 
REMARK    3  A    between atoms: C_11  and  C_12 
REMARK    4  A    between atoms: C_12  and  C_13 
REMARK    5  A    between atoms: C_13  and  C_14 
REMARK    6  A    between atoms: C_14  and  C_15 
REMARK    7  A    between atoms: C_15  and  C_16 
REMARK    8  A    between atoms: C_16  and  C_17 
REMARK    9  A    between atoms: C_17  and  C_18 
REMARK   10  A    between atoms: C_18  and  C_19 
ROOT
HETATM    1  N   UNK N   1      31.759  15.823   9.465  0.00  0.00    -0.339 N 
HETATM    2  C   UNK N   1      33.081  15.706   9.750  0.00  0.00     0.316 C 
HETATM    3  O   UNK N   1      33.904  16.387   9.150  0.00  0.00    -0.247 OA
HETATM    4  N   UNK N   1      33.483  14.860  10.727  0.00  0.00    -0.343 N 
HETATM    5  H   UNK N   1      31.117  15.254   9.950  0.00  0.00     0.164 HD
HETATM    6  H   UNK N   1      32.826  14.270  11.163  0.00  0.00     0.164 HD
ENDROOT
BRANCH   4   7
HETATM    7  C   UNK N   1      34.865  14.814  11.135  0.00  0.00     0.124 C 
BRANCH   7   8
HETATM    8  C   UNK N   1      35.256  13.426  11.610  0.00  0.00     0.020 C 
BRANCH   8   9
HETATM    9  C   UNK N   1      36.528  13.505  12.447  0.00  0.00     0.002 C 
BRANCH   9  10
HETATM   10  C   UNK N   1      36.277  14.238  13.757  0.00  0.00     0.000 C 
BRANCH  10  11
HETATM   11  C   UNK N   1      36.858  13.467  14.928  0.00  0.00     0.000 C 
BRANCH  11  12
HETATM   12  C   UNK N   1      35.876  13.493  16.079  0.00  0.00     0.000 C 
BRANCH  12  13
HETATM   13  C   UNK N   1      35.309  12.108  16.317  0.00  0.00     0.000 C 
BRANCH  13  14
HETATM   14  C   UNK N   1      34.080  11.940  15.446  0.00  0.00    -0.000 C 
BRANCH  14  15
HETATM   15  C   UNK N   1      33.973  10.513  14.957  0.00  0.00    -0.005 C 
HETATM   16  C   UNK N   1      33.952  10.512  13.442  0.00  0.00     0.005 C 
ENDBRANCH  14  15
ENDBRANCH  13  14
ENDBRANCH  12  13
ENDBRANCH  11  12
ENDBRANCH  10  11
ENDBRANCH   9  10
ENDBRANCH   8   9
ENDBRANCH   7   8
ENDBRANCH   4   7
BRANCH   1  17
HETATM   17  C   UNK N   1      31.259  16.752   8.474  0.00  0.00     0.086 C 
HETATM   18  C   UNK N   1      31.147  16.045   7.124  0.00  0.00     0.025 C 
HETATM   19  C   UNK N   1      30.590  16.999   6.066  0.00  0.00     0.002 C 
HETATM   20  C   UNK N   1      29.229  17.542   6.498  0.00  0.00     0.000 C 
HETATM   21  C   UNK N   1      29.350  18.251   7.842  0.00  0.00     0.002 C 
HETATM   22  C   UNK N   1      29.879  17.278   8.887  0.00  0.00     0.025 C 
ENDBRANCH   1  17
TORSDOF 10
ENDMDL
MODEL 9
REMARK VINA RESULT:      -5.4      2.183      3.610
REMARK  10 active torsions:
REMARK  status: ('A' for Active; 'I' for Inactive)
REMARK    1  A    between atoms: C_5  and  N_7 
REMARK       I    between atoms: N_7  and  C_8 
REMARK       I    between atoms: C_8  and  N_10 
REMARK    2  A    between atoms: N_10  and  C_11 
REMARK    3  A    between atoms: C_11  and  C_12 
REMARK    4  A    between atoms: C_12  and  C_13 
REMARK    5  A    between atoms: C_13  and  C_14 
REMARK    6  A    between atoms: C_14  and  C_15 
REMARK    7  A    between atoms: C_15  and  C_16 
REMARK    8  A    between atoms: C_16  and  C_17 
REMARK    9  A    between atoms: C_17  and  C_18 
REMARK   10  A    between atoms: C_18  and  C_19 
ROOT
HETATM    1  N   UNK N   1      35.063  14.989  11.393  0.00  0.00    -0.339 N 
HETATM    2  C   UNK N   1      35.328  16.071  10.617  0.00  0.00     0.316 C 
HETATM    3  O   UNK N   1      36.469  16.511  10.542  0.00  0.00    -0.247 OA
HETATM    4  N   UNK N   1      34.333  16.640   9.897  0.00  0.00    -0.343 N 
HETATM    5  H   UNK N   1      34.135  14.663  11.449  0.00  0.00     0.164 HD
HETATM    6  H   UNK N   1      33.408  16.322  10.007  0.00  0.00     0.164 HD
ENDROOT
BRANCH   4   7
HETATM    7  C   UNK N   1      34.616  17.706   8.969  0.00  0.00     0.124 C 
BRANCH   7   8
HETATM    8  C   UNK N   1      33.578  17.767   7.863  0.00  0.00     0.020 C 
BRANCH   8   9
HETATM    9  C   UNK N   1      32.178  17.737   8.465  0.00  0.00     0.002 C 
BRANCH   9  10
HETATM   10  C   UNK N   1      31.215  16.963   7.574  0.00  0.00     0.000 C 
BRANCH  10  11
HETATM   11  C   UNK N   1      31.724  16.912   6.146  0.00  0.00     0.000 C 
BRANCH  11  12
HETATM   12  C   UNK N   1      30.605  17.300   5.203  0.00  0.00     0.000 C 
BRANCH  12  13
HETATM   13  C   UNK N   1      29.321  17.524   5.975  0.00  0.00     0.000 C 
BRANCH  13  14
HETATM   14  C   UNK N   1      28.501  18.567   5.243  0.00  0.00    -0.000 C 
BRANCH  14  15
HETATM   15  C   UNK N   1      27.772  19.451   6.231  0.00  0.00    -0.005 C 
HETATM   16  C   UNK N   1      28.193  19.072   7.635  0.00  0.00     0.005 C 
ENDBRANCH  14  15
ENDBRANCH  13  14
ENDBRANCH  12  13
ENDBRANCH  11  12
ENDBRANCH  10  11
ENDBRANCH   9  10
ENDBRANCH   8   9
ENDBRANCH   7   8
ENDBRANCH   4   7
BRANCH   1  17
HETATM   17  C   UNK N   1      36.092  14.300  12.141  0.00  0.00     0.086 C 
HETATM   18  C   UNK N   1      35.543  13.889  13.506  0.00  0.00     0.025 C 
HETATM   19  C   UNK N   1      36.604  13.131  14.303  0.00  0.00     0.002 C 
HETATM   20  C   UNK N   1      37.079  11.902  13.528  0.00  0.00     0.000 C 
HETATM   21  C   UNK N   1      37.633  12.320  12.171  0.00  0.00     0.002 C 
HETATM   22  C   UNK N   1      36.554  13.049  11.382  0.00  0.00     0.025 C 
ENDBRANCH   1  17
TORSDOF 10
ENDMDL
