MODEL 1
REMARK VINA RESULT:      -6.7      0.000      0.000
REMARK  7 active torsions:
REMARK  status: ('A' for Active; 'I' for Inactive)
REMARK    1  A    between atoms: C_5  and  C_6 
REMARK    2  A    between atoms: C_6  and  O_8 
REMARK    3  A    between atoms: C_10  and  C_11 
REMARK    4  A    between atoms: C_11  and  C_12 
REMARK    5  A    between atoms: C_11  and  N_14 
REMARK       I    between atoms: N_14  and  C_15 
REMARK    6  A    between atoms: C_15  and  C_17 
REMARK    7  A    between atoms: C_17  and  C_18 
ROOT
HETATM    1  C   UNK N   1      34.777  14.928  11.371  0.00  0.00     0.178 C 
ENDROOT
BRANCH   1   2
HETATM    2  C   UNK N   1      34.248  15.257   9.971  0.00  0.00     0.173 C 
HETATM    3  S   UNK N   1      32.696  14.345   9.554  0.00  0.00    -0.137 SA
HETATM    4  C   UNK N   1      31.664  15.779   9.089  0.00  0.00     0.112 C 
HETATM    5  C   UNK N   1      32.394  16.726   8.183  0.00  0.00    -0.041 C 
HETATM    6  C   UNK N   1      31.732  17.144   6.910  0.00  0.00     0.047 C 
HETATM    7  C   UNK N   1      33.592  17.201   8.584  0.00  0.00     0.106 C 
HETATM    8  N   UNK N   1      34.132  16.690   9.790  0.00  0.00    -0.369 N 
HETATM    9  H   UNK N   1      34.425  17.303  10.501  0.00  0.00     0.161 HD
BRANCH   7  10
HETATM   10  C   UNK N   1      34.398  18.198   7.827  0.00  0.00     0.193 C 
HETATM   11  O   UNK N   1      34.581  18.038   6.631  0.00  0.00    -0.645 OA
BRANCH  10  12
HETATM   12  O   UNK N   1      34.912  19.289   8.427  0.00  0.00    -0.772 OA
HETATM   13  H   UNK N   1      35.334  19.226   9.262  0.00  0.00     0.167 HD
ENDBRANCH  10  12
ENDBRANCH   7  10
ENDBRANCH   1   2
BRANCH   1  14
HETATM   14  C   UNK N   1      36.184  15.411  11.568  0.00  0.00     0.259 C 
HETATM   15  O   UNK N   1      36.678  16.216  10.793  0.00  0.00    -0.305 OA
ENDBRANCH   1  14
BRANCH   1  16
HETATM   16  N   UNK N   1      34.755  13.489  11.535  0.00  0.00    -0.347 N 
HETATM   17  C   UNK N   1      34.770  12.856  12.731  0.00  0.00     0.223 C 
HETATM   18  O   UNK N   1      34.787  13.488  13.778  0.00  0.00    -0.273 OA
HETATM   19  H   UNK N   1      34.726  12.935  10.722  0.00  0.00     0.163 HD
BRANCH  17  20
HETATM   20  C   UNK N   1      34.717  11.364  12.755  0.00  0.00     0.148 C 
BRANCH  20  21
HETATM   21  C   UNK N   1      35.051  10.844  14.107  0.00  0.00    -0.009 A 
HETATM   22  C   UNK N   1      34.137  10.506  15.097  0.00  0.00     0.015 A 
HETATM   23  C   UNK N   1      34.765  10.057  16.293  0.00  0.00     0.008 A 
HETATM   24  C   UNK N   1      36.168  10.050  16.236  0.00  0.00     0.050 A 
HETATM   25  S   UNK N   1      36.563  10.589  14.719  0.00  0.00    -0.106 SA
ENDBRANCH  20  21
ENDBRANCH  17  20
ENDBRANCH   1  16
TORSDOF 7
ENDMDL
MODEL 2
REMARK VINA RESULT:      -6.6      3.560      5.057
REMARK  7 active torsions:
REMARK  status: ('A' for Active; 'I' for Inactive)
REMARK    1  A    between atoms: C_5  and  C_6 
REMARK    2  A    between atoms: C_6  and  O_8 
REMARK    3  A    between atoms: C_10  and  C_11 
REMARK    4  A    between atoms: C_11  and  C_12 
REMARK    5  A    between atoms: C_11  and  N_14 
REMARK       I    between atoms: N_14  and  C_15 
REMARK    6  A    between atoms: C_15  and  C_17 
REMARK    7  A    between atoms: C_17  and  C_18 
ROOT
HETATM    1  C   UNK N   1      33.334  17.840   8.747  0.00  0.00     0.178 C 
ENDROOT
BRANCH   1   2
HETATM    2  C   UNK N   1      32.101  17.857   7.837  0.00  0.00     0.173 C 
HETATM    3  S   UNK N   1      32.276  16.757   6.364  0.00  0.00    -0.137 SA
HETATM    4  C   UNK N   1      30.748  15.779   6.581  0.00  0.00     0.112 C 
HETATM    5  C   UNK N   1      29.565  16.646   6.891  0.00  0.00    -0.041 C 
HETATM    6  C   UNK N   1      28.327  16.479   6.070  0.00  0.00     0.047 C 
HETATM    7  C   UNK N   1      29.652  17.500   7.933  0.00  0.00     0.106 C 
HETATM    8  N   UNK N   1      30.897  17.597   8.601  0.00  0.00    -0.369 N 
HETATM    9  H   UNK N   1      30.945  17.487   9.578  0.00  0.00     0.161 HD
BRANCH   7  10
HETATM   10  C   UNK N   1      28.538  18.370   8.402  0.00  0.00     0.193 C 
HETATM   11  O   UNK N   1      28.351  19.448   7.862  0.00  0.00    -0.645 OA
BRANCH  10  12
HETATM   12  O   UNK N   1      27.715  17.984   9.397  0.00  0.00    -0.772 OA
HETATM   13  H   UNK N   1      27.756  17.115   9.745  0.00  0.00     0.167 HD
ENDBRANCH  10  12
ENDBRANCH   7  10
ENDBRANCH   1   2
BRANCH   1  14
HETATM   14  C   UNK N   1      34.568  18.302   8.030  0.00  0.00     0.259 C 
HETATM   15  O   UNK N   1      35.245  19.212   8.484  0.00  0.00    -0.305 OA
ENDBRANCH   1  14
BRANCH   1  16
HETATM   16  N   UNK N   1      33.542  16.479   9.197  0.00  0.00    -0.347 N 
HETATM   17  C   UNK N   1      34.393  16.124  10.188  0.00  0.00     0.223 C 
HETATM   18  O   UNK N   1      35.045  16.965  10.791  0.00  0.00    -0.273 OA
HETATM   19  H   UNK N   1      33.030  15.765   8.754  0.00  0.00     0.163 HD
BRANCH  17  20
HETATM   20  C   UNK N   1      34.490  14.684  10.569  0.00  0.00     0.148 C 
BRANCH  20  21
HETATM   21  C   UNK N   1      35.882  14.185  10.406  0.00  0.00    -0.009 A 
HETATM   22  C   UNK N   1      36.629  14.230   9.235  0.00  0.00     0.015 A 
HETATM   23  C   UNK N   1      37.922  13.655   9.388  0.00  0.00     0.008 A 
HETATM   24  C   UNK N   1      38.180  13.159  10.676  0.00  0.00     0.050 A 
HETATM   25  S   UNK N   1      36.810  13.457  11.561  0.00  0.00    -0.106 SA
ENDBRANCH  20  21
ENDBRANCH  17  20
ENDBRANCH   1  16
TORSDOF 7
ENDMDL
MODEL 3
REMARK VINA RESULT:      -6.5     12.237     15.065
REMARK  7 active torsions:
REMARK  status: ('A' for Active; 'I' for Inactive)
REMARK    1  A    between atoms: C_5  and  C_6 
REMARK    2  A    between atoms: C_6  and  O_8 
REMARK    3  A    between atoms: C_10  and  C_11 
REMARK    4  A    between atoms: C_11  and  C_12 
REMARK    5  A    between atoms: C_11  and  N_14 
REMARK       I    between atoms: N_14  and  C_15 
REMARK    6  A    between atoms: C_15  and  C_17 
REMARK    7  A    between atoms: C_17  and  C_18 
ROOT
HETATM    1  C   UNK N   1      21.775  19.219   3.740  0.00  0.00     0.178 C 
ENDROOT
BRANCH   1   2
HETATM    2  C   UNK N   1      21.536  17.898   4.479  0.00  0.00     0.173 C 
HETATM    3  S   UNK N   1      22.759  16.589   4.031  0.00  0.00    -0.137 SA
HETATM    4  C   UNK N   1      23.324  16.166   5.716  0.00  0.00     0.112 C 
HETATM    5  C   UNK N   1      22.177  16.005   6.669  0.00  0.00    -0.041 C 
HETATM    6  C   UNK N   1      22.108  14.760   7.493  0.00  0.00     0.047 C 
HETATM    7  C   UNK N   1      21.289  17.015   6.780  0.00  0.00     0.106 C 
HETATM    8  N   UNK N   1      21.440  18.121   5.908  0.00  0.00    -0.369 N 
HETATM    9  H   UNK N   1      21.480  19.035   6.270  0.00  0.00     0.161 HD
BRANCH   7  10
HETATM   10  C   UNK N   1      20.144  17.027   7.731  0.00  0.00     0.193 C 
HETATM   11  O   UNK N   1      20.192  17.741   8.720  0.00  0.00    -0.645 OA
BRANCH  10  12
HETATM   12  O   UNK N   1      19.042  16.283   7.514  0.00  0.00    -0.772 OA
HETATM   13  H   UNK N   1      18.192  16.678   7.482  0.00  0.00     0.167 HD
ENDBRANCH  10  12
ENDBRANCH   7  10
ENDBRANCH   1   2
BRANCH   1  14
HETATM   14  C   UNK N   1      20.959  19.317   2.485  0.00  0.00     0.259 C 
HETATM   15  O   UNK N   1      20.256  20.294   2.277  0.00  0.00    -0.305 OA
ENDBRANCH   1  14
BRANCH   1  16
HETATM   16  N   UNK N   1      23.178  19.289   3.387  0.00  0.00    -0.347 N 
HETATM   17  C   UNK N   1      23.823  20.428   3.040  0.00  0.00     0.223 C 
HETATM   18  O   UNK N   1      23.239  21.502   3.023  0.00  0.00    -0.273 OA
HETATM   19  H   UNK N   1      23.698  18.454   3.399  0.00  0.00     0.163 HD
BRANCH  17  20
HETATM   20  C   UNK N   1      25.280  20.361   2.725  0.00  0.00     0.148 C 
BRANCH  20  21
HETATM   21  C   UNK N   1      26.069  20.016   3.937  0.00  0.00    -0.009 A 
HETATM   22  C   UNK N   1      26.306  20.855   5.019  0.00  0.00     0.015 A 
HETATM   23  C   UNK N   1      27.115  20.245   6.019  0.00  0.00     0.008 A 
HETATM   24  C   UNK N   1      27.512  18.934   5.713  0.00  0.00     0.050 A 
HETATM   25  S   UNK N   1      26.844  18.589   4.236  0.00  0.00    -0.106 SA
ENDBRANCH  20  21
ENDBRANCH  17  20
ENDBRANCH   1  16
TORSDOF 7
ENDMDL
MODEL 4
REMARK VINA RESULT:      -6.4     10.138     13.797
REMARK  7 active torsions:
REMARK  status: ('A' for Active; 'I' for Inactive)
REMARK    1  A    between atoms: C_5  and  C_6 
REMARK    2  A    between atoms: C_6  and  O_8 
REMARK    3  A    between atoms: C_10  and  C_11 
REMARK    4  A    between atoms: C_11  and  C_12 
REMARK    5  A    between atoms: C_11  and  N_14 
REMARK       I    between atoms: N_14  and  C_15 
REMARK    6  A    between atoms: C_15  and  C_17 
REMARK    7  A    between atoms: C_17  and  C_18 
ROOT
HETATM    1  C   UNK N   1      24.811  19.671   3.902  0.00  0.00     0.178 C 
ENDROOT
BRANCH   1   2
HETATM    2  C   UNK N   1      23.499  19.131   3.323  0.00  0.00     0.173 C 
HETATM    3  S   UNK N   1      22.701  17.864   4.405  0.00  0.00    -0.137 SA
HETATM    4  C   UNK N   1      21.051  18.636   4.543  0.00  0.00     0.112 C 
HETATM    5  C   UNK N   1      20.536  19.103   3.214  0.00  0.00    -0.041 C 
HETATM    6  C   UNK N   1      19.166  18.678   2.794  0.00  0.00     0.047 C 
HETATM    7  C   UNK N   1      21.311  19.930   2.482  0.00  0.00     0.106 C 
HETATM    8  N   UNK N   1      22.609  20.219   2.970  0.00  0.00    -0.369 N 
HETATM    9  H   UNK N   1      22.905  21.152   3.070  0.00  0.00     0.161 HD
BRANCH   7  10
HETATM   10  C   UNK N   1      20.906  20.529   1.180  0.00  0.00     0.193 C 
HETATM   11  O   UNK N   1      20.768  21.738   1.093  0.00  0.00    -0.645 OA
BRANCH  10  12
HETATM   12  O   UNK N   1      20.710  19.767   0.086  0.00  0.00    -0.772 OA
HETATM   13  H   UNK N   1      20.002  19.943  -0.503  0.00  0.00     0.167 HD
ENDBRANCH  10  12
ENDBRANCH   7  10
ENDBRANCH   1   2
BRANCH   1  14
HETATM   14  C   UNK N   1      25.633  20.380   2.867  0.00  0.00     0.259 C 
HETATM   15  O   UNK N   1      25.112  20.807   1.847  0.00  0.00    -0.305 OA
ENDBRANCH   1  14
BRANCH   1  16
HETATM   16  N   UNK N   1      25.574  18.549   4.411  0.00  0.00    -0.347 N 
HETATM   17  C   UNK N   1      26.500  18.638   5.393  0.00  0.00     0.223 C 
HETATM   18  O   UNK N   1      26.740  19.706   5.938  0.00  0.00    -0.273 OA
HETATM   19  H   UNK N   1      25.408  17.664   4.015  0.00  0.00     0.163 HD
BRANCH  17  20
HETATM   20  C   UNK N   1      27.195  17.395   5.840  0.00  0.00     0.148 C 
BRANCH  20  21
HETATM   21  C   UNK N   1      28.405  17.138   5.013  0.00  0.00    -0.009 A 
HETATM   22  C   UNK N   1      29.675  17.649   5.251  0.00  0.00     0.015 A 
HETATM   23  C   UNK N   1      30.623  17.241   4.271  0.00  0.00     0.008 A 
HETATM   24  C   UNK N   1      30.089  16.416   3.268  0.00  0.00     0.050 A 
HETATM   25  S   UNK N   1      28.485  16.226   3.640  0.00  0.00    -0.106 SA
ENDBRANCH  20  21
ENDBRANCH  17  20
ENDBRANCH   1  16
TORSDOF 7
ENDMDL
MODEL 5
REMARK VINA RESULT:      -6.4      8.033     13.017
REMARK  7 active torsions:
REMARK  status: ('A' for Active; 'I' for Inactive)
REMARK    1  A    between atoms: C_5  and  C_6 
REMARK    2  A    between atoms: C_6  and  O_8 
REMARK    3  A    between atoms: C_10  and  C_11 
REMARK    4  A    between atoms: C_11  and  C_12 
REMARK    5  A    between atoms: C_11  and  N_14 
REMARK       I    between atoms: N_14  and  C_15 
REMARK    6  A    between atoms: C_15  and  C_17 
REMARK    7  A    between atoms: C_17  and  C_18 
ROOT
HETATM    1  C   UNK N   1      26.673  19.506   5.328  0.00  0.00     0.178 C 
ENDROOT
BRANCH   1   2
HETATM    2  C   UNK N   1      27.473  18.405   6.032  0.00  0.00     0.173 C 
HETATM    3  S   UNK N   1      28.537  17.435   4.874  0.00  0.00    -0.137 SA
HETATM    4  C   UNK N   1      30.129  17.635   5.748  0.00  0.00     0.112 C 
HETATM    5  C   UNK N   1      29.994  17.396   7.223  0.00  0.00    -0.041 C 
HETATM    6  C   UNK N   1      30.934  16.435   7.875  0.00  0.00     0.047 C 
HETATM    7  C   UNK N   1      29.066  18.101   7.904  0.00  0.00     0.106 C 
HETATM    8  N   UNK N   1      28.205  18.945   7.160  0.00  0.00    -0.369 N 
HETATM    9  H   UNK N   1      28.106  19.892   7.407  0.00  0.00     0.161 HD
BRANCH   7  10
HETATM   10  C   UNK N   1      28.864  18.022   9.377  0.00  0.00     0.193 C 
HETATM   11  O   UNK N   1      27.970  17.323   9.824  0.00  0.00    -0.645 OA
BRANCH  10  12
HETATM   12  O   UNK N   1      29.664  18.689  10.232  0.00  0.00    -0.772 OA
HETATM   13  H   UNK N   1      29.934  18.301  11.041  0.00  0.00     0.167 HD
ENDBRANCH  10  12
ENDBRANCH   7  10
ENDBRANCH   1   2
BRANCH   1  14
HETATM   14  C   UNK N   1      26.907  20.854   5.945  0.00  0.00     0.259 C 
HETATM   15  O   UNK N   1      26.332  21.172   6.975  0.00  0.00    -0.305 OA
ENDBRANCH   1  14
BRANCH   1  16
HETATM   16  N   UNK N   1      25.266  19.183   5.442  0.00  0.00    -0.347 N 
HETATM   17  C   UNK N   1      24.579  18.436   4.547  0.00  0.00     0.223 C 
HETATM   18  O   UNK N   1      25.132  17.961   3.565  0.00  0.00    -0.273 OA
HETATM   19  H   UNK N   1      24.776  19.530   6.222  0.00  0.00     0.163 HD
BRANCH  17  20
HETATM   20  C   UNK N   1      23.134  18.158   4.802  0.00  0.00     0.148 C 
BRANCH  20  21
HETATM   21  C   UNK N   1      22.279  18.829   3.787  0.00  0.00    -0.009 A 
HETATM   22  C   UNK N   1      22.569  20.025   3.141  0.00  0.00     0.015 A 
HETATM   23  C   UNK N   1      21.543  20.423   2.238  0.00  0.00     0.008 A 
HETATM   24  C   UNK N   1      20.453  19.540   2.184  0.00  0.00     0.050 A 
HETATM   25  S   UNK N   1      20.807  18.314   3.242  0.00  0.00    -0.106 SA
ENDBRANCH  20  21
ENDBRANCH  17  20
ENDBRANCH   1  16
TORSDOF 7
ENDMDL
MODEL 6
REMARK VINA RESULT:      -6.4     10.272     13.869
REMARK  7 active torsions:
REMARK  status: ('A' for Active; 'I' for Inactive)
REMARK    1  A    between atoms: C_5  and  C_6 
REMARK    2  A    between atoms: C_6  and  O_8 
REMARK    3  A    between atoms: C_10  and  C_11 
REMARK    4  A    between atoms: C_11  and  C_12 
REMARK    5  A    between atoms: C_11  and  N_14 
REMARK       I    between atoms: N_14  and  C_15 
REMARK    6  A    between atoms: C_15  and  C_17 
REMARK    7  A    between atoms: C_17  and  C_18 
ROOT
HETATM    1  C   UNK N   1      23.920  19.625   4.107  0.00  0.00     0.178 C 
ENDROOT
BRANCH   1   2
HETATM    2  C   UNK N   1      22.942  18.457   3.941  0.00  0.00     0.173 C 
HETATM    3  S   UNK N   1      23.053  17.224   5.312  0.00  0.00    -0.137 SA
HETATM    4  C   UNK N   1      21.290  17.204   5.793  0.00  0.00     0.112 C 
HETATM    5  C   UNK N   1      20.384  17.110   4.601  0.00  0.00    -0.041 C 
HETATM    6  C   UNK N   1      19.330  16.050   4.592  0.00  0.00     0.047 C 
HETATM    7  C   UNK N   1      20.526  18.021   3.615  0.00  0.00     0.106 C 
HETATM    8  N   UNK N   1      21.595  18.944   3.722  0.00  0.00    -0.369 N 
HETATM    9  H   UNK N   1      21.424  19.911   3.649  0.00  0.00     0.161 HD
BRANCH   7  10
HETATM   10  C   UNK N   1      19.656  18.096   2.409  0.00  0.00     0.193 C 
HETATM   11  O   UNK N   1      20.031  17.584   1.367  0.00  0.00    -0.645 OA
BRANCH  10  12
HETATM   12  O   UNK N   1      18.452  18.698   2.447  0.00  0.00    -0.772 OA
HETATM   13  H   UNK N   1      17.661  18.195   2.440  0.00  0.00     0.167 HD
ENDBRANCH  10  12
ENDBRANCH   7  10
ENDBRANCH   1   2
BRANCH   1  14
HETATM   14  C   UNK N   1      23.915  20.536   2.915  0.00  0.00     0.259 C 
HETATM   15  O   UNK N   1      23.092  21.434   2.825  0.00  0.00    -0.305 OA
ENDBRANCH   1  14
BRANCH   1  16
HETATM   16  N   UNK N   1      25.252  19.078   4.265  0.00  0.00    -0.347 N 
HETATM   17  C   UNK N   1      26.266  19.709   4.902  0.00  0.00     0.223 C 
HETATM   18  O   UNK N   1      26.103  20.809   5.412  0.00  0.00    -0.273 OA
HETATM   19  H   UNK N   1      25.431  18.188   3.886  0.00  0.00     0.163 HD
BRANCH  17  20
HETATM   20  C   UNK N   1      27.584  19.017   5.016  0.00  0.00     0.148 C 
BRANCH  20  21
HETATM   21  C   UNK N   1      27.803  18.520   6.400  0.00  0.00    -0.009 A 
HETATM   22  C   UNK N   1      28.157  19.298   7.496  0.00  0.00     0.015 A 
HETATM   23  C   UNK N   1      28.315  18.530   8.685  0.00  0.00     0.008 A 
HETATM   24  C   UNK N   1      28.088  17.155   8.513  0.00  0.00     0.050 A 
HETATM   25  S   UNK N   1      27.700  16.954   6.914  0.00  0.00    -0.106 SA
ENDBRANCH  20  21
ENDBRANCH  17  20
ENDBRANCH   1  16
TORSDOF 7
ENDMDL
MODEL 7
REMARK VINA RESULT:      -6.3     11.158     12.706
REMARK  7 active torsions:
REMARK  status: ('A' for Active; 'I' for Inactive)
REMARK    1  A    between atoms: C_5  and  C_6 
REMARK    2  A    between atoms: C_6  and  O_8 
REMARK    3  A    between atoms: C_10  and  C_11 
REMARK    4  A    between atoms: C_11  and  C_12 
REMARK    5  A    between atoms: C_11  and  N_14 
REMARK       I    between atoms: N_14  and  C_15 
REMARK    6  A    between atoms: C_15  and  C_17 
REMARK    7  A    between atoms: C_17  and  C_18 
ROOT
HETATM    1  C   UNK N   1      21.310  16.289   6.550  0.00  0.00     0.178 C 
ENDROOT
BRANCH   1   2
HETATM    2  C   UNK N   1      22.773  16.345   6.096  0.00  0.00     0.173 C 
HETATM    3  S   UNK N   1      23.391  14.727   5.453  0.00  0.00    -0.137 SA
HETATM    4  C   UNK N   1      24.007  15.304   3.832  0.00  0.00     0.112 C 
HETATM    5  C   UNK N   1      24.812  16.564   3.954  0.00  0.00    -0.041 C 
HETATM    6  C   UNK N   1      26.168  16.603   3.326  0.00  0.00     0.047 C 
HETATM    7  C   UNK N   1      24.254  17.623   4.577  0.00  0.00     0.106 C 
HETATM    8  N   UNK N   1      22.981  17.441   5.171  0.00  0.00    -0.369 N 
HETATM    9  H   UNK N   1      22.242  18.054   4.956  0.00  0.00     0.161 HD
BRANCH   7  10
HETATM   10  C   UNK N   1      24.903  18.957   4.712  0.00  0.00     0.193 C 
HETATM   11  O   UNK N   1      24.770  19.782   3.823  0.00  0.00    -0.645 OA
BRANCH  10  12
HETATM   12  O   UNK N   1      25.616  19.284   5.807  0.00  0.00    -0.772 OA
HETATM   13  H   UNK N   1      25.215  19.730   6.527  0.00  0.00     0.167 HD
ENDBRANCH  10  12
ENDBRANCH   7  10
ENDBRANCH   1   2
BRANCH   1  14
HETATM   14  C   UNK N   1      20.656  17.638   6.507  0.00  0.00     0.259 C 
HETATM   15  O   UNK N   1      21.103  18.565   7.167  0.00  0.00    -0.305 OA
ENDBRANCH   1  14
BRANCH   1  16
HETATM   16  N   UNK N   1      21.281  15.803   7.914  0.00  0.00    -0.347 N 
HETATM   17  C   UNK N   1      20.755  14.613   8.289  0.00  0.00     0.223 C 
HETATM   18  O   UNK N   1      20.274  13.848   7.465  0.00  0.00    -0.273 OA
HETATM   19  H   UNK N   1      21.669  16.375   8.614  0.00  0.00     0.163 HD
BRANCH  17  20
HETATM   20  C   UNK N   1      20.814  14.224   9.729  0.00  0.00     0.148 C 
BRANCH  20  21
HETATM   21  C   UNK N   1      21.957  13.307   9.983  0.00  0.00    -0.009 A 
HETATM   22  C   UNK N   1      22.009  12.326  10.967  0.00  0.00     0.015 A 
HETATM   23  C   UNK N   1      23.247  11.623  10.974  0.00  0.00     0.008 A 
HETATM   24  C   UNK N   1      24.159  12.059  10.000  0.00  0.00     0.050 A 
HETATM   25  S   UNK N   1      23.397  13.279   9.176  0.00  0.00    -0.106 SA
ENDBRANCH  20  21
ENDBRANCH  17  20
ENDBRANCH   1  16
TORSDOF 7
ENDMDL
MODEL 8
REMARK VINA RESULT:      -6.3      6.134      9.133
REMARK  7 active torsions:
REMARK  status: ('A' for Active; 'I' for Inactive)
REMARK    1  A    between atoms: C_5  and  C_6 
REMARK    2  A    between atoms: C_6  and  O_8 
REMARK    3  A    between atoms: C_10  and  C_11 
REMARK    4  A    between atoms: C_11  and  C_12 
REMARK    5  A    between atoms: C_11  and  N_14 
REMARK       I    between atoms: N_14  and  C_15 
REMARK    6  A    between atoms: C_15  and  C_17 
REMARK    7  A    between atoms: C_17  and  C_18 
ROOT
HETATM    1  C   UNK N   1      29.574  17.994   8.429  0.00  0.00     0.178 C 
ENDROOT
BRANCH   1   2
HETATM    2  C   UNK N   1      30.881  17.243   8.149  0.00  0.00     0.173 C 
HETATM    3  S   UNK N   1      30.753  16.082   6.718  0.00  0.00    -0.137 SA
HETATM    4  C   UNK N   1      32.176  16.696   5.751  0.00  0.00     0.112 C 
HETATM    5  C   UNK N   1      33.390  16.902   6.607  0.00  0.00    -0.041 C 
HETATM    6  C   UNK N   1      34.679  16.282   6.171  0.00  0.00     0.047 C 
HETATM    7  C   UNK N   1      33.277  17.681   7.703  0.00  0.00     0.106 C 
HETATM    8  N   UNK N   1      31.989  18.169   8.032  0.00  0.00    -0.369 N 
HETATM    9  H   UNK N   1      31.847  19.132   8.180  0.00  0.00     0.161 HD
BRANCH   7  10
HETATM   10  C   UNK N   1      34.408  18.031   8.607  0.00  0.00     0.193 C 
HETATM   11  O   UNK N   1      34.633  17.336   9.584  0.00  0.00    -0.645 OA
BRANCH  10  12
HETATM   12  O   UNK N   1      35.206  19.087   8.357  0.00  0.00    -0.772 OA
HETATM   13  H   UNK N   1      34.901  19.811   7.844  0.00  0.00     0.167 HD
ENDBRANCH  10  12
ENDBRANCH   7  10
ENDBRANCH   1   2
BRANCH   1  14
HETATM   14  C   UNK N   1      28.952  17.575   9.728  0.00  0.00     0.259 C 
HETATM   15  O   UNK N   1      27.819  17.119   9.754  0.00  0.00    -0.305 OA
ENDBRANCH   1  14
BRANCH   1  16
HETATM   16  N   UNK N   1      28.647  17.700   7.355  0.00  0.00    -0.347 N 
HETATM   17  C   UNK N   1      27.906  18.631   6.710  0.00  0.00     0.223 C 
HETATM   18  O   UNK N   1      27.995  19.816   6.996  0.00  0.00    -0.273 OA
HETATM   19  H   UNK N   1      28.549  16.761   7.077  0.00  0.00     0.163 HD
BRANCH  17  20
HETATM   20  C   UNK N   1      27.008  18.191   5.601  0.00  0.00     0.148 C 
BRANCH  20  21
HETATM   21  C   UNK N   1      27.689  17.195   4.732  0.00  0.00    -0.009 A 
HETATM   22  C   UNK N   1      28.692  17.471   3.811  0.00  0.00     0.015 A 
HETATM   23  C   UNK N   1      29.130  16.309   3.113  0.00  0.00     0.008 A 
HETATM   24  C   UNK N   1      28.464  15.131   3.488  0.00  0.00     0.050 A 
HETATM   25  S   UNK N   1      27.378  15.575   4.659  0.00  0.00    -0.106 SA
ENDBRANCH  20  21
ENDBRANCH  17  20
ENDBRANCH   1  16
TORSDOF 7
ENDMDL
MODEL 9
REMARK VINA RESULT:      -6.3     18.110     21.069
REMARK  7 active torsions:
REMARK  status: ('A' for Active; 'I' for Inactive)
REMARK    1  A    between atoms: C_5  and  C_6 
REMARK    2  A    between atoms: C_6  and  O_8 
REMARK    3  A    between atoms: C_10  and  C_11 
REMARK    4  A    between atoms: C_11  and  C_12 
REMARK    5  A    between atoms: C_11  and  N_14 
REMARK       I    between atoms: N_14  and  C_15 
REMARK    6  A    between atoms: C_15  and  C_17 
REMARK    7  A    between atoms: C_17  and  C_18 
ROOT
HETATM    1  C   UNK N   1      25.811  25.443  -4.826  0.00  0.00     0.178 C 
ENDROOT
BRANCH   1   2
HETATM    2  C   UNK N   1      25.612  24.995  -6.278  0.00  0.00     0.173 C 
HETATM    3  S   UNK N   1      26.620  25.970  -7.479  0.00  0.00    -0.137 SA
HETATM    4  C   UNK N   1      27.458  24.577  -8.313  0.00  0.00     0.112 C 
HETATM    5  C   UNK N   1      26.503  23.475  -8.663  0.00  0.00    -0.041 C 
HETATM    6  C   UNK N   1      26.492  22.964 -10.067  0.00  0.00     0.047 C 
HETATM    7  C   UNK N   1      25.734  22.958  -7.681  0.00  0.00     0.106 C 
HETATM    8  N   UNK N   1      25.805  23.564  -6.403  0.00  0.00    -0.369 N 
HETATM    9  H   UNK N   1      25.985  23.017  -5.605  0.00  0.00     0.161 HD
BRANCH   7  10
HETATM   10  C   UNK N   1      24.794  21.818  -7.862  0.00  0.00     0.193 C 
HETATM   11  O   UNK N   1      25.219  20.675  -7.812  0.00  0.00    -0.645 OA
BRANCH  10  12
HETATM   12  O   UNK N   1      23.476  22.018  -8.057  0.00  0.00    -0.772 OA
HETATM   13  H   UNK N   1      22.968  21.419  -8.568  0.00  0.00     0.167 HD
ENDBRANCH  10  12
ENDBRANCH   7  10
ENDBRANCH   1   2
BRANCH   1  14
HETATM   14  C   UNK N   1      25.467  26.890  -4.632  0.00  0.00     0.259 C 
HETATM   15  O   UNK N   1      25.730  27.455  -3.581  0.00  0.00    -0.305 OA
ENDBRANCH   1  14
BRANCH   1  16
HETATM   16  N   UNK N   1      27.205  25.249  -4.482  0.00  0.00    -0.347 N 
HETATM   17  C   UNK N   1      27.639  24.479  -3.458  0.00  0.00     0.223 C 
HETATM   18  O   UNK N   1      26.850  23.867  -2.751  0.00  0.00    -0.273 OA
HETATM   19  H   UNK N   1      27.882  25.708  -5.030  0.00  0.00     0.163 HD
BRANCH  17  20
HETATM   20  C   UNK N   1      29.109  24.345  -3.231  0.00  0.00     0.148 C 
BRANCH  20  21
HETATM   21  C   UNK N   1      29.618  23.070  -3.800  0.00  0.00    -0.009 A 
HETATM   22  C   UNK N   1      30.284  22.074  -3.096  0.00  0.00     0.015 A 
HETATM   23  C   UNK N   1      30.667  20.980  -3.922  0.00  0.00     0.008 A 
HETATM   24  C   UNK N   1      30.304  21.126  -5.271  0.00  0.00     0.050 A 
HETATM   25  S   UNK N   1      29.527  22.587  -5.377  0.00  0.00    -0.106 SA
ENDBRANCH  20  21
ENDBRANCH  17  20
ENDBRANCH   1  16
TORSDOF 7
ENDMDL
