MODEL 1
REMARK VINA RESULT:      -6.7      0.000      0.000
REMARK  10 active torsions:
REMARK  status: ('A' for Active; 'I' for Inactive)
REMARK    1  A    between atoms: C_3  and  C_4 
REMARK    2  A    between atoms: C_4  and  C_5 
REMARK    3  A    between atoms: C_5  and  O_7 
REMARK    4  A    between atoms: C_9  and  C_10 
REMARK    5  A    between atoms: C_10  and  O_12 
REMARK    6  A    between atoms: C_14  and  C_15 
REMARK    7  A    between atoms: C_15  and  C_16 
REMARK    8  A    between atoms: C_15  and  N_18 
REMARK       I    between atoms: N_18  and  C_19 
REMARK    9  A    between atoms: C_19  and  C_21 
REMARK   10  A    between atoms: C_21  and  C_22 
ROOT
HETATM    1  S   UNK N   1      31.211  15.628   6.456  0.00  0.00    -0.137 SA
HETATM    2  C   UNK N   1      30.457  17.183   5.969  0.00  0.00     0.113 C 
HETATM    3  C   UNK N   1      29.234  17.401   6.794  0.00  0.00    -0.028 C 
HETATM    4  C   UNK N   1      29.337  17.375   8.149  0.00  0.00     0.107 C 
HETATM    5  N   UNK N   1      30.574  17.008   8.763  0.00  0.00    -0.368 N 
HETATM    6  C   UNK N   1      31.651  16.244   8.133  0.00  0.00     0.173 C 
HETATM    7  H   UNK N   1      30.716  17.296   9.693  0.00  0.00     0.161 HD
ENDROOT
BRANCH   6   8
HETATM    8  C   UNK N   1      32.978  17.024   8.211  0.00  0.00     0.178 C 
BRANCH   8   9
HETATM    9  C   UNK N   1      33.822  16.852   6.974  0.00  0.00     0.259 C 
HETATM   10  O   UNK N   1      34.224  17.818   6.345  0.00  0.00    -0.305 OA
ENDBRANCH   8   9
BRANCH   8  11
HETATM   11  N   UNK N   1      33.698  16.498   9.351  0.00  0.00    -0.347 N 
HETATM   12  C   UNK N   1      34.803  17.051   9.911  0.00  0.00     0.223 C 
HETATM   13  O   UNK N   1      35.294  18.072   9.456  0.00  0.00    -0.273 OA
HETATM   14  H   UNK N   1      33.357  15.668   9.755  0.00  0.00     0.163 HD
BRANCH  12  15
HETATM   15  C   UNK N   1      35.405  16.404  11.116  0.00  0.00     0.148 C 
BRANCH  15  16
HETATM   16  C   UNK N   1      35.602  14.944  10.868  0.00  0.00    -0.009 A 
HETATM   17  C   UNK N   1      34.932  13.895  11.499  0.00  0.00     0.015 A 
HETATM   18  C   UNK N   1      35.374  12.615  11.062  0.00  0.00     0.008 A 
HETATM   19  C   UNK N   1      36.387  12.664  10.092  0.00  0.00     0.050 A 
HETATM   20  S   UNK N   1      36.684  14.275   9.820  0.00  0.00    -0.106 SA
ENDBRANCH  15  16
ENDBRANCH  12  15
ENDBRANCH   8  11
ENDBRANCH   6   8
BRANCH   4  21
HETATM   21  C   UNK N   1      28.191  17.687   9.054  0.00  0.00     0.193 C 
HETATM   22  O   UNK N   1      27.754  16.812   9.787  0.00  0.00    -0.645 OA
BRANCH  21  23
HETATM   23  O   UNK N   1      27.637  18.913   9.103  0.00  0.00    -0.772 OA
HETATM   24  H   UNK N   1      27.935  19.579   9.688  0.00  0.00     0.167 HD
ENDBRANCH  21  23
ENDBRANCH   4  21
BRANCH   3  25
HETATM   25  C   UNK N   1      27.942  17.650   6.071  0.00  0.00     0.148 C 
BRANCH  25  26
HETATM   26  C   UNK N   1      27.916  19.063   5.566  0.00  0.00     0.262 C 
HETATM   27  O   UNK N   1      28.041  19.276   4.369  0.00  0.00    -0.265 OA
BRANCH  26  28
HETATM   28  O   UNK N   1      27.785  20.089   6.443  0.00  0.00    -0.326 OA
HETATM   29  C   UNK N   1      26.762  21.005   6.364  0.00  0.00     0.213 C 
ENDBRANCH  26  28
ENDBRANCH  25  26
ENDBRANCH   3  25
TORSDOF 10
ENDMDL
MODEL 2
REMARK VINA RESULT:      -6.4     10.166     11.893
REMARK  10 active torsions:
REMARK  status: ('A' for Active; 'I' for Inactive)
REMARK    1  A    between atoms: C_3  and  C_4 
REMARK    2  A    between atoms: C_4  and  C_5 
REMARK    3  A    between atoms: C_5  and  O_7 
REMARK    4  A    between atoms: C_9  and  C_10 
REMARK    5  A    between atoms: C_10  and  O_12 
REMARK    6  A    between atoms: C_14  and  C_15 
REMARK    7  A    between atoms: C_15  and  C_16 
REMARK    8  A    between atoms: C_15  and  N_18 
REMARK       I    between atoms: N_18  and  C_19 
REMARK    9  A    between atoms: C_19  and  C_21 
REMARK   10  A    between atoms: C_21  and  C_22 
ROOT
HETATM    1  S   UNK N   1      22.472  17.098   4.107  0.00  0.00    -0.137 SA
HETATM    2  C   UNK N   1      20.889  17.940   4.185  0.00  0.00     0.113 C 
HETATM    3  C   UNK N   1      20.405  18.179   2.795  0.00  0.00    -0.028 C 
HETATM    4  C   UNK N   1      20.292  17.127   1.943  0.00  0.00     0.107 C 
HETATM    5  N   UNK N   1      20.764  15.837   2.339  0.00  0.00    -0.368 N 
HETATM    6  C   UNK N   1      21.742  15.568   3.393  0.00  0.00     0.173 C 
HETATM    7  H   UNK N   1      20.397  15.060   1.860  0.00  0.00     0.161 HD
ENDROOT
BRANCH   6   8
HETATM    8  C   UNK N   1      21.159  14.582   4.426  0.00  0.00     0.178 C 
BRANCH   8   9
HETATM    9  C   UNK N   1      19.702  14.841   4.710  0.00  0.00     0.259 C 
HETATM   10  O   UNK N   1      18.828  14.393   3.985  0.00  0.00    -0.305 OA
ENDBRANCH   8   9
BRANCH   8  11
HETATM   11  N   UNK N   1      21.919  14.766   5.644  0.00  0.00    -0.347 N 
HETATM   12  C   UNK N   1      22.445  13.774   6.403  0.00  0.00     0.223 C 
HETATM   13  O   UNK N   1      22.293  12.601   6.099  0.00  0.00    -0.273 OA
HETATM   14  H   UNK N   1      22.065  15.691   5.948  0.00  0.00     0.163 HD
BRANCH  12  15
HETATM   15  C   UNK N   1      23.243  14.134   7.615  0.00  0.00     0.148 C 
BRANCH  15  16
HETATM   16  C   UNK N   1      22.625  13.527   8.833  0.00  0.00    -0.009 A 
HETATM   17  C   UNK N   1      23.247  12.673   9.743  0.00  0.00     0.015 A 
HETATM   18  C   UNK N   1      22.373  12.240  10.780  0.00  0.00     0.008 A 
HETATM   19  C   UNK N   1      21.071  12.755  10.678  0.00  0.00     0.050 A 
HETATM   20  S   UNK N   1      21.063  13.716   9.324  0.00  0.00    -0.106 SA
ENDBRANCH  15  16
ENDBRANCH  12  15
ENDBRANCH   8  11
ENDBRANCH   6   8
BRANCH   4  21
HETATM   21  C   UNK N   1      19.719  17.253   0.571  0.00  0.00     0.193 C 
HETATM   22  O   UNK N   1      20.462  17.505  -0.366  0.00  0.00    -0.645 OA
BRANCH  21  23
HETATM   23  O   UNK N   1      18.406  17.076   0.330  0.00  0.00    -0.772 OA
HETATM   24  H   UNK N   1      17.972  17.458  -0.406  0.00  0.00     0.167 HD
ENDBRANCH  21  23
ENDBRANCH   4  21
BRANCH   3  25
HETATM   25  C   UNK N   1      20.054  19.588   2.413  0.00  0.00     0.148 C 
BRANCH  25  26
HETATM   26  C   UNK N   1      21.290  20.304   1.953  0.00  0.00     0.262 C 
HETATM   27  O   UNK N   1      21.537  20.370   0.758  0.00  0.00    -0.265 OA
BRANCH  26  28
HETATM   28  O   UNK N   1      22.135  20.844   2.867  0.00  0.00    -0.326 OA
HETATM   29  C   UNK N   1      23.477  20.547   2.900  0.00  0.00     0.213 C 
ENDBRANCH  26  28
ENDBRANCH  25  26
ENDBRANCH   3  25
TORSDOF 10
ENDMDL
MODEL 3
REMARK VINA RESULT:      -6.3      1.685      2.231
REMARK  10 active torsions:
REMARK  status: ('A' for Active; 'I' for Inactive)
REMARK    1  A    between atoms: C_3  and  C_4 
REMARK    2  A    between atoms: C_4  and  C_5 
REMARK    3  A    between atoms: C_5  and  O_7 
REMARK    4  A    between atoms: C_9  and  C_10 
REMARK    5  A    between atoms: C_10  and  O_12 
REMARK    6  A    between atoms: C_14  and  C_15 
REMARK    7  A    between atoms: C_15  and  C_16 
REMARK    8  A    between atoms: C_15  and  N_18 
REMARK       I    between atoms: N_18  and  C_19 
REMARK    9  A    between atoms: C_19  and  C_21 
REMARK   10  A    between atoms: C_21  and  C_22 
ROOT
HETATM    1  S   UNK N   1      31.629  15.279   6.787  0.00  0.00    -0.137 SA
HETATM    2  C   UNK N   1      31.183  16.968   6.373  0.00  0.00     0.113 C 
HETATM    3  C   UNK N   1      30.087  17.410   7.283  0.00  0.00    -0.028 C 
HETATM    4  C   UNK N   1      30.270  17.328   8.628  0.00  0.00     0.107 C 
HETATM    5  N   UNK N   1      31.442  16.698   9.149  0.00  0.00    -0.368 N 
HETATM    6  C   UNK N   1      32.294  15.746   8.437  0.00  0.00     0.173 C 
HETATM    7  H   UNK N   1      31.700  16.926  10.071  0.00  0.00     0.161 HD
ENDROOT
BRANCH   6   8
HETATM    8  C   UNK N   1      33.757  16.236   8.433  0.00  0.00     0.178 C 
BRANCH   8   9
HETATM    9  C   UNK N   1      34.527  15.742   7.236  0.00  0.00     0.259 C 
HETATM   10  O   UNK N   1      34.920  16.514   6.376  0.00  0.00    -0.305 OA
ENDBRANCH   8   9
BRANCH   8  11
HETATM   11  N   UNK N   1      34.368  15.714   9.637  0.00  0.00    -0.347 N 
HETATM   12  C   UNK N   1      35.225  16.387  10.443  0.00  0.00     0.223 C 
HETATM   13  O   UNK N   1      35.564  17.532  10.184  0.00  0.00    -0.273 OA
HETATM   14  H   UNK N   1      34.142  14.790   9.892  0.00  0.00     0.163 HD
BRANCH  12  15
HETATM   15  C   UNK N   1      35.738  15.718  11.677  0.00  0.00     0.148 C 
BRANCH  15  16
HETATM   16  C   UNK N   1      36.142  14.313  11.366  0.00  0.00    -0.009 A 
HETATM   17  C   UNK N   1      37.200  13.915  10.548  0.00  0.00     0.015 A 
HETATM   18  C   UNK N   1      37.301  12.500  10.427  0.00  0.00     0.008 A 
HETATM   19  C   UNK N   1      36.325  11.796  11.148  0.00  0.00     0.050 A 
HETATM   20  S   UNK N   1      35.391  12.946  11.899  0.00  0.00    -0.106 SA
ENDBRANCH  15  16
ENDBRANCH  12  15
ENDBRANCH   8  11
ENDBRANCH   6   8
BRANCH   4  21
HETATM   21  C   UNK N   1      29.275  17.843   9.613  0.00  0.00     0.193 C 
HETATM   22  O   UNK N   1      29.529  18.859  10.243  0.00  0.00    -0.645 OA
BRANCH  21  23
HETATM   23  O   UNK N   1      28.091  17.232   9.814  0.00  0.00    -0.772 OA
HETATM   24  H   UNK N   1      27.753  16.581   9.232  0.00  0.00     0.167 HD
ENDBRANCH  21  23
ENDBRANCH   4  21
BRANCH   3  25
HETATM   25  C   UNK N   1      28.830  17.937   6.654  0.00  0.00     0.148 C 
BRANCH  25  26
HETATM   26  C   UNK N   1      27.928  16.791   6.303  0.00  0.00     0.262 C 
HETATM   27  O   UNK N   1      27.190  16.322   7.158  0.00  0.00    -0.265 OA
BRANCH  26  28
HETATM   28  O   UNK N   1      27.960  16.267   5.053  0.00  0.00    -0.326 OA
HETATM   29  C   UNK N   1      28.358  14.975   4.800  0.00  0.00     0.213 C 
ENDBRANCH  26  28
ENDBRANCH  25  26
ENDBRANCH   3  25
TORSDOF 10
ENDMDL
MODEL 4
REMARK VINA RESULT:      -6.2      2.475      4.070
REMARK  10 active torsions:
REMARK  status: ('A' for Active; 'I' for Inactive)
REMARK    1  A    between atoms: C_3  and  C_4 
REMARK    2  A    between atoms: C_4  and  C_5 
REMARK    3  A    between atoms: C_5  and  O_7 
REMARK    4  A    between atoms: C_9  and  C_10 
REMARK    5  A    between atoms: C_10  and  O_12 
REMARK    6  A    between atoms: C_14  and  C_15 
REMARK    7  A    between atoms: C_15  and  C_16 
REMARK    8  A    between atoms: C_15  and  N_18 
REMARK       I    between atoms: N_18  and  C_19 
REMARK    9  A    between atoms: C_19  and  C_21 
REMARK   10  A    between atoms: C_21  and  C_22 
ROOT
HETATM    1  S   UNK N   1      32.901  14.674   7.664  0.00  0.00    -0.137 SA
HETATM    2  C   UNK N   1      33.345  15.335   6.054  0.00  0.00     0.113 C 
HETATM    3  C   UNK N   1      32.109  15.834   5.385  0.00  0.00    -0.028 C 
HETATM    4  C   UNK N   1      31.329  16.744   6.026  0.00  0.00     0.107 C 
HETATM    5  N   UNK N   1      31.624  17.106   7.377  0.00  0.00    -0.368 N 
HETATM    6  C   UNK N   1      32.414  16.320   8.324  0.00  0.00     0.173 C 
HETATM    7  H   UNK N   1      31.263  17.964   7.699  0.00  0.00     0.161 HD
ENDROOT
BRANCH   6   8
HETATM    8  C   UNK N   1      33.576  17.166   8.884  0.00  0.00     0.178 C 
BRANCH   8   9
HETATM    9  C   UNK N   1      34.113  18.147   7.874  0.00  0.00     0.259 C 
HETATM   10  O   UNK N   1      34.880  19.037   8.206  0.00  0.00    -0.305 OA
ENDBRANCH   8   9
BRANCH   8  11
HETATM   11  N   UNK N   1      34.625  16.235   9.243  0.00  0.00    -0.347 N 
HETATM   12  C   UNK N   1      35.417  16.325  10.340  0.00  0.00     0.223 C 
HETATM   13  O   UNK N   1      35.299  17.251  11.128  0.00  0.00    -0.273 OA
HETATM   14  H   UNK N   1      34.777  15.473   8.640  0.00  0.00     0.163 HD
BRANCH  12  15
HETATM   15  C   UNK N   1      36.430  15.255  10.592  0.00  0.00     0.148 C 
BRANCH  15  16
HETATM   16  C   UNK N   1      35.961  14.356  11.689  0.00  0.00    -0.009 A 
HETATM   17  C   UNK N   1      36.170  14.534  13.057  0.00  0.00     0.015 A 
HETATM   18  C   UNK N   1      35.623  13.478  13.840  0.00  0.00     0.008 A 
HETATM   19  C   UNK N   1      34.990  12.479  13.087  0.00  0.00     0.050 A 
HETATM   20  S   UNK N   1      35.131  12.944  11.499  0.00  0.00    -0.106 SA
ENDBRANCH  15  16
ENDBRANCH  12  15
ENDBRANCH   8  11
ENDBRANCH   6   8
BRANCH   4  21
HETATM   21  C   UNK N   1      30.135  17.376   5.393  0.00  0.00     0.193 C 
HETATM   22  O   UNK N   1      29.020  17.098   5.810  0.00  0.00    -0.645 OA
BRANCH  21  23
HETATM   23  O   UNK N   1      30.250  18.264   4.387  0.00  0.00    -0.772 OA
HETATM   24  H   UNK N   1      29.686  18.256   3.639  0.00  0.00     0.167 HD
ENDBRANCH  21  23
ENDBRANCH   4  21
BRANCH   3  25
HETATM   25  C   UNK N   1      31.797  15.303   4.016  0.00  0.00     0.148 C 
BRANCH  25  26
HETATM   26  C   UNK N   1      32.626  16.028   2.997  0.00  0.00     0.262 C 
HETATM   27  O   UNK N   1      32.305  17.156   2.653  0.00  0.00    -0.265 OA
BRANCH  26  28
HETATM   28  O   UNK N   1      33.705  15.417   2.446  0.00  0.00    -0.326 OA
HETATM   29  C   UNK N   1      33.852  14.050   2.429  0.00  0.00     0.213 C 
ENDBRANCH  26  28
ENDBRANCH  25  26
ENDBRANCH   3  25
TORSDOF 10
ENDMDL
MODEL 5
REMARK VINA RESULT:      -6.1      3.528      5.735
REMARK  10 active torsions:
REMARK  status: ('A' for Active; 'I' for Inactive)
REMARK    1  A    between atoms: C_3  and  C_4 
REMARK    2  A    between atoms: C_4  and  C_5 
REMARK    3  A    between atoms: C_5  and  O_7 
REMARK    4  A    between atoms: C_9  and  C_10 
REMARK    5  A    between atoms: C_10  and  O_12 
REMARK    6  A    between atoms: C_14  and  C_15 
REMARK    7  A    between atoms: C_15  and  C_16 
REMARK    8  A    between atoms: C_15  and  N_18 
REMARK       I    between atoms: N_18  and  C_19 
REMARK    9  A    between atoms: C_19  and  C_21 
REMARK   10  A    between atoms: C_21  and  C_22 
ROOT
HETATM    1  S   UNK N   1      33.652  13.816   9.199  0.00  0.00    -0.137 SA
HETATM    2  C   UNK N   1      35.003  14.446   8.198  0.00  0.00     0.113 C 
HETATM    3  C   UNK N   1      34.651  15.817   7.728  0.00  0.00    -0.028 C 
HETATM    4  C   UNK N   1      34.311  16.764   8.643  0.00  0.00     0.107 C 
HETATM    5  N   UNK N   1      34.163  16.404  10.018  0.00  0.00    -0.368 N 
HETATM    6  C   UNK N   1      33.919  15.057  10.531  0.00  0.00     0.173 C 
HETATM    7  H   UNK N   1      34.233  17.129  10.680  0.00  0.00     0.161 HD
ENDROOT
BRANCH   6   8
HETATM    8  C   UNK N   1      34.995  14.675  11.568  0.00  0.00     0.178 C 
BRANCH   8   9
HETATM    9  C   UNK N   1      36.393  14.932  11.069  0.00  0.00     0.259 C 
HETATM   10  O   UNK N   1      36.802  16.069  10.895  0.00  0.00    -0.305 OA
ENDBRANCH   8   9
BRANCH   8  11
HETATM   11  N   UNK N   1      34.836  13.259  11.824  0.00  0.00    -0.347 N 
HETATM   12  C   UNK N   1      34.785  12.679  13.048  0.00  0.00     0.223 C 
HETATM   13  O   UNK N   1      34.888  13.347  14.065  0.00  0.00    -0.273 OA
HETATM   14  H   UNK N   1      34.759  12.667  11.041  0.00  0.00     0.163 HD
BRANCH  12  15
HETATM   15  C   UNK N   1      34.574  11.202  13.142  0.00  0.00     0.148 C 
BRANCH  15  16
HETATM   16  C   UNK N   1      35.128  10.688  14.432  0.00  0.00    -0.009 A 
HETATM   17  C   UNK N   1      34.399  10.348  15.572  0.00  0.00     0.015 A 
HETATM   18  C   UNK N   1      35.228   9.923  16.649  0.00  0.00     0.008 A 
HETATM   19  C   UNK N   1      36.599   9.930  16.350  0.00  0.00     0.050 A 
HETATM   20  S   UNK N   1      36.722  10.456  14.779  0.00  0.00    -0.106 SA
ENDBRANCH  15  16
ENDBRANCH  12  15
ENDBRANCH   8  11
ENDBRANCH   6   8
BRANCH   4  21
HETATM   21  C   UNK N   1      34.047  18.186   8.276  0.00  0.00     0.193 C 
HETATM   22  O   UNK N   1      32.908  18.530   7.997  0.00  0.00    -0.645 OA
BRANCH  21  23
HETATM   23  O   UNK N   1      35.026  19.111   8.263  0.00  0.00    -0.772 OA
HETATM   24  H   UNK N   1      34.915  19.958   7.881  0.00  0.00     0.167 HD
ENDBRANCH  21  23
ENDBRANCH   4  21
BRANCH   3  25
HETATM   25  C   UNK N   1      34.701  16.081   6.251  0.00  0.00     0.148 C 
BRANCH  25  26
HETATM   26  C   UNK N   1      33.308  16.070   5.694  0.00  0.00     0.262 C 
HETATM   27  O   UNK N   1      32.995  16.888   4.841  0.00  0.00    -0.265 OA
BRANCH  26  28
HETATM   28  O   UNK N   1      32.402  15.176   6.162  0.00  0.00    -0.326 OA
HETATM   29  C   UNK N   1      31.139  15.542   6.564  0.00  0.00     0.213 C 
ENDBRANCH  26  28
ENDBRANCH  25  26
ENDBRANCH   3  25
TORSDOF 10
ENDMDL
MODEL 6
REMARK VINA RESULT:      -6.0     13.351     17.093
REMARK  10 active torsions:
REMARK  status: ('A' for Active; 'I' for Inactive)
REMARK    1  A    between atoms: C_3  and  C_4 
REMARK    2  A    between atoms: C_4  and  C_5 
REMARK    3  A    between atoms: C_5  and  O_7 
REMARK    4  A    between atoms: C_9  and  C_10 
REMARK    5  A    between atoms: C_10  and  O_12 
REMARK    6  A    between atoms: C_14  and  C_15 
REMARK    7  A    between atoms: C_15  and  C_16 
REMARK    8  A    between atoms: C_15  and  N_18 
REMARK       I    between atoms: N_18  and  C_19 
REMARK    9  A    between atoms: C_19  and  C_21 
REMARK   10  A    between atoms: C_21  and  C_22 
ROOT
HETATM    1  S   UNK N   1      30.265  23.312  -6.563  0.00  0.00    -0.137 SA
HETATM    2  C   UNK N   1      29.883  21.738  -5.788  0.00  0.00     0.113 C 
HETATM    3  C   UNK N   1      30.055  21.876  -4.313  0.00  0.00    -0.028 C 
HETATM    4  C   UNK N   1      29.379  22.856  -3.657  0.00  0.00     0.107 C 
HETATM    5  N   UNK N   1      28.626  23.819  -4.397  0.00  0.00    -0.368 N 
HETATM    6  C   UNK N   1      28.814  24.155  -5.808  0.00  0.00     0.173 C 
HETATM    7  H   UNK N   1      27.916  24.300  -3.914  0.00  0.00     0.161 HD
ENDROOT
BRANCH   6   8
HETATM    8  C   UNK N   1      27.490  23.986  -6.580  0.00  0.00     0.178 C 
BRANCH   8   9
HETATM    9  C   UNK N   1      27.707  23.571  -8.012  0.00  0.00     0.259 C 
HETATM   10  O   UNK N   1      26.800  23.620  -8.828  0.00  0.00    -0.305 OA
ENDBRANCH   8   9
BRANCH   8  11
HETATM   11  N   UNK N   1      26.832  25.275  -6.556  0.00  0.00    -0.347 N 
HETATM   12  C   UNK N   1      25.638  25.540  -5.971  0.00  0.00     0.223 C 
HETATM   13  O   UNK N   1      25.002  24.660  -5.411  0.00  0.00    -0.273 OA
HETATM   14  H   UNK N   1      27.290  26.023  -7.002  0.00  0.00     0.163 HD
BRANCH  12  15
HETATM   15  C   UNK N   1      25.112  26.939  -5.997  0.00  0.00     0.148 C 
BRANCH  15  16
HETATM   16  C   UNK N   1      25.939  27.812  -5.109  0.00  0.00    -0.009 A 
HETATM   17  C   UNK N   1      25.747  28.029  -3.744  0.00  0.00     0.015 A 
HETATM   18  C   UNK N   1      26.688  28.944  -3.194  0.00  0.00     0.008 A 
HETATM   19  C   UNK N   1      27.612  29.439  -4.125  0.00  0.00     0.050 A 
HETATM   20  S   UNK N   1      27.228  28.727  -5.575  0.00  0.00    -0.106 SA
ENDBRANCH  15  16
ENDBRANCH  12  15
ENDBRANCH   8  11
ENDBRANCH   6   8
BRANCH   4  21
HETATM   21  C   UNK N   1      29.406  23.003  -2.172  0.00  0.00     0.193 C 
HETATM   22  O   UNK N   1      30.478  23.163  -1.607  0.00  0.00    -0.645 OA
BRANCH  21  23
HETATM   23  O   UNK N   1      28.279  22.986  -1.435  0.00  0.00    -0.772 OA
HETATM   24  H   UNK N   1      27.429  22.890  -1.815  0.00  0.00     0.167 HD
ENDBRANCH  21  23
ENDBRANCH   4  21
BRANCH   3  25
HETATM   25  C   UNK N   1      30.970  20.905  -3.625  0.00  0.00     0.148 C 
BRANCH  25  26
HETATM   26  C   UNK N   1      32.368  21.086  -4.138  0.00  0.00     0.262 C 
HETATM   27  O   UNK N   1      32.901  22.183  -4.058  0.00  0.00    -0.265 OA
BRANCH  26  28
HETATM   28  O   UNK N   1      33.016  20.042  -4.712  0.00  0.00    -0.326 OA
HETATM   29  C   UNK N   1      33.149  19.910  -6.074  0.00  0.00     0.213 C 
ENDBRANCH  26  28
ENDBRANCH  25  26
ENDBRANCH   3  25
TORSDOF 10
ENDMDL
MODEL 7
REMARK VINA RESULT:      -5.9      2.989      4.812
REMARK  10 active torsions:
REMARK  status: ('A' for Active; 'I' for Inactive)
REMARK    1  A    between atoms: C_3  and  C_4 
REMARK    2  A    between atoms: C_4  and  C_5 
REMARK    3  A    between atoms: C_5  and  O_7 
REMARK    4  A    between atoms: C_9  and  C_10 
REMARK    5  A    between atoms: C_10  and  O_12 
REMARK    6  A    between atoms: C_14  and  C_15 
REMARK    7  A    between atoms: C_15  and  C_16 
REMARK    8  A    between atoms: C_15  and  N_18 
REMARK       I    between atoms: N_18  and  C_19 
REMARK    9  A    between atoms: C_19  and  C_21 
REMARK   10  A    between atoms: C_21  and  C_22 
ROOT
HETATM    1  S   UNK N   1      34.025  13.623   8.847  0.00  0.00    -0.137 SA
HETATM    2  C   UNK N   1      34.480  14.985   7.771  0.00  0.00     0.113 C 
HETATM    3  C   UNK N   1      33.253  15.768   7.444  0.00  0.00    -0.028 C 
HETATM    4  C   UNK N   1      32.488  16.254   8.457  0.00  0.00     0.107 C 
HETATM    5  N   UNK N   1      32.788  15.898   9.809  0.00  0.00    -0.368 N 
HETATM    6  C   UNK N   1      33.565  14.735  10.238  0.00  0.00     0.173 C 
HETATM    7  H   UNK N   1      32.442  16.490  10.515  0.00  0.00     0.161 HD
ENDROOT
BRANCH   6   8
HETATM    8  C   UNK N   1      34.741  15.177  11.132  0.00  0.00     0.178 C 
BRANCH   8   9
HETATM    9  C   UNK N   1      35.731  16.044  10.397  0.00  0.00     0.259 C 
HETATM   10  O   UNK N   1      35.576  17.252  10.319  0.00  0.00    -0.305 OA
ENDBRANCH   8   9
BRANCH   8  11
HETATM   11  N   UNK N   1      35.404  13.966  11.568  0.00  0.00    -0.347 N 
HETATM   12  C   UNK N   1      36.039  13.797  12.754  0.00  0.00     0.223 C 
HETATM   13  O   UNK N   1      36.106  14.706  13.567  0.00  0.00    -0.273 OA
HETATM   14  H   UNK N   1      35.394  13.200  10.950  0.00  0.00     0.163 HD
BRANCH  12  15
HETATM   15  C   UNK N   1      36.640  12.466  13.071  0.00  0.00     0.148 C 
BRANCH  15  16
HETATM   16  C   UNK N   1      35.736  11.703  13.986  0.00  0.00    -0.009 A 
HETATM   17  C   UNK N   1      34.412  11.341  13.735  0.00  0.00     0.015 A 
HETATM   18  C   UNK N   1      33.814  10.648  14.825  0.00  0.00     0.008 A 
HETATM   19  C   UNK N   1      34.669  10.468  15.923  0.00  0.00     0.050 A 
HETATM   20  S   UNK N   1      36.114  11.168  15.498  0.00  0.00    -0.106 SA
ENDBRANCH  15  16
ENDBRANCH  12  15
ENDBRANCH   8  11
ENDBRANCH   6   8
BRANCH   4  21
HETATM   21  C   UNK N   1      31.305  17.134   8.229  0.00  0.00     0.193 C 
HETATM   22  O   UNK N   1      31.365  18.311   8.552  0.00  0.00    -0.645 OA
BRANCH  21  23
HETATM   23  O   UNK N   1      30.177  16.673   7.655  0.00  0.00    -0.772 OA
HETATM   24  H   UNK N   1      29.972  15.761   7.604  0.00  0.00     0.167 HD
ENDBRANCH  21  23
ENDBRANCH   4  21
BRANCH   3  25
HETATM   25  C   UNK N   1      32.932  15.986   5.994  0.00  0.00     0.148 C 
BRANCH  25  26
HETATM   26  C   UNK N   1      33.493  17.306   5.551  0.00  0.00     0.262 C 
HETATM   27  O   UNK N   1      34.330  17.866   6.243  0.00  0.00    -0.265 OA
BRANCH  26  28
HETATM   28  O   UNK N   1      33.045  17.877   4.405  0.00  0.00    -0.326 OA
HETATM   29  C   UNK N   1      32.555  17.141   3.353  0.00  0.00     0.213 C 
ENDBRANCH  26  28
ENDBRANCH  25  26
ENDBRANCH   3  25
TORSDOF 10
ENDMDL
MODEL 8
REMARK VINA RESULT:      -5.9      8.112     11.108
REMARK  10 active torsions:
REMARK  status: ('A' for Active; 'I' for Inactive)
REMARK    1  A    between atoms: C_3  and  C_4 
REMARK    2  A    between atoms: C_4  and  C_5 
REMARK    3  A    between atoms: C_5  and  O_7 
REMARK    4  A    between atoms: C_9  and  C_10 
REMARK    5  A    between atoms: C_10  and  O_12 
REMARK    6  A    between atoms: C_14  and  C_15 
REMARK    7  A    between atoms: C_15  and  C_16 
REMARK    8  A    between atoms: C_15  and  N_18 
REMARK       I    between atoms: N_18  and  C_19 
REMARK    9  A    between atoms: C_19  and  C_21 
REMARK   10  A    between atoms: C_21  and  C_22 
ROOT
HETATM    1  S   UNK N   1      23.284  16.976   5.274  0.00  0.00    -0.137 SA
HETATM    2  C   UNK N   1      22.304  15.840   4.287  0.00  0.00     0.113 C 
HETATM    3  C   UNK N   1      21.126  15.403   5.090  0.00  0.00    -0.028 C 
HETATM    4  C   UNK N   1      20.298  16.343   5.617  0.00  0.00     0.107 C 
HETATM    5  N   UNK N   1      20.636  17.728   5.514  0.00  0.00    -0.368 N 
HETATM    6  C   UNK N   1      21.975  18.268   5.278  0.00  0.00     0.173 C 
HETATM    7  H   UNK N   1      19.902  18.376   5.609  0.00  0.00     0.161 HD
ENDROOT
BRANCH   6   8
HETATM    8  C   UNK N   1      21.969  19.192   4.043  0.00  0.00     0.178 C 
BRANCH   8   9
HETATM    9  C   UNK N   1      21.129  18.646   2.918  0.00  0.00     0.259 C 
HETATM   10  O   UNK N   1      19.928  18.859   2.867  0.00  0.00    -0.305 OA
ENDBRANCH   8   9
BRANCH   8  11
HETATM   11  N   UNK N   1      23.344  19.294   3.600  0.00  0.00    -0.347 N 
HETATM   12  C   UNK N   1      23.925  20.403   3.081  0.00  0.00     0.223 C 
HETATM   13  O   UNK N   1      23.290  21.436   2.934  0.00  0.00    -0.273 OA
HETATM   14  H   UNK N   1      23.904  18.489   3.683  0.00  0.00     0.163 HD
BRANCH  12  15
HETATM   15  C   UNK N   1      25.372  20.357   2.709  0.00  0.00     0.148 C 
BRANCH  15  16
HETATM   16  C   UNK N   1      26.196  20.016   3.909  0.00  0.00    -0.009 A 
HETATM   17  C   UNK N   1      26.434  20.833   5.014  0.00  0.00     0.015 A 
HETATM   18  C   UNK N   1      27.291  20.226   5.975  0.00  0.00     0.008 A 
HETATM   19  C   UNK N   1      27.721  18.939   5.621  0.00  0.00     0.050 A 
HETATM   20  S   UNK N   1      27.025  18.612   4.149  0.00  0.00    -0.106 SA
ENDBRANCH  15  16
ENDBRANCH  12  15
ENDBRANCH   8  11
ENDBRANCH   6   8
BRANCH   4  21
HETATM   21  C   UNK N   1      19.040  15.999   6.343  0.00  0.00     0.193 C 
HETATM   22  O   UNK N   1      19.061  15.898   7.561  0.00  0.00    -0.645 OA
BRANCH  21  23
HETATM   23  O   UNK N   1      17.873  15.817   5.696  0.00  0.00    -0.772 OA
HETATM   24  H   UNK N   1      17.357  15.041   5.794  0.00  0.00     0.167 HD
ENDBRANCH  21  23
ENDBRANCH   4  21
BRANCH   3  25
HETATM   25  C   UNK N   1      20.912  13.927   5.265  0.00  0.00     0.148 C 
BRANCH  25  26
HETATM   26  C   UNK N   1      21.590  13.470   6.524  0.00  0.00     0.262 C 
HETATM   27  O   UNK N   1      22.810  13.440   6.573  0.00  0.00    -0.265 OA
BRANCH  26  28
HETATM   28  O   UNK N   1      20.844  13.066   7.582  0.00  0.00    -0.326 OA
HETATM   29  C   UNK N   1      21.224  13.290   8.885  0.00  0.00     0.213 C 
ENDBRANCH  26  28
ENDBRANCH  25  26
ENDBRANCH   3  25
TORSDOF 10
ENDMDL
MODEL 9
REMARK VINA RESULT:      -5.8     13.312     17.059
REMARK  10 active torsions:
REMARK  status: ('A' for Active; 'I' for Inactive)
REMARK    1  A    between atoms: C_3  and  C_4 
REMARK    2  A    between atoms: C_4  and  C_5 
REMARK    3  A    between atoms: C_5  and  O_7 
REMARK    4  A    between atoms: C_9  and  C_10 
REMARK    5  A    between atoms: C_10  and  O_12 
REMARK    6  A    between atoms: C_14  and  C_15 
REMARK    7  A    between atoms: C_15  and  C_16 
REMARK    8  A    between atoms: C_15  and  N_18 
REMARK       I    between atoms: N_18  and  C_19 
REMARK    9  A    between atoms: C_19  and  C_21 
REMARK   10  A    between atoms: C_21  and  C_22 
ROOT
HETATM    1  S   UNK N   1      29.653  23.899  -6.534  0.00  0.00    -0.137 SA
HETATM    2  C   UNK N   1      29.214  22.284  -5.885  0.00  0.00     0.113 C 
HETATM    3  C   UNK N   1      30.063  22.001  -4.692  0.00  0.00    -0.028 C 
HETATM    4  C   UNK N   1      30.078  22.890  -3.664  0.00  0.00     0.107 C 
HETATM    5  N   UNK N   1      29.396  24.140  -3.794  0.00  0.00    -0.368 N 
HETATM    6  C   UNK N   1      29.019  24.785  -5.052  0.00  0.00     0.173 C 
HETATM    7  H   UNK N   1      29.157  24.608  -2.962  0.00  0.00     0.161 HD
ENDROOT
BRANCH   6   8
HETATM    8  C   UNK N   1      27.506  25.081  -5.069  0.00  0.00     0.178 C 
BRANCH   8   9
HETATM    9  C   UNK N   1      26.752  24.292  -4.030  0.00  0.00     0.259 C 
HETATM   10  O   UNK N   1      26.555  24.746  -2.914  0.00  0.00    -0.305 OA
ENDBRANCH   8   9
BRANCH   8  11
HETATM   11  N   UNK N   1      27.029  24.708  -6.384  0.00  0.00    -0.347 N 
HETATM   12  C   UNK N   1      25.860  25.107  -6.942  0.00  0.00     0.223 C 
HETATM   13  O   UNK N   1      25.089  25.833  -6.335  0.00  0.00    -0.273 OA
HETATM   14  H   UNK N   1      27.603  24.113  -6.919  0.00  0.00     0.163 HD
BRANCH  12  15
HETATM   15  C   UNK N   1      25.532  24.665  -8.332  0.00  0.00     0.148 C 
BRANCH  15  16
HETATM   16  C   UNK N   1      25.814  23.205  -8.484  0.00  0.00    -0.009 A 
HETATM   17  C   UNK N   1      25.069  22.155  -7.947  0.00  0.00     0.015 A 
HETATM   18  C   UNK N   1      25.622  20.878  -8.246  0.00  0.00     0.008 A 
HETATM   19  C   UNK N   1      26.794  20.931  -9.014  0.00  0.00     0.050 A 
HETATM   20  S   UNK N   1      27.090  22.542  -9.289  0.00  0.00    -0.106 SA
ENDBRANCH  15  16
ENDBRANCH  12  15
ENDBRANCH   8  11
ENDBRANCH   6   8
BRANCH   4  21
HETATM   21  C   UNK N   1      30.812  22.642  -2.389  0.00  0.00     0.193 C 
HETATM   22  O   UNK N   1      30.306  22.986  -1.331  0.00  0.00    -0.645 OA
BRANCH  21  23
HETATM   23  O   UNK N   1      32.011  22.028  -2.366  0.00  0.00    -0.772 OA
HETATM   24  H   UNK N   1      32.228  21.322  -2.942  0.00  0.00     0.167 HD
ENDBRANCH  21  23
ENDBRANCH   4  21
BRANCH   3  25
HETATM   25  C   UNK N   1      30.856  20.726  -4.689  0.00  0.00     0.148 C 
BRANCH  25  26
HETATM   26  C   UNK N   1      32.070  20.891  -5.556  0.00  0.00     0.262 C 
HETATM   27  O   UNK N   1      32.084  20.392  -6.671  0.00  0.00    -0.265 OA
BRANCH  26  28
HETATM   28  O   UNK N   1      33.148  21.565  -5.084  0.00  0.00    -0.326 OA
HETATM   29  C   UNK N   1      33.553  22.772  -5.604  0.00  0.00     0.213 C 
ENDBRANCH  26  28
ENDBRANCH  25  26
ENDBRANCH   3  25
TORSDOF 10
ENDMDL
