MODEL 1
REMARK VINA RESULT:      -5.4      0.000      0.000
REMARK  8 active torsions:
REMARK  status: ('A' for Active; 'I' for Inactive)
REMARK    1  A    between atoms: C_2  and  C_1 
REMARK    2  A    between atoms: C_5  and  C_1 
REMARK    3  A    between atoms: C_3  and  C_2 
REMARK    4  A    between atoms: C_8  and  C_2 
REMARK    5  A    between atoms: C_11  and  C_3 
REMARK    6  A    between atoms: O_7  and  C_5 
REMARK    7  A    between atoms: O_10  and  C_8 
REMARK    8  A    between atoms: O_13  and  C_11 
ROOT
HETATM    1  C   UNK N   1      33.890  15.776   9.267  0.00  0.00     0.138 C 
ENDROOT
BRANCH   1   2
HETATM    2  C   UNK N   1      34.026  17.314   9.114  0.00  0.00     0.128 C 
BRANCH   2   3
HETATM    3  C   UNK N   1      34.594  18.251   8.080  0.00  0.00     0.140 C 
HETATM    4  O   UNK N   1      35.251  19.201   8.473  0.00  0.00    -0.650 OA
BRANCH   3   5
HETATM    5  O   UNK N   1      34.414  18.093   6.761  0.00  0.00    -0.776 OA
HETATM    6  H   UNK N   1      34.715  18.750   6.164  0.00  0.00     0.167 HD
ENDBRANCH   3   5
ENDBRANCH   2   3
ENDBRANCH   1   2
BRANCH   1   7
HETATM    7  C   UNK N   1      34.681  15.082  10.517  0.00  0.00     0.152 A 
HETATM    8  C   UNK N   1      34.831  14.364  11.865  0.00  0.00     0.059 A 
HETATM    9  O   UNK N   1      33.523  14.765  11.210  0.00  0.00    -0.378 OA
HETATM   10  H   UNK N   1      32.657  14.998  10.840  0.00  0.00     0.211 HD
BRANCH   7  11
HETATM   11  C   UNK N   1      36.293  15.113  10.329  0.00  0.00     0.176 C 
HETATM   12  O   UNK N   1      36.934  14.257   9.716  0.00  0.00    -0.648 OA
BRANCH  11  13
HETATM   13  O   UNK N   1      37.032  16.107  10.850  0.00  0.00    -0.774 OA
HETATM   14  H   UNK N   1      37.879  15.925  11.205  0.00  0.00     0.167 HD
ENDBRANCH  11  13
ENDBRANCH   7  11
ENDBRANCH   1   7
BRANCH   1  15
HETATM   15  C   UNK N   1      33.017  15.010   8.227  0.00  0.00     0.147 C 
HETATM   16  O   UNK N   1      32.977  15.344   7.052  0.00  0.00    -0.650 OA
BRANCH  15  17
HETATM   17  O   UNK N   1      32.279  13.954   8.590  0.00  0.00    -0.776 OA
HETATM   18  H   UNK N   1      31.634  14.044   9.263  0.00  0.00     0.167 HD
ENDBRANCH  15  17
ENDBRANCH   1  15
TORSDOF 8
ENDMDL
MODEL 2
REMARK VINA RESULT:      -5.3      1.737      3.392
REMARK  8 active torsions:
REMARK  status: ('A' for Active; 'I' for Inactive)
REMARK    1  A    between atoms: C_2  and  C_1 
REMARK    2  A    between atoms: C_5  and  C_1 
REMARK    3  A    between atoms: C_3  and  C_2 
REMARK    4  A    between atoms: C_8  and  C_2 
REMARK    5  A    between atoms: C_11  and  C_3 
REMARK    6  A    between atoms: O_7  and  C_5 
REMARK    7  A    between atoms: O_10  and  C_8 
REMARK    8  A    between atoms: O_13  and  C_11 
ROOT
HETATM    1  C   UNK N   1      33.933  17.147   8.886  0.00  0.00     0.138 C 
ENDROOT
BRANCH   1   2
HETATM    2  C   UNK N   1      32.444  16.737   8.731  0.00  0.00     0.128 C 
BRANCH   2   3
HETATM    3  C   UNK N   1      31.310  17.111   7.813  0.00  0.00     0.140 C 
HETATM    4  O   UNK N   1      30.209  17.282   8.310  0.00  0.00    -0.650 OA
BRANCH   3   5
HETATM    5  O   UNK N   1      31.450  17.262   6.489  0.00  0.00    -0.776 OA
HETATM    6  H   UNK N   1      30.819  16.891   5.904  0.00  0.00     0.167 HD
ENDBRANCH   3   5
ENDBRANCH   2   3
ENDBRANCH   1   2
BRANCH   1   7
HETATM    7  C   UNK N   1      34.792  16.396  10.054  0.00  0.00     0.152 A 
HETATM    8  C   UNK N   1      35.892  16.237  11.112  0.00  0.00     0.059 A 
HETATM    9  O   UNK N   1      35.664  17.458  10.242  0.00  0.00    -0.378 OA
HETATM   10  H   UNK N   1      35.566  18.265   9.713  0.00  0.00     0.211 HD
BRANCH   7  11
HETATM   11  C   UNK N   1      34.233  14.907  10.379  0.00  0.00     0.176 C 
HETATM   12  O   UNK N   1      34.537  13.900   9.736  0.00  0.00    -0.648 OA
BRANCH  11  13
HETATM   13  O   UNK N   1      33.384  14.692  11.398  0.00  0.00    -0.774 OA
HETATM   14  H   UNK N   1      33.404  15.251  12.149  0.00  0.00     0.167 HD
ENDBRANCH  11  13
ENDBRANCH   7  11
ENDBRANCH   1   7
BRANCH   1  15
HETATM   15  C   UNK N   1      34.496  18.237   7.923  0.00  0.00     0.147 C 
HETATM   16  O   UNK N   1      35.013  19.261   8.345  0.00  0.00    -0.650 OA
BRANCH  15  17
HETATM   17  O   UNK N   1      34.432  18.085   6.595  0.00  0.00    -0.776 OA
HETATM   18  H   UNK N   1      33.602  18.113   6.161  0.00  0.00     0.167 HD
ENDBRANCH  15  17
ENDBRANCH   1  15
TORSDOF 8
ENDMDL
MODEL 3
REMARK VINA RESULT:      -5.2      1.426      4.365
REMARK  8 active torsions:
REMARK  status: ('A' for Active; 'I' for Inactive)
REMARK    1  A    between atoms: C_2  and  C_1 
REMARK    2  A    between atoms: C_5  and  C_1 
REMARK    3  A    between atoms: C_3  and  C_2 
REMARK    4  A    between atoms: C_8  and  C_2 
REMARK    5  A    between atoms: C_11  and  C_3 
REMARK    6  A    between atoms: O_7  and  C_5 
REMARK    7  A    between atoms: O_10  and  C_8 
REMARK    8  A    between atoms: O_13  and  C_11 
ROOT
HETATM    1  C   UNK N   1      33.878  17.168   8.901  0.00  0.00     0.138 C 
ENDROOT
BRANCH   1   2
HETATM    2  C   UNK N   1      34.679  16.593  10.100  0.00  0.00     0.128 C 
BRANCH   2   3
HETATM    3  C   UNK N   1      35.864  15.680  10.268  0.00  0.00     0.140 C 
HETATM    4  O   UNK N   1      35.773  14.543   9.837  0.00  0.00    -0.650 OA
BRANCH   3   5
HETATM    5  O   UNK N   1      37.006  16.053  10.864  0.00  0.00    -0.776 OA
HETATM    6  H   UNK N   1      37.790  15.557  10.729  0.00  0.00     0.167 HD
ENDBRANCH   3   5
ENDBRANCH   2   3
ENDBRANCH   1   2
BRANCH   1   7
HETATM    7  C   UNK N   1      32.348  16.630   8.704  0.00  0.00     0.152 A 
HETATM    8  C   UNK N   1      30.898  16.659   8.203  0.00  0.00     0.059 A 
HETATM    9  O   UNK N   1      31.953  17.716   7.938  0.00  0.00    -0.378 OA
HETATM   10  H   UNK N   1      32.586  18.423   7.737  0.00  0.00     0.211 HD
BRANCH   7  11
HETATM   11  C   UNK N   1      32.087  15.210   9.446  0.00  0.00     0.176 C 
HETATM   12  O   UNK N   1      32.275  14.111   8.921  0.00  0.00    -0.648 OA
BRANCH  11  13
HETATM   13  O   UNK N   1      31.639  15.162  10.712  0.00  0.00    -0.774 OA
HETATM   14  H   UNK N   1      30.784  15.484  10.918  0.00  0.00     0.167 HD
ENDBRANCH  11  13
ENDBRANCH   7  11
ENDBRANCH   1   7
BRANCH   1  15
HETATM   15  C   UNK N   1      34.584  18.209   7.980  0.00  0.00     0.147 C 
HETATM   16  O   UNK N   1      35.245  19.130   8.439  0.00  0.00    -0.650 OA
BRANCH  15  17
HETATM   17  O   UNK N   1      34.489  18.128   6.648  0.00  0.00    -0.776 OA
HETATM   18  H   UNK N   1      34.777  17.353   6.205  0.00  0.00     0.167 HD
ENDBRANCH  15  17
ENDBRANCH   1  15
TORSDOF 8
ENDMDL
MODEL 4
REMARK VINA RESULT:      -5.1      1.450      3.669
REMARK  8 active torsions:
REMARK  status: ('A' for Active; 'I' for Inactive)
REMARK    1  A    between atoms: C_2  and  C_1 
REMARK    2  A    between atoms: C_5  and  C_1 
REMARK    3  A    between atoms: C_3  and  C_2 
REMARK    4  A    between atoms: C_8  and  C_2 
REMARK    5  A    between atoms: C_11  and  C_3 
REMARK    6  A    between atoms: O_7  and  C_5 
REMARK    7  A    between atoms: O_10  and  C_8 
REMARK    8  A    between atoms: O_13  and  C_11 
ROOT
HETATM    1  C   UNK N   1      33.691  15.655   8.989  0.00  0.00     0.138 C 
ENDROOT
BRANCH   1   2
HETATM    2  C   UNK N   1      34.646  15.678  10.213  0.00  0.00     0.128 C 
BRANCH   2   3
HETATM    3  C   UNK N   1      35.889  16.436  10.598  0.00  0.00     0.140 C 
HETATM    4  O   UNK N   1      35.834  17.655  10.603  0.00  0.00    -0.650 OA
BRANCH   3   5
HETATM    5  O   UNK N   1      37.042  15.842  10.934  0.00  0.00    -0.776 OA
HETATM    6  H   UNK N   1      37.101  14.907  10.952  0.00  0.00     0.167 HD
ENDBRANCH   3   5
ENDBRANCH   2   3
ENDBRANCH   1   2
BRANCH   1   7
HETATM    7  C   UNK N   1      33.054  17.083   8.518  0.00  0.00     0.152 A 
HETATM    8  C   UNK N   1      31.977  18.167   8.376  0.00  0.00     0.059 A 
HETATM    9  O   UNK N   1      31.815  16.839   9.089  0.00  0.00    -0.378 OA
HETATM   10  H   UNK N   1      31.653  16.005   9.558  0.00  0.00     0.211 HD
BRANCH   7  11
HETATM   11  C   UNK N   1      34.111  17.992   7.686  0.00  0.00     0.176 C 
HETATM   12  O   UNK N   1      34.322  17.875   6.477  0.00  0.00    -0.648 OA
BRANCH  11  13
HETATM   13  O   UNK N   1      34.831  18.949   8.295  0.00  0.00    -0.774 OA
HETATM   14  H   UNK N   1      34.644  19.852   8.131  0.00  0.00     0.167 HD
ENDBRANCH  11  13
ENDBRANCH   7  11
ENDBRANCH   1   7
BRANCH   1  15
HETATM   15  C   UNK N   1      33.411  14.282   8.304  0.00  0.00     0.147 C 
HETATM   16  O   UNK N   1      32.281  13.943   7.983  0.00  0.00    -0.650 OA
BRANCH  15  17
HETATM   17  O   UNK N   1      34.405  13.425   8.045  0.00  0.00    -0.776 OA
HETATM   18  H   UNK N   1      34.864  13.013   8.750  0.00  0.00     0.167 HD
ENDBRANCH  15  17
ENDBRANCH   1  15
TORSDOF 8
ENDMDL
MODEL 5
REMARK VINA RESULT:      -5.0      1.710      4.081
REMARK  8 active torsions:
REMARK  status: ('A' for Active; 'I' for Inactive)
REMARK    1  A    between atoms: C_2  and  C_1 
REMARK    2  A    between atoms: C_5  and  C_1 
REMARK    3  A    between atoms: C_3  and  C_2 
REMARK    4  A    between atoms: C_8  and  C_2 
REMARK    5  A    between atoms: C_11  and  C_3 
REMARK    6  A    between atoms: O_7  and  C_5 
REMARK    7  A    between atoms: O_10  and  C_8 
REMARK    8  A    between atoms: O_13  and  C_11 
ROOT
HETATM    1  C   UNK N   1      34.438  15.849   9.295  0.00  0.00     0.138 C 
ENDROOT
BRANCH   1   2
HETATM    2  C   UNK N   1      35.353  15.111   8.282  0.00  0.00     0.128 C 
BRANCH   2   3
HETATM    3  C   UNK N   1      35.248  14.689   6.840  0.00  0.00     0.140 C 
HETATM    4  O   UNK N   1      35.733  15.423   5.995  0.00  0.00    -0.650 OA
BRANCH   3   5
HETATM    5  O   UNK N   1      34.654  13.555   6.443  0.00  0.00    -0.776 OA
HETATM    6  H   UNK N   1      35.098  12.971   5.860  0.00  0.00     0.167 HD
ENDBRANCH   3   5
ENDBRANCH   2   3
ENDBRANCH   1   2
BRANCH   1   7
HETATM    7  C   UNK N   1      33.500  17.051   8.708  0.00  0.00     0.152 A 
HETATM    8  C   UNK N   1      32.204  17.834   8.461  0.00  0.00     0.059 A 
HETATM    9  O   UNK N   1      32.331  16.552   9.261  0.00  0.00    -0.378 OA
HETATM   10  H   UNK N   1      32.353  15.734   9.783  0.00  0.00     0.211 HD
BRANCH   7  11
HETATM   11  C   UNK N   1      34.345  18.135   7.843  0.00  0.00     0.176 C 
HETATM   12  O   UNK N   1      34.980  19.069   8.336  0.00  0.00    -0.648 OA
BRANCH  11  13
HETATM   13  O   UNK N   1      34.395  18.064   6.502  0.00  0.00    -0.774 OA
HETATM   14  H   UNK N   1      34.151  18.805   5.984  0.00  0.00     0.167 HD
ENDBRANCH  11  13
ENDBRANCH   7  11
ENDBRANCH   1   7
BRANCH   1  15
HETATM   15  C   UNK N   1      34.479  15.396  10.786  0.00  0.00     0.147 C 
HETATM   16  O   UNK N   1      35.468  15.568  11.483  0.00  0.00    -0.650 OA
BRANCH  15  17
HETATM   17  O   UNK N   1      33.425  14.799  11.354  0.00  0.00    -0.776 OA
HETATM   18  H   UNK N   1      32.920  15.255  11.999  0.00  0.00     0.167 HD
ENDBRANCH  15  17
ENDBRANCH   1  15
TORSDOF 8
ENDMDL
MODEL 6
REMARK VINA RESULT:      -5.0      3.164      4.560
REMARK  8 active torsions:
REMARK  status: ('A' for Active; 'I' for Inactive)
REMARK    1  A    between atoms: C_2  and  C_1 
REMARK    2  A    between atoms: C_5  and  C_1 
REMARK    3  A    between atoms: C_3  and  C_2 
REMARK    4  A    between atoms: C_8  and  C_2 
REMARK    5  A    between atoms: C_11  and  C_3 
REMARK    6  A    between atoms: O_7  and  C_5 
REMARK    7  A    between atoms: O_10  and  C_8 
REMARK    8  A    between atoms: O_13  and  C_11 
ROOT
HETATM    1  C   UNK N   1      31.622  17.529   8.029  0.00  0.00     0.138 C 
ENDROOT
BRANCH   1   2
HETATM    2  C   UNK N   1      30.634  18.274   8.966  0.00  0.00     0.128 C 
BRANCH   2   3
HETATM    3  C   UNK N   1      29.286  17.979   9.568  0.00  0.00     0.140 C 
HETATM    4  O   UNK N   1      29.198  17.031  10.330  0.00  0.00    -0.650 OA
BRANCH   3   5
HETATM    5  O   UNK N   1      28.187  18.702   9.309  0.00  0.00    -0.776 OA
HETATM    6  H   UNK N   1      28.263  19.543   8.901  0.00  0.00     0.167 HD
ENDBRANCH   3   5
ENDBRANCH   2   3
ENDBRANCH   1   2
BRANCH   1   7
HETATM    7  C   UNK N   1      33.136  17.284   8.591  0.00  0.00     0.152 A 
HETATM    8  C   UNK N   1      34.228  16.663   9.473  0.00  0.00     0.059 A 
HETATM    9  O   UNK N   1      32.748  16.339   9.529  0.00  0.00    -0.378 OA
HETATM   10  H   UNK N   1      31.813  16.092   9.609  0.00  0.00     0.211 HD
BRANCH   7  11
HETATM   11  C   UNK N   1      34.240  18.198   7.828  0.00  0.00     0.176 C 
HETATM   12  O   UNK N   1      34.876  19.106   8.366  0.00  0.00    -0.648 OA
BRANCH  11  13
HETATM   13  O   UNK N   1      34.523  18.001   6.530  0.00  0.00    -0.774 OA
HETATM   14  H   UNK N   1      34.106  17.308   6.059  0.00  0.00     0.167 HD
ENDBRANCH  11  13
ENDBRANCH   7  11
ENDBRANCH   1   7
BRANCH   1  15
HETATM   15  C   UNK N   1      31.104  17.072   6.631  0.00  0.00     0.147 C 
HETATM   16  O   UNK N   1      30.053  16.461   6.504  0.00  0.00    -0.650 OA
BRANCH  15  17
HETATM   17  O   UNK N   1      31.797  17.338   5.518  0.00  0.00    -0.776 OA
HETATM   18  H   UNK N   1      32.668  17.007   5.420  0.00  0.00     0.167 HD
ENDBRANCH  15  17
ENDBRANCH   1  15
TORSDOF 8
ENDMDL
MODEL 7
REMARK VINA RESULT:      -4.9      3.241      5.010
REMARK  8 active torsions:
REMARK  status: ('A' for Active; 'I' for Inactive)
REMARK    1  A    between atoms: C_2  and  C_1 
REMARK    2  A    between atoms: C_5  and  C_1 
REMARK    3  A    between atoms: C_3  and  C_2 
REMARK    4  A    between atoms: C_8  and  C_2 
REMARK    5  A    between atoms: C_11  and  C_3 
REMARK    6  A    between atoms: O_7  and  C_5 
REMARK    7  A    between atoms: O_10  and  C_8 
REMARK    8  A    between atoms: O_13  and  C_11 
ROOT
HETATM    1  C   UNK N   1      31.742  17.065   8.522  0.00  0.00     0.138 C 
ENDROOT
BRANCH   1   2
HETATM    2  C   UNK N   1      32.809  18.185   8.400  0.00  0.00     0.128 C 
BRANCH   2   3
HETATM    3  C   UNK N   1      34.182  18.307   7.792  0.00  0.00     0.140 C 
HETATM    4  O   UNK N   1      34.993  19.020   8.359  0.00  0.00    -0.650 OA
BRANCH   3   5
HETATM    5  O   UNK N   1      34.552  17.676   6.669  0.00  0.00    -0.776 OA
HETATM    6  H   UNK N   1      35.433  17.751   6.357  0.00  0.00     0.167 HD
ENDBRANCH   3   5
ENDBRANCH   2   3
ENDBRANCH   1   2
BRANCH   1   7
HETATM    7  C   UNK N   1      30.196  17.473   8.189  0.00  0.00     0.152 A 
HETATM    8  C   UNK N   1      28.974  17.763   7.306  0.00  0.00     0.059 A 
HETATM    9  O   UNK N   1      30.350  17.356   6.816  0.00  0.00    -0.378 OA
HETATM   10  H   UNK N   1      31.209  17.098   6.445  0.00  0.00     0.211 HD
BRANCH   7  11
HETATM   11  C   UNK N   1      29.331  17.786   9.527  0.00  0.00     0.176 C 
HETATM   12  O   UNK N   1      28.316  17.168   9.853  0.00  0.00    -0.648 OA
BRANCH  11  13
HETATM   13  O   UNK N   1      29.693  18.765  10.372  0.00  0.00    -0.774 OA
HETATM   14  H   UNK N   1      29.155  19.526  10.466  0.00  0.00     0.167 HD
ENDBRANCH  11  13
ENDBRANCH   7  11
ENDBRANCH   1   7
BRANCH   1  15
HETATM   15  C   UNK N   1      32.217  15.643   8.951  0.00  0.00     0.147 C 
HETATM   16  O   UNK N   1      32.882  14.937   8.207  0.00  0.00    -0.650 OA
BRANCH  15  17
HETATM   17  O   UNK N   1      31.910  15.147  10.155  0.00  0.00    -0.776 OA
HETATM   18  H   UNK N   1      32.359  14.390  10.478  0.00  0.00     0.167 HD
ENDBRANCH  15  17
ENDBRANCH   1  15
TORSDOF 8
ENDMDL
MODEL 8
REMARK VINA RESULT:      -4.8      1.580      4.687
REMARK  8 active torsions:
REMARK  status: ('A' for Active; 'I' for Inactive)
REMARK    1  A    between atoms: C_2  and  C_1 
REMARK    2  A    between atoms: C_5  and  C_1 
REMARK    3  A    between atoms: C_3  and  C_2 
REMARK    4  A    between atoms: C_8  and  C_2 
REMARK    5  A    between atoms: C_11  and  C_3 
REMARK    6  A    between atoms: O_7  and  C_5 
REMARK    7  A    between atoms: O_10  and  C_8 
REMARK    8  A    between atoms: O_13  and  C_11 
ROOT
HETATM    1  C   UNK N   1      34.366  15.977   9.409  0.00  0.00     0.138 C 
ENDROOT
BRANCH   1   2
HETATM    2  C   UNK N   1      34.347  14.530   8.849  0.00  0.00     0.128 C 
BRANCH   2   3
HETATM    3  C   UNK N   1      33.406  13.356   8.921  0.00  0.00     0.140 C 
HETATM    4  O   UNK N   1      33.853  12.252   8.656  0.00  0.00    -0.650 OA
BRANCH   3   5
HETATM    5  O   UNK N   1      32.114  13.464   9.259  0.00  0.00    -0.776 OA
HETATM    6  H   UNK N   1      31.665  12.734   9.639  0.00  0.00     0.167 HD
ENDBRANCH   3   5
ENDBRANCH   2   3
ENDBRANCH   1   2
BRANCH   1   7
HETATM    7  C   UNK N   1      33.416  17.074   8.659  0.00  0.00     0.152 A 
HETATM    8  C   UNK N   1      32.104  17.766   8.264  0.00  0.00     0.059 A 
HETATM    9  O   UNK N   1      32.236  16.565   9.181  0.00  0.00    -0.378 OA
HETATM   10  H   UNK N   1      32.260  15.798   9.774  0.00  0.00     0.211 HD
BRANCH   7  11
HETATM   11  C   UNK N   1      34.266  18.121   7.756  0.00  0.00     0.176 C 
HETATM   12  O   UNK N   1      34.334  18.077   6.526  0.00  0.00    -0.648 OA
BRANCH  11  13
HETATM   13  O   UNK N   1      34.962  19.120   8.324  0.00  0.00    -0.774 OA
HETATM   14  H   UNK N   1      35.850  18.983   8.587  0.00  0.00     0.167 HD
ENDBRANCH  11  13
ENDBRANCH   7  11
ENDBRANCH   1   7
BRANCH   1  15
HETATM   15  C   UNK N   1      35.281  16.277  10.635  0.00  0.00     0.147 C 
HETATM   16  O   UNK N   1      35.372  15.500  11.574  0.00  0.00    -0.650 OA
BRANCH  15  17
HETATM   17  O   UNK N   1      36.002  17.402  10.698  0.00  0.00    -0.776 OA
HETATM   18  H   UNK N   1      36.560  17.641   9.984  0.00  0.00     0.167 HD
ENDBRANCH  15  17
ENDBRANCH   1  15
TORSDOF 8
ENDMDL
MODEL 9
REMARK VINA RESULT:      -4.8     10.347     12.480
REMARK  8 active torsions:
REMARK  status: ('A' for Active; 'I' for Inactive)
REMARK    1  A    between atoms: C_2  and  C_1 
REMARK    2  A    between atoms: C_5  and  C_1 
REMARK    3  A    between atoms: C_3  and  C_2 
REMARK    4  A    between atoms: C_8  and  C_2 
REMARK    5  A    between atoms: C_11  and  C_3 
REMARK    6  A    between atoms: O_7  and  C_5 
REMARK    7  A    between atoms: O_10  and  C_8 
REMARK    8  A    between atoms: O_13  and  C_11 
ROOT
HETATM    1  C   UNK N   1      22.745  12.215  10.904  0.00  0.00     0.138 C 
ENDROOT
BRANCH   1   2
HETATM    2  C   UNK N   1      21.310  12.758  10.669  0.00  0.00     0.128 C 
BRANCH   2   3
HETATM    3  C   UNK N   1      20.698  13.885   9.880  0.00  0.00     0.140 C 
HETATM    4  O   UNK N   1      19.481  13.973   9.864  0.00  0.00    -0.650 OA
BRANCH   3   5
HETATM    5  O   UNK N   1      21.418  14.789   9.202  0.00  0.00    -0.776 OA
HETATM    6  H   UNK N   1      22.107  15.258   9.630  0.00  0.00     0.167 HD
ENDBRANCH   3   5
ENDBRANCH   2   3
ENDBRANCH   1   2
BRANCH   1   7
HETATM    7  C   UNK N   1      23.709  12.075   9.593  0.00  0.00     0.152 A 
HETATM    8  C   UNK N   1      24.219  11.474   8.277  0.00  0.00     0.059 A 
HETATM    9  O   UNK N   1      23.039  10.973   9.086  0.00  0.00    -0.378 OA
HETATM   10  H   UNK N   1      22.276  10.609   9.562  0.00  0.00     0.211 HD
BRANCH   7  11
HETATM   11  C   UNK N   1      24.872  13.208   9.552  0.00  0.00     0.176 C 
HETATM   12  O   UNK N   1      25.094  13.935   8.582  0.00  0.00    -0.648 OA
BRANCH  11  13
HETATM   13  O   UNK N   1      25.675  13.415  10.608  0.00  0.00    -0.774 OA
HETATM   14  H   UNK N   1      26.554  13.710  10.478  0.00  0.00     0.167 HD
ENDBRANCH  11  13
ENDBRANCH   7  11
ENDBRANCH   1   7
BRANCH   1  15
HETATM   15  C   UNK N   1      23.159  11.844  12.361  0.00  0.00     0.147 C 
HETATM   16  O   UNK N   1      24.248  12.158  12.819  0.00  0.00    -0.650 OA
BRANCH  15  17
HETATM   17  O   UNK N   1      22.330  11.166  13.163  0.00  0.00    -0.776 OA
HETATM   18  H   UNK N   1      21.505  11.540  13.407  0.00  0.00     0.167 HD
ENDBRANCH  15  17
ENDBRANCH   1  15
TORSDOF 8
ENDMDL
