MODEL 1
REMARK VINA RESULT:      -7.7      0.000      0.000
REMARK  6 active torsions:
REMARK  status: ('A' for Active; 'I' for Inactive)
REMARK    1  A    between atoms: C_10  and  C_11 
REMARK       I    between atoms: C_11  and  N_13 
REMARK    2  A    between atoms: C_14  and  N_13 
REMARK    3  A    between atoms: C_14  and  C_15 
REMARK    4  A    between atoms: C_14  and  C_24 
REMARK       I    between atoms: C_15  and  N_17 
REMARK    5  A    between atoms: C_20  and  O_21 
REMARK    6  A    between atoms: C_24  and  C_25 
ROOT
HETATM    1  C   UNK N   1      35.344  12.204  13.003  0.00  0.00     0.181 C 
ENDROOT
BRANCH   1   2
HETATM    2  N   UNK N   1      34.732  12.979  11.945  0.00  0.00    -0.342 N 
HETATM    3  C   UNK N   1      34.998  14.290  11.711  0.00  0.00     0.269 C 
HETATM    4  O   UNK N   1      35.756  14.917  12.440  0.00  0.00    -0.266 OA
HETATM    5  H   UNK N   1      34.084  12.528  11.359  0.00  0.00     0.163 HD
BRANCH   3   6
HETATM    6  C   UNK N   1      34.389  14.942  10.549  0.00  0.00     0.102 A 
HETATM    7  N   UNK N   1      33.052  15.135  10.440  0.00  0.00    -0.351 N 
HETATM    8  C   UNK N   1      32.876  15.712   9.245  0.00  0.00     0.043 A 
HETATM    9  H   UNK N   1      32.358  14.902  11.098  0.00  0.00     0.166 HD
HETATM   10  C   UNK N   1      31.665  16.091   8.675  0.00  0.00     0.032 A 
HETATM   11  C   UNK N   1      34.069  15.890   8.603  0.00  0.00    -0.005 A 
HETATM   12  C   UNK N   1      31.702  16.675   7.398  0.00  0.00     0.026 A 
HETATM   13  C   UNK N   1      32.934  16.864   6.731  0.00  0.00     0.035 A 
HETATM   14 Cl   UNK N   1      32.956  17.592   5.141  0.00  0.00    -0.084 Cl
HETATM   15  C   UNK N   1      34.141  16.467   7.339  0.00  0.00     0.037 A 
HETATM   16  C   UNK N   1      35.066  15.401   9.419  0.00  0.00     0.049 A 
ENDBRANCH   3   6
ENDBRANCH   1   2
BRANCH   1  17
HETATM   17  C   UNK N   1      36.015  10.967  12.400  0.00  0.00     0.242 C 
HETATM   18  O   UNK N   1      35.406   9.905  12.402  0.00  0.00    -0.271 OA
HETATM   19  N   UNK N   1      37.261  11.012  11.829  0.00  0.00    -0.350 N 
HETATM   20  C   UNK N   1      37.987  12.255  11.649  0.00  0.00     0.128 C 
HETATM   21  C   UNK N   1      37.832   9.815  11.241  0.00  0.00     0.128 C 
HETATM   22  C   UNK N   1      38.245  12.505  10.146  0.00  0.00     0.051 C 
HETATM   23  C   UNK N   1      37.658  11.398   9.258  0.00  0.00     0.121 C 
HETATM   24  C   UNK N   1      38.124  10.023   9.746  0.00  0.00     0.051 C 
BRANCH  23  25
HETATM   25  O   UNK N   1      38.039  11.584   7.930  0.00  0.00    -0.395 OA
HETATM   26  H   UNK N   1      38.809  12.111   7.667  0.00  0.00     0.210 HD
ENDBRANCH  23  25
ENDBRANCH   1  17
BRANCH   1  27
HETATM   27  C   UNK N   1      34.232  11.803  13.992  0.00  0.00     0.073 C 
BRANCH  27  28
HETATM   28  C   UNK N   1      34.537  11.846  15.457  0.00  0.00    -0.056 A 
HETATM   29  C   UNK N   1      34.618  13.051  16.167  0.00  0.00     0.010 A 
HETATM   30  C   UNK N   1      35.002  13.048  17.513  0.00  0.00     0.043 A 
HETATM   31  C   UNK N   1      35.323  11.842  18.146  0.00  0.00     0.116 A 
HETATM   32  F   UNK N   1      35.718  11.840  19.442  0.00  0.00    -0.206 F 
HETATM   33  C   UNK N   1      35.245  10.640  17.439  0.00  0.00     0.043 A 
HETATM   34  C   UNK N   1      34.854  10.643  16.098  0.00  0.00     0.010 A 
ENDBRANCH  27  28
ENDBRANCH   1  27
TORSDOF 6
ENDMDL
MODEL 2
REMARK VINA RESULT:      -7.6      6.441     10.121
REMARK  6 active torsions:
REMARK  status: ('A' for Active; 'I' for Inactive)
REMARK    1  A    between atoms: C_10  and  C_11 
REMARK       I    between atoms: C_11  and  N_13 
REMARK    2  A    between atoms: C_14  and  N_13 
REMARK    3  A    between atoms: C_14  and  C_15 
REMARK    4  A    between atoms: C_14  and  C_24 
REMARK       I    between atoms: C_15  and  N_17 
REMARK    5  A    between atoms: C_20  and  O_21 
REMARK    6  A    between atoms: C_24  and  C_25 
ROOT
HETATM    1  C   UNK N   1      32.874  15.638   5.098  0.00  0.00     0.181 C 
ENDROOT
BRANCH   1   2
HETATM    2  N   UNK N   1      31.839  16.638   5.257  0.00  0.00    -0.342 N 
HETATM    3  C   UNK N   1      30.510  16.363   5.256  0.00  0.00     0.269 C 
HETATM    4  O   UNK N   1      30.104  15.223   5.063  0.00  0.00    -0.266 OA
HETATM    5  H   UNK N   1      32.116  17.575   5.373  0.00  0.00     0.163 HD
BRANCH   3   6
HETATM    6  C   UNK N   1      29.559  17.446   5.522  0.00  0.00     0.102 A 
HETATM    7  N   UNK N   1      29.053  18.228   4.538  0.00  0.00    -0.351 N 
HETATM    8  C   UNK N   1      28.269  19.116   5.162  0.00  0.00     0.043 A 
HETATM    9  H   UNK N   1      29.225  18.160   3.571  0.00  0.00     0.166 HD
HETATM   10  C   UNK N   1      27.539  20.141   4.571  0.00  0.00     0.032 A 
HETATM   11  C   UNK N   1      28.266  18.906   6.513  0.00  0.00    -0.005 A 
HETATM   12  C   UNK N   1      26.782  20.972   5.414  0.00  0.00     0.026 A 
HETATM   13  C   UNK N   1      26.774  20.757   6.812  0.00  0.00     0.035 A 
HETATM   14 Cl   UNK N   1      25.826  21.804   7.842  0.00  0.00    -0.084 Cl
HETATM   15  C   UNK N   1      27.525  19.709   7.376  0.00  0.00     0.037 A 
HETATM   16  C   UNK N   1      29.092  17.836   6.777  0.00  0.00     0.049 A 
ENDBRANCH   3   6
ENDBRANCH   1   2
BRANCH   1  17
HETATM   17  C   UNK N   1      33.963  15.870   6.149  0.00  0.00     0.242 C 
HETATM   18  O   UNK N   1      34.617  16.904   6.104  0.00  0.00    -0.271 OA
HETATM   19  N   UNK N   1      34.214  14.975   7.157  0.00  0.00    -0.350 N 
HETATM   20  C   UNK N   1      33.390  13.800   7.374  0.00  0.00     0.128 C 
HETATM   21  C   UNK N   1      35.235  15.264   8.146  0.00  0.00     0.128 C 
HETATM   22  C   UNK N   1      32.735  13.862   8.772  0.00  0.00     0.051 C 
HETATM   23  C   UNK N   1      33.112  15.138   9.540  0.00  0.00     0.121 C 
HETATM   24  C   UNK N   1      34.633  15.317   9.559  0.00  0.00     0.051 C 
BRANCH  23  25
HETATM   25  O   UNK N   1      32.624  15.085  10.845  0.00  0.00    -0.395 OA
HETATM   26  H   UNK N   1      33.172  14.844  11.608  0.00  0.00     0.210 HD
ENDBRANCH  23  25
ENDBRANCH   1  17
BRANCH   1  27
HETATM   27  C   UNK N   1      33.442  15.776   3.672  0.00  0.00     0.073 C 
BRANCH  27  28
HETATM   28  C   UNK N   1      33.491  14.555   2.807  0.00  0.00    -0.056 A 
HETATM   29  C   UNK N   1      34.615  14.231   2.038  0.00  0.00     0.010 A 
HETATM   30  C   UNK N   1      34.579  13.134   1.169  0.00  0.00     0.043 A 
HETATM   31  C   UNK N   1      33.412  12.370   1.055  0.00  0.00     0.116 A 
HETATM   32  F   UNK N   1      33.366  11.324   0.197  0.00  0.00    -0.206 F 
HETATM   33  C   UNK N   1      32.288  12.694   1.820  0.00  0.00     0.043 A 
HETATM   34  C   UNK N   1      32.329  13.784   2.692  0.00  0.00     0.010 A 
ENDBRANCH  27  28
ENDBRANCH   1  27
TORSDOF 6
ENDMDL
MODEL 3
REMARK VINA RESULT:      -7.6     10.865     13.260
REMARK  6 active torsions:
REMARK  status: ('A' for Active; 'I' for Inactive)
REMARK    1  A    between atoms: C_10  and  C_11 
REMARK       I    between atoms: C_11  and  N_13 
REMARK    2  A    between atoms: C_14  and  N_13 
REMARK    3  A    between atoms: C_14  and  C_15 
REMARK    4  A    between atoms: C_14  and  C_24 
REMARK       I    between atoms: C_15  and  N_17 
REMARK    5  A    between atoms: C_20  and  O_21 
REMARK    6  A    between atoms: C_24  and  C_25 
ROOT
HETATM    1  C   UNK N   1      27.020  15.446   5.265  0.00  0.00     0.181 C 
ENDROOT
BRANCH   1   2
HETATM    2  N   UNK N   1      26.258  14.955   6.394  0.00  0.00    -0.342 N 
HETATM    3  C   UNK N   1      24.920  14.728   6.369  0.00  0.00     0.269 C 
HETATM    4  O   UNK N   1      24.259  14.985   5.370  0.00  0.00    -0.266 OA
HETATM    5  H   UNK N   1      26.741  14.775   7.232  0.00  0.00     0.163 HD
BRANCH   3   6
HETATM    6  C   UNK N   1      24.276  14.139   7.545  0.00  0.00     0.102 A 
HETATM    7  N   UNK N   1      24.967  13.451   8.486  0.00  0.00    -0.351 N 
HETATM    8  C   UNK N   1      24.047  13.037   9.366  0.00  0.00     0.043 A 
HETATM    9  H   UNK N   1      25.937  13.289   8.516  0.00  0.00     0.166 HD
HETATM   10  C   UNK N   1      24.272  12.276  10.507  0.00  0.00     0.032 A 
HETATM   11  C   UNK N   1      22.797  13.453   9.003  0.00  0.00    -0.005 A 
HETATM   12  C   UNK N   1      23.159  11.939  11.295  0.00  0.00     0.026 A 
HETATM   13  C   UNK N   1      21.863  12.369  10.926  0.00  0.00     0.035 A 
HETATM   14 Cl   UNK N   1      20.491  11.937  11.921  0.00  0.00    -0.084 Cl
HETATM   15  C   UNK N   1      21.673  13.139   9.762  0.00  0.00     0.037 A 
HETATM   16  C   UNK N   1      22.910  14.165   7.830  0.00  0.00     0.049 A 
ENDBRANCH   3   6
ENDBRANCH   1   2
BRANCH   1  17
HETATM   17  C   UNK N   1      27.496  14.259   4.424  0.00  0.00     0.242 C 
HETATM   18  O   UNK N   1      28.060  13.327   4.984  0.00  0.00    -0.271 OA
HETATM   19  N   UNK N   1      27.287  14.187   3.071  0.00  0.00    -0.350 N 
HETATM   20  C   UNK N   1      26.499  15.171   2.354  0.00  0.00     0.128 C 
HETATM   21  C   UNK N   1      27.729  13.020   2.331  0.00  0.00     0.128 C 
HETATM   22  C   UNK N   1      25.274  14.495   1.700  0.00  0.00     0.051 C 
HETATM   23  C   UNK N   1      25.209  12.988   1.992  0.00  0.00     0.121 C 
HETATM   24  C   UNK N   1      26.544  12.322   1.644  0.00  0.00     0.051 C 
BRANCH  23  25
HETATM   25  O   UNK N   1      24.179  12.393   1.266  0.00  0.00    -0.395 OA
HETATM   26  H   UNK N   1      24.329  11.720   0.583  0.00  0.00     0.210 HD
ENDBRANCH  23  25
ENDBRANCH   1  17
BRANCH   1  27
HETATM   27  C   UNK N   1      28.215  16.247   5.819  0.00  0.00     0.073 C 
BRANCH  27  28
HETATM   28  C   UNK N   1      28.091  17.736   5.907  0.00  0.00    -0.056 A 
HETATM   29  C   UNK N   1      28.024  18.407   7.135  0.00  0.00     0.010 A 
HETATM   30  C   UNK N   1      27.811  19.790   7.168  0.00  0.00     0.043 A 
HETATM   31  C   UNK N   1      27.645  20.501   5.974  0.00  0.00     0.116 A 
HETATM   32  F   UNK N   1      27.413  21.835   6.005  0.00  0.00    -0.206 F 
HETATM   33  C   UNK N   1      27.708  19.833   4.749  0.00  0.00     0.043 A 
HETATM   34  C   UNK N   1      27.930  18.454   4.717  0.00  0.00     0.010 A 
ENDBRANCH  27  28
ENDBRANCH   1  27
TORSDOF 6
ENDMDL
MODEL 4
REMARK VINA RESULT:      -7.6     12.708     15.888
REMARK  6 active torsions:
REMARK  status: ('A' for Active; 'I' for Inactive)
REMARK    1  A    between atoms: C_10  and  C_11 
REMARK       I    between atoms: C_11  and  N_13 
REMARK    2  A    between atoms: C_14  and  N_13 
REMARK    3  A    between atoms: C_14  and  C_15 
REMARK    4  A    between atoms: C_14  and  C_24 
REMARK       I    between atoms: C_15  and  N_17 
REMARK    5  A    between atoms: C_20  and  O_21 
REMARK    6  A    between atoms: C_24  and  C_25 
ROOT
HETATM    1  C   UNK N   1      23.824  15.956   3.733  0.00  0.00     0.181 C 
ENDROOT
BRANCH   1   2
HETATM    2  N   UNK N   1      23.556  15.257   4.972  0.00  0.00    -0.342 N 
HETATM    3  C   UNK N   1      22.839  15.779   6.000  0.00  0.00     0.269 C 
HETATM    4  O   UNK N   1      22.412  16.926   5.950  0.00  0.00    -0.266 OA
HETATM    5  H   UNK N   1      23.916  14.348   5.076  0.00  0.00     0.163 HD
BRANCH   3   6
HETATM    6  C   UNK N   1      22.553  14.939   7.166  0.00  0.00     0.102 A 
HETATM    7  N   UNK N   1      23.382  13.946   7.570  0.00  0.00    -0.351 N 
HETATM    8  C   UNK N   1      22.774  13.385   8.622  0.00  0.00     0.043 A 
HETATM    9  H   UNK N   1      24.246  13.690   7.174  0.00  0.00     0.166 HD
HETATM   10  C   UNK N   1      23.234  12.308   9.372  0.00  0.00     0.032 A 
HETATM   11  C   UNK N   1      21.586  14.005   8.892  0.00  0.00    -0.005 A 
HETATM   12  C   UNK N   1      22.432  11.867  10.437  0.00  0.00     0.026 A 
HETATM   13  C   UNK N   1      21.204  12.507  10.723  0.00  0.00     0.035 A 
HETATM   14 Cl   UNK N   1      20.221  11.939  12.053  0.00  0.00    -0.084 Cl
HETATM   15  C   UNK N   1      20.769  13.594   9.941  0.00  0.00     0.037 A 
HETATM   16  C   UNK N   1      21.414  15.011   7.968  0.00  0.00     0.049 A 
ENDBRANCH   3   6
ENDBRANCH   1   2
BRANCH   1  17
HETATM   17  C   UNK N   1      23.251  15.148   2.565  0.00  0.00     0.242 C 
HETATM   18  O   UNK N   1      23.922  14.240   2.091  0.00  0.00    -0.271 OA
HETATM   19  N   UNK N   1      22.003  15.385   2.050  0.00  0.00    -0.350 N 
HETATM   20  C   UNK N   1      21.086  16.337   2.646  0.00  0.00     0.128 C 
HETATM   21  C   UNK N   1      21.500  14.564   0.965  0.00  0.00     0.128 C 
HETATM   22  C   UNK N   1      19.803  15.616   3.114  0.00  0.00     0.051 C 
HETATM   23  C   UNK N   1      19.847  14.104   2.843  0.00  0.00     0.121 C 
HETATM   24  C   UNK N   1      20.209  13.838   1.379  0.00  0.00     0.051 C 
BRANCH  23  25
HETATM   25  O   UNK N   1      18.618  13.518   3.142  0.00  0.00    -0.395 OA
HETATM   26  H   UNK N   1      17.936  13.345   2.476  0.00  0.00     0.210 HD
ENDBRANCH  23  25
ENDBRANCH   1  17
BRANCH   1  27
HETATM   27  C   UNK N   1      25.352  16.110   3.604  0.00  0.00     0.073 C 
BRANCH  27  28
HETATM   28  C   UNK N   1      25.956  17.449   3.892  0.00  0.00    -0.056 A 
HETATM   29  C   UNK N   1      27.328  17.613   4.126  0.00  0.00     0.010 A 
HETATM   30  C   UNK N   1      27.833  18.867   4.488  0.00  0.00     0.043 A 
HETATM   31  C   UNK N   1      26.965  19.955   4.635  0.00  0.00     0.116 A 
HETATM   32  F   UNK N   1      27.449  21.163   5.009  0.00  0.00    -0.206 F 
HETATM   33  C   UNK N   1      25.597  19.792   4.406  0.00  0.00     0.043 A 
HETATM   34  C   UNK N   1      25.095  18.542   4.036  0.00  0.00     0.010 A 
ENDBRANCH  27  28
ENDBRANCH   1  27
TORSDOF 6
ENDMDL
MODEL 5
REMARK VINA RESULT:      -7.5      4.543      8.695
REMARK  6 active torsions:
REMARK  status: ('A' for Active; 'I' for Inactive)
REMARK    1  A    between atoms: C_10  and  C_11 
REMARK       I    between atoms: C_11  and  N_13 
REMARK    2  A    between atoms: C_14  and  N_13 
REMARK    3  A    between atoms: C_14  and  C_15 
REMARK    4  A    between atoms: C_14  and  C_24 
REMARK       I    between atoms: C_15  and  N_17 
REMARK    5  A    between atoms: C_20  and  O_21 
REMARK    6  A    between atoms: C_24  and  C_25 
ROOT
HETATM    1  C   UNK N   1      34.813  14.251   8.219  0.00  0.00     0.181 C 
ENDROOT
BRANCH   1   2
HETATM    2  N   UNK N   1      34.823  13.637   9.529  0.00  0.00    -0.342 N 
HETATM    3  C   UNK N   1      35.458  14.159  10.609  0.00  0.00     0.269 C 
HETATM    4  O   UNK N   1      36.120  15.185  10.514  0.00  0.00    -0.266 OA
HETATM    5  H   UNK N   1      34.339  12.788   9.644  0.00  0.00     0.163 HD
BRANCH   3   6
HETATM    6  C   UNK N   1      35.316  13.496  11.908  0.00  0.00     0.102 A 
HETATM    7  N   UNK N   1      34.624  12.341  12.064  0.00  0.00    -0.351 N 
HETATM    8  C   UNK N   1      34.679  12.071  13.374  0.00  0.00     0.043 A 
HETATM    9  H   UNK N   1      34.176  11.813  11.364  0.00  0.00     0.166 HD
HETATM   10  C   UNK N   1      34.099  10.988  14.025  0.00  0.00     0.032 A 
HETATM   11  C   UNK N   1      35.392  13.026  14.043  0.00  0.00    -0.005 A 
HETATM   12  C   UNK N   1      34.270  10.896  15.416  0.00  0.00     0.026 A 
HETATM   13  C   UNK N   1      35.010  11.879  16.113  0.00  0.00     0.035 A 
HETATM   14 Cl   UNK N   1      35.210  11.747  17.845  0.00  0.00    -0.084 Cl
HETATM   15  C   UNK N   1      35.583  12.964  15.421  0.00  0.00     0.037 A 
HETATM   16  C   UNK N   1      35.815  13.961  13.125  0.00  0.00     0.049 A 
ENDBRANCH   3   6
ENDBRANCH   1   2
BRANCH   1  17
HETATM   17  C   UNK N   1      33.367  14.379   7.732  0.00  0.00     0.242 C 
HETATM   18  O   UNK N   1      32.613  13.422   7.864  0.00  0.00    -0.271 OA
HETATM   19  N   UNK N   1      32.876  15.534   7.182  0.00  0.00    -0.350 N 
HETATM   20  C   UNK N   1      33.653  16.758   7.126  0.00  0.00     0.128 C 
HETATM   21  C   UNK N   1      31.487  15.608   6.771  0.00  0.00     0.128 C 
HETATM   22  C   UNK N   1      32.947  17.871   7.932  0.00  0.00     0.051 C 
HETATM   23  C   UNK N   1      31.641  17.389   8.580  0.00  0.00     0.121 C 
HETATM   24  C   UNK N   1      30.746  16.718   7.534  0.00  0.00     0.051 C 
BRANCH  23  25
HETATM   25  O   UNK N   1      30.965  18.455   9.170  0.00  0.00    -0.395 OA
HETATM   26  H   UNK N   1      31.336  18.985   9.892  0.00  0.00     0.210 HD
ENDBRANCH  23  25
ENDBRANCH   1  17
BRANCH   1  27
HETATM   27  C   UNK N   1      35.638  13.354   7.275  0.00  0.00     0.073 C 
BRANCH  27  28
HETATM   28  C   UNK N   1      37.039  13.767   6.948  0.00  0.00    -0.056 A 
HETATM   29  C   UNK N   1      37.388  14.291   5.697  0.00  0.00     0.010 A 
HETATM   30  C   UNK N   1      38.727  14.572   5.403  0.00  0.00     0.043 A 
HETATM   31  C   UNK N   1      39.722  14.311   6.352  0.00  0.00     0.116 A 
HETATM   32  F   UNK N   1      41.021  14.558   6.061  0.00  0.00    -0.206 F 
HETATM   33  C   UNK N   1      39.375  13.784   7.599  0.00  0.00     0.043 A 
HETATM   34  C   UNK N   1      38.037  13.513   7.895  0.00  0.00     0.010 A 
ENDBRANCH  27  28
ENDBRANCH   1  27
TORSDOF 6
ENDMDL
MODEL 6
REMARK VINA RESULT:      -7.5     13.030     17.338
REMARK  6 active torsions:
REMARK  status: ('A' for Active; 'I' for Inactive)
REMARK    1  A    between atoms: C_10  and  C_11 
REMARK       I    between atoms: C_11  and  N_13 
REMARK    2  A    between atoms: C_14  and  N_13 
REMARK    3  A    between atoms: C_14  and  C_15 
REMARK    4  A    between atoms: C_14  and  C_24 
REMARK       I    between atoms: C_15  and  N_17 
REMARK    5  A    between atoms: C_20  and  O_21 
REMARK    6  A    between atoms: C_24  and  C_25 
ROOT
HETATM    1  C   UNK N   1      20.992  16.335   4.845  0.00  0.00     0.181 C 
ENDROOT
BRANCH   1   2
HETATM    2  N   UNK N   1      21.485  15.728   6.063  0.00  0.00    -0.342 N 
HETATM    3  C   UNK N   1      20.942  14.624   6.637  0.00  0.00     0.269 C 
HETATM    4  O   UNK N   1      19.942  14.097   6.164  0.00  0.00    -0.266 OA
HETATM    5  H   UNK N   1      22.261  16.142   6.503  0.00  0.00     0.163 HD
BRANCH   3   6
HETATM    6  C   UNK N   1      21.587  14.046   7.818  0.00  0.00     0.102 A 
HETATM    7  N   UNK N   1      22.894  13.686   7.831  0.00  0.00    -0.351 N 
HETATM    8  C   UNK N   1      23.104  13.166   9.046  0.00  0.00     0.043 A 
HETATM    9  H   UNK N   1      23.549  13.785   7.103  0.00  0.00     0.166 HD
HETATM   10  C   UNK N   1      24.297  12.642   9.531  0.00  0.00     0.032 A 
HETATM   11  C   UNK N   1      21.963  13.195   9.798  0.00  0.00    -0.005 A 
HETATM   12  C   UNK N   1      24.300  12.135  10.842  0.00  0.00     0.026 A 
HETATM   13  C   UNK N   1      23.123  12.165  11.625  0.00  0.00     0.035 A 
HETATM   14 Cl   UNK N   1      23.150  11.526  13.252  0.00  0.00    -0.084 Cl
HETATM   15  C   UNK N   1      21.932  12.703  11.100  0.00  0.00     0.037 A 
HETATM   16  C   UNK N   1      20.965  13.755   9.032  0.00  0.00     0.049 A 
ENDBRANCH   3   6
ENDBRANCH   1   2
BRANCH   1  17
HETATM   17  C   UNK N   1      21.821  15.831   3.660  0.00  0.00     0.242 C 
HETATM   18  O   UNK N   1      23.043  15.876   3.733  0.00  0.00    -0.271 OA
HETATM   19  N   UNK N   1      21.247  15.303   2.533  0.00  0.00    -0.350 N 
HETATM   20  C   UNK N   1      19.818  15.073   2.425  0.00  0.00     0.128 C 
HETATM   21  C   UNK N   1      22.083  14.808   1.457  0.00  0.00     0.128 C 
HETATM   22  C   UNK N   1      19.537  13.568   2.218  0.00  0.00     0.051 C 
HETATM   23  C   UNK N   1      20.823  12.728   2.199  0.00  0.00     0.121 C 
HETATM   24  C   UNK N   1      21.825  13.314   1.200  0.00  0.00     0.051 C 
BRANCH  23  25
HETATM   25  O   UNK N   1      20.538  11.405   1.864  0.00  0.00    -0.395 OA
HETATM   26  H   UNK N   1      20.946  10.645   2.307  0.00  0.00     0.210 HD
ENDBRANCH  23  25
ENDBRANCH   1  17
BRANCH   1  27
HETATM   27  C   UNK N   1      21.118  17.863   4.998  0.00  0.00     0.073 C 
BRANCH  27  28
HETATM   28  C   UNK N   1      21.079  18.706   3.762  0.00  0.00    -0.056 A 
HETATM   29  C   UNK N   1      22.133  19.556   3.405  0.00  0.00     0.010 A 
HETATM   30  C   UNK N   1      22.012  20.397   2.294  0.00  0.00     0.043 A 
HETATM   31  C   UNK N   1      20.827  20.404   1.548  0.00  0.00     0.116 A 
HETATM   32  F   UNK N   1      20.698  21.235   0.487  0.00  0.00    -0.206 F 
HETATM   33  C   UNK N   1      19.773  19.559   1.904  0.00  0.00     0.043 A 
HETATM   34  C   UNK N   1      19.900  18.713   3.009  0.00  0.00     0.010 A 
ENDBRANCH  27  28
ENDBRANCH   1  27
TORSDOF 6
ENDMDL
MODEL 7
REMARK VINA RESULT:      -7.5     18.519     22.892
REMARK  6 active torsions:
REMARK  status: ('A' for Active; 'I' for Inactive)
REMARK    1  A    between atoms: C_10  and  C_11 
REMARK       I    between atoms: C_11  and  N_13 
REMARK    2  A    between atoms: C_14  and  N_13 
REMARK    3  A    between atoms: C_14  and  C_15 
REMARK    4  A    between atoms: C_14  and  C_24 
REMARK       I    between atoms: C_15  and  N_17 
REMARK    5  A    between atoms: C_20  and  O_21 
REMARK    6  A    between atoms: C_24  and  C_25 
ROOT
HETATM    1  C   UNK N   1      26.789  24.507  -5.511  0.00  0.00     0.181 C 
ENDROOT
BRANCH   1   2
HETATM    2  N   UNK N   1      27.865  23.614  -5.135  0.00  0.00    -0.342 N 
HETATM    3  C   UNK N   1      28.996  23.437  -5.863  0.00  0.00     0.269 C 
HETATM    4  O   UNK N   1      29.146  24.005  -6.939  0.00  0.00    -0.266 OA
HETATM    5  H   UNK N   1      27.769  23.104  -4.299  0.00  0.00     0.163 HD
BRANCH   3   6
HETATM    6  C   UNK N   1      30.057  22.579  -5.332  0.00  0.00     0.102 A 
HETATM    7  N   UNK N   1      30.760  22.895  -4.217  0.00  0.00    -0.351 N 
HETATM    8  C   UNK N   1      31.655  21.910  -4.073  0.00  0.00     0.043 A 
HETATM    9  H   UNK N   1      30.640  23.681  -3.638  0.00  0.00     0.166 HD
HETATM   10  C   UNK N   1      32.616  21.798  -3.075  0.00  0.00     0.032 A 
HETATM   11  C   UNK N   1      31.527  20.980  -5.067  0.00  0.00    -0.005 A 
HETATM   12  C   UNK N   1      33.468  20.682  -3.112  0.00  0.00     0.026 A 
HETATM   13  C   UNK N   1      33.338  19.716  -4.137  0.00  0.00     0.035 A 
HETATM   14 Cl   UNK N   1      34.411  18.335  -4.165  0.00  0.00    -0.084 Cl
HETATM   15  C   UNK N   1      32.354  19.862  -5.133  0.00  0.00     0.037 A 
HETATM   16  C   UNK N   1      30.506  21.385  -5.898  0.00  0.00     0.049 A 
ENDBRANCH   3   6
ENDBRANCH   1   2
BRANCH   1  17
HETATM   17  C   UNK N   1      26.461  25.426  -4.331  0.00  0.00     0.242 C 
HETATM   18  O   UNK N   1      26.537  24.977  -3.194  0.00  0.00    -0.271 OA
HETATM   19  N   UNK N   1      26.115  26.742  -4.498  0.00  0.00    -0.350 N 
HETATM   20  C   UNK N   1      26.147  27.393  -5.794  0.00  0.00     0.128 C 
HETATM   21  C   UNK N   1      25.850  27.575  -3.341  0.00  0.00     0.128 C 
HETATM   22  C   UNK N   1      27.154  28.565  -5.774  0.00  0.00     0.051 C 
HETATM   23  C   UNK N   1      27.853  28.715  -4.415  0.00  0.00     0.121 C 
HETATM   24  C   UNK N   1      26.817  28.768  -3.288  0.00  0.00     0.051 C 
BRANCH  23  25
HETATM   25  O   UNK N   1      28.638  29.867  -4.393  0.00  0.00    -0.395 OA
HETATM   26  H   UNK N   1      29.418  29.989  -4.957  0.00  0.00     0.210 HD
ENDBRANCH  23  25
ENDBRANCH   1  17
BRANCH   1  27
HETATM   27  C   UNK N   1      25.573  23.641  -5.892  0.00  0.00     0.073 C 
BRANCH  27  28
HETATM   28  C   UNK N   1      25.606  22.907  -7.196  0.00  0.00    -0.056 A 
HETATM   29  C   UNK N   1      25.377  21.527  -7.281  0.00  0.00     0.010 A 
HETATM   30  C   UNK N   1      25.515  20.867  -8.507  0.00  0.00     0.043 A 
HETATM   31  C   UNK N   1      25.900  21.582  -9.647  0.00  0.00     0.116 A 
HETATM   32  F   UNK N   1      26.057  20.941 -10.829  0.00  0.00    -0.206 F 
HETATM   33  C   UNK N   1      26.131  22.957  -9.564  0.00  0.00     0.043 A 
HETATM   34  C   UNK N   1      25.985  23.616  -8.341  0.00  0.00     0.010 A 
ENDBRANCH  27  28
ENDBRANCH   1  27
TORSDOF 6
ENDMDL
MODEL 8
REMARK VINA RESULT:      -7.4      4.266      8.259
REMARK  6 active torsions:
REMARK  status: ('A' for Active; 'I' for Inactive)
REMARK    1  A    between atoms: C_10  and  C_11 
REMARK       I    between atoms: C_11  and  N_13 
REMARK    2  A    between atoms: C_14  and  N_13 
REMARK    3  A    between atoms: C_14  and  C_15 
REMARK    4  A    between atoms: C_14  and  C_24 
REMARK       I    between atoms: C_15  and  N_17 
REMARK    5  A    between atoms: C_20  and  O_21 
REMARK    6  A    between atoms: C_24  and  C_25 
ROOT
HETATM    1  C   UNK N   1      34.724  14.048  10.429  0.00  0.00     0.181 C 
ENDROOT
BRANCH   1   2
HETATM    2  N   UNK N   1      34.743  13.660  11.824  0.00  0.00    -0.342 N 
HETATM    3  C   UNK N   1      34.880  12.381  12.255  0.00  0.00     0.269 C 
HETATM    4  O   UNK N   1      34.946  11.452  11.459  0.00  0.00    -0.266 OA
HETATM    5  H   UNK N   1      34.650  14.368  12.501  0.00  0.00     0.163 HD
BRANCH   3   6
HETATM    6  C   UNK N   1      34.982  12.122  13.694  0.00  0.00     0.102 A 
HETATM    7  N   UNK N   1      34.832  10.883  14.223  0.00  0.00    -0.351 N 
HETATM    8  C   UNK N   1      34.947  11.050  15.546  0.00  0.00     0.043 A 
HETATM    9  H   UNK N   1      34.672  10.042  13.739  0.00  0.00     0.166 HD
HETATM   10  C   UNK N   1      34.851  10.062  16.520  0.00  0.00     0.032 A 
HETATM   11  C   UNK N   1      35.171  12.361  15.860  0.00  0.00    -0.005 A 
HETATM   12  C   UNK N   1      34.995  10.453  17.862  0.00  0.00     0.026 A 
HETATM   13  C   UNK N   1      35.229  11.808  18.191  0.00  0.00     0.035 A 
HETATM   14 Cl   UNK N   1      35.403  12.273  19.868  0.00  0.00    -0.084 Cl
HETATM   15  C   UNK N   1      35.320  12.782  17.179  0.00  0.00     0.037 A 
HETATM   16  C   UNK N   1      35.196  13.079  14.686  0.00  0.00     0.049 A 
ENDBRANCH   3   6
ENDBRANCH   1   2
BRANCH   1  17
HETATM   17  C   UNK N   1      36.152  14.356   9.972  0.00  0.00     0.242 C 
HETATM   18  O   UNK N   1      36.766  15.262  10.524  0.00  0.00    -0.271 OA
HETATM   19  N   UNK N   1      36.781  13.637   8.989  0.00  0.00    -0.350 N 
HETATM   20  C   UNK N   1      36.185  12.458   8.390  0.00  0.00     0.128 C 
HETATM   21  C   UNK N   1      38.148  13.952   8.622  0.00  0.00     0.128 C 
HETATM   22  C   UNK N   1      37.074  11.222   8.653  0.00  0.00     0.051 C 
HETATM   23  C   UNK N   1      38.324  11.564   9.479  0.00  0.00     0.121 C 
HETATM   24  C   UNK N   1      39.071  12.743   8.849  0.00  0.00     0.051 C 
BRANCH  23  25
HETATM   25  O   UNK N   1      39.169  10.458   9.566  0.00  0.00    -0.395 OA
HETATM   26  H   UNK N   1      38.883   9.554   9.365  0.00  0.00     0.210 HD
ENDBRANCH  23  25
ENDBRANCH   1  17
BRANCH   1  27
HETATM   27  C   UNK N   1      33.822  15.291  10.302  0.00  0.00     0.073 C 
BRANCH  27  28
HETATM   28  C   UNK N   1      33.695  15.940   8.959  0.00  0.00    -0.056 A 
HETATM   29  C   UNK N   1      33.263  15.235   7.828  0.00  0.00     0.010 A 
HETATM   30  C   UNK N   1      33.253  15.857   6.574  0.00  0.00     0.043 A 
HETATM   31  C   UNK N   1      33.693  17.180   6.446  0.00  0.00     0.116 A 
HETATM   32  F   UNK N   1      33.707  17.775   5.230  0.00  0.00    -0.206 F 
HETATM   33  C   UNK N   1      34.127  17.883   7.572  0.00  0.00     0.043 A 
HETATM   34  C   UNK N   1      34.128  17.264   8.824  0.00  0.00     0.010 A 
ENDBRANCH  27  28
ENDBRANCH   1  27
TORSDOF 6
ENDMDL
MODEL 9
REMARK VINA RESULT:      -7.4      3.438      6.556
REMARK  6 active torsions:
REMARK  status: ('A' for Active; 'I' for Inactive)
REMARK    1  A    between atoms: C_10  and  C_11 
REMARK       I    between atoms: C_11  and  N_13 
REMARK    2  A    between atoms: C_14  and  N_13 
REMARK    3  A    between atoms: C_14  and  C_15 
REMARK    4  A    between atoms: C_14  and  C_24 
REMARK       I    between atoms: C_15  and  N_17 
REMARK    5  A    between atoms: C_20  and  O_21 
REMARK    6  A    between atoms: C_24  and  C_25 
ROOT
HETATM    1  C   UNK N   1      35.828  14.838  11.040  0.00  0.00     0.181 C 
ENDROOT
BRANCH   1   2
HETATM    2  N   UNK N   1      37.059  14.397  10.419  0.00  0.00    -0.342 N 
HETATM    3  C   UNK N   1      37.150  13.330   9.585  0.00  0.00     0.269 C 
HETATM    4  O   UNK N   1      36.172  12.632   9.348  0.00  0.00    -0.266 OA
HETATM    5  H   UNK N   1      37.881  14.902  10.614  0.00  0.00     0.163 HD
BRANCH   3   6
HETATM    6  C   UNK N   1      38.433  13.038   8.941  0.00  0.00     0.102 A 
HETATM    7  N   UNK N   1      39.312  12.137   9.444  0.00  0.00    -0.351 N 
HETATM    8  C   UNK N   1      40.367  12.176   8.620  0.00  0.00     0.043 A 
HETATM    9  H   UNK N   1      39.201  11.575  10.244  0.00  0.00     0.166 HD
HETATM   10  C   UNK N   1      41.537  11.434   8.733  0.00  0.00     0.032 A 
HETATM   11  C   UNK N   1      40.169  13.075   7.610  0.00  0.00    -0.005 A 
HETATM   12  C   UNK N   1      42.531  11.634   7.760  0.00  0.00     0.026 A 
HETATM   13  C   UNK N   1      42.330  12.560   6.710  0.00  0.00     0.035 A 
HETATM   14 Cl   UNK N   1      43.581  12.795   5.511  0.00  0.00    -0.084 Cl
HETATM   15  C   UNK N   1      41.132  13.295   6.629  0.00  0.00     0.037 A 
HETATM   16  C   UNK N   1      38.931  13.650   7.790  0.00  0.00     0.049 A 
ENDBRANCH   3   6
ENDBRANCH   1   2
BRANCH   1  17
HETATM   17  C   UNK N   1      35.381  16.153  10.395  0.00  0.00     0.242 C 
HETATM   18  O   UNK N   1      35.981  17.183  10.676  0.00  0.00    -0.271 OA
HETATM   19  N   UNK N   1      34.353  16.215   9.490  0.00  0.00    -0.350 N 
HETATM   20  C   UNK N   1      33.689  15.026   8.988  0.00  0.00     0.128 C 
HETATM   21  C   UNK N   1      33.996  17.483   8.884  0.00  0.00     0.128 C 
HETATM   22  C   UNK N   1      33.872  14.923   7.457  0.00  0.00     0.051 C 
HETATM   23  C   UNK N   1      34.709  16.079   6.887  0.00  0.00     0.121 C 
HETATM   24  C   UNK N   1      34.145  17.424   7.355  0.00  0.00     0.051 C 
BRANCH  23  25
HETATM   25  O   UNK N   1      34.725  16.029   5.494  0.00  0.00    -0.395 OA
HETATM   26  H   UNK N   1      33.924  16.088   4.951  0.00  0.00     0.210 HD
ENDBRANCH  23  25
ENDBRANCH   1  17
BRANCH   1  27
HETATM   27  C   UNK N   1      36.104  15.026  12.545  0.00  0.00     0.073 C 
BRANCH  27  28
HETATM   28  C   UNK N   1      35.794  13.891  13.470  0.00  0.00    -0.056 A 
HETATM   29  C   UNK N   1      34.951  12.836  13.099  0.00  0.00     0.010 A 
HETATM   30  C   UNK N   1      34.612  11.847  14.030  0.00  0.00     0.043 A 
HETATM   31  C   UNK N   1      35.101  11.923  15.339  0.00  0.00     0.116 A 
HETATM   32  F   UNK N   1      34.754  10.981  16.249  0.00  0.00    -0.206 F 
HETATM   33  C   UNK N   1      35.940  12.976  15.712  0.00  0.00     0.043 A 
HETATM   34  C   UNK N   1      36.284  13.957  14.779  0.00  0.00     0.010 A 
ENDBRANCH  27  28
ENDBRANCH   1  27
TORSDOF 6
ENDMDL
