MODEL 1
REMARK VINA RESULT:      -5.3      0.000      0.000
REMARK  8 active torsions:
REMARK  status: ('A' for Active; 'I' for Inactive)
REMARK    1  A    between atoms: N_2  and  C_9 
REMARK    2  A    between atoms: N_2  and  C_11 
REMARK    3  A    between atoms: N_2  and  C_12 
REMARK    4  A    between atoms: N_3  and  C_8 
REMARK    5  A    between atoms: N_3  and  C_13 
REMARK    6  A    between atoms: C_6  and  C_7 
REMARK    7  A    between atoms: C_6  and  C_8 
REMARK    8  A    between atoms: C_7  and  C_9 
ROOT
HETATM    1 Cl   UNK N   1      30.045  29.676  -8.873  0.00  0.00    -0.084 Cl
HETATM    2  N   UNK N   1      26.992  29.480  -4.775  0.00  0.00    -0.365 N 
ATOM      3  HN  UNK N   1      27.383  30.383  -4.507  1.00  0.00     0.165 HD
HETATM    4  C   UNK N   1      25.928  27.026  -5.495  0.00  0.00     0.042 A 
HETATM    5  C   UNK N   1      26.907  27.624  -6.299  0.00  0.00     0.017 A 
HETATM    6  C   UNK N   1      25.488  27.676  -4.340  0.00  0.00     0.047 A 
HETATM    7  C   UNK N   1      27.431  28.877  -5.912  0.00  0.00     0.046 A 
HETATM    8  C   UNK N   1      27.347  27.022  -7.485  0.00  0.00     0.018 A 
HETATM    9  C   UNK N   1      26.042  28.905  -3.986  0.00  0.00     0.090 A 
HETATM   10  C   UNK N   1      28.391  29.504  -6.710  0.00  0.00     0.054 A 
HETATM   11  C   UNK N   1      28.309  27.656  -8.275  0.00  0.00     0.025 A 
HETATM   12  C   UNK N   1      28.831  28.894  -7.887  0.00  0.00     0.036 A 
ENDROOT
BRANCH   4  13
HETATM   13  N   UNK N   1      25.306  25.828  -5.898  0.00  0.00    -0.385 N 
HETATM   14  H   UNK N   1      24.419  25.829  -6.326  0.00  0.00     0.160 HD
BRANCH  13  15
HETATM   15  C   UNK N   1      26.022  24.609  -5.660  0.00  0.00     0.077 C 
HETATM   16  C   UNK N   1      25.898  23.586  -6.776  0.00  0.00     0.032 C 
BRANCH  15  17
HETATM   17  C   UNK N   1      25.997  24.176  -4.196  0.00  0.00     0.026 C 
BRANCH  17  18
HETATM   18  C   UNK N   1      27.341  24.223  -3.496  0.00  0.00     0.032 C 
BRANCH  18  19
HETATM   19  C   UNK N   1      28.491  24.659  -4.412  0.00  0.00     0.272 C 
BRANCH  19  20
HETATM   20  N   UNK N   1      29.735  24.885  -3.663  0.00  0.00     0.087 N 
BRANCH  20  21
HETATM   21  C   UNK N   1      30.472  26.003  -4.267  0.00  0.00     0.268 C 
HETATM   22  C   UNK N   1      29.950  27.331  -3.753  0.00  0.00     0.037 C 
ENDBRANCH  20  21
BRANCH  20  23
HETATM   23  C   UNK N   1      30.471  23.611  -3.669  0.00  0.00     0.268 C 
HETATM   24  C   UNK N   1      30.515  22.869  -2.339  0.00  0.00     0.037 C 
ENDBRANCH  20  23
ENDBRANCH  19  20
ENDBRANCH  18  19
ENDBRANCH  17  18
ENDBRANCH  15  17
ENDBRANCH  13  15
ENDBRANCH   4  13
TORSDOF 8
ENDMDL
MODEL 2
REMARK VINA RESULT:      -5.2     22.267     26.832
REMARK  8 active torsions:
REMARK  status: ('A' for Active; 'I' for Inactive)
REMARK    1  A    between atoms: N_2  and  C_9 
REMARK    2  A    between atoms: N_2  and  C_11 
REMARK    3  A    between atoms: N_2  and  C_12 
REMARK    4  A    between atoms: N_3  and  C_8 
REMARK    5  A    between atoms: N_3  and  C_13 
REMARK    6  A    between atoms: C_6  and  C_7 
REMARK    7  A    between atoms: C_6  and  C_8 
REMARK    8  A    between atoms: C_7  and  C_9 
ROOT
HETATM    1 Cl   UNK N   1      35.534   6.789  17.030  0.00  0.00    -0.084 Cl
HETATM    2  N   UNK N   1      35.318  11.314  19.403  0.00  0.00    -0.365 N 
ATOM      3  HN  UNK N   1      35.366  10.796  20.280  1.00  0.00     0.165 HD
HETATM    4  C   UNK N   1      35.185  12.727  17.024  0.00  0.00     0.042 A 
HETATM    5  C   UNK N   1      35.252  11.329  17.001  0.00  0.00     0.017 A 
HETATM    6  C   UNK N   1      35.194  13.401  18.247  0.00  0.00     0.047 A 
HETATM    7  C   UNK N   1      35.323  10.631  18.228  0.00  0.00     0.046 A 
HETATM    8  C   UNK N   1      35.283  10.618  15.794  0.00  0.00     0.018 A 
HETATM    9  C   UNK N   1      35.251  12.674  19.436  0.00  0.00     0.090 A 
HETATM   10  C   UNK N   1      35.414   9.237  18.229  0.00  0.00     0.054 A 
HETATM   11  C   UNK N   1      35.372   9.223  15.806  0.00  0.00     0.025 A 
HETATM   12  C   UNK N   1      35.436   8.535  17.021  0.00  0.00     0.036 A 
ENDROOT
BRANCH   4  13
HETATM   13  N   UNK N   1      35.217  13.464  15.825  0.00  0.00    -0.385 N 
HETATM   14  H   UNK N   1      34.391  13.790  15.399  0.00  0.00     0.160 HD
BRANCH  13  15
HETATM   15  C   UNK N   1      36.505  13.721  15.250  0.00  0.00     0.077 C 
HETATM   16  C   UNK N   1      37.182  14.976  15.774  0.00  0.00     0.032 C 
BRANCH  15  17
HETATM   17  C   UNK N   1      36.587  13.346  13.772  0.00  0.00     0.026 C 
BRANCH  17  18
HETATM   18  C   UNK N   1      35.251  13.263  13.061  0.00  0.00     0.032 C 
BRANCH  18  19
HETATM   19  C   UNK N   1      35.378  13.082  11.543  0.00  0.00     0.272 C 
BRANCH  19  20
HETATM   20  N   UNK N   1      36.103  14.197  10.916  0.00  0.00     0.087 N 
BRANCH  20  21
HETATM   21  C   UNK N   1      35.138  15.143  10.339  0.00  0.00     0.268 C 
HETATM   22  C   UNK N   1      35.464  16.564  10.755  0.00  0.00     0.037 C 
ENDBRANCH  20  21
BRANCH  20  23
HETATM   23  C   UNK N   1      37.021  13.604   9.931  0.00  0.00     0.268 C 
HETATM   24  C   UNK N   1      38.407  13.245  10.455  0.00  0.00     0.037 C 
ENDBRANCH  20  23
ENDBRANCH  19  20
ENDBRANCH  18  19
ENDBRANCH  17  18
ENDBRANCH  15  17
ENDBRANCH  13  15
ENDBRANCH   4  13
TORSDOF 8
ENDMDL
MODEL 3
REMARK VINA RESULT:      -5.1      3.153      6.055
REMARK  8 active torsions:
REMARK  status: ('A' for Active; 'I' for Inactive)
REMARK    1  A    between atoms: N_2  and  C_9 
REMARK    2  A    between atoms: N_2  and  C_11 
REMARK    3  A    between atoms: N_2  and  C_12 
REMARK    4  A    between atoms: N_3  and  C_8 
REMARK    5  A    between atoms: N_3  and  C_13 
REMARK    6  A    between atoms: C_6  and  C_7 
REMARK    7  A    between atoms: C_6  and  C_8 
REMARK    8  A    between atoms: C_7  and  C_9 
ROOT
HETATM    1 Cl   UNK N   1      29.996  19.120  -8.034  0.00  0.00    -0.084 Cl
HETATM    2  N   UNK N   1      30.705  21.822  -3.750  0.00  0.00    -0.365 N 
ATOM      3  HN  UNK N   1      31.365  21.099  -3.467  1.00  0.00     0.165 HD
HETATM    4  C   UNK N   1      28.910  23.790  -4.513  0.00  0.00     0.042 A 
HETATM    5  C   UNK N   1      29.139  22.693  -5.352  0.00  0.00     0.017 A 
HETATM    6  C   UNK N   1      29.596  23.890  -3.300  0.00  0.00     0.047 A 
HETATM    7  C   UNK N   1      30.062  21.704  -4.942  0.00  0.00     0.046 A 
HETATM    8  C   UNK N   1      28.500  22.575  -6.593  0.00  0.00     0.018 A 
HETATM    9  C   UNK N   1      30.488  22.885  -2.927  0.00  0.00     0.090 A 
HETATM   10  C   UNK N   1      30.324  20.612  -5.773  0.00  0.00     0.054 A 
HETATM   11  C   UNK N   1      28.767  21.478  -7.416  0.00  0.00     0.025 A 
HETATM   12  C   UNK N   1      29.676  20.498  -7.005  0.00  0.00     0.036 A 
ENDROOT
BRANCH   4  13
HETATM   13  N   UNK N   1      28.078  24.847  -4.929  0.00  0.00    -0.385 N 
HETATM   14  H   UNK N   1      28.366  25.486  -5.620  0.00  0.00     0.160 HD
BRANCH  13  15
HETATM   15  C   UNK N   1      26.792  24.951  -4.302  0.00  0.00     0.077 C 
HETATM   16  C   UNK N   1      25.640  24.451  -5.158  0.00  0.00     0.032 C 
BRANCH  15  17
HETATM   17  C   UNK N   1      26.644  26.206  -3.445  0.00  0.00     0.026 C 
BRANCH  17  18
HETATM   18  C   UNK N   1      25.694  27.248  -4.002  0.00  0.00     0.032 C 
BRANCH  18  19
HETATM   19  C   UNK N   1      26.220  28.683  -3.874  0.00  0.00     0.272 C 
BRANCH  19  20
HETATM   20  N   UNK N   1      27.595  28.811  -4.376  0.00  0.00     0.087 N 
BRANCH  20  21
HETATM   21  C   UNK N   1      28.336  29.759  -3.534  0.00  0.00     0.268 C 
HETATM   22  C   UNK N   1      28.010  29.545  -2.068  0.00  0.00     0.037 C 
ENDBRANCH  20  21
BRANCH  20  23
HETATM   23  C   UNK N   1      27.494  29.218  -5.787  0.00  0.00     0.268 C 
HETATM   24  C   UNK N   1      28.088  28.243  -6.797  0.00  0.00     0.037 C 
ENDBRANCH  20  23
ENDBRANCH  19  20
ENDBRANCH  18  19
ENDBRANCH  17  18
ENDBRANCH  15  17
ENDBRANCH  13  15
ENDBRANCH   4  13
TORSDOF 8
ENDMDL
MODEL 4
REMARK VINA RESULT:      -5.1      2.433      4.565
REMARK  8 active torsions:
REMARK  status: ('A' for Active; 'I' for Inactive)
REMARK    1  A    between atoms: N_2  and  C_9 
REMARK    2  A    between atoms: N_2  and  C_11 
REMARK    3  A    between atoms: N_2  and  C_12 
REMARK    4  A    between atoms: N_3  and  C_8 
REMARK    5  A    between atoms: N_3  and  C_13 
REMARK    6  A    between atoms: C_6  and  C_7 
REMARK    7  A    between atoms: C_6  and  C_8 
REMARK    8  A    between atoms: C_7  and  C_9 
ROOT
HETATM    1 Cl   UNK N   1      24.400  27.249  -5.735  0.00  0.00    -0.084 Cl
HETATM    2  N   UNK N   1      27.359  29.220  -2.059  0.00  0.00    -0.365 N 
ATOM      3  HN  UNK N   1      26.535  29.197  -1.458  1.00  0.00     0.165 HD
HETATM    4  C   UNK N   1      29.599  29.289  -3.687  0.00  0.00     0.042 A 
HETATM    5  C   UNK N   1      28.382  28.818  -4.196  0.00  0.00     0.017 A 
HETATM    6  C   UNK N   1      29.677  29.713  -2.359  0.00  0.00     0.047 A 
HETATM    7  C   UNK N   1      27.255  28.789  -3.344  0.00  0.00     0.046 A 
HETATM    8  C   UNK N   1      28.272  28.349  -5.511  0.00  0.00     0.018 A 
HETATM    9  C   UNK N   1      28.537  29.682  -1.557  0.00  0.00     0.090 A 
HETATM   10  C   UNK N   1      26.036  28.302  -3.823  0.00  0.00     0.054 A 
HETATM   11  C   UNK N   1      27.048  27.865  -5.981  0.00  0.00     0.025 A 
HETATM   12  C   UNK N   1      25.933  27.843  -5.138  0.00  0.00     0.036 A 
ENDROOT
BRANCH   4  13
HETATM   13  N   UNK N   1      30.768  29.238  -4.470  0.00  0.00    -0.385 N 
HETATM   14  H   UNK N   1      30.830  29.709  -5.332  0.00  0.00     0.160 HD
BRANCH  13  15
HETATM   15  C   UNK N   1      31.865  28.470  -3.956  0.00  0.00     0.077 C 
HETATM   16  C   UNK N   1      33.137  29.271  -3.736  0.00  0.00     0.032 C 
BRANCH  15  17
HETATM   17  C   UNK N   1      31.920  27.052  -4.520  0.00  0.00     0.026 C 
BRANCH  17  18
HETATM   18  C   UNK N   1      30.981  26.066  -3.856  0.00  0.00     0.032 C 
BRANCH  18  19
HETATM   19  C   UNK N   1      30.184  25.215  -4.853  0.00  0.00     0.272 C 
BRANCH  19  20
HETATM   20  N   UNK N   1      29.372  24.193  -4.178  0.00  0.00     0.087 N 
BRANCH  20  21
HETATM   21  C   UNK N   1      28.069  24.768  -3.814  0.00  0.00     0.268 C 
HETATM   22  C   UNK N   1      26.979  24.251  -4.732  0.00  0.00     0.037 C 
ENDBRANCH  20  21
BRANCH  20  23
HETATM   23  C   UNK N   1      30.158  23.718  -3.029  0.00  0.00     0.268 C 
HETATM   24  C   UNK N   1      29.371  22.980  -1.952  0.00  0.00     0.037 C 
ENDBRANCH  20  23
ENDBRANCH  19  20
ENDBRANCH  18  19
ENDBRANCH  17  18
ENDBRANCH  15  17
ENDBRANCH  13  15
ENDBRANCH   4  13
TORSDOF 8
ENDMDL
MODEL 5
REMARK VINA RESULT:      -5.1      3.785      5.736
REMARK  8 active torsions:
REMARK  status: ('A' for Active; 'I' for Inactive)
REMARK    1  A    between atoms: N_2  and  C_9 
REMARK    2  A    between atoms: N_2  and  C_11 
REMARK    3  A    between atoms: N_2  and  C_12 
REMARK    4  A    between atoms: N_3  and  C_8 
REMARK    5  A    between atoms: N_3  and  C_13 
REMARK    6  A    between atoms: C_6  and  C_7 
REMARK    7  A    between atoms: C_6  and  C_8 
REMARK    8  A    between atoms: C_7  and  C_9 
ROOT
HETATM    1 Cl   UNK N   1      25.646  20.897  -9.581  0.00  0.00    -0.084 Cl
HETATM    2  N   UNK N   1      25.362  24.055  -5.569  0.00  0.00    -0.365 N 
ATOM      3  HN  UNK N   1      24.359  24.107  -5.749  1.00  0.00     0.165 HD
HETATM    4  C   UNK N   1      28.084  23.919  -5.075  0.00  0.00     0.042 A 
HETATM    5  C   UNK N   1      27.534  23.210  -6.150  0.00  0.00     0.017 A 
HETATM    6  C   UNK N   1      27.253  24.684  -4.253  0.00  0.00     0.047 A 
HETATM    7  C   UNK N   1      26.143  23.293  -6.379  0.00  0.00     0.046 A 
HETATM    8  C   UNK N   1      28.328  22.403  -6.975  0.00  0.00     0.018 A 
HETATM    9  C   UNK N   1      25.887  24.749  -4.522  0.00  0.00     0.090 A 
HETATM   10  C   UNK N   1      25.569  22.576  -7.432  0.00  0.00     0.054 A 
HETATM   11  C   UNK N   1      27.745  21.691  -8.027  0.00  0.00     0.025 A 
HETATM   12  C   UNK N   1      26.369  21.779  -8.255  0.00  0.00     0.036 A 
ENDROOT
BRANCH   4  13
HETATM   13  N   UNK N   1      29.447  23.782  -4.750  0.00  0.00    -0.385 N 
HETATM   14  H   UNK N   1      30.085  23.369  -5.376  0.00  0.00     0.160 HD
BRANCH  13  15
HETATM   15  C   UNK N   1      29.866  24.272  -3.469  0.00  0.00     0.077 C 
HETATM   16  C   UNK N   1      30.835  25.440  -3.535  0.00  0.00     0.032 C 
BRANCH  15  17
HETATM   17  C   UNK N   1      30.045  23.164  -2.434  0.00  0.00     0.026 C 
BRANCH  17  18
HETATM   18  C   UNK N   1      30.570  21.854  -2.988  0.00  0.00     0.032 C 
BRANCH  18  19
HETATM   19  C   UNK N   1      32.092  21.706  -2.863  0.00  0.00     0.272 C 
BRANCH  19  20
HETATM   20  N   UNK N   1      32.673  21.009  -4.019  0.00  0.00     0.087 N 
BRANCH  20  21
HETATM   21  C   UNK N   1      33.991  20.473  -3.654  0.00  0.00     0.268 C 
HETATM   22  C   UNK N   1      34.150  19.051  -4.153  0.00  0.00     0.037 C 
ENDBRANCH  20  21
BRANCH  20  23
HETATM   23  C   UNK N   1      32.706  21.979  -5.125  0.00  0.00     0.268 C 
HETATM   24  C   UNK N   1      33.976  22.817  -5.228  0.00  0.00     0.037 C 
ENDBRANCH  20  23
ENDBRANCH  19  20
ENDBRANCH  18  19
ENDBRANCH  17  18
ENDBRANCH  15  17
ENDBRANCH  13  15
ENDBRANCH   4  13
TORSDOF 8
ENDMDL
MODEL 6
REMARK VINA RESULT:      -5.0     22.049     25.929
REMARK  8 active torsions:
REMARK  status: ('A' for Active; 'I' for Inactive)
REMARK    1  A    between atoms: N_2  and  C_9 
REMARK    2  A    between atoms: N_2  and  C_11 
REMARK    3  A    between atoms: N_2  and  C_12 
REMARK    4  A    between atoms: N_3  and  C_8 
REMARK    5  A    between atoms: N_3  and  C_13 
REMARK    6  A    between atoms: C_6  and  C_7 
REMARK    7  A    between atoms: C_6  and  C_8 
REMARK    8  A    between atoms: C_7  and  C_9 
ROOT
HETATM    1 Cl   UNK N   1      34.570   9.522  17.769  0.00  0.00    -0.084 Cl
HETATM    2  N   UNK N   1      36.623  13.727  15.707  0.00  0.00    -0.365 N 
ATOM      3  HN  UNK N   1      37.123  13.849  16.588  1.00  0.00     0.165 HD
HETATM    4  C   UNK N   1      35.266  13.401  13.314  0.00  0.00     0.042 A 
HETATM    5  C   UNK N   1      35.076  12.483  14.354  0.00  0.00     0.017 A 
HETATM    6  C   UNK N   1      36.147  14.471  13.488  0.00  0.00     0.047 A 
HETATM    7  C   UNK N   1      35.782  12.669  15.564  0.00  0.00     0.046 A 
HETATM    8  C   UNK N   1      34.229  11.376  14.206  0.00  0.00     0.018 A 
HETATM    9  C   UNK N   1      36.814  14.626  14.703  0.00  0.00     0.090 A 
HETATM   10  C   UNK N   1      35.625  11.753  16.607  0.00  0.00     0.054 A 
HETATM   11  C   UNK N   1      34.078  10.466  15.256  0.00  0.00     0.025 A 
HETATM   12  C   UNK N   1      34.773  10.656  16.454  0.00  0.00     0.036 A 
ENDROOT
BRANCH   4  13
HETATM   13  N   UNK N   1      34.662  13.196  12.059  0.00  0.00    -0.385 N 
HETATM   14  H   UNK N   1      33.686  13.104  11.968  0.00  0.00     0.160 HD
BRANCH  13  15
HETATM   15  C   UNK N   1      35.530  13.126  10.920  0.00  0.00     0.077 C 
HETATM   16  C   UNK N   1      35.241  14.167   9.852  0.00  0.00     0.032 C 
BRANCH  15  17
HETATM   17  C   UNK N   1      35.902  11.695  10.538  0.00  0.00     0.026 C 
BRANCH  17  18
HETATM   18  C   UNK N   1      37.290  11.262  10.967  0.00  0.00     0.032 C 
BRANCH  18  19
HETATM   19  C   UNK N   1      37.314  10.557  12.330  0.00  0.00     0.272 C 
BRANCH  19  20
HETATM   20  N   UNK N   1      37.931   9.226  12.249  0.00  0.00     0.087 N 
BRANCH  20  21
HETATM   21  C   UNK N   1      36.942   8.260  11.750  0.00  0.00     0.268 C 
HETATM   22  C   UNK N   1      35.719   8.233  12.645  0.00  0.00     0.037 C 
ENDBRANCH  20  21
BRANCH  20  23
HETATM   23  C   UNK N   1      38.446   8.915  13.591  0.00  0.00     0.268 C 
HETATM   24  C   UNK N   1      38.310  10.029  14.623  0.00  0.00     0.037 C 
ENDBRANCH  20  23
ENDBRANCH  19  20
ENDBRANCH  18  19
ENDBRANCH  17  18
ENDBRANCH  15  17
ENDBRANCH  13  15
ENDBRANCH   4  13
TORSDOF 8
ENDMDL
MODEL 7
REMARK VINA RESULT:      -5.0     15.093     19.249
REMARK  8 active torsions:
REMARK  status: ('A' for Active; 'I' for Inactive)
REMARK    1  A    between atoms: N_2  and  C_9 
REMARK    2  A    between atoms: N_2  and  C_11 
REMARK    3  A    between atoms: N_2  and  C_12 
REMARK    4  A    between atoms: N_3  and  C_8 
REMARK    5  A    between atoms: N_3  and  C_13 
REMARK    6  A    between atoms: C_6  and  C_7 
REMARK    7  A    between atoms: C_6  and  C_8 
REMARK    8  A    between atoms: C_7  and  C_9 
ROOT
HETATM    1 Cl   UNK N   1      27.513  17.765   5.754  0.00  0.00    -0.084 Cl
HETATM    2  N   UNK N   1      32.513  17.060   4.947  0.00  0.00    -0.365 N 
ATOM      3  HN  UNK N   1      32.296  17.052   3.950  1.00  0.00     0.165 HD
HETATM    4  C   UNK N   1      33.109  17.078   7.652  0.00  0.00     0.042 A 
HETATM    5  C   UNK N   1      31.782  17.227   7.229  0.00  0.00     0.017 A 
HETATM    6  C   UNK N   1      34.125  16.930   6.705  0.00  0.00     0.047 A 
HETATM    7  C   UNK N   1      31.505  17.218   5.844  0.00  0.00     0.046 A 
HETATM    8  C   UNK N   1      30.739  17.415   8.146  0.00  0.00     0.018 A 
HETATM    9  C   UNK N   1      33.806  16.912   5.348  0.00  0.00     0.090 A 
HETATM   10  C   UNK N   1      30.192  17.388   5.398  0.00  0.00     0.054 A 
HETATM   11  C   UNK N   1      29.429  17.583   7.690  0.00  0.00     0.025 A 
HETATM   12  C   UNK N   1      29.156  17.568   6.319  0.00  0.00     0.036 A 
ENDROOT
BRANCH   4  13
HETATM   13  N   UNK N   1      33.440  17.184   9.016  0.00  0.00    -0.385 N 
HETATM   14  H   UNK N   1      33.205  17.982   9.542  0.00  0.00     0.160 HD
BRANCH  13  15
HETATM   15  C   UNK N   1      34.135  16.077   9.607  0.00  0.00     0.077 C 
HETATM   16  C   UNK N   1      33.297  14.818   9.748  0.00  0.00     0.032 C 
BRANCH  15  17
HETATM   17  C   UNK N   1      35.105  16.498  10.709  0.00  0.00     0.026 C 
BRANCH  17  18
HETATM   18  C   UNK N   1      36.086  15.425  11.138  0.00  0.00     0.032 C 
BRANCH  18  19
HETATM   19  C   UNK N   1      36.070  15.153  12.648  0.00  0.00     0.272 C 
BRANCH  19  20
HETATM   20  N   UNK N   1      36.143  13.716  12.948  0.00  0.00     0.087 N 
BRANCH  20  21
HETATM   21  C   UNK N   1      35.193  12.990  12.095  0.00  0.00     0.268 C 
HETATM   22  C   UNK N   1      35.616  11.543  11.929  0.00  0.00     0.037 C 
ENDBRANCH  20  21
BRANCH  20  23
HETATM   23  C   UNK N   1      35.884  13.571  14.389  0.00  0.00     0.268 C 
HETATM   24  C   UNK N   1      36.852  12.669  15.145  0.00  0.00     0.037 C 
ENDBRANCH  20  23
ENDBRANCH  19  20
ENDBRANCH  18  19
ENDBRANCH  17  18
ENDBRANCH  15  17
ENDBRANCH  13  15
ENDBRANCH   4  13
TORSDOF 8
ENDMDL
MODEL 8
REMARK VINA RESULT:      -4.9      2.056      4.045
REMARK  8 active torsions:
REMARK  status: ('A' for Active; 'I' for Inactive)
REMARK    1  A    between atoms: N_2  and  C_9 
REMARK    2  A    between atoms: N_2  and  C_11 
REMARK    3  A    between atoms: N_2  and  C_12 
REMARK    4  A    between atoms: N_3  and  C_8 
REMARK    5  A    between atoms: N_3  and  C_13 
REMARK    6  A    between atoms: C_6  and  C_7 
REMARK    7  A    between atoms: C_6  and  C_8 
REMARK    8  A    between atoms: C_7  and  C_9 
ROOT
HETATM    1 Cl   UNK N   1      25.588  25.732  -9.288  0.00  0.00    -0.084 Cl
HETATM    2  N   UNK N   1      25.383  27.560  -4.517  0.00  0.00    -0.365 N 
ATOM      3  HN  UNK N   1      24.392  27.319  -4.524  1.00  0.00     0.165 HD
HETATM    4  C   UNK N   1      28.074  28.220  -4.491  0.00  0.00     0.042 A 
HETATM    5  C   UNK N   1      27.507  27.648  -5.637  0.00  0.00     0.017 A 
HETATM    6  C   UNK N   1      27.279  28.446  -3.365  0.00  0.00     0.047 A 
HETATM    7  C   UNK N   1      26.134  27.317  -5.624  0.00  0.00     0.046 A 
HETATM    8  C   UNK N   1      28.278  27.372  -6.773  0.00  0.00     0.018 A 
HETATM    9  C   UNK N   1      25.924  28.117  -3.399  0.00  0.00     0.090 A 
HETATM   10  C   UNK N   1      25.552  26.725  -6.747  0.00  0.00     0.054 A 
HETATM   11  C   UNK N   1      27.687  26.780  -7.893  0.00  0.00     0.025 A 
HETATM   12  C   UNK N   1      26.326  26.459  -7.880  0.00  0.00     0.036 A 
ENDROOT
BRANCH   4  13
HETATM   13  N   UNK N   1      29.458  28.470  -4.426  0.00  0.00    -0.385 N 
HETATM   14  H   UNK N   1      29.901  29.078  -5.061  0.00  0.00     0.160 HD
BRANCH  13  15
HETATM   15  C   UNK N   1      30.194  27.799  -3.394  0.00  0.00     0.077 C 
HETATM   16  C   UNK N   1      30.883  28.733  -2.413  0.00  0.00     0.032 C 
BRANCH  15  17
HETATM   17  C   UNK N   1      30.886  26.528  -3.882  0.00  0.00     0.026 C 
BRANCH  17  18
HETATM   18  C   UNK N   1      30.064  25.262  -3.740  0.00  0.00     0.032 C 
BRANCH  18  19
HETATM   19  C   UNK N   1      29.861  24.516  -5.065  0.00  0.00     0.272 C 
BRANCH  19  20
HETATM   20  N   UNK N   1      28.942  23.378  -4.920  0.00  0.00     0.087 N 
BRANCH  20  21
HETATM   21  C   UNK N   1      29.464  22.230  -5.672  0.00  0.00     0.268 C 
HETATM   22  C   UNK N   1      30.349  21.369  -4.792  0.00  0.00     0.037 C 
ENDBRANCH  20  21
BRANCH  20  23
HETATM   23  C   UNK N   1      27.621  23.840  -5.375  0.00  0.00     0.268 C 
HETATM   24  C   UNK N   1      27.036  23.093  -6.568  0.00  0.00     0.037 C 
ENDBRANCH  20  23
ENDBRANCH  19  20
ENDBRANCH  18  19
ENDBRANCH  17  18
ENDBRANCH  15  17
ENDBRANCH  13  15
ENDBRANCH   4  13
TORSDOF 8
ENDMDL
MODEL 9
REMARK VINA RESULT:      -4.9     15.238     19.907
REMARK  8 active torsions:
REMARK  status: ('A' for Active; 'I' for Inactive)
REMARK    1  A    between atoms: N_2  and  C_9 
REMARK    2  A    between atoms: N_2  and  C_11 
REMARK    3  A    between atoms: N_2  and  C_12 
REMARK    4  A    between atoms: N_3  and  C_8 
REMARK    5  A    between atoms: N_3  and  C_13 
REMARK    6  A    between atoms: C_6  and  C_7 
REMARK    7  A    between atoms: C_6  and  C_8 
REMARK    8  A    between atoms: C_7  and  C_9 
ROOT
HETATM    1 Cl   UNK N   1      36.937  12.860  14.125  0.00  0.00    -0.084 Cl
HETATM    2  N   UNK N   1      33.984  12.565   9.961  0.00  0.00    -0.365 N 
ATOM      3  HN  UNK N   1      34.039  11.551  10.059  1.00  0.00     0.165 HD
HETATM    4  C   UNK N   1      33.833  15.317   9.685  0.00  0.00     0.042 A 
HETATM    5  C   UNK N   1      34.582  14.761  10.730  0.00  0.00     0.017 A 
HETATM    6  C   UNK N   1      33.160  14.479   8.793  0.00  0.00     0.047 A 
HETATM    7  C   UNK N   1      34.640  13.355  10.851  0.00  0.00     0.046 A 
HETATM    8  C   UNK N   1      35.240  15.568  11.667  0.00  0.00     0.018 A 
HETATM    9  C   UNK N   1      33.255  13.096   8.940  0.00  0.00     0.090 A 
HETATM   10  C   UNK N   1      35.361  12.778  11.899  0.00  0.00     0.054 A 
HETATM   11  C   UNK N   1      35.961  14.981  12.711  0.00  0.00     0.025 A 
HETATM   12  C   UNK N   1      36.022  13.589  12.825  0.00  0.00     0.036 A 
ENDROOT
BRANCH   4  13
HETATM   13  N   UNK N   1      33.665  16.712   9.589  0.00  0.00    -0.385 N 
HETATM   14  H   UNK N   1      33.913  17.311  10.330  0.00  0.00     0.160 HD
BRANCH  13  15
HETATM   15  C   UNK N   1      33.117  17.221   8.366  0.00  0.00     0.077 C 
HETATM   16  C   UNK N   1      34.148  17.813   7.420  0.00  0.00     0.032 C 
BRANCH  15  17
HETATM   17  C   UNK N   1      31.753  17.882   8.551  0.00  0.00     0.026 C 
BRANCH  17  18
HETATM   18  C   UNK N   1      30.581  17.086   8.011  0.00  0.00     0.032 C 
BRANCH  18  19
HETATM   19  C   UNK N   1      30.695  16.774   6.513  0.00  0.00     0.272 C 
BRANCH  19  20
HETATM   20  N   UNK N   1      29.794  17.610   5.707  0.00  0.00     0.087 N 
BRANCH  20  21
HETATM   21  C   UNK N   1      28.447  17.584   6.295  0.00  0.00     0.268 C 
HETATM   22  C   UNK N   1      27.897  18.989   6.440  0.00  0.00     0.037 C 
ENDBRANCH  20  21
BRANCH  20  23
HETATM   23  C   UNK N   1      29.856  17.095   4.331  0.00  0.00     0.268 C 
HETATM   24  C   UNK N   1      28.527  16.643   3.736  0.00  0.00     0.037 C 
ENDBRANCH  20  23
ENDBRANCH  19  20
ENDBRANCH  18  19
ENDBRANCH  17  18
ENDBRANCH  15  17
ENDBRANCH  13  15
ENDBRANCH   4  13
TORSDOF 8
ENDMDL
