MODEL 1
REMARK VINA RESULT:      -6.1      0.000      0.000
REMARK  3 active torsions:
REMARK  status: ('A' for Active; 'I' for Inactive)
REMARK    1  A    between atoms: C_8  and  C_9 
REMARK       I    between atoms: C_16  and  N_17 
REMARK    2  A    between atoms: N_17  and  C_18 
REMARK    3  A    between atoms: N_19  and  O_21 
ROOT
HETATM    1  C   UNK N   1      32.292  17.239   8.321  0.00  0.00     0.069 A 
HETATM    2  N   UNK N   1      32.608  16.369   9.311  0.00  0.00    -0.190 N 
ATOM      3  HN  UNK N   1      31.895  15.722   9.647  1.00  0.00     0.184 HD
HETATM    4  C   UNK N   1      33.267  18.126   7.856  0.00  0.00     0.049 A 
HETATM    5  C   UNK N   1      34.538  18.084   8.436  0.00  0.00     0.108 A 
HETATM    6  N   UNK N   1      34.806  17.191   9.428  0.00  0.00    -0.202 N 
ATOM      7  HN  UNK N   1      35.736  17.165   9.847  1.00  0.00     0.183 HD
HETATM    8  C   UNK N   1      33.841  16.333   9.866  0.00  0.00     0.683 A 
HETATM    9  N   UNK N   1      34.102  15.387  10.879  0.00  0.00    -0.186 N 
HETATM   10  H   UNK N   1      33.380  14.772  11.143  0.00  0.00     0.185 HD
ENDROOT
BRANCH   1  11
HETATM   11  C   UNK N   1      30.922  17.211   7.781  0.00  0.00     0.056 A 
HETATM   12  S   UNK N   1      30.502  16.432   6.380  0.00  0.00    -0.073 SA
HETATM   13  C   UNK N   1      28.898  16.794   6.400  0.00  0.00     0.048 A 
HETATM   14  C   UNK N   1      27.903  16.371   5.381  0.00  0.00     0.076 C 
HETATM   15  N   UNK N   1      28.611  17.540   7.498  0.00  0.00    -0.357 N 
HETATM   16  C   UNK N   1      29.728  17.779   8.274  0.00  0.00     0.025 A 
ATOM     17  HN  UNK N   1      27.678  17.884   7.723  1.00  0.00     0.166 HD
HETATM   18  C   UNK N   1      29.636  18.577   9.528  0.00  0.00     0.070 C 
ENDBRANCH   1  11
BRANCH   9  19
HETATM   19  C   UNK N   1      35.350  15.276  11.536  0.00  0.00     0.221 C 
HETATM   20  N   UNK N   1      35.530  14.377  12.436  0.00  0.00    -0.264 N 
ATOM     21  HN  UNK N   1      36.427  14.317  12.918  1.00  0.00     0.194 HD
BRANCH  20  22
HETATM   22  O   UNK N   1      34.568  13.530  12.745  0.00  0.00    -0.289 OA
HETATM   23  H   UNK N   1      33.810  13.811  13.217  0.00  0.00     0.244 HD
ENDBRANCH  20  22
ENDBRANCH   9  19
TORSDOF 3
ENDMDL
MODEL 2
REMARK VINA RESULT:      -6.1      7.940     11.865
REMARK  3 active torsions:
REMARK  status: ('A' for Active; 'I' for Inactive)
REMARK    1  A    between atoms: C_8  and  C_9 
REMARK       I    between atoms: C_16  and  N_17 
REMARK    2  A    between atoms: N_17  and  C_18 
REMARK    3  A    between atoms: N_19  and  O_21 
ROOT
HETATM    1  C   UNK N   1      24.303  18.743   4.465  0.00  0.00     0.069 A 
HETATM    2  N   UNK N   1      23.795  19.559   3.510  0.00  0.00    -0.190 N 
ATOM      3  HN  UNK N   1      24.437  20.083   2.916  1.00  0.00     0.184 HD
HETATM    4  C   UNK N   1      23.427  18.021   5.282  0.00  0.00     0.049 A 
HETATM    5  C   UNK N   1      22.052  18.173   5.081  0.00  0.00     0.108 A 
HETATM    6  N   UNK N   1      21.591  19.004   4.108  0.00  0.00    -0.202 N 
ATOM      7  HN  UNK N   1      20.586  19.110   3.966  1.00  0.00     0.183 HD
HETATM    8  C   UNK N   1      22.463  19.699   3.322  0.00  0.00     0.683 A 
HETATM    9  N   UNK N   1      22.008  20.552   2.294  0.00  0.00    -0.186 N 
HETATM   10  H   UNK N   1      22.678  21.011   1.738  0.00  0.00     0.185 HD
ENDROOT
BRANCH   1  11
HETATM   11  C   UNK N   1      25.767  18.660   4.603  0.00  0.00     0.056 A 
HETATM   12  S   UNK N   1      26.672  17.392   4.037  0.00  0.00    -0.073 SA
HETATM   13  C   UNK N   1      28.147  17.948   4.507  0.00  0.00     0.048 A 
HETATM   14  C   UNK N   1      29.443  17.256   4.287  0.00  0.00     0.076 C 
HETATM   15  N   UNK N   1      28.006  19.147   5.129  0.00  0.00    -0.357 N 
HETATM   16  C   UNK N   1      26.688  19.554   5.189  0.00  0.00     0.025 A 
ATOM     17  HN  UNK N   1      28.786  19.685   5.509  1.00  0.00     0.166 HD
HETATM   18  C   UNK N   1      26.310  20.844   5.830  0.00  0.00     0.070 C 
ENDBRANCH   1  11
BRANCH   9  19
HETATM   19  C   UNK N   1      20.639  20.781   2.023  0.00  0.00     0.221 C 
HETATM   20  N   UNK N   1      20.245  21.002   0.821  0.00  0.00    -0.264 N 
ATOM     21  HN  UNK N   1      19.258  21.186   0.638  1.00  0.00     0.194 HD
BRANCH  20  22
HETATM   22  O   UNK N   1      21.102  20.995  -0.181  0.00  0.00    -0.289 OA
HETATM   23  H   UNK N   1      21.225  20.230  -0.707  0.00  0.00     0.244 HD
ENDBRANCH  20  22
ENDBRANCH   9  19
TORSDOF 3
ENDMDL
MODEL 3
REMARK VINA RESULT:      -5.9      2.170      3.002
REMARK  3 active torsions:
REMARK  status: ('A' for Active; 'I' for Inactive)
REMARK    1  A    between atoms: C_8  and  C_9 
REMARK       I    between atoms: C_16  and  N_17 
REMARK    2  A    between atoms: N_17  and  C_18 
REMARK    3  A    between atoms: N_19  and  O_21 
ROOT
HETATM    1  C   UNK N   1      30.174  16.986   6.853  0.00  0.00     0.069 A 
HETATM    2  N   UNK N   1      31.076  17.312   7.809  0.00  0.00    -0.190 N 
ATOM      3  HN  UNK N   1      30.958  18.185   8.324  1.00  0.00     0.184 HD
HETATM    4  C   UNK N   1      30.331  15.790   6.146  0.00  0.00     0.049 A 
HETATM    5  C   UNK N   1      31.423  14.973   6.455  0.00  0.00     0.108 A 
HETATM    6  N   UNK N   1      32.302  15.345   7.424  0.00  0.00    -0.202 N 
ATOM      7  HN  UNK N   1      33.097  14.744   7.645  1.00  0.00     0.183 HD
HETATM    8  C   UNK N   1      32.129  16.516   8.103  0.00  0.00     0.683 A 
HETATM    9  N   UNK N   1      33.017  16.912   9.125  0.00  0.00    -0.186 N 
HETATM   10  H   UNK N   1      32.835  17.753   9.602  0.00  0.00     0.185 HD
ENDROOT
BRANCH   1  11
HETATM   11  C   UNK N   1      29.063  17.919   6.597  0.00  0.00     0.056 A 
HETATM   12  S   UNK N   1      28.632  18.442   5.085  0.00  0.00    -0.073 SA
HETATM   13  C   UNK N   1      27.375  19.401   5.534  0.00  0.00     0.048 A 
HETATM   14  C   UNK N   1      26.517  20.191   4.612  0.00  0.00     0.076 C 
HETATM   15  N   UNK N   1      27.229  19.363   6.883  0.00  0.00    -0.357 N 
HETATM   16  C   UNK N   1      28.162  18.542   7.487  0.00  0.00     0.025 A 
ATOM     17  HN  UNK N   1      26.513  19.881   7.393  1.00  0.00     0.166 HD
HETATM   18  C   UNK N   1      28.180  18.355   8.964  0.00  0.00     0.070 C 
ENDBRANCH   1  11
BRANCH   9  19
HETATM   19  C   UNK N   1      34.157  16.161   9.499  0.00  0.00     0.221 C 
HETATM   20  N   UNK N   1      34.083  15.305  10.453  0.00  0.00    -0.264 N 
ATOM     21  HN  UNK N   1      34.915  14.783  10.729  1.00  0.00     0.194 HD
BRANCH  20  22
HETATM   22  O   UNK N   1      32.944  15.093  11.082  0.00  0.00    -0.289 OA
HETATM   23  H   UNK N   1      32.294  15.764  11.146  0.00  0.00     0.244 HD
ENDBRANCH  20  22
ENDBRANCH   9  19
TORSDOF 3
ENDMDL
MODEL 4
REMARK VINA RESULT:      -5.8      4.194      7.835
REMARK  3 active torsions:
REMARK  status: ('A' for Active; 'I' for Inactive)
REMARK    1  A    between atoms: C_8  and  C_9 
REMARK       I    between atoms: C_16  and  N_17 
REMARK    2  A    between atoms: N_17  and  C_18 
REMARK    3  A    between atoms: N_19  and  O_21 
ROOT
HETATM    1  C   UNK N   1      35.191  13.665  10.728  0.00  0.00     0.069 A 
HETATM    2  N   UNK N   1      35.055  15.012  10.681  0.00  0.00    -0.190 N 
ATOM      3  HN  UNK N   1      35.476  15.578  11.418  1.00  0.00     0.184 HD
HETATM    4  C   UNK N   1      34.618  12.884   9.719  0.00  0.00     0.049 A 
HETATM    5  C   UNK N   1      33.920  13.530   8.695  0.00  0.00     0.108 A 
HETATM    6  N   UNK N   1      33.811  14.886   8.691  0.00  0.00    -0.202 N 
ATOM      7  HN  UNK N   1      33.301  15.352   7.940  1.00  0.00     0.183 HD
HETATM    8  C   UNK N   1      34.379  15.628   9.685  0.00  0.00     0.683 A 
HETATM    9  N   UNK N   1      34.296  17.037   9.691  0.00  0.00    -0.186 N 
HETATM   10  H   UNK N   1      34.744  17.528  10.417  0.00  0.00     0.185 HD
ENDROOT
BRANCH   1  11
HETATM   11  C   UNK N   1      35.939  13.080  11.856  0.00  0.00     0.056 A 
HETATM   12  S   UNK N   1      35.261  12.740  13.329  0.00  0.00    -0.073 SA
HETATM   13  C   UNK N   1      36.606  12.132  14.054  0.00  0.00     0.048 A 
HETATM   14  C   UNK N   1      36.680  11.617  15.446  0.00  0.00     0.076 C 
HETATM   15  N   UNK N   1      37.649  12.166  13.185  0.00  0.00    -0.357 N 
HETATM   16  C   UNK N   1      37.291  12.691  11.959  0.00  0.00     0.025 A 
ATOM     17  HN  UNK N   1      38.588  11.840  13.412  1.00  0.00     0.166 HD
HETATM   18  C   UNK N   1      38.285  12.817  10.858  0.00  0.00     0.070 C 
ENDBRANCH   1  11
BRANCH   9  19
HETATM   19  C   UNK N   1      33.600  17.779   8.708  0.00  0.00     0.221 C 
HETATM   20  N   UNK N   1      34.129  18.833   8.198  0.00  0.00    -0.264 N 
ATOM     21  HN  UNK N   1      33.612  19.372   7.504  1.00  0.00     0.194 HD
BRANCH  20  22
HETATM   22  O   UNK N   1      35.333  19.227   8.563  0.00  0.00    -0.289 OA
HETATM   23  H   UNK N   1      35.966  19.498   7.929  0.00  0.00     0.244 HD
ENDBRANCH  20  22
ENDBRANCH   9  19
TORSDOF 3
ENDMDL
MODEL 5
REMARK VINA RESULT:      -5.7      1.268      1.781
REMARK  3 active torsions:
REMARK  status: ('A' for Active; 'I' for Inactive)
REMARK    1  A    between atoms: C_8  and  C_9 
REMARK       I    between atoms: C_16  and  N_17 
REMARK    2  A    between atoms: N_17  and  C_18 
REMARK    3  A    between atoms: N_19  and  O_21 
ROOT
HETATM    1  C   UNK N   1      32.640  17.268   8.028  0.00  0.00     0.069 A 
HETATM    2  N   UNK N   1      32.852  16.357   9.008  0.00  0.00    -0.190 N 
ATOM      3  HN  UNK N   1      32.141  15.646   9.185  1.00  0.00     0.184 HD
HETATM    4  C   UNK N   1      33.612  18.242   7.781  0.00  0.00     0.049 A 
HETATM    5  C   UNK N   1      34.771  18.240   8.563  0.00  0.00     0.108 A 
HETATM    6  N   UNK N   1      34.937  17.303   9.535  0.00  0.00    -0.202 N 
ATOM      7  HN  UNK N   1      35.785  17.307  10.102  1.00  0.00     0.183 HD
HETATM    8  C   UNK N   1      33.976  16.360   9.759  0.00  0.00     0.683 A 
HETATM    9  N   UNK N   1      34.136  15.368  10.749  0.00  0.00    -0.186 N 
HETATM   10  H   UNK N   1      33.426  14.695  10.854  0.00  0.00     0.185 HD
ENDROOT
BRANCH   1  11
HETATM   11  C   UNK N   1      31.381  17.191   7.266  0.00  0.00     0.056 A 
HETATM   12  S   UNK N   1      29.893  17.523   7.915  0.00  0.00    -0.073 SA
HETATM   13  C   UNK N   1      28.999  17.256   6.561  0.00  0.00     0.048 A 
HETATM   14  C   UNK N   1      27.523  17.392   6.459  0.00  0.00     0.076 C 
HETATM   15  N   UNK N   1      29.815  16.894   5.538  0.00  0.00    -0.357 N 
HETATM   16  C   UNK N   1      31.143  16.853   5.917  0.00  0.00     0.025 A 
ATOM     17  HN  UNK N   1      29.485  16.677   4.597  1.00  0.00     0.166 HD
HETATM   18  C   UNK N   1      32.208  16.480   4.946  0.00  0.00     0.070 C 
ENDBRANCH   1  11
BRANCH   9  19
HETATM   19  C   UNK N   1      35.265  15.292  11.599  0.00  0.00     0.221 C 
HETATM   20  N   UNK N   1      35.361  14.346  12.463  0.00  0.00    -0.264 N 
ATOM     21  HN  UNK N   1      36.169  14.311  13.084  1.00  0.00     0.194 HD
BRANCH  20  22
HETATM   22  O   UNK N   1      34.427  13.421  12.557  0.00  0.00    -0.289 OA
HETATM   23  H   UNK N   1      33.572  13.628  12.877  0.00  0.00     0.244 HD
ENDBRANCH  20  22
ENDBRANCH   9  19
TORSDOF 3
ENDMDL
MODEL 6
REMARK VINA RESULT:      -5.7      5.245      8.529
REMARK  3 active torsions:
REMARK  status: ('A' for Active; 'I' for Inactive)
REMARK    1  A    between atoms: C_8  and  C_9 
REMARK       I    between atoms: C_16  and  N_17 
REMARK    2  A    between atoms: N_17  and  C_18 
REMARK    3  A    between atoms: N_19  and  O_21 
ROOT
HETATM    1  C   UNK N   1      36.047  13.062  13.089  0.00  0.00     0.069 A 
HETATM    2  N   UNK N   1      35.411  14.218  12.781  0.00  0.00    -0.190 N 
ATOM      3  HN  UNK N   1      34.656  14.543  13.385  1.00  0.00     0.184 HD
HETATM    4  C   UNK N   1      37.083  12.612  12.265  0.00  0.00     0.049 A 
HETATM    5  C   UNK N   1      37.423  13.378  11.146  0.00  0.00     0.108 A 
HETATM    6  N   UNK N   1      36.755  14.533  10.880  0.00  0.00    -0.202 N 
ATOM      7  HN  UNK N   1      37.008  15.088  10.061  1.00  0.00     0.183 HD
HETATM    8  C   UNK N   1      35.747  14.953  11.697  0.00  0.00     0.683 A 
HETATM    9  N   UNK N   1      35.053  16.157  11.451  0.00  0.00    -0.186 N 
HETATM   10  H   UNK N   1      34.352  16.430  12.085  0.00  0.00     0.185 HD
ENDROOT
BRANCH   1  11
HETATM   11  C   UNK N   1      35.607  12.323  14.286  0.00  0.00     0.056 A 
HETATM   12  S   UNK N   1      36.116  12.677  15.822  0.00  0.00    -0.073 SA
HETATM   13  C   UNK N   1      35.258  11.516  16.610  0.00  0.00     0.048 A 
HETATM   14  C   UNK N   1      35.263  11.285  18.078  0.00  0.00     0.076 C 
HETATM   15  N   UNK N   1      34.535  10.795  15.716  0.00  0.00    -0.357 N 
HETATM   16  C   UNK N   1      34.720  11.233  14.419  0.00  0.00     0.025 A 
ATOM     17  HN  UNK N   1      33.925  10.019  15.972  1.00  0.00     0.166 HD
HETATM   18  C   UNK N   1      34.018  10.581  13.280  0.00  0.00     0.070 C 
ENDBRANCH   1  11
BRANCH   9  19
HETATM   19  C   UNK N   1      35.315  16.992  10.339  0.00  0.00     0.221 C 
HETATM   20  N   UNK N   1      34.396  17.218   9.470  0.00  0.00    -0.264 N 
ATOM     21  HN  UNK N   1      34.600  17.806   8.662  1.00  0.00     0.194 HD
BRANCH  20  22
HETATM   22  O   UNK N   1      33.193  16.700   9.611  0.00  0.00    -0.289 OA
HETATM   23  H   UNK N   1      32.706  16.398   8.869  0.00  0.00     0.244 HD
ENDBRANCH  20  22
ENDBRANCH   9  19
TORSDOF 3
ENDMDL
MODEL 7
REMARK VINA RESULT:      -5.6      7.924     12.140
REMARK  3 active torsions:
REMARK  status: ('A' for Active; 'I' for Inactive)
REMARK    1  A    between atoms: C_8  and  C_9 
REMARK       I    between atoms: C_16  and  N_17 
REMARK    2  A    between atoms: N_17  and  C_18 
REMARK    3  A    between atoms: N_19  and  O_21 
ROOT
HETATM    1  C   UNK N   1      23.842  18.309   4.465  0.00  0.00     0.069 A 
HETATM    2  N   UNK N   1      23.482  19.147   3.463  0.00  0.00    -0.190 N 
ATOM      3  HN  UNK N   1      24.186  19.437   2.784  1.00  0.00     0.184 HD
HETATM    4  C   UNK N   1      22.881  17.907   5.398  0.00  0.00     0.049 A 
HETATM    5  C   UNK N   1      21.577  18.391   5.260  0.00  0.00     0.108 A 
HETATM    6  N   UNK N   1      21.265  19.231   4.236  0.00  0.00    -0.202 N 
ATOM      7  HN  UNK N   1      20.311  19.580   4.141  1.00  0.00     0.183 HD
HETATM    8  C   UNK N   1      22.218  19.609   3.336  0.00  0.00     0.683 A 
HETATM    9  N   UNK N   1      21.912  20.463   2.256  0.00  0.00    -0.186 N 
HETATM   10  H   UNK N   1      22.629  20.687   1.620  0.00  0.00     0.185 HD
ENDROOT
BRANCH   1  11
HETATM   11  C   UNK N   1      25.245  17.862   4.528  0.00  0.00     0.056 A 
HETATM   12  S   UNK N   1      26.475  18.783   5.149  0.00  0.00    -0.073 SA
HETATM   13  C   UNK N   1      27.695  17.704   4.917  0.00  0.00     0.048 A 
HETATM   14  C   UNK N   1      29.120  17.919   5.280  0.00  0.00     0.076 C 
HETATM   15  N   UNK N   1      27.204  16.576   4.343  0.00  0.00    -0.357 N 
HETATM   16  C   UNK N   1      25.843  16.650   4.122  0.00  0.00     0.025 A 
ATOM     17  HN  UNK N   1      27.776  15.765   4.104  1.00  0.00     0.166 HD
HETATM   18  C   UNK N   1      25.102  15.518   3.501  0.00  0.00     0.070 C 
ENDBRANCH   1  11
BRANCH   9  19
HETATM   19  C   UNK N   1      20.627  21.015   2.040  0.00  0.00     0.221 C 
HETATM   20  N   UNK N   1      20.118  21.029   0.861  0.00  0.00    -0.264 N 
ATOM     21  HN  UNK N   1      19.199  21.447   0.713  1.00  0.00     0.194 HD
BRANCH  20  22
HETATM   22  O   UNK N   1      20.770  20.510  -0.160  0.00  0.00    -0.289 OA
HETATM   23  H   UNK N   1      21.454  19.884  -0.030  0.00  0.00     0.244 HD
ENDBRANCH  20  22
ENDBRANCH   9  19
TORSDOF 3
ENDMDL
MODEL 8
REMARK VINA RESULT:      -5.6      3.861      7.707
REMARK  3 active torsions:
REMARK  status: ('A' for Active; 'I' for Inactive)
REMARK    1  A    between atoms: C_8  and  C_9 
REMARK       I    between atoms: C_16  and  N_17 
REMARK    2  A    between atoms: N_17  and  C_18 
REMARK    3  A    between atoms: N_19  and  O_21 
ROOT
HETATM    1  C   UNK N   1      35.123  14.389  11.826  0.00  0.00     0.069 A 
HETATM    2  N   UNK N   1      33.946  14.294  11.162  0.00  0.00    -0.190 N 
ATOM      3  HN  UNK N   1      33.377  13.456  11.283  1.00  0.00     0.184 HD
HETATM    4  C   UNK N   1      35.906  15.537  11.666  0.00  0.00     0.049 A 
HETATM    5  C   UNK N   1      35.442  16.546  10.817  0.00  0.00     0.108 A 
HETATM    6  N   UNK N   1      34.252  16.403  10.173  0.00  0.00    -0.202 N 
ATOM      7  HN  UNK N   1      33.918  17.144   9.555  1.00  0.00     0.183 HD
HETATM    8  C   UNK N   1      33.503  15.276  10.345  0.00  0.00     0.683 A 
HETATM    9  N   UNK N   1      32.258  15.114   9.702  0.00  0.00    -0.186 N 
HETATM   10  H   UNK N   1      31.743  14.294   9.879  0.00  0.00     0.185 HD
ENDROOT
BRANCH   1  11
HETATM   11  C   UNK N   1      35.529  13.266  12.690  0.00  0.00     0.056 A 
HETATM   12  S   UNK N   1      35.625  13.366  14.341  0.00  0.00    -0.073 SA
HETATM   13  C   UNK N   1      36.104  11.818  14.626  0.00  0.00     0.048 A 
HETATM   14  C   UNK N   1      36.374  11.230  15.963  0.00  0.00     0.076 C 
HETATM   15  N   UNK N   1      36.214  11.150  13.450  0.00  0.00    -0.357 N 
HETATM   16  C   UNK N   1      35.897  11.943  12.365  0.00  0.00     0.025 A 
ATOM     17  HN  UNK N   1      36.498  10.173  13.375  1.00  0.00     0.166 HD
HETATM   18  C   UNK N   1      35.950  11.406  10.977  0.00  0.00     0.070 C 
ENDBRANCH   1  11
BRANCH   9  19
HETATM   19  C   UNK N   1      31.710  16.072   8.816  0.00  0.00     0.221 C 
HETATM   20  N   UNK N   1      30.675  16.751   9.156  0.00  0.00    -0.264 N 
ATOM     21  HN  UNK N   1      30.276  17.425   8.503  1.00  0.00     0.194 HD
BRANCH  20  22
HETATM   22  O   UNK N   1      30.120  16.587  10.341  0.00  0.00    -0.289 OA
HETATM   23  H   UNK N   1      29.276  16.192  10.429  0.00  0.00     0.244 HD
ENDBRANCH  20  22
ENDBRANCH   9  19
TORSDOF 3
ENDMDL
MODEL 9
REMARK VINA RESULT:      -5.5      7.344      9.981
REMARK  3 active torsions:
REMARK  status: ('A' for Active; 'I' for Inactive)
REMARK    1  A    between atoms: C_8  and  C_9 
REMARK       I    between atoms: C_16  and  N_17 
REMARK    2  A    between atoms: N_17  and  C_18 
REMARK    3  A    between atoms: N_19  and  O_21 
ROOT
HETATM    1  C   UNK N   1      35.525  11.770  14.532  0.00  0.00     0.069 A 
HETATM    2  N   UNK N   1      36.469  12.508  13.899  0.00  0.00    -0.190 N 
ATOM      3  HN  UNK N   1      37.189  12.970  14.454  1.00  0.00     0.184 HD
HETATM    4  C   UNK N   1      34.537  11.133  13.776  0.00  0.00     0.049 A 
HETATM    5  C   UNK N   1      34.560  11.285  12.386  0.00  0.00     0.108 A 
HETATM    6  N   UNK N   1      35.530  12.036  11.798  0.00  0.00    -0.202 N 
ATOM      7  HN  UNK N   1      35.541  12.143  10.783  1.00  0.00     0.183 HD
HETATM    8  C   UNK N   1      36.485  12.649  12.554  0.00  0.00     0.683 A 
HETATM    9  N   UNK N   1      37.511  13.416  11.964  0.00  0.00    -0.186 N 
HETATM   10  H   UNK N   1      38.192  13.817  12.551  0.00  0.00     0.185 HD
ENDROOT
BRANCH   1  11
HETATM   11  C   UNK N   1      35.582  11.679  16.002  0.00  0.00     0.056 A 
HETATM   12  S   UNK N   1      35.018  12.861  17.017  0.00  0.00    -0.073 SA
HETATM   13  C   UNK N   1      35.380  12.118  18.439  0.00  0.00     0.048 A 
HETATM   14  C   UNK N   1      35.115  12.669  19.794  0.00  0.00     0.076 C 
HETATM   15  N   UNK N   1      35.960  10.916  18.193  0.00  0.00    -0.357 N 
HETATM   16  C   UNK N   1      36.078  10.659  16.841  0.00  0.00     0.025 A 
ATOM     17  HN  UNK N   1      36.271  10.275  18.923  1.00  0.00     0.166 HD
HETATM   18  C   UNK N   1      36.685   9.392  16.349  0.00  0.00     0.070 C 
ENDBRANCH   1  11
BRANCH   9  19
HETATM   19  C   UNK N   1      37.611  13.640  10.570  0.00  0.00     0.221 C 
HETATM   20  N   UNK N   1      37.408  14.813  10.087  0.00  0.00    -0.264 N 
ATOM     21  HN  UNK N   1      37.464  14.960   9.079  1.00  0.00     0.194 HD
BRANCH  20  22
HETATM   22  O   UNK N   1      37.128  15.829  10.879  0.00  0.00    -0.289 OA
HETATM   23  H   UNK N   1      36.443  15.772  11.515  0.00  0.00     0.244 HD
ENDBRANCH  20  22
ENDBRANCH   9  19
TORSDOF 3
ENDMDL
