REMARK  3 active torsions:
REMARK  status: ('A' for Active; 'I' for Inactive)
REMARK    1  A    between atoms: C_8  and  C_9 
REMARK       I    between atoms: C_16  and  N_17 
REMARK    2  A    between atoms: N_17  and  C_18 
REMARK    3  A    between atoms: N_19  and  O_21 
ROOT
HETATM    1  C   UNK N   1      -0.680  -0.449  -0.070  0.00  0.00     0.069 A 
HETATM    2  N   UNK N   1       0.669  -0.324  -0.061  0.00  0.00    -0.190 N 
ATOM      3  HN  UNK N   1       1.079   0.610  -0.050  1.00  0.00     0.184 HD
HETATM    4  C   UNK N   1      -1.247  -1.727  -0.083  0.00  0.00     0.049 A 
HETATM    5  C   UNK N   1      -0.393  -2.834  -0.089  0.00  0.00     0.108 A 
HETATM    6  N   UNK N   1       0.956  -2.656  -0.079  0.00  0.00    -0.202 N 
ATOM      7  HN  UNK N   1       1.574  -3.468  -0.083  1.00  0.00     0.183 HD
HETATM    8  C   UNK N   1       1.488  -1.400  -0.065  0.00  0.00     0.683 A 
HETATM    9  N   UNK N   1       2.883  -1.192  -0.035  0.00  0.00    -0.186 N 
HETATM   10  H   UNK N   1       3.217  -0.267   0.000  0.00  0.00     0.185 HD
ENDROOT
BRANCH   1  11
HETATM   11  C   UNK N   1      -1.493   0.780  -0.072  0.00  0.00     0.056 A 
HETATM   12  S   UNK N   1      -0.849   2.307  -0.080  0.00  0.00    -0.073 SA
HETATM   13  C   UNK N   1      -2.266   3.142  -0.088  0.00  0.00     0.048 A 
HETATM   14  C   UNK N   1      -2.397   4.622  -0.103  0.00  0.00     0.076 C 
HETATM   15  N   UNK N   1      -3.309   2.273  -0.083  0.00  0.00    -0.357 N 
HETATM   16  C   UNK N   1      -2.893   0.956  -0.074  0.00  0.00     0.025 A 
ATOM     17  HN  UNK N   1      -4.288   2.560  -0.086  1.00  0.00     0.166 HD
HETATM   18  C   UNK N   1      -3.877  -0.161  -0.069  0.00  0.00     0.070 C 
ENDBRANCH   1  11
BRANCH   9  19
HETATM   19  C   UNK N   1       3.827  -2.246  -0.053  0.00  0.00     0.221 C 
HETATM   20  N   UNK N   1       5.074  -2.001   0.133  0.00  0.00    -0.264 N 
ATOM     21  HN  UNK N   1       5.749  -2.765   0.099  1.00  0.00     0.194 HD
BRANCH  20  22
HETATM   22  O   UNK N   1       5.492  -0.773   0.367  0.00  0.00    -0.289 OA
HETATM   23  H   UNK N   1       6.396  -0.593   0.533  0.00  0.00     0.244 HD
ENDBRANCH  20  22
ENDBRANCH   9  19
TORSDOF 3
