MODEL 1
REMARK VINA RESULT:      -5.9      0.000      0.000
REMARK  5 active torsions:
REMARK  status: ('A' for Active; 'I' for Inactive)
REMARK    1  A    between atoms: C_10  and  S_13 
REMARK    2  A    between atoms: S_13  and  N_16 
REMARK    3  A    between atoms: N_16  and  C_17 
REMARK    4  A    between atoms: C_17  and  C_18 
REMARK    5  A    between atoms: C_18  and  N_19 
ROOT
HETATM    1  C   UNK N   1      31.460  16.164   5.645  0.00  0.00     0.101 A 
HETATM    2  N   UNK N   1      30.459  15.545   4.961  0.00  0.00    -0.374 N 
ATOM      3  HN  UNK N   1      30.689  14.992   4.136  1.00  0.00     0.164 HD
HETATM    4  C   UNK N   1      29.161  15.648   5.349  0.00  0.00     0.088 A 
HETATM    5  C   UNK N   1      28.821  16.402   6.473  0.00  0.00     0.031 A 
HETATM    6  C   UNK N   1      29.511  17.816   8.338  0.00  0.00     0.045 A 
HETATM    7 Cl   UNK N   1      27.858  17.973   8.918  0.00  0.00    -0.083 Cl
HETATM    8  C   UNK N   1      30.529  18.456   9.044  0.00  0.00     0.026 A 
HETATM    9  C   UNK N   1      31.856  18.335   8.635  0.00  0.00     0.028 A 
HETATM   10  C   UNK N   1      32.190  17.577   7.510  0.00  0.00     0.092 A 
HETATM   11  C   UNK N   1      31.171  16.935   6.777  0.00  0.00     0.015 A 
HETATM   12  C   UNK N   1      29.824  17.056   7.197  0.00  0.00     0.000 A 
ENDROOT
BRANCH  10  13
HETATM   13  S   UNK N   1      33.932  17.402   7.098  0.00  0.00     0.259 S 
HETATM   14  O   UNK N   1      34.754  18.529   7.739  0.00  0.00    -0.201 OA
HETATM   15  O   UNK N   1      34.172  17.675   5.602  0.00  0.00    -0.201 OA
BRANCH  13  16
HETATM   16  N   UNK N   1      34.818  15.911   7.499  0.00  0.00    -0.314 N 
HETATM   17  H   UNK N   1      35.527  15.477   6.909  0.00  0.00     0.172 HD
BRANCH  16  18
HETATM   18  C   UNK N   1      34.383  15.401   8.795  0.00  0.00     0.151 C 
BRANCH  18  19
HETATM   19  C   UNK N   1      35.376  15.785   9.882  0.00  0.00     0.131 C 
BRANCH  19  20
HETATM   20  N   UNK N   1      34.936  17.012  10.521  0.00  0.00    -0.429 N 
HETATM   21  H   UNK N   1      33.944  17.243  10.570  0.00  0.00     0.149 HD
HETATM   22  H   UNK N   1      35.624  17.648  10.924  0.00  0.00     0.149 HD
ENDBRANCH  19  20
ENDBRANCH  18  19
ENDBRANCH  16  18
ENDBRANCH  13  16
ENDBRANCH  10  13
TORSDOF 5
ENDMDL
MODEL 2
REMARK VINA RESULT:      -5.9      1.982      2.767
REMARK  5 active torsions:
REMARK  status: ('A' for Active; 'I' for Inactive)
REMARK    1  A    between atoms: C_10  and  S_13 
REMARK    2  A    between atoms: S_13  and  N_16 
REMARK    3  A    between atoms: N_16  and  C_17 
REMARK    4  A    between atoms: C_17  and  C_18 
REMARK    5  A    between atoms: C_18  and  N_19 
ROOT
HETATM    1  C   UNK N   1      31.415  17.367   8.625  0.00  0.00     0.101 A 
HETATM    2  N   UNK N   1      30.341  17.635   9.418  0.00  0.00    -0.374 N 
ATOM      3  HN  UNK N   1      30.466  17.668  10.430  1.00  0.00     0.164 HD
HETATM    4  C   UNK N   1      29.107  17.860   8.895  0.00  0.00     0.088 A 
HETATM    5  C   UNK N   1      28.911  17.817   7.513  0.00  0.00     0.031 A 
HETATM    6  C   UNK N   1      29.823  17.499   5.274  0.00  0.00     0.045 A 
HETATM    7 Cl   UNK N   1      28.263  17.805   4.521  0.00  0.00    -0.083 Cl
HETATM    8  C   UNK N   1      30.917  17.221   4.453  0.00  0.00     0.026 A 
HETATM    9  C   UNK N   1      32.176  16.999   5.006  0.00  0.00     0.028 A 
HETATM   10  C   UNK N   1      32.367  17.045   6.390  0.00  0.00     0.092 A 
HETATM   11  C   UNK N   1      31.269  17.310   7.234  0.00  0.00     0.015 A 
HETATM   12  C   UNK N   1      29.991  17.539   6.670  0.00  0.00     0.000 A 
ENDROOT
BRANCH  10  13
HETATM   13  S   UNK N   1      34.038  16.831   7.018  0.00  0.00     0.259 S 
HETATM   14  O   UNK N   1      34.659  18.190   7.373  0.00  0.00    -0.201 OA
HETATM   15  O   UNK N   1      34.987  16.354   5.905  0.00  0.00    -0.201 OA
BRANCH  13  16
HETATM   16  N   UNK N   1      34.354  15.806   8.440  0.00  0.00    -0.314 N 
HETATM   17  H   UNK N   1      34.166  14.805   8.491  0.00  0.00     0.172 HD
BRANCH  16  18
HETATM   18  C   UNK N   1      34.920  16.606   9.521  0.00  0.00     0.151 C 
BRANCH  18  19
HETATM   19  C   UNK N   1      34.834  15.858  10.842  0.00  0.00     0.131 C 
BRANCH  19  20
HETATM   20  N   UNK N   1      33.603  15.089  10.879  0.00  0.00    -0.429 N 
HETATM   21  H   UNK N   1      33.314  14.537  10.071  0.00  0.00     0.149 HD
HETATM   22  H   UNK N   1      33.022  15.102  11.717  0.00  0.00     0.149 HD
ENDBRANCH  19  20
ENDBRANCH  18  19
ENDBRANCH  16  18
ENDBRANCH  13  16
ENDBRANCH  10  13
TORSDOF 5
ENDMDL
MODEL 3
REMARK VINA RESULT:      -5.4      8.588     10.847
REMARK  5 active torsions:
REMARK  status: ('A' for Active; 'I' for Inactive)
REMARK    1  A    between atoms: C_10  and  S_13 
REMARK    2  A    between atoms: S_13  and  N_16 
REMARK    3  A    between atoms: N_16  and  C_17 
REMARK    4  A    between atoms: C_17  and  C_18 
REMARK    5  A    between atoms: C_18  and  N_19 
ROOT
HETATM    1  C   UNK N   1      35.827  10.233  15.058  0.00  0.00     0.101 A 
HETATM    2  N   UNK N   1      35.759   8.904  15.346  0.00  0.00    -0.374 N 
ATOM      3  HN  UNK N   1      35.899   8.225  14.599  1.00  0.00     0.164 HD
HETATM    4  C   UNK N   1      35.508   8.460  16.606  0.00  0.00     0.088 A 
HETATM    5  C   UNK N   1      35.309   9.370  17.646  0.00  0.00     0.031 A 
HETATM    6  C   UNK N   1      35.178  11.682  18.414  0.00  0.00     0.045 A 
HETATM    7 Cl   UNK N   1      34.876  11.184  20.073  0.00  0.00    -0.083 Cl
HETATM    8  C   UNK N   1      35.243  13.046  18.128  0.00  0.00     0.026 A 
HETATM    9  C   UNK N   1      35.507  13.483  16.831  0.00  0.00     0.028 A 
HETATM   10  C   UNK N   1      35.707  12.568  15.795  0.00  0.00     0.092 A 
HETATM   11  C   UNK N   1      35.631  11.185  16.065  0.00  0.00     0.015 A 
HETATM   12  C   UNK N   1      35.366  10.743  17.383  0.00  0.00     0.000 A 
ENDROOT
BRANCH  10  13
HETATM   13  S   UNK N   1      36.127  13.211  14.169  0.00  0.00     0.259 S 
HETATM   14  O   UNK N   1      36.563  14.681  14.267  0.00  0.00    -0.201 OA
HETATM   15  O   UNK N   1      34.872  13.334  13.286  0.00  0.00    -0.201 OA
BRANCH  13  16
HETATM   16  N   UNK N   1      37.383  12.432  13.176  0.00  0.00    -0.314 N 
HETATM   17  H   UNK N   1      38.292  12.126  13.521  0.00  0.00     0.172 HD
BRANCH  16  18
HETATM   18  C   UNK N   1      36.921  12.294  11.799  0.00  0.00     0.151 C 
BRANCH  18  19
HETATM   19  C   UNK N   1      37.669  13.253  10.885  0.00  0.00     0.131 C 
BRANCH  19  20
HETATM   20  N   UNK N   1      37.137  14.593  11.057  0.00  0.00    -0.429 N 
HETATM   21  H   UNK N   1      37.761  15.399  11.069  0.00  0.00     0.149 HD
HETATM   22  H   UNK N   1      36.132  14.729  11.168  0.00  0.00     0.149 HD
ENDBRANCH  19  20
ENDBRANCH  18  19
ENDBRANCH  16  18
ENDBRANCH  13  16
ENDBRANCH  10  13
TORSDOF 5
ENDMDL
MODEL 4
REMARK VINA RESULT:      -5.4      5.940      8.869
REMARK  5 active torsions:
REMARK  status: ('A' for Active; 'I' for Inactive)
REMARK    1  A    between atoms: C_10  and  S_13 
REMARK    2  A    between atoms: S_13  and  N_16 
REMARK    3  A    between atoms: N_16  and  C_17 
REMARK    4  A    between atoms: C_17  and  C_18 
REMARK    5  A    between atoms: C_18  and  N_19 
ROOT
HETATM    1  C   UNK N   1      36.255  14.158  13.292  0.00  0.00     0.101 A 
HETATM    2  N   UNK N   1      36.879  14.875  14.266  0.00  0.00    -0.374 N 
ATOM      3  HN  UNK N   1      37.350  15.746  14.018  1.00  0.00     0.164 HD
HETATM    4  C   UNK N   1      36.891  14.461  15.560  0.00  0.00     0.088 A 
HETATM    5  C   UNK N   1      36.256  13.272  15.923  0.00  0.00     0.031 A 
HETATM    6  C   UNK N   1      34.955  11.309  15.286  0.00  0.00     0.045 A 
HETATM    7 Cl   UNK N   1      34.905  10.722  16.943  0.00  0.00    -0.083 Cl
HETATM    8  C   UNK N   1      34.316  10.565  14.295  0.00  0.00     0.026 A 
HETATM    9  C   UNK N   1      34.308  11.008  12.974  0.00  0.00     0.028 A 
HETATM   10  C   UNK N   1      34.944  12.200  12.616  0.00  0.00     0.092 A 
HETATM   11  C   UNK N   1      35.607  12.957  13.604  0.00  0.00     0.015 A 
HETATM   12  C   UNK N   1      35.610  12.507  14.947  0.00  0.00     0.000 A 
ENDROOT
BRANCH  10  13
HETATM   13  S   UNK N   1      34.816  12.745  10.907  0.00  0.00     0.259 S 
HETATM   14  O   UNK N   1      34.117  11.679  10.051  0.00  0.00    -0.201 OA
HETATM   15  O   UNK N   1      36.203  12.796  10.242  0.00  0.00    -0.201 OA
BRANCH  13  16
HETATM   16  N   UNK N   1      33.991  14.268  10.495  0.00  0.00    -0.314 N 
HETATM   17  H   UNK N   1      33.118  14.591  10.913  0.00  0.00     0.172 HD
BRANCH  16  18
HETATM   18  C   UNK N   1      34.744  14.987   9.473  0.00  0.00     0.151 C 
BRANCH  18  19
HETATM   19  C   UNK N   1      34.559  16.489   9.629  0.00  0.00     0.131 C 
BRANCH  19  20
HETATM   20  N   UNK N   1      35.089  16.905  10.916  0.00  0.00    -0.429 N 
HETATM   21  H   UNK N   1      34.822  17.804  11.318  0.00  0.00     0.149 HD
HETATM   22  H   UNK N   1      35.732  16.295  11.420  0.00  0.00     0.149 HD
ENDBRANCH  19  20
ENDBRANCH  18  19
ENDBRANCH  16  18
ENDBRANCH  13  16
ENDBRANCH  10  13
TORSDOF 5
ENDMDL
MODEL 5
REMARK VINA RESULT:      -5.3     14.099     15.852
REMARK  5 active torsions:
REMARK  status: ('A' for Active; 'I' for Inactive)
REMARK    1  A    between atoms: C_10  and  S_13 
REMARK    2  A    between atoms: S_13  and  N_16 
REMARK    3  A    between atoms: N_16  and  C_17 
REMARK    4  A    between atoms: C_17  and  C_18 
REMARK    5  A    between atoms: C_18  and  N_19 
ROOT
HETATM    1  C   UNK N   1      29.167  24.158  -3.618  0.00  0.00     0.101 A 
HETATM    2  N   UNK N   1      30.271  23.877  -2.872  0.00  0.00    -0.374 N 
ATOM      3  HN  UNK N   1      30.465  24.435  -2.041  1.00  0.00     0.164 HD
HETATM    4  C   UNK N   1      31.122  22.872  -3.210  0.00  0.00     0.088 A 
HETATM    5  C   UNK N   1      30.880  22.097  -4.345  0.00  0.00     0.031 A 
HETATM    6  C   UNK N   1      29.485  21.592  -6.281  0.00  0.00     0.045 A 
HETATM    7 Cl   UNK N   1      30.524  20.259  -6.766  0.00  0.00    -0.083 Cl
HETATM    8  C   UNK N   1      28.358  21.875  -7.054  0.00  0.00     0.026 A 
HETATM    9  C   UNK N   1      27.493  22.905  -6.690  0.00  0.00     0.028 A 
HETATM   10  C   UNK N   1      27.740  23.677  -5.551  0.00  0.00     0.092 A 
HETATM   11  C   UNK N   1      28.883  23.413  -4.767  0.00  0.00     0.015 A 
HETATM   12  C   UNK N   1      29.758  22.363  -5.137  0.00  0.00     0.000 A 
ENDROOT
BRANCH  10  13
HETATM   13  S   UNK N   1      26.532  24.931  -5.103  0.00  0.00     0.259 S 
HETATM   14  O   UNK N   1      26.052  24.727  -3.659  0.00  0.00    -0.201 OA
HETATM   15  O   UNK N   1      25.219  24.732  -5.882  0.00  0.00    -0.201 OA
BRANCH  13  16
HETATM   16  N   UNK N   1      26.935  26.663  -5.205  0.00  0.00    -0.314 N 
HETATM   17  H   UNK N   1      27.875  27.036  -5.332  0.00  0.00     0.172 HD
BRANCH  16  18
HETATM   18  C   UNK N   1      25.725  27.468  -5.082  0.00  0.00     0.151 C 
BRANCH  18  19
HETATM   19  C   UNK N   1      25.837  28.426  -3.905  0.00  0.00     0.131 C 
BRANCH  19  20
HETATM   20  N   UNK N   1      25.848  27.666  -2.668  0.00  0.00    -0.429 N 
HETATM   21  H   UNK N   1      26.722  27.293  -2.298  0.00  0.00     0.149 HD
HETATM   22  H   UNK N   1      24.975  27.504  -2.166  0.00  0.00     0.149 HD
ENDBRANCH  19  20
ENDBRANCH  18  19
ENDBRANCH  16  18
ENDBRANCH  13  16
ENDBRANCH  10  13
TORSDOF 5
ENDMDL
MODEL 6
REMARK VINA RESULT:      -5.2      4.879      7.366
REMARK  5 active torsions:
REMARK  status: ('A' for Active; 'I' for Inactive)
REMARK    1  A    between atoms: C_10  and  S_13 
REMARK    2  A    between atoms: S_13  and  N_16 
REMARK    3  A    between atoms: N_16  and  C_17 
REMARK    4  A    between atoms: C_17  and  C_18 
REMARK    5  A    between atoms: C_18  and  N_19 
ROOT
HETATM    1  C   UNK N   1      27.835  18.862   7.957  0.00  0.00     0.101 A 
HETATM    2  N   UNK N   1      28.026  18.614   9.282  0.00  0.00    -0.374 N 
ATOM      3  HN  UNK N   1      27.391  19.031   9.963  1.00  0.00     0.164 HD
HETATM    4  C   UNK N   1      29.041  17.823   9.721  0.00  0.00     0.088 A 
HETATM    5  C   UNK N   1      29.924  17.243   8.809  0.00  0.00     0.031 A 
HETATM    6  C   UNK N   1      30.631  16.903   6.499  0.00  0.00     0.045 A 
HETATM    7 Cl   UNK N   1      31.951  15.848   6.988  0.00  0.00    -0.083 Cl
HETATM    8  C   UNK N   1      30.447  17.154   5.139  0.00  0.00     0.026 A 
HETATM    9  C   UNK N   1      29.397  17.962   4.707  0.00  0.00     0.028 A 
HETATM   10  C   UNK N   1      28.515  18.539   5.624  0.00  0.00     0.092 A 
HETATM   11  C   UNK N   1      28.696  18.306   7.004  0.00  0.00     0.015 A 
HETATM   12  C   UNK N   1      29.761  17.482   7.441  0.00  0.00     0.000 A 
ENDROOT
BRANCH  10  13
HETATM   13  S   UNK N   1      27.137  19.499   4.981  0.00  0.00     0.259 S 
HETATM   14  O   UNK N   1      27.245  19.644   3.456  0.00  0.00    -0.201 OA
HETATM   15  O   UNK N   1      27.236  20.969   5.426  0.00  0.00    -0.201 OA
BRANCH  13  16
HETATM   16  N   UNK N   1      25.456  18.986   5.268  0.00  0.00    -0.314 N 
HETATM   17  H   UNK N   1      25.006  18.946   6.182  0.00  0.00     0.172 HD
BRANCH  16  18
HETATM   18  C   UNK N   1      24.817  18.631   4.005  0.00  0.00     0.151 C 
BRANCH  18  19
HETATM   19  C   UNK N   1      23.816  19.700   3.593  0.00  0.00     0.131 C 
BRANCH  19  20
HETATM   20  N   UNK N   1      24.450  20.615   2.660  0.00  0.00    -0.429 N 
HETATM   21  H   UNK N   1      24.945  21.439   3.001  0.00  0.00     0.149 HD
HETATM   22  H   UNK N   1      24.399  20.433   1.658  0.00  0.00     0.149 HD
ENDBRANCH  19  20
ENDBRANCH  18  19
ENDBRANCH  16  18
ENDBRANCH  13  16
ENDBRANCH  10  13
TORSDOF 5
ENDMDL
MODEL 7
REMARK VINA RESULT:      -5.2      6.563      8.069
REMARK  5 active torsions:
REMARK  status: ('A' for Active; 'I' for Inactive)
REMARK    1  A    between atoms: C_10  and  S_13 
REMARK    2  A    between atoms: S_13  and  N_16 
REMARK    3  A    between atoms: N_16  and  C_17 
REMARK    4  A    between atoms: C_17  and  C_18 
REMARK    5  A    between atoms: C_18  and  N_19 
ROOT
HETATM    1  C   UNK N   1      24.014  17.162   5.066  0.00  0.00     0.101 A 
HETATM    2  N   UNK N   1      22.862  16.488   5.333  0.00  0.00    -0.374 N 
ATOM      3  HN  UNK N   1      22.904  15.625   5.876  1.00  0.00     0.164 HD
HETATM    4  C   UNK N   1      21.656  16.935   4.893  0.00  0.00     0.088 A 
HETATM    5  C   UNK N   1      21.573  18.111   4.146  0.00  0.00     0.031 A 
HETATM    6  C   UNK N   1      22.682  20.018   3.104  0.00  0.00     0.045 A 
HETATM    7 Cl   UNK N   1      21.157  20.674   2.524  0.00  0.00    -0.083 Cl
HETATM    8  C   UNK N   1      23.858  20.714   2.822  0.00  0.00     0.026 A 
HETATM    9  C   UNK N   1      25.085  20.243   3.286  0.00  0.00     0.028 A 
HETATM   10  C   UNK N   1      25.162  19.067   4.036  0.00  0.00     0.092 A 
HETATM   11  C   UNK N   1      23.984  18.344   4.317  0.00  0.00     0.015 A 
HETATM   12  C   UNK N   1      22.738  18.825   3.848  0.00  0.00     0.000 A 
ENDROOT
BRANCH  10  13
HETATM   13  S   UNK N   1      26.771  18.573   4.668  0.00  0.00     0.259 S 
HETATM   14  O   UNK N   1      27.843  19.601   4.277  0.00  0.00    -0.201 OA
HETATM   15  O   UNK N   1      27.286  17.318   3.942  0.00  0.00    -0.201 OA
BRANCH  13  16
HETATM   16  N   UNK N   1      27.021  18.301   6.410  0.00  0.00    -0.314 N 
HETATM   17  H   UNK N   1      26.584  17.557   6.953  0.00  0.00     0.172 HD
BRANCH  16  18
HETATM   18  C   UNK N   1      27.943  19.296   6.947  0.00  0.00     0.151 C 
BRANCH  18  19
HETATM   19  C   UNK N   1      28.648  18.760   8.184  0.00  0.00     0.131 C 
BRANCH  19  20
HETATM   20  N   UNK N   1      27.655  18.319   9.148  0.00  0.00    -0.429 N 
HETATM   21  H   UNK N   1      27.039  18.994   9.601  0.00  0.00     0.149 HD
HETATM   22  H   UNK N   1      27.573  17.328   9.373  0.00  0.00     0.149 HD
ENDBRANCH  19  20
ENDBRANCH  18  19
ENDBRANCH  16  18
ENDBRANCH  13  16
ENDBRANCH  10  13
TORSDOF 5
ENDMDL
MODEL 8
REMARK VINA RESULT:      -5.0     13.543     15.160
REMARK  5 active torsions:
REMARK  status: ('A' for Active; 'I' for Inactive)
REMARK    1  A    between atoms: C_10  and  S_13 
REMARK    2  A    between atoms: S_13  and  N_16 
REMARK    3  A    between atoms: N_16  and  C_17 
REMARK    4  A    between atoms: C_17  and  C_18 
REMARK    5  A    between atoms: C_18  and  N_19 
ROOT
HETATM    1  C   UNK N   1      28.984  23.093  -6.261  0.00  0.00     0.101 A 
HETATM    2  N   UNK N   1      29.728  22.512  -7.241  0.00  0.00    -0.374 N 
ATOM      3  HN  UNK N   1      29.413  22.577  -8.209  1.00  0.00     0.164 HD
HETATM    4  C   UNK N   1      30.880  21.847  -6.963  0.00  0.00     0.088 A 
HETATM    5  C   UNK N   1      31.330  21.741  -5.646  0.00  0.00     0.031 A 
HETATM    6  C   UNK N   1      31.021  22.238  -3.278  0.00  0.00     0.045 A 
HETATM    7 Cl   UNK N   1      32.515  21.417  -2.842  0.00  0.00    -0.083 Cl
HETATM    8  C   UNK N   1      30.264  22.826  -2.265  0.00  0.00     0.026 A 
HETATM    9  C   UNK N   1      29.088  23.510  -2.569  0.00  0.00     0.028 A 
HETATM   10  C   UNK N   1      28.643  23.614  -3.890  0.00  0.00     0.092 A 
HETATM   11  C   UNK N   1      29.390  23.012  -4.924  0.00  0.00     0.015 A 
HETATM   12  C   UNK N   1      30.587  22.321  -4.613  0.00  0.00     0.000 A 
ENDROOT
BRANCH  10  13
HETATM   13  S   UNK N   1      27.163  24.583  -4.208  0.00  0.00     0.259 S 
HETATM   14  O   UNK N   1      26.439  24.910  -2.893  0.00  0.00    -0.201 OA
HETATM   15  O   UNK N   1      26.098  23.739  -4.930  0.00  0.00    -0.201 OA
BRANCH  13  16
HETATM   16  N   UNK N   1      27.259  26.139  -5.069  0.00  0.00    -0.314 N 
HETATM   17  H   UNK N   1      28.119  26.555  -5.427  0.00  0.00     0.172 HD
BRANCH  16  18
HETATM   18  C   UNK N   1      25.931  26.730  -5.189  0.00  0.00     0.151 C 
BRANCH  18  19
HETATM   19  C   UNK N   1      25.872  28.065  -4.462  0.00  0.00     0.131 C 
BRANCH  19  20
HETATM   20  N   UNK N   1      25.706  27.829  -3.038  0.00  0.00    -0.429 N 
HETATM   21  H   UNK N   1      26.520  27.695  -2.439  0.00  0.00     0.149 HD
HETATM   22  H   UNK N   1      24.769  27.796  -2.636  0.00  0.00     0.149 HD
ENDBRANCH  19  20
ENDBRANCH  18  19
ENDBRANCH  16  18
ENDBRANCH  13  16
ENDBRANCH  10  13
TORSDOF 5
ENDMDL
MODEL 9
REMARK VINA RESULT:      -5.0     15.203     16.296
REMARK  5 active torsions:
REMARK  status: ('A' for Active; 'I' for Inactive)
REMARK    1  A    between atoms: C_10  and  S_13 
REMARK    2  A    between atoms: S_13  and  N_16 
REMARK    3  A    between atoms: N_16  and  C_17 
REMARK    4  A    between atoms: C_17  and  C_18 
REMARK    5  A    between atoms: C_18  and  N_19 
ROOT
HETATM    1  C   UNK N   1      28.271  26.469  -6.327  0.00  0.00     0.101 A 
HETATM    2  N   UNK N   1      28.776  27.227  -7.338  0.00  0.00    -0.374 N 
ATOM      3  HN  UNK N   1      29.287  26.770  -8.094  1.00  0.00     0.164 HD
HETATM    4  C   UNK N   1      28.617  28.576  -7.367  0.00  0.00     0.088 A 
HETATM    5  C   UNK N   1      27.924  29.224  -6.342  0.00  0.00     0.031 A 
HETATM    6  C   UNK N   1      26.687  29.102  -4.244  0.00  0.00     0.045 A 
HETATM    7 Cl   UNK N   1      26.417  30.840  -4.224  0.00  0.00    -0.083 Cl
HETATM    8  C   UNK N   1      26.168  28.335  -3.200  0.00  0.00     0.026 A 
HETATM    9  C   UNK N   1      26.335  26.951  -3.191  0.00  0.00     0.028 A 
HETATM   10  C   UNK N   1      27.028  26.308  -4.220  0.00  0.00     0.092 A 
HETATM   11  C   UNK N   1      27.571  27.071  -5.274  0.00  0.00     0.015 A 
HETATM   12  C   UNK N   1      27.397  28.476  -5.284  0.00  0.00     0.000 A 
ENDROOT
BRANCH  10  13
HETATM   13  S   UNK N   1      27.127  24.513  -4.177  0.00  0.00     0.259 S 
HETATM   14  O   UNK N   1      26.247  23.898  -5.275  0.00  0.00    -0.201 OA
HETATM   15  O   UNK N   1      26.454  23.956  -2.911  0.00  0.00    -0.201 OA
BRANCH  13  16
HETATM   16  N   UNK N   1      28.694  23.683  -4.336  0.00  0.00    -0.314 N 
HETATM   17  H   UNK N   1      28.860  22.854  -4.907  0.00  0.00     0.172 HD
BRANCH  16  18
HETATM   18  C   UNK N   1      29.706  24.360  -3.532  0.00  0.00     0.151 C 
BRANCH  18  19
HETATM   19  C   UNK N   1      30.624  23.348  -2.864  0.00  0.00     0.131 C 
BRANCH  19  20
HETATM   20  N   UNK N   1      30.074  22.015  -3.036  0.00  0.00    -0.429 N 
HETATM   21  H   UNK N   1      29.543  21.574  -2.286  0.00  0.00     0.149 HD
HETATM   22  H   UNK N   1      30.222  21.516  -3.914  0.00  0.00     0.149 HD
ENDBRANCH  19  20
ENDBRANCH  18  19
ENDBRANCH  16  18
ENDBRANCH  13  16
ENDBRANCH  10  13
TORSDOF 5
ENDMDL
