REMARK  5 active torsions:
REMARK  status: ('A' for Active; 'I' for Inactive)
REMARK    1  A    between atoms: C_10  and  S_13 
REMARK    2  A    between atoms: S_13  and  N_16 
REMARK    3  A    between atoms: N_16  and  C_17 
REMARK    4  A    between atoms: C_17  and  C_18 
REMARK    5  A    between atoms: C_18  and  N_19 
ROOT
HETATM    1  C   UNK N   1      -1.559  -1.251   0.047  0.00  0.00     0.101 A 
HETATM    2  N   UNK N   1      -2.672  -2.029  -0.049  0.00  0.00    -0.374 N 
ATOM      3  HN  UNK N   1      -2.573  -3.044  -0.026  1.00  0.00     0.164 HD
HETATM    4  C   UNK N   1      -3.912  -1.487  -0.175  0.00  0.00     0.088 A 
HETATM    5  C   UNK N   1      -4.073  -0.101  -0.212  0.00  0.00     0.031 A 
HETATM    6  C   UNK N   1      -3.084   2.128  -0.148  0.00  0.00     0.045 A 
HETATM    7 Cl   UNK N   1      -4.657   2.903  -0.282  0.00  0.00    -0.083 Cl
HETATM    8  C   UNK N   1      -1.949   2.934  -0.054  0.00  0.00     0.026 A 
HETATM    9  C   UNK N   1      -0.686   2.361   0.081  0.00  0.00     0.028 A 
HETATM   10  C   UNK N   1      -0.531   0.973   0.119  0.00  0.00     0.092 A 
HETATM   11  C   UNK N   1      -1.667   0.144   0.011  0.00  0.00     0.015 A 
HETATM   12  C   UNK N   1      -2.950   0.728  -0.122  0.00  0.00     0.000 A 
ENDROOT
BRANCH  10  13
HETATM   13  S   UNK N   1       1.122   0.315   0.380  0.00  0.00     0.259 S 
HETATM   14  O   UNK N   1       1.360   0.029   1.870  0.00  0.00    -0.201 OA
HETATM   15  O   UNK N   1       2.190   1.390   0.111  0.00  0.00    -0.201 OA
BRANCH  13  16
HETATM   16  N   UNK N   1       1.657  -1.164  -0.455  0.00  0.00    -0.314 N 
HETATM   17  H   UNK N   1       1.116  -2.026  -0.519  0.00  0.00     0.172 HD
BRANCH  16  18
HETATM   18  C   UNK N   1       2.981  -0.963  -1.034  0.00  0.00     0.151 C 
BRANCH  18  19
HETATM   19  C   UNK N   1       4.052  -1.029   0.044  0.00  0.00     0.131 C 
BRANCH  19  20
HETATM   20  N   UNK N   1       4.977   0.077  -0.131  0.00  0.00    -0.429 N 
HETATM   21  H   UNK N   1       5.974  -0.098  -0.253  0.00  0.00     0.149 HD
HETATM   22  H   UNK N   1       4.627   1.035  -0.131  0.00  0.00     0.149 HD
ENDBRANCH  19  20
ENDBRANCH  18  19
ENDBRANCH  16  18
ENDBRANCH  13  16
ENDBRANCH  10  13
TORSDOF 5
