MODEL 1
REMARK VINA RESULT:      -7.9      0.000      0.000
REMARK  3 active torsions:
REMARK  status: ('A' for Active; 'I' for Inactive)
REMARK    1  A    between atoms: C_8  and  C_14 
REMARK    2  A    between atoms: C_9  and  C_15 
REMARK    3  A    between atoms: C_17  and  N_26 
REMARK       I    between atoms: N_26  and  C_28 
ROOT
HETATM    1  N   UNK N   1      29.896  17.692   6.116  0.00  0.00    -0.290 N 
ATOM      2  HN  UNK N   1      29.586  17.743   5.146  1.00  0.00     0.187 HD
HETATM    3  N   UNK N   1      29.124  18.158   7.088  0.00  0.00    -0.220 N 
HETATM    4  C   UNK N   1      29.442  18.129   8.374  0.00  0.00     0.143 A 
HETATM    5  C   UNK N   1      30.658  17.594   8.787  0.00  0.00     0.054 A 
HETATM    6  C   UNK N   1      31.510  17.092   7.779  0.00  0.00     0.036 A 
HETATM    7  C   UNK N   1      31.104  17.146   6.419  0.00  0.00     0.059 A 
HETATM    8  C   UNK N   1      27.917  18.732   7.025  0.00  0.00     0.154 A 
HETATM    9  N   UNK N   1      27.496  19.046   8.274  0.00  0.00    -0.282 N 
ATOM     10  HN  UNK N   1      26.610  19.488   8.521  1.00  0.00     0.188 HD
HETATM   11  N   UNK N   1      28.458  18.667   9.123  0.00  0.00    -0.282 N 
ATOM     12  HN  UNK N   1      28.449  18.766  10.137  1.00  0.00     0.188 HD
ENDROOT
BRANCH   8  13
HETATM   13  C   UNK N   1      27.182  18.978   5.767  0.00  0.00     0.013 A 
HETATM   14  C   UNK N   1      26.315  17.992   5.292  0.00  0.00     0.045 A 
HETATM   15  C   UNK N   1      25.563  18.153   4.125  0.00  0.00     0.037 A 
HETATM   16  C   UNK N   1      25.712  19.358   3.413  0.00  0.00     0.030 A 
HETATM   17  C   UNK N   1      26.592  20.353   3.865  0.00  0.00     0.003 A 
HETATM   18  C   UNK N   1      27.327  20.165   5.043  0.00  0.00     0.015 A 
BRANCH  15  19
HETATM   19  N   UNK N   1      24.693  17.083   3.696  0.00  0.00    -0.323 N 
HETATM   20  C   UNK N   1      23.289  17.173   4.044  0.00  0.00     0.159 C 
HETATM   21  C   UNK N   1      25.100  15.993   2.967  0.00  0.00     0.220 C 
HETATM   22  O   UNK N   1      24.286  15.135   2.655  0.00  0.00    -0.274 OA
HETATM   23  C   UNK N   1      26.505  15.814   2.490  0.00  0.00     0.117 C 
ENDBRANCH  15  19
ENDBRANCH   8  13
BRANCH   7  24
HETATM   24  C   UNK N   1      31.943  16.631   5.317  0.00  0.00    -0.008 A 
HETATM   25  C   UNK N   1      32.732  15.483   5.467  0.00  0.00     0.014 A 
HETATM   26  C   UNK N   1      33.519  15.028   4.401  0.00  0.00     0.001 A 
HETATM   27  C   UNK N   1      33.519  15.714   3.183  0.00  0.00     0.000 A 
HETATM   28  C   UNK N   1      32.734  16.857   3.027  0.00  0.00     0.001 A 
HETATM   29  C   UNK N   1      31.952  17.312   4.089  0.00  0.00     0.014 A 
ENDBRANCH   7  24
TORSDOF 3
ENDMDL
MODEL 2
REMARK VINA RESULT:      -7.6      3.125      5.714
REMARK  3 active torsions:
REMARK  status: ('A' for Active; 'I' for Inactive)
REMARK    1  A    between atoms: C_8  and  C_14 
REMARK    2  A    between atoms: C_9  and  C_15 
REMARK    3  A    between atoms: C_17  and  N_26 
REMARK       I    between atoms: N_26  and  C_28 
ROOT
HETATM    1  N   UNK N   1      26.193  18.342   5.826  0.00  0.00    -0.290 N 
ATOM      2  HN  UNK N   1      25.989  17.536   6.417  1.00  0.00     0.187 HD
HETATM    3  N   UNK N   1      25.290  18.777   4.958  0.00  0.00    -0.220 N 
HETATM    4  C   UNK N   1      25.464  19.818   4.156  0.00  0.00     0.143 A 
HETATM    5  C   UNK N   1      26.659  20.531   4.177  0.00  0.00     0.054 A 
HETATM    6  C   UNK N   1      27.647  20.093   5.086  0.00  0.00     0.036 A 
HETATM    7  C   UNK N   1      27.392  18.976   5.925  0.00  0.00     0.059 A 
HETATM    8  C   UNK N   1      24.063  18.314   4.690  0.00  0.00     0.154 A 
HETATM    9  N   UNK N   1      23.487  19.078   3.730  0.00  0.00    -0.282 N 
ATOM     10  HN  UNK N   1      22.554  18.954   3.338  1.00  0.00     0.188 HD
HETATM   11  N   UNK N   1      24.372  20.023   3.393  0.00  0.00    -0.282 N 
ATOM     12  HN  UNK N   1      24.245  20.756   2.696  1.00  0.00     0.188 HD
ENDROOT
BRANCH   8  13
HETATM   13  C   UNK N   1      23.458  17.142   5.355  0.00  0.00     0.013 A 
HETATM   14  C   UNK N   1      22.087  17.155   5.623  0.00  0.00     0.045 A 
HETATM   15  C   UNK N   1      21.430  16.078   6.226  0.00  0.00     0.037 A 
HETATM   16  C   UNK N   1      22.202  14.956   6.576  0.00  0.00     0.030 A 
HETATM   17  C   UNK N   1      23.583  14.931   6.331  0.00  0.00     0.003 A 
HETATM   18  C   UNK N   1      24.212  16.024   5.719  0.00  0.00     0.015 A 
BRANCH  15  19
HETATM   19  N   UNK N   1      20.011  16.172   6.475  0.00  0.00    -0.323 N 
HETATM   20  C   UNK N   1      19.582  16.684   7.762  0.00  0.00     0.159 C 
HETATM   21  C   UNK N   1      19.037  15.826   5.571  0.00  0.00     0.220 C 
HETATM   22  O   UNK N   1      17.858  15.937   5.878  0.00  0.00    -0.274 OA
HETATM   23  C   UNK N   1      19.345  15.348   4.189  0.00  0.00     0.117 C 
ENDBRANCH  15  19
ENDBRANCH   8  13
BRANCH   7  24
HETATM   24  C   UNK N   1      28.379  18.472   6.902  0.00  0.00    -0.008 A 
HETATM   25  C   UNK N   1      29.410  17.601   6.525  0.00  0.00     0.014 A 
HETATM   26  C   UNK N   1      30.324  17.140   7.480  0.00  0.00     0.001 A 
HETATM   27  C   UNK N   1      30.215  17.547   8.813  0.00  0.00     0.000 A 
HETATM   28  C   UNK N   1      29.193  18.417   9.195  0.00  0.00     0.001 A 
HETATM   29  C   UNK N   1      28.281  18.875   8.243  0.00  0.00     0.014 A 
ENDBRANCH   7  24
TORSDOF 3
ENDMDL
MODEL 3
REMARK VINA RESULT:      -7.4      2.392      5.890
REMARK  3 active torsions:
REMARK  status: ('A' for Active; 'I' for Inactive)
REMARK    1  A    between atoms: C_8  and  C_14 
REMARK    2  A    between atoms: C_9  and  C_15 
REMARK    3  A    between atoms: C_17  and  N_26 
REMARK       I    between atoms: N_26  and  C_28 
ROOT
HETATM    1  N   UNK N   1      29.655  17.840   6.776  0.00  0.00    -0.290 N 
ATOM      2  HN  UNK N   1      29.786  17.818   5.765  1.00  0.00     0.187 HD
HETATM    3  N   UNK N   1      30.444  17.124   7.566  0.00  0.00    -0.220 N 
HETATM    4  C   UNK N   1      30.350  17.095   8.888  0.00  0.00     0.143 A 
HETATM    5  C   UNK N   1      29.371  17.838   9.541  0.00  0.00     0.054 A 
HETATM    6  C   UNK N   1      28.508  18.608   8.731  0.00  0.00     0.036 A 
HETATM    7  C   UNK N   1      28.668  18.602   7.321  0.00  0.00     0.059 A 
HETATM    8  C   UNK N   1      31.461  16.312   7.256  0.00  0.00     0.154 A 
HETATM    9  N   UNK N   1      31.992  15.794   8.390  0.00  0.00    -0.282 N 
ATOM     10  HN  UNK N   1      32.780  15.149   8.449  1.00  0.00     0.188 HD
HETATM   11  N   UNK N   1      31.290  16.287   9.417  0.00  0.00    -0.282 N 
ATOM     12  HN  UNK N   1      31.438  16.090  10.406  1.00  0.00     0.188 HD
ENDROOT
BRANCH   8  13
HETATM   13  C   UNK N   1      31.909  16.037   5.875  0.00  0.00     0.013 A 
HETATM   14  C   UNK N   1      31.263  15.036   5.146  0.00  0.00     0.045 A 
HETATM   15  C   UNK N   1      31.607  14.729   3.827  0.00  0.00     0.037 A 
HETATM   16  C   UNK N   1      32.654  15.461   3.237  0.00  0.00     0.030 A 
HETATM   17  C   UNK N   1      33.327  16.457   3.960  0.00  0.00     0.003 A 
HETATM   18  C   UNK N   1      32.954  16.747   5.279  0.00  0.00     0.015 A 
BRANCH  15  19
HETATM   19  N   UNK N   1      30.895  13.676   3.142  0.00  0.00    -0.323 N 
HETATM   20  C   UNK N   1      31.454  12.339   3.190  0.00  0.00     0.159 C 
HETATM   21  C   UNK N   1      29.714  13.848   2.462  0.00  0.00     0.220 C 
HETATM   22  O   UNK N   1      29.188  12.892   1.909  0.00  0.00    -0.274 OA
HETATM   23  C   UNK N   1      29.002  15.160   2.393  0.00  0.00     0.117 C 
ENDBRANCH  15  19
ENDBRANCH   8  13
BRANCH   7  24
HETATM   24  C   UNK N   1      27.805  19.390   6.418  0.00  0.00    -0.008 A 
HETATM   25  C   UNK N   1      27.103  20.517   6.868  0.00  0.00     0.014 A 
HETATM   26  C   UNK N   1      26.291  21.237   5.984  0.00  0.00     0.001 A 
HETATM   27  C   UNK N   1      26.177  20.839   4.648  0.00  0.00     0.000 A 
HETATM   28  C   UNK N   1      26.875  19.720   4.193  0.00  0.00     0.001 A 
HETATM   29  C   UNK N   1      27.684  19.001   5.074  0.00  0.00     0.014 A 
ENDBRANCH   7  24
TORSDOF 3
ENDMDL
MODEL 4
REMARK VINA RESULT:      -7.4     10.895     14.192
REMARK  3 active torsions:
REMARK  status: ('A' for Active; 'I' for Inactive)
REMARK    1  A    between atoms: C_8  and  C_14 
REMARK    2  A    between atoms: C_9  and  C_15 
REMARK    3  A    between atoms: C_17  and  N_26 
REMARK       I    between atoms: N_26  and  C_28 
ROOT
HETATM    1  N   UNK N   1      27.194  26.382  -4.242  0.00  0.00    -0.290 N 
ATOM      2  HN  UNK N   1      27.988  26.309  -3.606  1.00  0.00     0.187 HD
HETATM    3  N   UNK N   1      26.783  25.318  -4.917  0.00  0.00    -0.220 N 
HETATM    4  C   UNK N   1      25.758  25.317  -5.759  0.00  0.00     0.143 A 
HETATM    5  C   UNK N   1      25.039  26.485  -5.994  0.00  0.00     0.054 A 
HETATM    6  C   UNK N   1      25.453  27.641  -5.296  0.00  0.00     0.036 A 
HETATM    7  C   UNK N   1      26.552  27.571  -4.401  0.00  0.00     0.059 A 
HETATM    8  C   UNK N   1      27.257  24.067  -4.922  0.00  0.00     0.154 A 
HETATM    9  N   UNK N   1      26.517  23.302  -5.761  0.00  0.00    -0.282 N 
ATOM     10  HN  UNK N   1      26.653  22.309  -5.953  1.00  0.00     0.188 HD
HETATM   11  N   UNK N   1      25.575  24.091  -6.289  0.00  0.00    -0.282 N 
ATOM     12  HN  UNK N   1      24.857  23.819  -6.960  1.00  0.00     0.188 HD
ENDROOT
BRANCH   8  13
HETATM   13  C   UNK N   1      28.418  23.619  -4.126  0.00  0.00     0.013 A 
HETATM   14  C   UNK N   1      29.619  23.345  -4.784  0.00  0.00     0.045 A 
HETATM   15  C   UNK N   1      30.772  22.942  -4.105  0.00  0.00     0.037 A 
HETATM   16  C   UNK N   1      30.691  22.802  -2.708  0.00  0.00     0.030 A 
HETATM   17  C   UNK N   1      29.489  23.054  -2.030  0.00  0.00     0.003 A 
HETATM   18  C   UNK N   1      28.351  23.465  -2.739  0.00  0.00     0.015 A 
BRANCH  15  19
HETATM   19  N   UNK N   1      31.973  22.672  -4.859  0.00  0.00    -0.323 N 
HETATM   20  C   UNK N   1      32.907  23.763  -5.058  0.00  0.00     0.159 C 
HETATM   21  C   UNK N   1      32.302  21.448  -5.389  0.00  0.00     0.220 C 
HETATM   22  O   UNK N   1      33.343  21.320  -6.018  0.00  0.00    -0.274 OA
HETATM   23  C   UNK N   1      31.459  20.229  -5.200  0.00  0.00     0.117 C 
ENDBRANCH  15  19
ENDBRANCH   8  13
BRANCH   7  24
HETATM   24  C   UNK N   1      27.030  28.739  -3.633  0.00  0.00    -0.008 A 
HETATM   25  C   UNK N   1      28.191  28.681  -2.850  0.00  0.00     0.014 A 
HETATM   26  C   UNK N   1      28.610  29.807  -2.132  0.00  0.00     0.001 A 
HETATM   27  C   UNK N   1      27.878  30.996  -2.196  0.00  0.00     0.000 A 
HETATM   28  C   UNK N   1      26.723  31.062  -2.977  0.00  0.00     0.001 A 
HETATM   29  C   UNK N   1      26.303  29.939  -3.690  0.00  0.00     0.014 A 
ENDBRANCH   7  24
TORSDOF 3
ENDMDL
MODEL 5
REMARK VINA RESULT:      -7.3      2.973      5.465
REMARK  3 active torsions:
REMARK  status: ('A' for Active; 'I' for Inactive)
REMARK    1  A    between atoms: C_8  and  C_14 
REMARK    2  A    between atoms: C_9  and  C_15 
REMARK    3  A    between atoms: C_17  and  N_26 
REMARK       I    between atoms: N_26  and  C_28 
ROOT
HETATM    1  N   UNK N   1      25.925  18.573   5.569  0.00  0.00    -0.290 N 
ATOM      2  HN  UNK N   1      25.679  17.836   6.229  1.00  0.00     0.187 HD
HETATM    3  N   UNK N   1      25.026  19.020   4.703  0.00  0.00    -0.220 N 
HETATM    4  C   UNK N   1      25.255  19.977   3.814  0.00  0.00     0.143 A 
HETATM    5  C   UNK N   1      26.507  20.579   3.734  0.00  0.00     0.054 A 
HETATM    6  C   UNK N   1      27.493  20.123   4.638  0.00  0.00     0.036 A 
HETATM    7  C   UNK N   1      27.179  19.101   5.571  0.00  0.00     0.059 A 
HETATM    8  C   UNK N   1      23.753  18.651   4.520  0.00  0.00     0.154 A 
HETATM    9  N   UNK N   1      23.204  19.388   3.524  0.00  0.00    -0.282 N 
ATOM     10  HN  UNK N   1      22.247  19.320   3.178  1.00  0.00     0.188 HD
HETATM   11  N   UNK N   1      24.152  20.221   3.080  0.00  0.00    -0.282 N 
ATOM     12  HN  UNK N   1      24.058  20.908   2.331  1.00  0.00     0.188 HD
ENDROOT
BRANCH   8  13
HETATM   13  C   UNK N   1      23.078  17.592   5.297  0.00  0.00     0.013 A 
HETATM   14  C   UNK N   1      23.565  16.284   5.215  0.00  0.00     0.045 A 
HETATM   15  C   UNK N   1      23.001  15.229   5.937  0.00  0.00     0.037 A 
HETATM   16  C   UNK N   1      21.897  15.515   6.760  0.00  0.00     0.030 A 
HETATM   17  C   UNK N   1      21.383  16.818   6.841  0.00  0.00     0.003 A 
HETATM   18  C   UNK N   1      21.974  17.858   6.111  0.00  0.00     0.015 A 
BRANCH  15  19
HETATM   19  N   UNK N   1      23.559  13.904   5.793  0.00  0.00    -0.323 N 
HETATM   20  C   UNK N   1      23.029  13.057   4.743  0.00  0.00     0.159 C 
HETATM   21  C   UNK N   1      24.569  13.396   6.572  0.00  0.00     0.220 C 
HETATM   22  O   UNK N   1      24.971  12.257   6.375  0.00  0.00    -0.274 OA
HETATM   23  C   UNK N   1      25.245  14.188   7.644  0.00  0.00     0.117 C 
ENDBRANCH  15  19
ENDBRANCH   8  13
BRANCH   7  24
HETATM   24  C   UNK N   1      28.160  18.586   6.548  0.00  0.00    -0.008 A 
HETATM   25  C   UNK N   1      28.155  19.002   7.887  0.00  0.00     0.014 A 
HETATM   26  C   UNK N   1      29.104  18.495   8.782  0.00  0.00     0.001 A 
HETATM   27  C   UNK N   1      30.059  17.571   8.349  0.00  0.00     0.000 A 
HETATM   28  C   UNK N   1      30.068  17.150   7.018  0.00  0.00     0.001 A 
HETATM   29  C   UNK N   1      29.124  17.656   6.125  0.00  0.00     0.014 A 
ENDBRANCH   7  24
TORSDOF 3
ENDMDL
MODEL 6
REMARK VINA RESULT:      -7.3      5.243      8.196
REMARK  3 active torsions:
REMARK  status: ('A' for Active; 'I' for Inactive)
REMARK    1  A    between atoms: C_8  and  C_14 
REMARK    2  A    between atoms: C_9  and  C_15 
REMARK    3  A    between atoms: C_17  and  N_26 
REMARK       I    between atoms: N_26  and  C_28 
ROOT
HETATM    1  N   UNK N   1      22.391  18.529   3.296  0.00  0.00    -0.290 N 
ATOM      2  HN  UNK N   1      22.905  17.683   3.545  1.00  0.00     0.187 HD
HETATM    3  N   UNK N   1      21.104  18.459   2.986  0.00  0.00    -0.220 N 
HETATM    4  C   UNK N   1      20.357  19.504   2.656  0.00  0.00     0.143 A 
HETATM    5  C   UNK N   1      20.912  20.779   2.607  0.00  0.00     0.054 A 
HETATM    6  C   UNK N   1      22.284  20.891   2.926  0.00  0.00     0.036 A 
HETATM    7  C   UNK N   1      23.024  19.733   3.281  0.00  0.00     0.059 A 
HETATM    8  C   UNK N   1      20.290  17.399   2.931  0.00  0.00     0.154 A 
HETATM    9  N   UNK N   1      19.045  17.799   2.576  0.00  0.00    -0.282 N 
ATOM     10  HN  UNK N   1      18.227  17.200   2.463  1.00  0.00     0.188 HD
HETATM   11  N   UNK N   1      19.089  19.124   2.401  0.00  0.00    -0.282 N 
ATOM     12  HN  UNK N   1      18.316  19.730   2.129  1.00  0.00     0.188 HD
ENDROOT
BRANCH   8  13
HETATM   13  C   UNK N   1      20.716  16.014   3.216  0.00  0.00     0.013 A 
HETATM   14  C   UNK N   1      21.116  15.202   2.151  0.00  0.00     0.045 A 
HETATM   15  C   UNK N   1      21.557  13.888   2.335  0.00  0.00     0.037 A 
HETATM   16  C   UNK N   1      21.577  13.383   3.648  0.00  0.00     0.030 A 
HETATM   17  C   UNK N   1      21.161  14.177   4.727  0.00  0.00     0.003 A 
HETATM   18  C   UNK N   1      20.732  15.494   4.512  0.00  0.00     0.015 A 
BRANCH  15  19
HETATM   19  N   UNK N   1      21.948  13.112   1.182  0.00  0.00    -0.323 N 
HETATM   20  C   UNK N   1      21.014  12.123   0.683  0.00  0.00     0.159 C 
HETATM   21  C   UNK N   1      23.140  13.257   0.513  0.00  0.00     0.220 C 
HETATM   22  O   UNK N   1      23.382  12.546  -0.453  0.00  0.00    -0.274 OA
HETATM   23  C   UNK N   1      24.160  14.283   0.886  0.00  0.00     0.117 C 
ENDBRANCH  15  19
ENDBRANCH   8  13
BRANCH   7  24
HETATM   24  C   UNK N   1      24.458  19.782   3.633  0.00  0.00    -0.008 A 
HETATM   25  C   UNK N   1      24.967  19.095   4.744  0.00  0.00     0.014 A 
HETATM   26  C   UNK N   1      26.331  19.169   5.050  0.00  0.00     0.001 A 
HETATM   27  C   UNK N   1      27.193  19.924   4.249  0.00  0.00     0.000 A 
HETATM   28  C   UNK N   1      26.694  20.608   3.140  0.00  0.00     0.001 A 
HETATM   29  C   UNK N   1      25.334  20.536   2.836  0.00  0.00     0.014 A 
ENDBRANCH   7  24
TORSDOF 3
ENDMDL
MODEL 7
REMARK VINA RESULT:      -7.2      8.256     11.346
REMARK  3 active torsions:
REMARK  status: ('A' for Active; 'I' for Inactive)
REMARK    1  A    between atoms: C_8  and  C_14 
REMARK    2  A    between atoms: C_9  and  C_15 
REMARK    3  A    between atoms: C_17  and  N_26 
REMARK       I    between atoms: N_26  and  C_28 
ROOT
HETATM    1  N   UNK N   1      36.537  13.515  13.244  0.00  0.00    -0.290 N 
ATOM      2  HN  UNK N   1      36.075  14.423  13.192  1.00  0.00     0.187 HD
HETATM    3  N   UNK N   1      36.816  12.845  12.134  0.00  0.00    -0.220 N 
HETATM    4  C   UNK N   1      37.418  11.664  12.105  0.00  0.00     0.143 A 
HETATM    5  C   UNK N   1      37.795  11.036  13.289  0.00  0.00     0.054 A 
HETATM    6  C   UNK N   1      37.509  11.718  14.492  0.00  0.00     0.036 A 
HETATM    7  C   UNK N   1      36.870  12.985  14.452  0.00  0.00     0.059 A 
HETATM    8  C   UNK N   1      36.581  13.164  10.856  0.00  0.00     0.154 A 
HETATM    9  N   UNK N   1      37.048  12.182  10.048  0.00  0.00    -0.282 N 
ATOM     10  HN  UNK N   1      37.006  12.166   9.029  1.00  0.00     0.188 HD
HETATM   11  N   UNK N   1      37.573  11.237  10.836  0.00  0.00    -0.282 N 
ATOM     12  HN  UNK N   1      38.006  10.364  10.536  1.00  0.00     0.188 HD
ENDROOT
BRANCH   8  13
HETATM   13  C   UNK N   1      35.908  14.406  10.424  0.00  0.00     0.013 A 
HETATM   14  C   UNK N   1      35.011  14.347   9.354  0.00  0.00     0.045 A 
HETATM   15  C   UNK N   1      34.313  15.468   8.898  0.00  0.00     0.037 A 
HETATM   16  C   UNK N   1      34.549  16.693   9.548  0.00  0.00     0.030 A 
HETATM   17  C   UNK N   1      35.460  16.777  10.611  0.00  0.00     0.003 A 
HETATM   18  C   UNK N   1      36.139  15.633  11.052  0.00  0.00     0.015 A 
BRANCH  15  19
HETATM   19  N   UNK N   1      33.408  15.325   7.782  0.00  0.00    -0.323 N 
HETATM   20  C   UNK N   1      31.988  15.258   8.067  0.00  0.00     0.159 C 
HETATM   21  C   UNK N   1      33.796  15.266   6.466  0.00  0.00     0.220 C 
HETATM   22  O   UNK N   1      32.952  15.138   5.590  0.00  0.00    -0.274 OA
HETATM   23  C   UNK N   1      35.221  15.389   6.035  0.00  0.00     0.117 C 
ENDBRANCH  15  19
ENDBRANCH   8  13
BRANCH   7  24
HETATM   24  C   UNK N   1      36.549  13.754  15.672  0.00  0.00    -0.008 A 
HETATM   25  C   UNK N   1      37.167  14.981  15.953  0.00  0.00     0.014 A 
HETATM   26  C   UNK N   1      36.842  15.679  17.122  0.00  0.00     0.001 A 
HETATM   27  C   UNK N   1      35.898  15.159  18.013  0.00  0.00     0.000 A 
HETATM   28  C   UNK N   1      35.277  13.941  17.739  0.00  0.00     0.001 A 
HETATM   29  C   UNK N   1      35.602  13.243  16.574  0.00  0.00     0.014 A 
ENDBRANCH   7  24
TORSDOF 3
ENDMDL
MODEL 8
REMARK VINA RESULT:      -7.2      5.704      9.830
REMARK  3 active torsions:
REMARK  status: ('A' for Active; 'I' for Inactive)
REMARK    1  A    between atoms: C_8  and  C_14 
REMARK    2  A    between atoms: C_9  and  C_15 
REMARK    3  A    between atoms: C_17  and  N_26 
REMARK       I    between atoms: N_26  and  C_28 
ROOT
HETATM    1  N   UNK N   1      32.662  16.470   7.564  0.00  0.00    -0.290 N 
ATOM      2  HN  UNK N   1      32.632  16.533   8.582  1.00  0.00     0.187 HD
HETATM    3  N   UNK N   1      33.728  15.961   6.961  0.00  0.00    -0.220 N 
HETATM    4  C   UNK N   1      33.853  15.834   5.647  0.00  0.00     0.143 A 
HETATM    5  C   UNK N   1      32.834  16.256   4.798  0.00  0.00     0.054 A 
HETATM    6  C   UNK N   1      31.685  16.809   5.406  0.00  0.00     0.036 A 
HETATM    7  C   UNK N   1      31.611  16.908   6.821  0.00  0.00     0.059 A 
HETATM    8  C   UNK N   1      34.862  15.479   7.482  0.00  0.00     0.154 A 
HETATM    9  N   UNK N   1      35.675  15.052   6.486  0.00  0.00    -0.282 N 
ATOM     10  HN  UNK N   1      36.600  14.636   6.597  1.00  0.00     0.188 HD
HETATM   11  N   UNK N   1      35.039  15.278   5.331  0.00  0.00    -0.282 N 
ATOM     12  HN  UNK N   1      35.384  15.070   4.394  1.00  0.00     0.188 HD
ENDROOT
BRANCH   8  13
HETATM   13  C   UNK N   1      35.156  15.439   8.929  0.00  0.00     0.013 A 
HETATM   14  C   UNK N   1      35.536  14.223   9.503  0.00  0.00     0.045 A 
HETATM   15  C   UNK N   1      35.856  14.102  10.858  0.00  0.00     0.037 A 
HETATM   16  C   UNK N   1      35.773  15.257  11.655  0.00  0.00     0.030 A 
HETATM   17  C   UNK N   1      35.375  16.483  11.101  0.00  0.00     0.003 A 
HETATM   18  C   UNK N   1      35.068  16.575   9.736  0.00  0.00     0.015 A 
BRANCH  15  19
HETATM   19  N   UNK N   1      36.235  12.808  11.377  0.00  0.00    -0.323 N 
HETATM   20  C   UNK N   1      35.208  12.008  12.015  0.00  0.00     0.159 C 
HETATM   21  C   UNK N   1      37.498  12.274  11.292  0.00  0.00     0.220 C 
HETATM   22  O   UNK N   1      37.721  11.169  11.767  0.00  0.00    -0.274 OA
HETATM   23  C   UNK N   1      38.627  12.968  10.603  0.00  0.00     0.117 C 
ENDBRANCH  15  19
ENDBRANCH   8  13
BRANCH   7  24
HETATM   24  C   UNK N   1      30.436  17.468   7.520  0.00  0.00    -0.008 A 
HETATM   25  C   UNK N   1      29.173  17.517   6.914  0.00  0.00     0.014 A 
HETATM   26  C   UNK N   1      28.084  18.060   7.605  0.00  0.00     0.001 A 
HETATM   27  C   UNK N   1      28.248  18.553   8.903  0.00  0.00     0.000 A 
HETATM   28  C   UNK N   1      29.502  18.504   9.514  0.00  0.00     0.001 A 
HETATM   29  C   UNK N   1      30.589  17.964   8.824  0.00  0.00     0.014 A 
ENDBRANCH   7  24
TORSDOF 3
ENDMDL
MODEL 9
REMARK VINA RESULT:      -7.1     10.944     14.195
REMARK  3 active torsions:
REMARK  status: ('A' for Active; 'I' for Inactive)
REMARK    1  A    between atoms: C_8  and  C_14 
REMARK    2  A    between atoms: C_9  and  C_15 
REMARK    3  A    between atoms: C_17  and  N_26 
REMARK       I    between atoms: N_26  and  C_28 
ROOT
HETATM    1  N   UNK N   1      27.922  23.449  -5.772  0.00  0.00    -0.290 N 
ATOM      2  HN  UNK N   1      28.433  23.741  -4.939  1.00  0.00     0.187 HD
HETATM    3  N   UNK N   1      28.321  22.386  -6.458  0.00  0.00    -0.220 N 
HETATM    4  C   UNK N   1      27.717  21.930  -7.547  0.00  0.00     0.143 A 
HETATM    5  C   UNK N   1      26.593  22.577  -8.052  0.00  0.00     0.054 A 
HETATM    6  C   UNK N   1      26.143  23.717  -7.349  0.00  0.00     0.036 A 
HETATM    7  C   UNK N   1      26.830  24.147  -6.184  0.00  0.00     0.059 A 
HETATM    8  C   UNK N   1      29.354  21.563  -6.244  0.00  0.00     0.154 A 
HETATM    9  N   UNK N   1      29.374  20.601  -7.198  0.00  0.00    -0.282 N 
ATOM     10  HN  UNK N   1      30.050  19.840  -7.275  1.00  0.00     0.188 HD
HETATM   11  N   UNK N   1      28.344  20.835  -8.019  0.00  0.00    -0.282 N 
ATOM     12  HN  UNK N   1      28.083  20.290  -8.840  1.00  0.00     0.188 HD
ENDROOT
BRANCH   8  13
HETATM   13  C   UNK N   1      30.312  21.711  -5.130  0.00  0.00     0.013 A 
HETATM   14  C   UNK N   1      31.674  21.534  -5.388  0.00  0.00     0.045 A 
HETATM   15  C   UNK N   1      32.649  21.679  -4.398  0.00  0.00     0.037 A 
HETATM   16  C   UNK N   1      32.219  22.005  -3.099  0.00  0.00     0.030 A 
HETATM   17  C   UNK N   1      30.854  22.169  -2.817  0.00  0.00     0.003 A 
HETATM   18  C   UNK N   1      29.900  22.023  -3.832  0.00  0.00     0.015 A 
BRANCH  15  19
HETATM   19  N   UNK N   1      34.036  21.474  -4.743  0.00  0.00    -0.323 N 
HETATM   20  C   UNK N   1      34.789  22.612  -5.232  0.00  0.00     0.159 C 
HETATM   21  C   UNK N   1      34.699  20.276  -4.625  0.00  0.00     0.220 C 
HETATM   22  O   UNK N   1      35.876  20.201  -4.949  0.00  0.00    -0.274 OA
HETATM   23  C   UNK N   1      34.057  19.045  -4.075  0.00  0.00     0.117 C 
ENDBRANCH  15  19
ENDBRANCH   8  13
BRANCH   7  24
HETATM   24  C   UNK N   1      26.408  25.325  -5.399  0.00  0.00    -0.008 A 
HETATM   25  C   UNK N   1      26.850  25.532  -4.086  0.00  0.00     0.014 A 
HETATM   26  C   UNK N   1      26.424  26.658  -3.371  0.00  0.00     0.001 A 
HETATM   27  C   UNK N   1      25.559  27.582  -3.963  0.00  0.00     0.000 A 
HETATM   28  C   UNK N   1      25.117  27.384  -5.272  0.00  0.00     0.001 A 
HETATM   29  C   UNK N   1      25.540  26.261  -5.984  0.00  0.00     0.014 A 
ENDBRANCH   7  24
TORSDOF 3
ENDMDL
