REMARK  6 active torsions:
REMARK  status: ('A' for Active; 'I' for Inactive)
REMARK    1  A    between atoms: O_1  and  C_2 
REMARK    2  A    between atoms: C_2  and  C_4 
REMARK    3  A    between atoms: C_4  and  C_5 
REMARK    4  A    between atoms: C_5  and  C_6 
REMARK    5  A    between atoms: C_8  and  C_9 
REMARK    6  A    between atoms: C_9  and  O_10 
ROOT
HETATM    1  C   UNK N   1      -0.281   0.021   0.278  0.00  0.00    -0.010 A 
HETATM    2  C   UNK N   1       1.052   0.388   0.254  0.00  0.00     0.021 A 
HETATM    3  C   UNK N   1      -1.003   1.194   0.059  0.00  0.00     0.114 A 
HETATM    4  N   UNK N   1      -0.166   2.246  -0.088  0.00  0.00    -0.350 N 
HETATM    5  C   UNK N   1       1.078   1.745   0.040  0.00  0.00     0.047 A 
HETATM    6  C   UNK N   1       2.265   2.468  -0.002  0.00  0.00     0.054 A 
HETATM    7  C   UNK N   1       3.469   1.766   0.178  0.00  0.00     0.037 A 
HETATM    8 Cl   UNK N   1       4.989   2.633   0.177  0.00  0.00    -0.084 Cl
HETATM    9  C   UNK N   1       3.457   0.370   0.380  0.00  0.00     0.048 A 
HETATM   10  C   UNK N   1       2.242  -0.338   0.419  0.00  0.00     0.048 A 
HETATM   11 Cl   UNK N   1       2.264  -2.074   0.671  0.00  0.00    -0.083 Cl
HETATM   12  H   UNK N   1      -0.414   3.184  -0.254  0.00  0.00     0.166 HD
ENDROOT
BRANCH   1  13
HETATM   13  C   UNK N   1      -0.870  -1.323   0.555  0.00  0.00     0.052 C 
BRANCH  13  14
HETATM   14  C   UNK N   1      -0.813  -2.251  -0.640  0.00  0.00     0.115 C 
BRANCH  14  15
HETATM   15  C   UNK N   1      -1.965  -3.195  -0.544  0.00  0.00     0.139 C 
HETATM   16  O   UNK N   1      -1.768  -4.382  -0.352  0.00  0.00    -0.650 OA
BRANCH  15  17
HETATM   17  O   UNK N   1      -3.226  -2.732  -0.650  0.00  0.00    -0.776 OA
HETATM   18  H   UNK N   1      -3.386  -1.812  -0.723  0.00  0.00     0.167 HD
ENDBRANCH  15  17
ENDBRANCH  14  15
ENDBRANCH  13  14
ENDBRANCH   1  13
BRANCH   3  19
HETATM   19  C   UNK N   1      -2.472   1.323   0.000  0.00  0.00     0.194 C 
HETATM   20  O   UNK N   1      -3.190   0.347   0.138  0.00  0.00    -0.645 OA
BRANCH  19  21
HETATM   21  O   UNK N   1      -3.029   2.530  -0.216  0.00  0.00    -0.772 OA
HETATM   22  H   UNK N   1      -2.496   3.286  -0.367  0.00  0.00     0.167 HD
ENDBRANCH  19  21
ENDBRANCH   3  19
TORSDOF 6
