MODEL 1
REMARK VINA RESULT:      -6.3      0.000      0.000
REMARK  6 active torsions:
REMARK  status: ('A' for Active; 'I' for Inactive)
REMARK    1  A    between atoms: O_1  and  C_2 
REMARK    2  A    between atoms: C_2  and  C_4 
REMARK    3  A    between atoms: C_4  and  C_5 
REMARK    4  A    between atoms: C_5  and  C_6 
REMARK    5  A    between atoms: C_8  and  C_9 
REMARK    6  A    between atoms: C_9  and  O_10 
ROOT
HETATM    1  C   UNK N   1      21.149  18.667   2.665  0.00  0.00    -0.010 A 
HETATM    2  C   UNK N   1      20.792  17.332   2.622  0.00  0.00     0.021 A 
HETATM    3  C   UNK N   1      20.720  19.216   1.457  0.00  0.00     0.114 A 
HETATM    4  N   UNK N   1      20.130  18.271   0.690  0.00  0.00    -0.350 N 
HETATM    5  C   UNK N   1      20.187  17.131   1.405  0.00  0.00     0.047 A 
HETATM    6  C   UNK N   1      19.733  15.881   0.998  0.00  0.00     0.054 A 
HETATM    7  C   UNK N   1      19.904  14.800   1.880  0.00  0.00     0.037 A 
HETATM    8 Cl   UNK N   1      19.390  13.198   1.402  0.00  0.00    -0.084 Cl
HETATM    9  C   UNK N   1      20.507  14.997   3.140  0.00  0.00     0.048 A 
HETATM   10  C   UNK N   1      20.958  16.272   3.527  0.00  0.00     0.048 A 
HETATM   11 Cl   UNK N   1      21.703  16.482   5.102  0.00  0.00    -0.083 Cl
HETATM   12  H   UNK N   1      19.740  18.391  -0.206  0.00  0.00     0.166 HD
ENDROOT
BRANCH   1  13
HETATM   13  C   UNK N   1      21.905  19.393   3.729  0.00  0.00     0.052 C 
BRANCH  13  14
HETATM   14  C   UNK N   1      23.406  19.280   3.569  0.00  0.00     0.115 C 
BRANCH  14  15
HETATM   15  C   UNK N   1      23.896  20.542   2.939  0.00  0.00     0.139 C 
HETATM   16  O   UNK N   1      23.257  21.572   3.057  0.00  0.00    -0.650 OA
BRANCH  15  17
HETATM   17  O   UNK N   1      25.057  20.546   2.255  0.00  0.00    -0.776 OA
HETATM   18  H   UNK N   1      25.723  19.917   2.452  0.00  0.00     0.167 HD
ENDBRANCH  15  17
ENDBRANCH  14  15
ENDBRANCH  13  14
ENDBRANCH   1  13
BRANCH   3  19
HETATM   19  C   UNK N   1      20.876  20.618   1.024  0.00  0.00     0.194 C 
HETATM   20  O   UNK N   1      21.228  20.885  -0.112  0.00  0.00    -0.645 OA
BRANCH  19  21
HETATM   21  O   UNK N   1      20.636  21.617   1.895  0.00  0.00    -0.772 OA
HETATM   22  H   UNK N   1      20.544  22.502   1.599  0.00  0.00     0.167 HD
ENDBRANCH  19  21
ENDBRANCH   3  19
TORSDOF 6
ENDMDL
MODEL 2
REMARK VINA RESULT:      -6.1      8.381     10.124
REMARK  6 active torsions:
REMARK  status: ('A' for Active; 'I' for Inactive)
REMARK    1  A    between atoms: O_1  and  C_2 
REMARK    2  A    between atoms: C_2  and  C_4 
REMARK    3  A    between atoms: C_4  and  C_5 
REMARK    4  A    between atoms: C_5  and  C_6 
REMARK    5  A    between atoms: C_8  and  C_9 
REMARK    6  A    between atoms: C_9  and  O_10 
ROOT
HETATM    1  C   UNK N   1      29.201  17.608   7.150  0.00  0.00    -0.010 A 
HETATM    2  C   UNK N   1      28.565  18.149   6.048  0.00  0.00     0.021 A 
HETATM    3  C   UNK N   1      28.619  18.216   8.262  0.00  0.00     0.114 A 
HETATM    4  N   UNK N   1      27.669  19.099   7.878  0.00  0.00    -0.350 N 
HETATM    5  C   UNK N   1      27.651  19.054   6.531  0.00  0.00     0.047 A 
HETATM    6  C   UNK N   1      26.853  19.824   5.693  0.00  0.00     0.054 A 
HETATM    7  C   UNK N   1      26.997  19.650   4.306  0.00  0.00     0.037 A 
HETATM    8 Cl   UNK N   1      26.048  20.624   3.204  0.00  0.00    -0.084 Cl
HETATM    9  C   UNK N   1      27.918  18.711   3.797  0.00  0.00     0.048 A 
HETATM   10  C   UNK N   1      28.715  17.945   4.667  0.00  0.00     0.048 A 
HETATM   11 Cl   UNK N   1      29.849  16.784   4.000  0.00  0.00    -0.083 Cl
HETATM   12  H   UNK N   1      27.107  19.659   8.460  0.00  0.00     0.166 HD
ENDROOT
BRANCH   1  13
HETATM   13  C   UNK N   1      30.333  16.635   7.185  0.00  0.00     0.052 C 
BRANCH  13  14
HETATM   14  C   UNK N   1      31.665  17.264   6.833  0.00  0.00     0.115 C 
BRANCH  14  15
HETATM   15  C   UNK N   1      32.371  17.588   8.108  0.00  0.00     0.139 C 
HETATM   16  O   UNK N   1      33.209  18.471   8.134  0.00  0.00    -0.650 OA
BRANCH  15  17
HETATM   17  O   UNK N   1      32.067  16.916   9.236  0.00  0.00    -0.776 OA
HETATM   18  H   UNK N   1      31.577  16.119   9.192  0.00  0.00     0.167 HD
ENDBRANCH  15  17
ENDBRANCH  14  15
ENDBRANCH  13  14
ENDBRANCH   1  13
BRANCH   3  19
HETATM   19  C   UNK N   1      28.963  17.974   9.676  0.00  0.00     0.194 C 
HETATM   20  O   UNK N   1      28.480  17.033  10.284  0.00  0.00    -0.645 OA
BRANCH  19  21
HETATM   21  O   UNK N   1      29.816  18.803  10.308  0.00  0.00    -0.772 OA
HETATM   22  H   UNK N   1      29.681  19.730  10.298  0.00  0.00     0.167 HD
ENDBRANCH  19  21
ENDBRANCH   3  19
TORSDOF 6
ENDMDL
MODEL 3
REMARK VINA RESULT:      -6.1      2.929      5.285
REMARK  6 active torsions:
REMARK  status: ('A' for Active; 'I' for Inactive)
REMARK    1  A    between atoms: O_1  and  C_2 
REMARK    2  A    between atoms: C_2  and  C_4 
REMARK    3  A    between atoms: C_4  and  C_5 
REMARK    4  A    between atoms: C_5  and  C_6 
REMARK    5  A    between atoms: C_8  and  C_9 
REMARK    6  A    between atoms: C_9  and  O_10 
ROOT
HETATM    1  C   UNK N   1      22.711  18.943   3.749  0.00  0.00    -0.010 A 
HETATM    2  C   UNK N   1      24.039  18.741   4.079  0.00  0.00     0.021 A 
HETATM    3  C   UNK N   1      22.679  20.122   3.004  0.00  0.00     0.114 A 
HETATM    4  N   UNK N   1      23.923  20.637   2.877  0.00  0.00    -0.350 N 
HETATM    5  C   UNK N   1      24.738  19.795   3.541  0.00  0.00     0.047 A 
HETATM    6  C   UNK N   1      26.110  19.941   3.712  0.00  0.00     0.054 A 
HETATM    7  C   UNK N   1      26.787  18.964   4.462  0.00  0.00     0.037 A 
HETATM    8 Cl   UNK N   1      28.506  19.122   4.745  0.00  0.00    -0.084 Cl
HETATM    9  C   UNK N   1      26.084  17.868   5.004  0.00  0.00     0.048 A 
HETATM   10  C   UNK N   1      24.695  17.743   4.816  0.00  0.00     0.048 A 
HETATM   11 Cl   UNK N   1      23.852  16.366   5.504  0.00  0.00    -0.083 Cl
HETATM   12  H   UNK N   1      24.180  21.459   2.400  0.00  0.00     0.166 HD
ENDROOT
BRANCH   1  13
HETATM   13  C   UNK N   1      21.521  18.137   4.153  0.00  0.00     0.052 C 
BRANCH  13  14
HETATM   14  C   UNK N   1      21.170  17.059   3.149  0.00  0.00     0.115 C 
BRANCH  14  15
HETATM   15  C   UNK N   1      20.021  17.548   2.332  0.00  0.00     0.139 C 
HETATM   16  O   UNK N   1      20.093  17.549   1.116  0.00  0.00    -0.650 OA
BRANCH  15  17
HETATM   17  O   UNK N   1      18.894  17.972   2.938  0.00  0.00    -0.776 OA
HETATM   18  H   UNK N   1      18.862  18.820   3.335  0.00  0.00     0.167 HD
ENDBRANCH  15  17
ENDBRANCH  14  15
ENDBRANCH  13  14
ENDBRANCH   1  13
BRANCH   3  19
HETATM   19  C   UNK N   1      21.482  20.762   2.424  0.00  0.00     0.194 C 
HETATM   20  O   UNK N   1      21.307  20.781   1.218  0.00  0.00    -0.645 OA
BRANCH  19  21
HETATM   21  O   UNK N   1      20.574  21.339   3.235  0.00  0.00    -0.772 OA
HETATM   22  H   UNK N   1      20.373  22.251   3.160  0.00  0.00     0.167 HD
ENDBRANCH  19  21
ENDBRANCH   3  19
TORSDOF 6
ENDMDL
MODEL 4
REMARK VINA RESULT:      -5.9     10.783     12.182
REMARK  6 active torsions:
REMARK  status: ('A' for Active; 'I' for Inactive)
REMARK    1  A    between atoms: O_1  and  C_2 
REMARK    2  A    between atoms: C_2  and  C_4 
REMARK    3  A    between atoms: C_4  and  C_5 
REMARK    4  A    between atoms: C_5  and  C_6 
REMARK    5  A    between atoms: C_8  and  C_9 
REMARK    6  A    between atoms: C_9  and  O_10 
ROOT
HETATM    1  C   UNK N   1      29.219  23.187  -5.123  0.00  0.00    -0.010 A 
HETATM    2  C   UNK N   1      29.235  22.166  -6.056  0.00  0.00     0.021 A 
HETATM    3  C   UNK N   1      30.124  22.810  -4.131  0.00  0.00     0.114 A 
HETATM    4  N   UNK N   1      30.675  21.610  -4.423  0.00  0.00    -0.350 N 
HETATM    5  C   UNK N   1      30.122  21.226  -5.590  0.00  0.00     0.047 A 
HETATM    6  C   UNK N   1      30.361  20.032  -6.261  0.00  0.00     0.054 A 
HETATM    7  C   UNK N   1      29.665  19.801  -7.459  0.00  0.00     0.037 A 
HETATM    8 Cl   UNK N   1      29.896  18.296  -8.322  0.00  0.00    -0.084 Cl
HETATM    9  C   UNK N   1      28.765  20.766  -7.959  0.00  0.00     0.048 A 
HETATM   10  C   UNK N   1      28.541  21.966  -7.260  0.00  0.00     0.048 A 
HETATM   11 Cl   UNK N   1      27.416  23.145  -7.911  0.00  0.00    -0.083 Cl
HETATM   12  H   UNK N   1      31.342  21.118  -3.892  0.00  0.00     0.166 HD
ENDROOT
BRANCH   1  13
HETATM   13  C   UNK N   1      28.369  24.414  -5.104  0.00  0.00     0.052 C 
BRANCH  13  14
HETATM   14  C   UNK N   1      26.942  24.139  -4.678  0.00  0.00     0.115 C 
BRANCH  14  15
HETATM   15  C   UNK N   1      26.791  24.585  -3.262  0.00  0.00     0.139 C 
HETATM   16  O   UNK N   1      27.048  23.820  -2.349  0.00  0.00    -0.650 OA
BRANCH  15  17
HETATM   17  O   UNK N   1      26.389  25.843  -2.991  0.00  0.00    -0.776 OA
HETATM   18  H   UNK N   1      26.382  26.491  -3.667  0.00  0.00     0.167 HD
ENDBRANCH  15  17
ENDBRANCH  14  15
ENDBRANCH  13  14
ENDBRANCH   1  13
BRANCH   3  19
HETATM   19  C   UNK N   1      30.457  23.571  -2.912  0.00  0.00     0.194 C 
HETATM   20  O   UNK N   1      30.724  24.760  -2.972  0.00  0.00    -0.645 OA
BRANCH  19  21
HETATM   21  O   UNK N   1      30.475  22.948  -1.718  0.00  0.00    -0.772 OA
HETATM   22  H   UNK N   1      31.189  23.069  -1.123  0.00  0.00     0.167 HD
ENDBRANCH  19  21
ENDBRANCH   3  19
TORSDOF 6
ENDMDL
MODEL 5
REMARK VINA RESULT:      -5.8      9.213     11.079
REMARK  6 active torsions:
REMARK  status: ('A' for Active; 'I' for Inactive)
REMARK    1  A    between atoms: O_1  and  C_2 
REMARK    2  A    between atoms: C_2  and  C_4 
REMARK    3  A    between atoms: C_4  and  C_5 
REMARK    4  A    between atoms: C_5  and  C_6 
REMARK    5  A    between atoms: C_8  and  C_9 
REMARK    6  A    between atoms: C_9  and  O_10 
ROOT
HETATM    1  C   UNK N   1      30.730  16.843   6.342  0.00  0.00    -0.010 A 
HETATM    2  C   UNK N   1      29.598  17.472   5.857  0.00  0.00     0.021 A 
HETATM    3  C   UNK N   1      30.768  17.128   7.707  0.00  0.00     0.114 A 
HETATM    4  N   UNK N   1      29.718  17.903   8.060  0.00  0.00    -0.350 N 
HETATM    5  C   UNK N   1      29.019  18.111   6.927  0.00  0.00     0.047 A 
HETATM    6  C   UNK N   1      27.872  18.887   6.798  0.00  0.00     0.054 A 
HETATM    7  C   UNK N   1      27.299  19.004   5.520  0.00  0.00     0.037 A 
HETATM    8 Cl   UNK N   1      25.879  20.002   5.293  0.00  0.00    -0.084 Cl
HETATM    9  C   UNK N   1      27.873  18.338   4.417  0.00  0.00     0.048 A 
HETATM   10  C   UNK N   1      29.034  17.560   4.575  0.00  0.00     0.048 A 
HETATM   11 Cl   UNK N   1      29.721  16.744   3.181  0.00  0.00    -0.083 Cl
HETATM   12  H   UNK N   1      29.507  18.244   8.959  0.00  0.00     0.166 HD
ENDROOT
BRANCH   1  13
HETATM   13  C   UNK N   1      31.764  16.076   5.585  0.00  0.00     0.052 C 
BRANCH  13  14
HETATM   14  C   UNK N   1      32.766  16.968   4.883  0.00  0.00     0.115 C 
BRANCH  14  15
HETATM   15  C   UNK N   1      33.992  17.036   5.731  0.00  0.00     0.139 C 
HETATM   16  O   UNK N   1      34.184  17.999   6.452  0.00  0.00    -0.650 OA
BRANCH  15  17
HETATM   17  O   UNK N   1      34.880  16.023   5.713  0.00  0.00    -0.776 OA
HETATM   18  H   UNK N   1      35.154  15.649   4.899  0.00  0.00     0.167 HD
ENDBRANCH  15  17
ENDBRANCH  14  15
ENDBRANCH  13  14
ENDBRANCH   1  13
BRANCH   3  19
HETATM   19  C   UNK N   1      31.795  16.681   8.669  0.00  0.00     0.194 C 
HETATM   20  O   UNK N   1      31.754  15.562   9.150  0.00  0.00    -0.645 OA
BRANCH  19  21
HETATM   21  O   UNK N   1      32.786  17.521   9.027  0.00  0.00    -0.772 OA
HETATM   22  H   UNK N   1      32.810  17.898   9.885  0.00  0.00     0.167 HD
ENDBRANCH  19  21
ENDBRANCH   3  19
TORSDOF 6
ENDMDL
MODEL 6
REMARK VINA RESULT:      -5.8     20.721     22.315
REMARK  6 active torsions:
REMARK  status: ('A' for Active; 'I' for Inactive)
REMARK    1  A    between atoms: O_1  and  C_2 
REMARK    2  A    between atoms: C_2  and  C_4 
REMARK    3  A    between atoms: C_4  and  C_5 
REMARK    4  A    between atoms: C_5  and  C_6 
REMARK    5  A    between atoms: C_8  and  C_9 
REMARK    6  A    between atoms: C_9  and  O_10 
ROOT
HETATM    1  C   UNK N   1      42.838  21.283   2.716  0.00  0.00    -0.010 A 
HETATM    2  C   UNK N   1      41.950  21.743   1.761  0.00  0.00     0.021 A 
HETATM    3  C   UNK N   1      43.294  22.416   3.389  0.00  0.00     0.114 A 
HETATM    4  N   UNK N   1      42.726  23.533   2.878  0.00  0.00    -0.350 N 
HETATM    5  C   UNK N   1      41.919  23.111   1.886  0.00  0.00     0.047 A 
HETATM    6  C   UNK N   1      41.154  23.916   1.049  0.00  0.00     0.054 A 
HETATM    7  C   UNK N   1      40.390  23.288   0.050  0.00  0.00     0.037 A 
HETATM    8 Cl   UNK N   1      39.443  24.257  -1.058  0.00  0.00    -0.084 Cl
HETATM    9  C   UNK N   1      40.399  21.883  -0.076  0.00  0.00     0.048 A 
HETATM   10  C   UNK N   1      41.182  21.091   0.783  0.00  0.00     0.048 A 
HETATM   11 Cl   UNK N   1      41.169  19.347   0.598  0.00  0.00    -0.083 Cl
HETATM   12  H   UNK N   1      42.873  24.461   3.170  0.00  0.00     0.166 HD
ENDROOT
BRANCH   1  13
HETATM   13  C   UNK N   1      43.300  19.884   2.958  0.00  0.00     0.052 C 
BRANCH  13  14
HETATM   14  C   UNK N   1      44.530  19.520   2.152  0.00  0.00     0.115 C 
BRANCH  14  15
HETATM   15  C   UNK N   1      45.549  18.968   3.093  0.00  0.00     0.139 C 
HETATM   16  O   UNK N   1      45.486  17.804   3.447  0.00  0.00    -0.650 OA
BRANCH  15  17
HETATM   17  O   UNK N   1      46.551  19.753   3.537  0.00  0.00    -0.776 OA
HETATM   18  H   UNK N   1      46.457  20.229   4.337  0.00  0.00     0.167 HD
ENDBRANCH  15  17
ENDBRANCH  14  15
ENDBRANCH  13  14
ENDBRANCH   1  13
BRANCH   3  19
HETATM   19  C   UNK N   1      44.267  22.447   4.499  0.00  0.00     0.194 C 
HETATM   20  O   UNK N   1      43.895  22.607   5.649  0.00  0.00    -0.645 OA
BRANCH  19  21
HETATM   21  O   UNK N   1      45.580  22.303   4.240  0.00  0.00    -0.772 OA
HETATM   22  H   UNK N   1      46.226  22.681   4.805  0.00  0.00     0.167 HD
ENDBRANCH  19  21
ENDBRANCH   3  19
TORSDOF 6
ENDMDL
MODEL 7
REMARK VINA RESULT:      -5.8     14.166     15.925
REMARK  6 active torsions:
REMARK  status: ('A' for Active; 'I' for Inactive)
REMARK    1  A    between atoms: O_1  and  C_2 
REMARK    2  A    between atoms: C_2  and  C_4 
REMARK    3  A    between atoms: C_4  and  C_5 
REMARK    4  A    between atoms: C_5  and  C_6 
REMARK    5  A    between atoms: C_8  and  C_9 
REMARK    6  A    between atoms: C_9  and  O_10 
ROOT
HETATM    1  C   UNK N   1      34.533  15.715   9.027  0.00  0.00    -0.010 A 
HETATM    2  C   UNK N   1      34.930  14.972  10.123  0.00  0.00     0.021 A 
HETATM    3  C   UNK N   1      34.721  17.050   9.385  0.00  0.00     0.114 A 
HETATM    4  N   UNK N   1      35.204  17.141  10.645  0.00  0.00    -0.350 N 
HETATM    5  C   UNK N   1      35.320  15.873  11.085  0.00  0.00     0.047 A 
HETATM    6  C   UNK N   1      35.744  15.475  12.348  0.00  0.00     0.054 A 
HETATM    7  C   UNK N   1      35.774  14.099  12.628  0.00  0.00     0.037 A 
HETATM    8 Cl   UNK N   1      36.260  13.545  14.215  0.00  0.00    -0.084 Cl
HETATM    9  C   UNK N   1      35.395  13.162  11.644  0.00  0.00     0.048 A 
HETATM   10  C   UNK N   1      34.968  13.591  10.374  0.00  0.00     0.048 A 
HETATM   11 Cl   UNK N   1      34.504  12.399   9.173  0.00  0.00    -0.083 Cl
HETATM   12  H   UNK N   1      35.425  17.963  11.138  0.00  0.00     0.166 HD
ENDROOT
BRANCH   1  13
HETATM   13  C   UNK N   1      33.948  15.234   7.741  0.00  0.00     0.052 C 
BRANCH  13  14
HETATM   14  C   UNK N   1      34.970  15.128   6.629  0.00  0.00     0.115 C 
BRANCH  14  15
HETATM   15  C   UNK N   1      34.417  15.822   5.428  0.00  0.00     0.139 C 
HETATM   16  O   UNK N   1      34.200  17.020   5.461  0.00  0.00    -0.650 OA
BRANCH  15  17
HETATM   17  O   UNK N   1      34.175  15.126   4.300  0.00  0.00    -0.776 OA
HETATM   18  H   UNK N   1      34.825  15.077   3.628  0.00  0.00     0.167 HD
ENDBRANCH  15  17
ENDBRANCH  14  15
ENDBRANCH  13  14
ENDBRANCH   1  13
BRANCH   3  19
HETATM   19  C   UNK N   1      34.435  18.232   8.548  0.00  0.00     0.194 C 
HETATM   20  O   UNK N   1      35.265  19.115   8.411  0.00  0.00    -0.645 OA
BRANCH  19  21
HETATM   21  O   UNK N   1      33.242  18.343   7.933  0.00  0.00    -0.772 OA
HETATM   22  H   UNK N   1      33.106  18.979   7.258  0.00  0.00     0.167 HD
ENDBRANCH  19  21
ENDBRANCH   3  19
TORSDOF 6
ENDMDL
MODEL 8
REMARK VINA RESULT:      -5.8      8.216     10.268
REMARK  6 active torsions:
REMARK  status: ('A' for Active; 'I' for Inactive)
REMARK    1  A    between atoms: O_1  and  C_2 
REMARK    2  A    between atoms: C_2  and  C_4 
REMARK    3  A    between atoms: C_4  and  C_5 
REMARK    4  A    between atoms: C_5  and  C_6 
REMARK    5  A    between atoms: C_8  and  C_9 
REMARK    6  A    between atoms: C_9  and  O_10 
ROOT
HETATM    1  C   UNK N   1      29.016  17.649   6.835  0.00  0.00    -0.010 A 
HETATM    2  C   UNK N   1      29.940  16.960   6.070  0.00  0.00     0.021 A 
HETATM    3  C   UNK N   1      29.517  17.640   8.137  0.00  0.00     0.114 A 
HETATM    4  N   UNK N   1      30.692  16.973   8.189  0.00  0.00    -0.350 N 
HETATM    5  C   UNK N   1      30.934  16.559   6.930  0.00  0.00     0.047 A 
HETATM    6  C   UNK N   1      32.019  15.798   6.507  0.00  0.00     0.054 A 
HETATM    7  C   UNK N   1      32.083  15.442   5.149  0.00  0.00     0.037 A 
HETATM    8 Cl   UNK N   1      33.404  14.450   4.573  0.00  0.00    -0.084 Cl
HETATM    9  C   UNK N   1      31.079  15.863   4.254  0.00  0.00     0.048 A 
HETATM   10  C   UNK N   1      29.991  16.632   4.707  0.00  0.00     0.048 A 
HETATM   11 Cl   UNK N   1      28.760  17.140   3.565  0.00  0.00    -0.083 Cl
HETATM   12  H   UNK N   1      31.255  16.821   8.982  0.00  0.00     0.166 HD
ENDROOT
BRANCH   1  13
HETATM   13  C   UNK N   1      27.707  18.228   6.412  0.00  0.00     0.052 C 
BRANCH  13  14
HETATM   14  C   UNK N   1      27.848  19.571   5.727  0.00  0.00     0.115 C 
BRANCH  14  15
HETATM   15  C   UNK N   1      27.293  20.613   6.639  0.00  0.00     0.139 C 
HETATM   16  O   UNK N   1      27.435  21.794   6.376  0.00  0.00    -0.650 OA
BRANCH  15  17
HETATM   17  O   UNK N   1      26.615  20.248   7.745  0.00  0.00    -0.776 OA
HETATM   18  H   UNK N   1      26.785  19.421   8.151  0.00  0.00     0.167 HD
ENDBRANCH  15  17
ENDBRANCH  14  15
ENDBRANCH  13  14
ENDBRANCH   1  13
BRANCH   3  19
HETATM   19  C   UNK N   1      28.885  18.246   9.325  0.00  0.00     0.194 C 
HETATM   20  O   UNK N   1      29.556  18.838  10.154  0.00  0.00    -0.645 OA
BRANCH  19  21
HETATM   21  O   UNK N   1      27.555  18.139   9.502  0.00  0.00    -0.772 OA
HETATM   22  H   UNK N   1      27.118  18.625  10.175  0.00  0.00     0.167 HD
ENDBRANCH  19  21
ENDBRANCH   3  19
TORSDOF 6
ENDMDL
MODEL 9
REMARK VINA RESULT:      -5.7      9.510     11.650
REMARK  6 active torsions:
REMARK  status: ('A' for Active; 'I' for Inactive)
REMARK    1  A    between atoms: O_1  and  C_2 
REMARK    2  A    between atoms: C_2  and  C_4 
REMARK    3  A    between atoms: C_4  and  C_5 
REMARK    4  A    between atoms: C_5  and  C_6 
REMARK    5  A    between atoms: C_8  and  C_9 
REMARK    6  A    between atoms: C_9  and  O_10 
ROOT
HETATM    1  C   UNK N   1      31.445  17.170   7.168  0.00  0.00    -0.010 A 
HETATM    2  C   UNK N   1      30.162  17.323   6.675  0.00  0.00     0.021 A 
HETATM    3  C   UNK N   1      32.287  17.200   6.057  0.00  0.00     0.114 A 
HETATM    4  N   UNK N   1      31.569  17.357   4.922  0.00  0.00    -0.350 N 
HETATM    5  C   UNK N   1      30.280  17.423   5.309  0.00  0.00     0.047 A 
HETATM    6  C   UNK N   1      29.175  17.546   4.475  0.00  0.00     0.054 A 
HETATM    7  C   UNK N   1      27.902  17.572   5.070  0.00  0.00     0.037 A 
HETATM    8 Cl   UNK N   1      26.474  17.682   4.064  0.00  0.00    -0.084 Cl
HETATM    9  C   UNK N   1      27.768  17.488   6.472  0.00  0.00     0.048 A 
HETATM   10  C   UNK N   1      28.903  17.364   7.294  0.00  0.00     0.048 A 
HETATM   11 Cl   UNK N   1      28.700  17.264   9.033  0.00  0.00    -0.083 Cl
HETATM   12  H   UNK N   1      31.915  17.412   4.002  0.00  0.00     0.166 HD
ENDROOT
BRANCH   1  13
HETATM   13  C   UNK N   1      31.876  16.939   8.579  0.00  0.00     0.052 C 
BRANCH  13  14
HETATM   14  C   UNK N   1      31.994  15.470   8.928  0.00  0.00     0.115 C 
BRANCH  14  15
HETATM   15  C   UNK N   1      33.263  15.279   9.690  0.00  0.00     0.139 C 
HETATM   16  O   UNK N   1      34.337  15.372   9.122  0.00  0.00    -0.650 OA
BRANCH  15  17
HETATM   17  O   UNK N   1      33.223  15.024  11.013  0.00  0.00    -0.776 OA
HETATM   18  H   UNK N   1      34.015  14.992  11.511  0.00  0.00     0.167 HD
ENDBRANCH  15  17
ENDBRANCH  14  15
ENDBRANCH  13  14
ENDBRANCH   1  13
BRANCH   3  19
HETATM   19  C   UNK N   1      33.757  17.071   6.065  0.00  0.00     0.194 C 
HETATM   20  O   UNK N   1      34.460  17.976   6.481  0.00  0.00    -0.645 OA
BRANCH  19  21
HETATM   21  O   UNK N   1      34.332  15.945   5.601  0.00  0.00    -0.772 OA
HETATM   22  H   UNK N   1      34.063  15.568   4.786  0.00  0.00     0.167 HD
ENDBRANCH  19  21
ENDBRANCH   3  19
TORSDOF 6
ENDMDL
