MODEL 1
REMARK VINA RESULT:      -6.9      0.000      0.000
REMARK  2 active torsions:
REMARK  status: ('A' for Active; 'I' for Inactive)
REMARK    1  A    between atoms: C_5  and  C_13 
REMARK    2  A    between atoms: C_10  and  C_16 
REMARK       I    between atoms: C_13  and  N_14 
ROOT
HETATM    1  C   UNK N   1      21.531  11.917  11.616  0.00  0.00     0.003 A 
HETATM    2  C   UNK N   1      20.514  12.700  11.062  0.00  0.00     0.032 A 
HETATM    3  C   UNK N   1      20.809  13.599  10.034  0.00  0.00     0.060 A 
HETATM    4  C   UNK N   1      22.132  13.712   9.560  0.00  0.00     0.075 A 
HETATM    5  C   UNK N   1      23.163  12.926  10.114  0.00  0.00     0.060 A 
HETATM    6  C   UNK N   1      22.844  12.029  11.146  0.00  0.00     0.019 A 
HETATM    7  N   UNK N   1      19.830  14.368   9.485  0.00  0.00    -0.362 N 
ATOM      8  HN  UNK N   1      18.873  14.285   9.829  1.00  0.00     0.165 HD
HETATM    9  C   UNK N   1      20.109  15.248   8.482  0.00  0.00     0.118 A 
HETATM   10  C   UNK N   1      21.425  15.363   8.008  0.00  0.00     0.058 A 
HETATM   11  N   UNK N   1      22.392  14.592   8.563  0.00  0.00    -0.352 N 
ATOM     12  HN  UNK N   1      23.348  14.676   8.217  1.00  0.00     0.166 HD
ENDROOT
BRANCH  10  13
HETATM   13  C   UNK N   1      21.803  16.293   6.926  0.00  0.00    -0.008 A 
HETATM   14  C   UNK N   1      21.053  17.466   6.755  0.00  0.00     0.015 A 
HETATM   15  C   UNK N   1      21.371  18.374   5.747  0.00  0.00     0.024 A 
HETATM   16  C   UNK N   1      22.445  18.119   4.897  0.00  0.00     0.034 A 
HETATM   17  C   UNK N   1      23.203  16.952   5.055  0.00  0.00     0.024 A 
HETATM   18 Cl   UNK N   1      22.836  19.266   3.635  0.00  0.00    -0.084 Cl
HETATM   19  C   UNK N   1      22.884  16.038   6.068  0.00  0.00     0.015 A 
ENDBRANCH  10  13
BRANCH   5  20
HETATM   20  C   UNK N   1      24.575  13.018   9.639  0.00  0.00     0.251 C 
HETATM   21  N   UNK N   1      25.563  13.329  10.502  0.00  0.00    -0.366 N 
HETATM   22  H   UNK N   1      26.493  13.389  10.185  0.00  0.00     0.159 HD
HETATM   23  H   UNK N   1      25.353  13.497  11.450  0.00  0.00     0.159 HD
HETATM   24  O   UNK N   1      24.856  12.814   8.466  0.00  0.00    -0.268 OA
ENDBRANCH   5  20
TORSDOF 2
ENDMDL
MODEL 2
REMARK VINA RESULT:      -6.7     16.693     18.427
REMARK  2 active torsions:
REMARK  status: ('A' for Active; 'I' for Inactive)
REMARK    1  A    between atoms: C_5  and  C_13 
REMARK    2  A    between atoms: C_10  and  C_16 
REMARK       I    between atoms: C_13  and  N_14 
ROOT
HETATM    1  C   UNK N   1      26.174  28.706  -4.077  0.00  0.00     0.003 A 
HETATM    2  C   UNK N   1      27.543  28.893  -3.864  0.00  0.00     0.032 A 
HETATM    3  C   UNK N   1      28.400  27.790  -3.837  0.00  0.00     0.060 A 
HETATM    4  C   UNK N   1      27.881  26.494  -4.025  0.00  0.00     0.075 A 
HETATM    5  C   UNK N   1      26.501  26.296  -4.241  0.00  0.00     0.060 A 
HETATM    6  C   UNK N   1      25.658  27.419  -4.264  0.00  0.00     0.019 A 
HETATM    7  N   UNK N   1      29.735  27.957  -3.630  0.00  0.00    -0.362 N 
ATOM      8  HN  UNK N   1      30.109  28.896  -3.494  1.00  0.00     0.165 HD
HETATM    9  C   UNK N   1      30.580  26.886  -3.603  0.00  0.00     0.118 A 
HETATM   10  C   UNK N   1      30.066  25.594  -3.790  0.00  0.00     0.058 A 
HETATM   11  N   UNK N   1      28.734  25.441  -3.995  0.00  0.00    -0.352 N 
ATOM     12  HN  UNK N   1      28.362  24.501  -4.131  1.00  0.00     0.166 HD
ENDROOT
BRANCH  10  13
HETATM   13  C   UNK N   1      30.917  24.389  -3.773  0.00  0.00    -0.008 A 
HETATM   14  C   UNK N   1      30.637  23.381  -2.838  0.00  0.00     0.015 A 
HETATM   15  C   UNK N   1      31.412  22.225  -2.784  0.00  0.00     0.024 A 
HETATM   16  C   UNK N   1      32.478  22.063  -3.665  0.00  0.00     0.034 A 
HETATM   17  C   UNK N   1      32.771  23.060  -4.605  0.00  0.00     0.024 A 
HETATM   18 Cl   UNK N   1      33.446  20.606  -3.588  0.00  0.00    -0.084 Cl
HETATM   19  C   UNK N   1      31.992  24.223  -4.660  0.00  0.00     0.015 A 
ENDBRANCH  10  13
BRANCH   5  20
HETATM   20  C   UNK N   1      25.915  24.939  -4.444  0.00  0.00     0.251 C 
HETATM   21  N   UNK N   1      25.198  24.669  -5.554  0.00  0.00    -0.366 N 
HETATM   22  H   UNK N   1      24.813  23.772  -5.685  0.00  0.00     0.159 HD
HETATM   23  H   UNK N   1      25.060  25.369  -6.233  0.00  0.00     0.159 HD
HETATM   24  O   UNK N   1      26.075  24.056  -3.613  0.00  0.00    -0.268 OA
ENDBRANCH   5  20
TORSDOF 2
ENDMDL
MODEL 3
REMARK VINA RESULT:      -6.6      3.390      4.798
REMARK  2 active torsions:
REMARK  status: ('A' for Active; 'I' for Inactive)
REMARK    1  A    between atoms: C_5  and  C_13 
REMARK    2  A    between atoms: C_10  and  C_16 
REMARK       I    between atoms: C_13  and  N_14 
ROOT
HETATM    1  C   UNK N   1      20.633  14.188   9.005  0.00  0.00     0.003 A 
HETATM    2  C   UNK N   1      21.056  13.855   7.715  0.00  0.00     0.032 A 
HETATM    3  C   UNK N   1      21.043  14.822   6.706  0.00  0.00     0.060 A 
HETATM    4  C   UNK N   1      20.602  16.129   6.994  0.00  0.00     0.075 A 
HETATM    5  C   UNK N   1      20.173  16.474   8.293  0.00  0.00     0.060 A 
HETATM    6  C   UNK N   1      20.196  15.486   9.291  0.00  0.00     0.019 A 
HETATM    7  N   UNK N   1      21.452  14.512   5.446  0.00  0.00    -0.362 N 
ATOM      8  HN  UNK N   1      21.770  13.566   5.239  1.00  0.00     0.165 HD
HETATM    9  C   UNK N   1      21.442  15.450   4.455  0.00  0.00     0.118 A 
HETATM   10  C   UNK N   1      21.003  16.752   4.739  0.00  0.00     0.058 A 
HETATM   11  N   UNK N   1      20.598  17.048   5.998  0.00  0.00    -0.352 N 
ATOM     12  HN  UNK N   1      20.280  17.995   6.203  1.00  0.00     0.166 HD
ENDROOT
BRANCH  10  13
HETATM   13  C   UNK N   1      20.964  17.818   3.719  0.00  0.00    -0.008 A 
HETATM   14  C   UNK N   1      20.389  17.535   2.471  0.00  0.00     0.015 A 
HETATM   15  C   UNK N   1      20.329  18.509   1.477  0.00  0.00     0.024 A 
HETATM   16  C   UNK N   1      20.844  19.780   1.720  0.00  0.00     0.034 A 
HETATM   17  C   UNK N   1      21.422  20.079   2.960  0.00  0.00     0.024 A 
HETATM   18 Cl   UNK N   1      20.764  20.996   0.464  0.00  0.00    -0.084 Cl
HETATM   19  C   UNK N   1      21.483  19.100   3.961  0.00  0.00     0.015 A 
ENDBRANCH  10  13
BRANCH   5  20
HETATM   20  C   UNK N   1      19.700  17.847   8.636  0.00  0.00     0.251 C 
HETATM   21  N   UNK N   1      18.552  18.017   9.322  0.00  0.00    -0.366 N 
HETATM   22  H   UNK N   1      18.243  18.924   9.546  0.00  0.00     0.159 HD
HETATM   23  H   UNK N   1      18.024  17.234   9.598  0.00  0.00     0.159 HD
HETATM   24  O   UNK N   1      20.342  18.833   8.302  0.00  0.00    -0.268 OA
ENDBRANCH   5  20
TORSDOF 2
ENDMDL
MODEL 4
REMARK VINA RESULT:      -6.5     13.937     16.083
REMARK  2 active torsions:
REMARK  status: ('A' for Active; 'I' for Inactive)
REMARK    1  A    between atoms: C_5  and  C_13 
REMARK    2  A    between atoms: C_10  and  C_16 
REMARK       I    between atoms: C_13  and  N_14 
ROOT
HETATM    1  C   UNK N   1      35.926  13.923  10.008  0.00  0.00     0.003 A 
HETATM    2  C   UNK N   1      36.385  14.670  11.096  0.00  0.00     0.032 A 
HETATM    3  C   UNK N   1      36.237  14.174  12.394  0.00  0.00     0.060 A 
HETATM    4  C   UNK N   1      35.623  12.922  12.600  0.00  0.00     0.075 A 
HETATM    5  C   UNK N   1      35.157  12.162  11.507  0.00  0.00     0.060 A 
HETATM    6  C   UNK N   1      35.317  12.680  10.211  0.00  0.00     0.019 A 
HETATM    7  N   UNK N   1      36.679  14.891  13.463  0.00  0.00    -0.362 N 
ATOM      8  HN  UNK N   1      37.123  15.797  13.312  1.00  0.00     0.165 HD
HETATM    9  C   UNK N   1      36.538  14.414  14.733  0.00  0.00     0.118 A 
HETATM   10  C   UNK N   1      35.928  13.168  14.941  0.00  0.00     0.058 A 
HETATM   11  N   UNK N   1      35.491  12.464  13.868  0.00  0.00    -0.352 N 
ATOM     12  HN  UNK N   1      35.048  11.558  14.021  1.00  0.00     0.166 HD
ENDROOT
BRANCH  10  13
HETATM   13  C   UNK N   1      35.741  12.588  16.285  0.00  0.00    -0.008 A 
HETATM   14  C   UNK N   1      35.314  13.427  17.326  0.00  0.00     0.015 A 
HETATM   15  C   UNK N   1      35.123  12.926  18.611  0.00  0.00     0.024 A 
HETATM   16  C   UNK N   1      35.357  11.578  18.872  0.00  0.00     0.034 A 
HETATM   17  C   UNK N   1      35.783  10.727  17.844  0.00  0.00     0.024 A 
HETATM   18 Cl   UNK N   1      35.114  10.958  20.491  0.00  0.00    -0.084 Cl
HETATM   19  C   UNK N   1      35.976  11.230  16.550  0.00  0.00     0.015 A 
ENDBRANCH  10  13
BRANCH   5  20
HETATM   20  C   UNK N   1      34.503  10.832  11.686  0.00  0.00     0.251 C 
HETATM   21  N   UNK N   1      33.317  10.575  11.097  0.00  0.00    -0.366 N 
HETATM   22  H   UNK N   1      32.889   9.697  11.217  0.00  0.00     0.159 HD
HETATM   23  H   UNK N   1      32.881  11.266  10.547  0.00  0.00     0.159 HD
HETATM   24  O   UNK N   1      35.028   9.962  12.364  0.00  0.00    -0.268 OA
ENDBRANCH   5  20
TORSDOF 2
ENDMDL
MODEL 5
REMARK VINA RESULT:      -6.3     13.518     14.863
REMARK  2 active torsions:
REMARK  status: ('A' for Active; 'I' for Inactive)
REMARK    1  A    between atoms: C_5  and  C_13 
REMARK    2  A    between atoms: C_10  and  C_16 
REMARK       I    between atoms: C_13  and  N_14 
ROOT
HETATM    1  C   UNK N   1      34.974  13.769   7.364  0.00  0.00     0.003 A 
HETATM    2  C   UNK N   1      34.809  12.548   8.023  0.00  0.00     0.032 A 
HETATM    3  C   UNK N   1      34.856  12.498   9.419  0.00  0.00     0.060 A 
HETATM    4  C   UNK N   1      35.071  13.680  10.155  0.00  0.00     0.075 A 
HETATM    5  C   UNK N   1      35.238  14.917   9.497  0.00  0.00     0.060 A 
HETATM    6  C   UNK N   1      35.186  14.943   8.094  0.00  0.00     0.019 A 
HETATM    7  N   UNK N   1      34.697  11.317  10.075  0.00  0.00    -0.362 N 
ATOM      8  HN  UNK N   1      34.542  10.462   9.540  1.00  0.00     0.165 HD
HETATM    9  C   UNK N   1      34.742  11.259  11.437  0.00  0.00     0.118 A 
HETATM   10  C   UNK N   1      34.956  12.434  12.173  0.00  0.00     0.058 A 
HETATM   11  N   UNK N   1      35.113  13.605  11.508  0.00  0.00    -0.352 N 
ATOM     12  HN  UNK N   1      35.268  14.459  12.044  1.00  0.00     0.166 HD
ENDROOT
BRANCH  10  13
HETATM   13  C   UNK N   1      35.017  12.450  13.647  0.00  0.00    -0.008 A 
HETATM   14  C   UNK N   1      35.773  13.449  14.278  0.00  0.00     0.015 A 
HETATM   15  C   UNK N   1      35.861  13.506  15.667  0.00  0.00     0.024 A 
HETATM   16  C   UNK N   1      35.193  12.562  16.443  0.00  0.00     0.034 A 
HETATM   17  C   UNK N   1      34.433  11.558  15.828  0.00  0.00     0.024 A 
HETATM   18 Cl   UNK N   1      35.310  12.642  18.187  0.00  0.00    -0.084 Cl
HETATM   19  C   UNK N   1      34.344  11.500  14.431  0.00  0.00     0.015 A 
ENDBRANCH  10  13
BRANCH   5  20
HETATM   20  C   UNK N   1      35.467  16.189  10.243  0.00  0.00     0.251 C 
HETATM   21  N   UNK N   1      34.559  17.184  10.181  0.00  0.00    -0.366 N 
HETATM   22  H   UNK N   1      34.713  18.022  10.675  0.00  0.00     0.159 HD
HETATM   23  H   UNK N   1      33.742  17.072   9.643  0.00  0.00     0.159 HD
HETATM   24  O   UNK N   1      36.475  16.348  10.917  0.00  0.00    -0.268 OA
ENDBRANCH   5  20
TORSDOF 2
ENDMDL
MODEL 6
REMARK VINA RESULT:      -6.3     13.060     14.809
REMARK  2 active torsions:
REMARK  status: ('A' for Active; 'I' for Inactive)
REMARK    1  A    between atoms: C_5  and  C_13 
REMARK    2  A    between atoms: C_10  and  C_16 
REMARK       I    between atoms: C_13  and  N_14 
ROOT
HETATM    1  C   UNK N   1      33.838  17.583   6.606  0.00  0.00     0.003 A 
HETATM    2  C   UNK N   1      34.038  17.947   7.941  0.00  0.00     0.032 A 
HETATM    3  C   UNK N   1      34.580  17.026   8.840  0.00  0.00     0.060 A 
HETATM    4  C   UNK N   1      34.924  15.733   8.398  0.00  0.00     0.075 A 
HETATM    5  C   UNK N   1      34.726  15.358   7.052  0.00  0.00     0.060 A 
HETATM    6  C   UNK N   1      34.179  16.300   6.166  0.00  0.00     0.019 A 
HETATM    7  N   UNK N   1      34.780  17.367  10.143  0.00  0.00    -0.362 N 
ATOM      8  HN  UNK N   1      34.531  18.303  10.461  1.00  0.00     0.165 HD
HETATM    9  C   UNK N   1      35.310  16.474  11.028  0.00  0.00     0.118 A 
HETATM   10  C   UNK N   1      35.653  15.186  10.590  0.00  0.00     0.058 A 
HETATM   11  N   UNK N   1      35.449  14.859   9.290  0.00  0.00    -0.352 N 
ATOM     12  HN  UNK N   1      35.699  13.922   8.973  1.00  0.00     0.166 HD
ENDROOT
BRANCH  10  13
HETATM   13  C   UNK N   1      36.230  14.168  11.488  0.00  0.00    -0.008 A 
HETATM   14  C   UNK N   1      35.938  14.237  12.859  0.00  0.00     0.015 A 
HETATM   15  C   UNK N   1      36.459  13.298  13.746  0.00  0.00     0.024 A 
HETATM   16  C   UNK N   1      37.280  12.277  13.273  0.00  0.00     0.034 A 
HETATM   17  C   UNK N   1      37.581  12.194  11.908  0.00  0.00     0.024 A 
HETATM   18 Cl   UNK N   1      37.929  11.103  14.397  0.00  0.00    -0.084 Cl
HETATM   19  C   UNK N   1      37.057  13.138  11.014  0.00  0.00     0.015 A 
ENDBRANCH  10  13
BRANCH   5  20
HETATM   20  C   UNK N   1      35.078  13.998   6.547  0.00  0.00     0.251 C 
HETATM   21  N   UNK N   1      34.133  13.217   5.987  0.00  0.00    -0.366 N 
HETATM   22  H   UNK N   1      34.368  12.321   5.655  0.00  0.00     0.159 HD
HETATM   23  H   UNK N   1      33.207  13.544   5.910  0.00  0.00     0.159 HD
HETATM   24  O   UNK N   1      36.222  13.574   6.633  0.00  0.00    -0.268 OA
ENDBRANCH   5  20
TORSDOF 2
ENDMDL
MODEL 7
REMARK VINA RESULT:      -6.2     21.397     22.463
REMARK  2 active torsions:
REMARK  status: ('A' for Active; 'I' for Inactive)
REMARK    1  A    between atoms: C_5  and  C_13 
REMARK    2  A    between atoms: C_10  and  C_16 
REMARK       I    between atoms: C_13  and  N_14 
ROOT
HETATM    1  C   UNK N   1      44.480  19.370   3.059  0.00  0.00     0.003 A 
HETATM    2  C   UNK N   1      43.418  19.086   2.196  0.00  0.00     0.032 A 
HETATM    3  C   UNK N   1      42.668  20.129   1.648  0.00  0.00     0.060 A 
HETATM    4  C   UNK N   1      42.985  21.464   1.968  0.00  0.00     0.075 A 
HETATM    5  C   UNK N   1      44.056  21.760   2.838  0.00  0.00     0.060 A 
HETATM    6  C   UNK N   1      44.796  20.695   3.377  0.00  0.00     0.019 A 
HETATM    7  N   UNK N   1      41.631  19.867   0.806  0.00  0.00    -0.362 N 
ATOM      8  HN  UNK N   1      41.403  18.900   0.575  1.00  0.00     0.165 HD
HETATM    9  C   UNK N   1      40.893  20.879   0.266  0.00  0.00     0.118 A 
HETATM   10  C   UNK N   1      41.207  22.210   0.583  0.00  0.00     0.058 A 
HETATM   11  N   UNK N   1      42.242  22.458   1.423  0.00  0.00    -0.352 N 
ATOM     12  HN  UNK N   1      42.469  23.425   1.652  1.00  0.00     0.166 HD
ENDROOT
BRANCH  10  13
HETATM   13  C   UNK N   1      40.455  23.356   0.038  0.00  0.00    -0.008 A 
HETATM   14  C   UNK N   1      39.462  23.113  -0.923  0.00  0.00     0.015 A 
HETATM   15  C   UNK N   1      38.725  24.163  -1.467  0.00  0.00     0.024 A 
HETATM   16  C   UNK N   1      38.973  25.471  -1.055  0.00  0.00     0.034 A 
HETATM   17  C   UNK N   1      39.960  25.730  -0.096  0.00  0.00     0.024 A 
HETATM   18 Cl   UNK N   1      38.041  26.782  -1.744  0.00  0.00    -0.084 Cl
HETATM   19  C   UNK N   1      40.702  24.675   0.452  0.00  0.00     0.015 A 
ENDBRANCH  10  13
BRANCH   5  20
HETATM   20  C   UNK N   1      44.421  23.161   3.200  0.00  0.00     0.251 C 
HETATM   21  N   UNK N   1      45.622  23.662   2.844  0.00  0.00    -0.366 N 
HETATM   22  H   UNK N   1      45.859  24.586   3.084  0.00  0.00     0.159 HD
HETATM   23  H   UNK N   1      46.259  23.102   2.344  0.00  0.00     0.159 HD
HETATM   24  O   UNK N   1      43.643  23.871   3.821  0.00  0.00    -0.268 OA
ENDBRANCH   5  20
TORSDOF 2
ENDMDL
MODEL 8
REMARK VINA RESULT:      -6.2     11.927     12.959
REMARK  2 active torsions:
REMARK  status: ('A' for Active; 'I' for Inactive)
REMARK    1  A    between atoms: C_5  and  C_13 
REMARK    2  A    between atoms: C_10  and  C_16 
REMARK       I    between atoms: C_13  and  N_14 
ROOT
HETATM    1  C   UNK N   1      36.145  12.454  13.624  0.00  0.00     0.003 A 
HETATM    2  C   UNK N   1      36.344  13.824  13.430  0.00  0.00     0.032 A 
HETATM    3  C   UNK N   1      35.923  14.427  12.242  0.00  0.00     0.060 A 
HETATM    4  C   UNK N   1      35.299  13.651  11.245  0.00  0.00     0.075 A 
HETATM    5  C   UNK N   1      35.094  12.268  11.433  0.00  0.00     0.060 A 
HETATM    6  C   UNK N   1      35.525  11.683  12.635  0.00  0.00     0.019 A 
HETATM    7  N   UNK N   1      36.110  15.759  12.039  0.00  0.00    -0.362 N 
ATOM      8  HN  UNK N   1      36.562  16.320  12.761  1.00  0.00     0.165 HD
HETATM    9  C   UNK N   1      35.702  16.357  10.882  0.00  0.00     0.118 A 
HETATM   10  C   UNK N   1      35.080  15.587   9.888  0.00  0.00     0.058 A 
HETATM   11  N   UNK N   1      34.899  14.260  10.102  0.00  0.00    -0.352 N 
ATOM     12  HN  UNK N   1      34.447  13.702   9.378  1.00  0.00     0.166 HD
ENDROOT
BRANCH  10  13
HETATM   13  C   UNK N   1      34.612  16.162   8.612  0.00  0.00    -0.008 A 
HETATM   14  C   UNK N   1      34.785  15.417   7.435  0.00  0.00     0.015 A 
HETATM   15  C   UNK N   1      34.359  15.918   6.207  0.00  0.00     0.024 A 
HETATM   16  C   UNK N   1      33.756  17.172   6.141  0.00  0.00     0.034 A 
HETATM   17  C   UNK N   1      33.577  17.928   7.306  0.00  0.00     0.024 A 
HETATM   18 Cl   UNK N   1      33.225  17.791   4.592  0.00  0.00    -0.084 Cl
HETATM   19  C   UNK N   1      34.004  17.425   8.542  0.00  0.00     0.015 A 
ENDBRANCH  10  13
BRANCH   5  20
HETATM   20  C   UNK N   1      34.437  11.414  10.400  0.00  0.00     0.251 C 
HETATM   21  N   UNK N   1      33.296  10.756  10.690  0.00  0.00    -0.366 N 
HETATM   22  H   UNK N   1      32.865  10.194  10.006  0.00  0.00     0.159 HD
HETATM   23  H   UNK N   1      32.894  10.839  11.585  0.00  0.00     0.159 HD
HETATM   24  O   UNK N   1      34.919  11.299   9.283  0.00  0.00    -0.268 OA
ENDBRANCH   5  20
TORSDOF 2
ENDMDL
MODEL 9
REMARK VINA RESULT:      -6.1      6.908      8.602
REMARK  2 active torsions:
REMARK  status: ('A' for Active; 'I' for Inactive)
REMARK    1  A    between atoms: C_5  and  C_13 
REMARK    2  A    between atoms: C_10  and  C_16 
REMARK       I    between atoms: C_13  and  N_14 
ROOT
HETATM    1  C   UNK N   1      32.206  16.195   6.782  0.00  0.00     0.003 A 
HETATM    2  C   UNK N   1      31.170  16.766   7.526  0.00  0.00     0.032 A 
HETATM    3  C   UNK N   1      30.070  17.327   6.873  0.00  0.00     0.060 A 
HETATM    4  C   UNK N   1      30.010  17.315   5.465  0.00  0.00     0.075 A 
HETATM    5  C   UNK N   1      31.051  16.741   4.706  0.00  0.00     0.060 A 
HETATM    6  C   UNK N   1      32.147  16.183   5.384  0.00  0.00     0.019 A 
HETATM    7  N   UNK N   1      29.054  17.886   7.585  0.00  0.00    -0.362 N 
ATOM      8  HN  UNK N   1      29.099  17.894   8.604  1.00  0.00     0.165 HD
HETATM    9  C   UNK N   1      27.976  18.436   6.955  0.00  0.00     0.118 A 
HETATM   10  C   UNK N   1      27.913  18.425   5.554  0.00  0.00     0.058 A 
HETATM   11  N   UNK N   1      28.932  17.865   4.855  0.00  0.00    -0.352 N 
ATOM     12  HN  UNK N   1      28.885  17.858   3.837  1.00  0.00     0.166 HD
ENDROOT
BRANCH  10  13
HETATM   13  C   UNK N   1      26.780  19.000   4.803  0.00  0.00    -0.008 A 
HETATM   14  C   UNK N   1      25.495  18.480   5.022  0.00  0.00     0.015 A 
HETATM   15  C   UNK N   1      24.395  18.990   4.337  0.00  0.00     0.024 A 
HETATM   16  C   UNK N   1      24.566  20.028   3.424  0.00  0.00     0.034 A 
HETATM   17  C   UNK N   1      25.842  20.558   3.194  0.00  0.00     0.024 A 
HETATM   18 Cl   UNK N   1      23.176  20.661   2.569  0.00  0.00    -0.084 Cl
HETATM   19  C   UNK N   1      26.950  20.046   3.882  0.00  0.00     0.015 A 
ENDBRANCH  10  13
BRANCH   5  20
HETATM   20  C   UNK N   1      31.023  16.709   3.214  0.00  0.00     0.251 C 
HETATM   21  N   UNK N   1      32.112  17.073   2.507  0.00  0.00    -0.366 N 
HETATM   22  H   UNK N   1      32.089  17.051   1.523  0.00  0.00     0.159 HD
HETATM   23  H   UNK N   1      32.929  17.360   2.976  0.00  0.00     0.159 HD
HETATM   24  O   UNK N   1      30.018  16.355   2.614  0.00  0.00    -0.268 OA
ENDBRANCH   5  20
TORSDOF 2
ENDMDL
