MODEL 1
REMARK VINA RESULT:      -7.5      0.000      0.000
REMARK  16 active torsions:
REMARK  status: ('A' for Active; 'I' for Inactive)
REMARK    1  A    between atoms: C_33  and  C_1 
REMARK    2  A    between atoms: C_7  and  C_43 
REMARK    3  A    between atoms: C_13  and  C_27 
REMARK    4  A    between atoms: C_20  and  C_38 
REMARK    5  A    between atoms: C_27  and  C_28 
REMARK    6  A    between atoms: C_28  and  C_29 
REMARK    7  A    between atoms: C_29  and  O_31 
REMARK    8  A    between atoms: C_33  and  C_34 
REMARK    9  A    between atoms: C_34  and  C_35 
REMARK   10  A    between atoms: C_35  and  O_37 
REMARK   11  A    between atoms: C_38  and  C_39 
REMARK   12  A    between atoms: C_39  and  C_40 
REMARK   13  A    between atoms: C_40  and  O_42 
REMARK   14  A    between atoms: C_43  and  C_44 
REMARK   15  A    between atoms: C_44  and  C_45 
REMARK   16  A    between atoms: C_45  and  O_47 
ROOT
HETATM    1  C   UNK N   1      26.194  18.329   4.149  0.00  0.00    -0.023 A 
HETATM    2  C   UNK N   1      27.467  18.688   4.291  0.00  0.00    -0.027 A 
HETATM    3  C   UNK N   1      28.291  17.575   3.787  0.00  0.00     0.041 A 
HETATM    4  N   UNK N   1      27.552  16.615   3.355  0.00  0.00    -0.355 N 
ATOM      5  HN  UNK N   1      27.875  15.731   2.963  1.00  0.00     0.166 HD
HETATM    6  C   UNK N   1      26.210  17.015   3.527  0.00  0.00     0.041 A 
HETATM    7  C   UNK N   1      24.384  13.074   1.738  0.00  0.00    -0.023 A 
HETATM    8  C   UNK N   1      23.986  14.295   2.223  0.00  0.00    -0.027 A 
HETATM    9  C   UNK N   1      25.124  14.962   2.619  0.00  0.00     0.041 A 
HETATM   10  N   UNK N   1      26.219  14.203   2.401  0.00  0.00    -0.355 N 
HETATM   11  C   UNK N   1      25.771  13.045   1.865  0.00  0.00     0.041 A 
HETATM   12  C   UNK N   1      25.123  16.308   3.208  0.00  0.00     0.060 C 
HETATM   13  C   UNK N   1      30.078  11.146   1.445  0.00  0.00    -0.023 A 
HETATM   14  C   UNK N   1      28.827  10.795   1.155  0.00  0.00    -0.027 A 
HETATM   15  C   UNK N   1      27.974  11.884   1.607  0.00  0.00     0.041 A 
HETATM   16  N   UNK N   1      28.789  12.880   2.188  0.00  0.00    -0.355 N 
ATOM     17  HN  UNK N   1      28.470  13.760   2.593  1.00  0.00     0.166 HD
HETATM   18  C   UNK N   1      30.008  12.474   2.110  0.00  0.00     0.041 A 
HETATM   19  C   UNK N   1      26.644  11.930   1.463  0.00  0.00     0.060 C 
HETATM   20  C   UNK N   1      31.875  16.383   3.952  0.00  0.00    -0.023 A 
HETATM   21  C   UNK N   1      32.288  15.125   3.587  0.00  0.00    -0.027 A 
HETATM   22  C   UNK N   1      31.167  14.469   3.109  0.00  0.00     0.041 A 
HETATM   23  N   UNK N   1      30.081  15.267   3.177  0.00  0.00    -0.355 N 
HETATM   24  C   UNK N   1      30.519  16.442   3.688  0.00  0.00     0.041 A 
HETATM   25  C   UNK N   1      29.753  17.506   3.947  0.00  0.00     0.060 C 
HETATM   26  C   UNK N   1      31.174  13.220   2.631  0.00  0.00     0.060 C 
HETATM   27  C   UNK N   1      33.674  14.583   3.696  0.00  0.00     0.051 C 
HETATM   28  C   UNK N   1      27.965  19.942   4.934  0.00  0.00     0.051 C 
HETATM   29  C   UNK N   1      22.586  14.808   2.305  0.00  0.00     0.051 C 
HETATM   30  C   UNK N   1      28.396   9.544   0.458  0.00  0.00     0.051 C 
HETATM   31  H   UNK N   1      27.154  14.444   2.595  0.00  0.00     0.166 HD
HETATM   32  H   UNK N   1      29.160  15.042   2.911  0.00  0.00     0.166 HD
ENDROOT
BRANCH   1  33
HETATM   33  C   UNK N   1      24.983  19.061   4.634  0.00  0.00     0.052 C 
BRANCH  33  34
HETATM   34  C   UNK N   1      23.914  19.212   3.576  0.00  0.00     0.115 C 
BRANCH  34  35
HETATM   35  C   UNK N   1      24.068  20.563   2.960  0.00  0.00     0.139 C 
HETATM   36  O   UNK N   1      23.173  21.385   3.062  0.00  0.00    -0.650 OA
BRANCH  35  37
HETATM   37  O   UNK N   1      25.204  20.884   2.312  0.00  0.00    -0.776 OA
HETATM   38  H   UNK N   1      26.088  20.968   2.612  0.00  0.00     0.167 HD
ENDBRANCH  35  37
ENDBRANCH  34  35
ENDBRANCH  33  34
ENDBRANCH   1  33
BRANCH  20  39
HETATM   39  C   UNK N   1      32.724  17.466   4.543  0.00  0.00     0.052 C 
BRANCH  39  40
HETATM   40  C   UNK N   1      32.736  17.343   6.059  0.00  0.00     0.115 C 
BRANCH  40  41
HETATM   41  C   UNK N   1      34.137  17.350   6.571  0.00  0.00     0.139 C 
HETATM   42  O   UNK N   1      34.562  18.312   7.187  0.00  0.00    -0.650 OA
BRANCH  41  43
HETATM   43  O   UNK N   1      34.938  16.292   6.343  0.00  0.00    -0.776 OA
HETATM   44  H   UNK N   1      34.826  15.779   5.566  0.00  0.00     0.167 HD
ENDBRANCH  41  43
ENDBRANCH  40  41
ENDBRANCH  39  40
ENDBRANCH  20  39
BRANCH   7  45
HETATM   45  C   UNK N   1      23.423  12.040   1.203  0.00  0.00     0.052 C 
BRANCH  45  46
HETATM   46  C   UNK N   1      23.393  11.848  -0.308  0.00  0.00     0.115 C 
BRANCH  46  47
HETATM   47  C   UNK N   1      23.688  10.431  -0.686  0.00  0.00     0.139 C 
HETATM   48  O   UNK N   1      24.081   9.639   0.154  0.00  0.00    -0.650 OA
BRANCH  47  49
HETATM   49  O   UNK N   1      23.555  10.037  -1.966  0.00  0.00    -0.776 OA
HETATM   50  H   UNK N   1      23.741   9.167  -2.258  0.00  0.00     0.167 HD
ENDBRANCH  47  49
ENDBRANCH  46  47
ENDBRANCH  45  46
ENDBRANCH   7  45
BRANCH  13  51
HETATM   51  C   UNK N   1      31.286  10.312   1.097  0.00  0.00     0.052 C 
BRANCH  51  52
HETATM   52  C   UNK N   1      31.658  10.350  -0.377  0.00  0.00     0.115 C 
BRANCH  52  53
HETATM   53  C   UNK N   1      31.868  11.753  -0.836  0.00  0.00     0.139 C 
HETATM   54  O   UNK N   1      32.835  12.388  -0.445  0.00  0.00    -0.650 OA
BRANCH  53  55
HETATM   55  O   UNK N   1      31.005  12.312  -1.702  0.00  0.00    -0.776 OA
HETATM   56  H   UNK N   1      30.345  11.836  -2.165  0.00  0.00     0.167 HD
ENDBRANCH  53  55
ENDBRANCH  52  53
ENDBRANCH  51  52
ENDBRANCH  13  51
TORSDOF 16
ENDMDL
MODEL 2
REMARK VINA RESULT:      -7.5      2.883      8.303
REMARK  16 active torsions:
REMARK  status: ('A' for Active; 'I' for Inactive)
REMARK    1  A    between atoms: C_33  and  C_1 
REMARK    2  A    between atoms: C_7  and  C_43 
REMARK    3  A    between atoms: C_13  and  C_27 
REMARK    4  A    between atoms: C_20  and  C_38 
REMARK    5  A    between atoms: C_27  and  C_28 
REMARK    6  A    between atoms: C_28  and  C_29 
REMARK    7  A    between atoms: C_29  and  O_31 
REMARK    8  A    between atoms: C_33  and  C_34 
REMARK    9  A    between atoms: C_34  and  C_35 
REMARK   10  A    between atoms: C_35  and  O_37 
REMARK   11  A    between atoms: C_38  and  C_39 
REMARK   12  A    between atoms: C_39  and  C_40 
REMARK   13  A    between atoms: C_40  and  O_42 
REMARK   14  A    between atoms: C_43  and  C_44 
REMARK   15  A    between atoms: C_44  and  C_45 
REMARK   16  A    between atoms: C_45  and  O_47 
ROOT
HETATM    1  C   UNK N   1      21.589  18.173   3.880  0.00  0.00    -0.023 A 
HETATM    2  C   UNK N   1      20.872  17.188   3.345  0.00  0.00    -0.027 A 
HETATM    3  C   UNK N   1      21.800  16.078   3.064  0.00  0.00     0.041 A 
HETATM    4  N   UNK N   1      22.998  16.379   3.424  0.00  0.00    -0.355 N 
ATOM      5  HN  UNK N   1      23.825  15.789   3.332  1.00  0.00     0.166 HD
HETATM    6  C   UNK N   1      22.953  17.679   3.970  0.00  0.00     0.041 A 
HETATM    7  C   UNK N   1      27.543  17.860   4.957  0.00  0.00    -0.023 A 
HETATM    8  C   UNK N   1      26.400  18.606   5.111  0.00  0.00    -0.027 A 
HETATM    9  C   UNK N   1      25.376  17.902   4.520  0.00  0.00     0.041 A 
HETATM   10  N   UNK N   1      25.834  16.744   3.998  0.00  0.00    -0.355 N 
HETATM   11  C   UNK N   1      27.161  16.715   4.261  0.00  0.00     0.041 A 
HETATM   12  C   UNK N   1      23.984  18.371   4.462  0.00  0.00     0.060 C 
HETATM   13  C   UNK N   1      27.851  12.520   2.198  0.00  0.00    -0.023 A 
HETATM   14  C   UNK N   1      28.587  13.417   2.850  0.00  0.00    -0.027 A 
HETATM   15  C   UNK N   1      27.700  14.523   3.180  0.00  0.00     0.041 A 
HETATM   16  N   UNK N   1      26.415  14.233   2.674  0.00  0.00    -0.355 N 
ATOM     17  HN  UNK N   1      25.588  14.825   2.752  1.00  0.00     0.166 HD
HETATM   18  C   UNK N   1      26.478  13.083   2.098  0.00  0.00     0.041 A 
HETATM   19  C   UNK N   1      28.055  15.612   3.872  0.00  0.00     0.060 C 
HETATM   20  C   UNK N   1      21.895  12.887   1.039  0.00  0.00    -0.023 A 
HETATM   21  C   UNK N   1      23.041  12.182   0.763  0.00  0.00    -0.027 A 
HETATM   22  C   UNK N   1      24.069  12.833   1.421  0.00  0.00     0.041 A 
HETATM   23  N   UNK N   1      23.605  13.917   2.078  0.00  0.00    -0.355 N 
HETATM   24  C   UNK N   1      22.272  13.945   1.847  0.00  0.00     0.041 A 
HETATM   25  C   UNK N   1      21.429  14.878   2.296  0.00  0.00     0.060 C 
HETATM   26  C   UNK N   1      25.343  12.425   1.415  0.00  0.00     0.060 C 
HETATM   27  C   UNK N   1      23.142  10.958  -0.085  0.00  0.00     0.051 C 
HETATM   28  C   UNK N   1      19.418  17.237   3.004  0.00  0.00     0.051 C 
HETATM   29  C   UNK N   1      26.286  19.929   5.794  0.00  0.00     0.051 C 
HETATM   30  C   UNK N   1      30.032  13.283   3.210  0.00  0.00     0.051 C 
HETATM   31  H   UNK N   1      25.309  16.060   3.524  0.00  0.00     0.166 HD
HETATM   32  H   UNK N   1      24.129  14.556   2.614  0.00  0.00     0.166 HD
ENDROOT
BRANCH   1  33
HETATM   33  C   UNK N   1      21.127  19.556   4.213  0.00  0.00     0.052 C 
BRANCH  33  34
HETATM   34  C   UNK N   1      20.572  20.302   3.021  0.00  0.00     0.115 C 
BRANCH  34  35
HETATM   35  C   UNK N   1      21.725  20.795   2.213  0.00  0.00     0.139 C 
HETATM   36  O   UNK N   1      22.672  21.331   2.764  0.00  0.00    -0.650 OA
BRANCH  35  37
HETATM   37  O   UNK N   1      21.735  20.626   0.877  0.00  0.00    -0.776 OA
HETATM   38  H   UNK N   1      21.373  21.142   0.183  0.00  0.00     0.167 HD
ENDBRANCH  35  37
ENDBRANCH  34  35
ENDBRANCH  33  34
ENDBRANCH   1  33
BRANCH  20  39
HETATM   39  C   UNK N   1      20.516  12.585   0.539  0.00  0.00     0.052 C 
BRANCH  39  40
HETATM   40  C   UNK N   1      19.740  11.820   1.599  0.00  0.00     0.115 C 
BRANCH  40  41
HETATM   41  C   UNK N   1      18.537  12.595   2.025  0.00  0.00     0.139 C 
HETATM   42  O   UNK N   1      17.817  12.174   2.914  0.00  0.00    -0.650 OA
BRANCH  41  43
HETATM   43  O   UNK N   1      18.242  13.758   1.416  0.00  0.00    -0.776 OA
HETATM   44  H   UNK N   1      18.866  14.457   1.412  0.00  0.00     0.167 HD
ENDBRANCH  41  43
ENDBRANCH  40  41
ENDBRANCH  39  40
ENDBRANCH  20  39
BRANCH   7  45
HETATM   45  C   UNK N   1      28.894  18.293   5.472  0.00  0.00     0.052 C 
BRANCH  45  46
HETATM   46  C   UNK N   1      29.433  17.553   6.689  0.00  0.00     0.115 C 
BRANCH  46  47
HETATM   47  C   UNK N   1      28.860  18.097   7.959  0.00  0.00     0.139 C 
HETATM   48  O   UNK N   1      29.515  18.856   8.654  0.00  0.00    -0.650 OA
BRANCH  47  49
HETATM   49  O   UNK N   1      27.631  17.718   8.356  0.00  0.00    -0.776 OA
HETATM   50  H   UNK N   1      27.426  17.484   9.240  0.00  0.00     0.167 HD
ENDBRANCH  47  49
ENDBRANCH  46  47
ENDBRANCH  45  46
ENDBRANCH   7  45
BRANCH  13  51
HETATM   51  C   UNK N   1      28.377  11.192   1.715  0.00  0.00     0.052 C 
BRANCH  51  52
HETATM   52  C   UNK N   1      28.560  11.110   0.208  0.00  0.00     0.115 C 
BRANCH  52  53
HETATM   53  C   UNK N   1      29.920  11.578  -0.188  0.00  0.00     0.139 C 
HETATM   54  O   UNK N   1      30.891  11.284   0.491  0.00  0.00    -0.650 OA
BRANCH  53  55
HETATM   55  O   UNK N   1      30.081  12.304  -1.309  0.00  0.00    -0.776 OA
HETATM   56  H   UNK N   1      30.905  12.437  -1.732  0.00  0.00     0.167 HD
ENDBRANCH  53  55
ENDBRANCH  52  53
ENDBRANCH  51  52
ENDBRANCH  13  51
TORSDOF 16
ENDMDL
MODEL 3
REMARK VINA RESULT:      -7.5      0.578      7.629
REMARK  16 active torsions:
REMARK  status: ('A' for Active; 'I' for Inactive)
REMARK    1  A    between atoms: C_33  and  C_1 
REMARK    2  A    between atoms: C_7  and  C_43 
REMARK    3  A    between atoms: C_13  and  C_27 
REMARK    4  A    between atoms: C_20  and  C_38 
REMARK    5  A    between atoms: C_27  and  C_28 
REMARK    6  A    between atoms: C_28  and  C_29 
REMARK    7  A    between atoms: C_29  and  O_31 
REMARK    8  A    between atoms: C_33  and  C_34 
REMARK    9  A    between atoms: C_34  and  C_35 
REMARK   10  A    between atoms: C_35  and  O_37 
REMARK   11  A    between atoms: C_38  and  C_39 
REMARK   12  A    between atoms: C_39  and  C_40 
REMARK   13  A    between atoms: C_40  and  O_42 
REMARK   14  A    between atoms: C_43  and  C_44 
REMARK   15  A    between atoms: C_44  and  C_45 
REMARK   16  A    between atoms: C_45  and  O_47 
ROOT
HETATM    1  C   UNK N   1      31.668  16.575   3.886  0.00  0.00    -0.023 A 
HETATM    2  C   UNK N   1      32.083  15.475   3.265  0.00  0.00    -0.027 A 
HETATM    3  C   UNK N   1      30.884  14.780   2.763  0.00  0.00     0.041 A 
HETATM    4  N   UNK N   1      29.817  15.436   3.055  0.00  0.00    -0.355 N 
ATOM      5  HN  UNK N   1      28.860  15.169   2.828  1.00  0.00     0.166 HD
HETATM    6  C   UNK N   1      30.221  16.597   3.748  0.00  0.00     0.041 A 
HETATM    7  C   UNK N   1      25.863  18.252   4.332  0.00  0.00    -0.023 A 
HETATM    8  C   UNK N   1      27.167  18.606   4.575  0.00  0.00    -0.027 A 
HETATM    9  C   UNK N   1      27.956  17.565   4.140  0.00  0.00     0.041 A 
HETATM   10  N   UNK N   1      27.193  16.571   3.634  0.00  0.00    -0.355 N 
HETATM   11  C   UNK N   1      25.912  16.986   3.753  0.00  0.00     0.041 A 
HETATM   12  C   UNK N   1      29.422  17.551   4.234  0.00  0.00     0.060 C 
HETATM   13  C   UNK N   1      24.084  13.085   1.810  0.00  0.00    -0.023 A 
HETATM   14  C   UNK N   1      23.626  14.235   2.298  0.00  0.00    -0.027 A 
HETATM   15  C   UNK N   1      24.785  14.974   2.779  0.00  0.00     0.041 A 
HETATM   16  N   UNK N   1      25.938  14.190   2.561  0.00  0.00    -0.355 N 
ATOM     17  HN  UNK N   1      26.896  14.448   2.797  1.00  0.00     0.166 HD
HETATM   18  C   UNK N   1      25.558  13.092   2.007  0.00  0.00     0.041 A 
HETATM   19  C   UNK N   1      24.747  16.202   3.311  0.00  0.00     0.060 C 
HETATM   20  C   UNK N   1      29.905  11.371   1.455  0.00  0.00    -0.023 A 
HETATM   21  C   UNK N   1      28.608  10.941   1.314  0.00  0.00    -0.027 A 
HETATM   22  C   UNK N   1      27.802  12.008   1.670  0.00  0.00     0.041 A 
HETATM   23  N   UNK N   1      28.549  13.070   2.038  0.00  0.00    -0.355 N 
HETATM   24  C   UNK N   1      29.838  12.679   1.899  0.00  0.00     0.041 A 
HETATM   25  C   UNK N   1      30.908  13.426   2.185  0.00  0.00     0.060 C 
HETATM   26  C   UNK N   1      26.465  11.984   1.636  0.00  0.00     0.060 C 
HETATM   27  C   UNK N   1      28.170   9.586   0.868  0.00  0.00     0.051 C 
HETATM   28  C   UNK N   1      33.492  14.986   3.181  0.00  0.00     0.051 C 
HETATM   29  C   UNK N   1      27.644  19.880   5.192  0.00  0.00     0.051 C 
HETATM   30  C   UNK N   1      22.202  14.691   2.304  0.00  0.00     0.051 C 
HETATM   31  H   UNK N   1      27.508  15.718   3.257  0.00  0.00     0.166 HD
HETATM   32  H   UNK N   1      28.224  13.948   2.344  0.00  0.00     0.166 HD
ENDROOT
BRANCH   1  33
HETATM   33  C   UNK N   1      32.493  17.540   4.676  0.00  0.00     0.052 C 
BRANCH  33  34
HETATM   34  C   UNK N   1      32.636  17.152   6.130  0.00  0.00     0.115 C 
BRANCH  34  35
HETATM   35  C   UNK N   1      34.085  17.221   6.481  0.00  0.00     0.139 C 
HETATM   36  O   UNK N   1      34.845  16.343   6.109  0.00  0.00    -0.650 OA
BRANCH  35  37
HETATM   37  O   UNK N   1      34.559  18.264   7.188  0.00  0.00    -0.776 OA
HETATM   38  H   UNK N   1      34.474  19.189   7.064  0.00  0.00     0.167 HD
ENDBRANCH  35  37
ENDBRANCH  34  35
ENDBRANCH  33  34
ENDBRANCH   1  33
BRANCH  20  39
HETATM   39  C   UNK N   1      31.145  10.570   1.203  0.00  0.00     0.052 C 
BRANCH  39  40
HETATM   40  C   UNK N   1      31.836  11.071  -0.056  0.00  0.00     0.115 C 
BRANCH  40  41
HETATM   41  C   UNK N   1      30.990  10.803  -1.256  0.00  0.00     0.139 C 
HETATM   42  O   UNK N   1      30.815   9.660  -1.643  0.00  0.00    -0.650 OA
BRANCH  41  43
HETATM   43  O   UNK N   1      30.427  11.830  -1.920  0.00  0.00    -0.776 OA
HETATM   44  H   UNK N   1      30.948  12.568  -2.170  0.00  0.00     0.167 HD
ENDBRANCH  41  43
ENDBRANCH  40  41
ENDBRANCH  39  40
ENDBRANCH  20  39
BRANCH   7  45
HETATM   45  C   UNK N   1      24.686  19.134   4.671  0.00  0.00     0.052 C 
BRANCH  45  46
HETATM   46  C   UNK N   1      23.662  19.366   3.568  0.00  0.00     0.115 C 
BRANCH  46  47
HETATM   47  C   UNK N   1      23.905  20.662   2.860  0.00  0.00     0.139 C 
HETATM   48  O   UNK N   1      23.078  21.558   2.915  0.00  0.00    -0.650 OA
BRANCH  47  49
HETATM   49  O   UNK N   1      25.022  20.827   2.129  0.00  0.00    -0.776 OA
HETATM   50  H   UNK N   1      25.709  21.419   2.365  0.00  0.00     0.167 HD
ENDBRANCH  47  49
ENDBRANCH  46  47
ENDBRANCH  45  46
ENDBRANCH   7  45
BRANCH  13  51
HETATM   51  C   UNK N   1      23.210  12.039   1.165  0.00  0.00     0.052 C 
BRANCH  51  52
HETATM   52  C   UNK N   1      23.479  11.841  -0.319  0.00  0.00     0.115 C 
BRANCH  52  53
HETATM   53  C   UNK N   1      23.702  10.399  -0.630  0.00  0.00     0.139 C 
HETATM   54  O   UNK N   1      23.440   9.964  -1.741  0.00  0.00    -0.650 OA
BRANCH  53  55
HETATM   55  O   UNK N   1      24.214   9.582   0.306  0.00  0.00    -0.776 OA
HETATM   56  H   UNK N   1      24.981   9.058   0.181  0.00  0.00     0.167 HD
ENDBRANCH  53  55
ENDBRANCH  52  53
ENDBRANCH  51  52
ENDBRANCH  13  51
TORSDOF 16
ENDMDL
MODEL 4
REMARK VINA RESULT:      -7.4      2.701      7.263
REMARK  16 active torsions:
REMARK  status: ('A' for Active; 'I' for Inactive)
REMARK    1  A    between atoms: C_33  and  C_1 
REMARK    2  A    between atoms: C_7  and  C_43 
REMARK    3  A    between atoms: C_13  and  C_27 
REMARK    4  A    between atoms: C_20  and  C_38 
REMARK    5  A    between atoms: C_27  and  C_28 
REMARK    6  A    between atoms: C_28  and  C_29 
REMARK    7  A    between atoms: C_29  and  O_31 
REMARK    8  A    between atoms: C_33  and  C_34 
REMARK    9  A    between atoms: C_34  and  C_35 
REMARK   10  A    between atoms: C_35  and  O_37 
REMARK   11  A    between atoms: C_38  and  C_39 
REMARK   12  A    between atoms: C_39  and  C_40 
REMARK   13  A    between atoms: C_40  and  O_42 
REMARK   14  A    between atoms: C_43  and  C_44 
REMARK   15  A    between atoms: C_44  and  C_45 
REMARK   16  A    between atoms: C_45  and  O_47 
ROOT
HETATM    1  C   UNK N   1      26.576  15.666   2.265  0.00  0.00    -0.023 A 
HETATM    2  C   UNK N   1      26.422  16.646   3.151  0.00  0.00    -0.027 A 
HETATM    3  C   UNK N   1      27.646  16.687   3.972  0.00  0.00     0.041 A 
HETATM    4  N   UNK N   1      28.486  15.792   3.587  0.00  0.00    -0.355 N 
ATOM      5  HN  UNK N   1      29.404  15.608   3.992  1.00  0.00     0.166 HD
HETATM    6  C   UNK N   1      27.900  15.113   2.499  0.00  0.00     0.041 A 
HETATM    7  C   UNK N   1      31.539  12.219   1.824  0.00  0.00    -0.023 A 
HETATM    8  C   UNK N   1      30.321  12.528   1.271  0.00  0.00    -0.027 A 
HETATM    9  C   UNK N   1      29.758  13.508   2.058  0.00  0.00     0.041 A 
HETATM   10  N   UNK N   1      30.578  13.822   3.084  0.00  0.00    -0.355 N 
HETATM   11  C   UNK N   1      31.668  13.034   2.947  0.00  0.00     0.041 A 
HETATM   12  C   UNK N   1      28.439  14.106   1.806  0.00  0.00     0.060 C 
HETATM   13  C   UNK N   1      33.856  14.768   6.759  0.00  0.00    -0.023 A 
HETATM   14  C   UNK N   1      34.117  13.870   5.811  0.00  0.00    -0.027 A 
HETATM   15  C   UNK N   1      32.943  13.819   4.952  0.00  0.00     0.041 A 
HETATM   16  N   UNK N   1      31.980  14.721   5.456  0.00  0.00    -0.355 N 
ATOM     17  HN  UNK N   1      31.056  14.899   5.061  1.00  0.00     0.166 HD
HETATM   18  C   UNK N   1      32.483  15.276   6.502  0.00  0.00     0.041 A 
HETATM   19  C   UNK N   1      32.824  13.059   3.856  0.00  0.00     0.060 C 
HETATM   20  C   UNK N   1      28.832  18.154   7.248  0.00  0.00    -0.023 A 
HETATM   21  C   UNK N   1      29.987  17.778   7.889  0.00  0.00    -0.027 A 
HETATM   22  C   UNK N   1      30.606  16.852   7.068  0.00  0.00     0.041 A 
HETATM   23  N   UNK N   1      29.873  16.633   5.956  0.00  0.00    -0.355 N 
HETATM   24  C   UNK N   1      28.789  17.437   6.066  0.00  0.00     0.041 A 
HETATM   25  C   UNK N   1      27.788  17.509   5.184  0.00  0.00     0.060 C 
HETATM   26  C   UNK N   1      31.780  16.271   7.341  0.00  0.00     0.060 C 
HETATM   27  C   UNK N   1      30.465  18.275   9.213  0.00  0.00     0.051 C 
HETATM   28  C   UNK N   1      25.198  17.482   3.341  0.00  0.00     0.051 C 
HETATM   29  C   UNK N   1      29.718  11.922   0.047  0.00  0.00     0.051 C 
HETATM   30  C   UNK N   1      35.389  13.103   5.643  0.00  0.00     0.051 C 
HETATM   31  H   UNK N   1      30.414  14.490   3.789  0.00  0.00     0.166 HD
HETATM   32  H   UNK N   1      30.083  16.016   5.218  0.00  0.00     0.166 HD
ENDROOT
BRANCH   1  33
HETATM   33  C   UNK N   1      25.559  15.144   1.301  0.00  0.00     0.052 C 
BRANCH  33  34
HETATM   34  C   UNK N   1      24.508  14.276   1.955  0.00  0.00     0.115 C 
BRANCH  34  35
HETATM   35  C   UNK N   1      23.398  14.088   0.976  0.00  0.00     0.139 C 
HETATM   36  O   UNK N   1      23.571  13.402  -0.018  0.00  0.00    -0.650 OA
BRANCH  35  37
HETATM   37  O   UNK N   1      22.197  14.653   1.199  0.00  0.00    -0.776 OA
HETATM   38  H   UNK N   1      21.611  15.114   0.631  0.00  0.00     0.167 HD
ENDBRANCH  35  37
ENDBRANCH  34  35
ENDBRANCH  33  34
ENDBRANCH   1  33
BRANCH  20  39
HETATM   39  C   UNK N   1      27.809  19.128   7.745  0.00  0.00     0.052 C 
BRANCH  39  40
HETATM   40  C   UNK N   1      27.744  20.328   6.813  0.00  0.00     0.115 C 
BRANCH  40  41
HETATM   41  C   UNK N   1      26.514  21.130   7.081  0.00  0.00     0.139 C 
HETATM   42  O   UNK N   1      26.147  21.978   6.286  0.00  0.00    -0.650 OA
BRANCH  41  43
HETATM   43  O   UNK N   1      25.813  20.920   8.211  0.00  0.00    -0.776 OA
HETATM   44  H   UNK N   1      25.420  20.085   8.371  0.00  0.00     0.167 HD
ENDBRANCH  41  43
ENDBRANCH  40  41
ENDBRANCH  39  40
ENDBRANCH  20  39
BRANCH   7  45
HETATM   45  C   UNK N   1      32.471  11.180   1.250  0.00  0.00     0.052 C 
BRANCH  45  46
HETATM   46  C   UNK N   1      33.726  11.693   0.554  0.00  0.00     0.115 C 
BRANCH  46  47
HETATM   47  C   UNK N   1      33.540  11.760  -0.929  0.00  0.00     0.139 C 
HETATM   48  O   UNK N   1      32.913  12.678  -1.430  0.00  0.00    -0.650 OA
BRANCH  47  49
HETATM   49  O   UNK N   1      34.034  10.782  -1.711  0.00  0.00    -0.776 OA
HETATM   50  H   UNK N   1      34.427  10.941  -2.546  0.00  0.00     0.167 HD
ENDBRANCH  47  49
ENDBRANCH  46  47
ENDBRANCH  45  46
ENDBRANCH   7  45
BRANCH  13  51
HETATM   51  C   UNK N   1      34.837  15.163   7.834  0.00  0.00     0.052 C 
BRANCH  51  52
HETATM   52  C   UNK N   1      34.653  14.413   9.144  0.00  0.00     0.115 C 
BRANCH  52  53
HETATM   53  C   UNK N   1      34.194  15.335  10.223  0.00  0.00     0.139 C 
HETATM   54  O   UNK N   1      34.734  16.419  10.375  0.00  0.00    -0.650 OA
BRANCH  53  55
HETATM   55  O   UNK N   1      33.165  14.982  11.014  0.00  0.00    -0.776 OA
HETATM   56  H   UNK N   1      32.270  14.976  10.738  0.00  0.00     0.167 HD
ENDBRANCH  53  55
ENDBRANCH  52  53
ENDBRANCH  51  52
ENDBRANCH  13  51
TORSDOF 16
ENDMDL
MODEL 5
REMARK VINA RESULT:      -7.4      0.536      7.688
REMARK  16 active torsions:
REMARK  status: ('A' for Active; 'I' for Inactive)
REMARK    1  A    between atoms: C_33  and  C_1 
REMARK    2  A    between atoms: C_7  and  C_43 
REMARK    3  A    between atoms: C_13  and  C_27 
REMARK    4  A    between atoms: C_20  and  C_38 
REMARK    5  A    between atoms: C_27  and  C_28 
REMARK    6  A    between atoms: C_28  and  C_29 
REMARK    7  A    between atoms: C_29  and  O_31 
REMARK    8  A    between atoms: C_33  and  C_34 
REMARK    9  A    between atoms: C_34  and  C_35 
REMARK   10  A    between atoms: C_35  and  O_37 
REMARK   11  A    between atoms: C_38  and  C_39 
REMARK   12  A    between atoms: C_39  and  C_40 
REMARK   13  A    between atoms: C_40  and  O_42 
REMARK   14  A    between atoms: C_43  and  C_44 
REMARK   15  A    between atoms: C_44  and  C_45 
REMARK   16  A    between atoms: C_45  and  O_47 
ROOT
HETATM    1  C   UNK N   1      24.328  13.147   1.583  0.00  0.00    -0.023 A 
HETATM    2  C   UNK N   1      23.951  14.359   1.980  0.00  0.00    -0.027 A 
HETATM    3  C   UNK N   1      25.172  15.090   2.367  0.00  0.00     0.041 A 
HETATM    4  N   UNK N   1      26.217  14.359   2.197  0.00  0.00    -0.355 N 
ATOM      5  HN  UNK N   1      27.181  14.626   2.395  1.00  0.00     0.166 HD
HETATM    6  C   UNK N   1      25.778  13.120   1.685  0.00  0.00     0.041 A 
HETATM    7  C   UNK N   1      30.083  11.260   1.396  0.00  0.00    -0.023 A 
HETATM    8  C   UNK N   1      28.779  10.954   1.093  0.00  0.00    -0.027 A 
HETATM    9  C   UNK N   1      28.008  12.017   1.507  0.00  0.00     0.041 A 
HETATM   10  N   UNK N   1      28.781  12.976   2.060  0.00  0.00    -0.355 N 
HETATM   11  C   UNK N   1      30.051  12.516   1.997  0.00  0.00     0.041 A 
HETATM   12  C   UNK N   1      26.546  12.074   1.369  0.00  0.00     0.060 C 
HETATM   13  C   UNK N   1      31.930  16.345   4.031  0.00  0.00    -0.023 A 
HETATM   14  C   UNK N   1      32.372  15.199   3.518  0.00  0.00    -0.027 A 
HETATM   15  C   UNK N   1      31.198  14.454   3.090  0.00  0.00     0.041 A 
HETATM   16  N   UNK N   1      30.048  15.217   3.391  0.00  0.00    -0.355 N 
ATOM     17  HN  UNK N   1      29.082  14.949   3.207  1.00  0.00     0.166 HD
HETATM   18  C   UNK N   1      30.446  16.311   3.940  0.00  0.00     0.041 A 
HETATM   19  C   UNK N   1      31.223  13.260   2.486  0.00  0.00     0.060 C 
HETATM   20  C   UNK N   1      26.144  18.189   4.301  0.00  0.00    -0.023 A 
HETATM   21  C   UNK N   1      27.421  18.465   4.725  0.00  0.00    -0.027 A 
HETATM   22  C   UNK N   1      28.222  17.445   4.244  0.00  0.00     0.041 A 
HETATM   23  N   UNK N   1      27.489  16.546   3.554  0.00  0.00    -0.355 N 
HETATM   24  C   UNK N   1      26.216  17.008   3.585  0.00  0.00     0.041 A 
HETATM   25  C   UNK N   1      25.160  16.399   3.040  0.00  0.00     0.060 C 
HETATM   26  C   UNK N   1      29.545  17.377   4.430  0.00  0.00     0.060 C 
HETATM   27  C   UNK N   1      27.845  19.637   5.547  0.00  0.00     0.051 C 
HETATM   28  C   UNK N   1      22.546  14.852   2.103  0.00  0.00     0.051 C 
HETATM   29  C   UNK N   1      28.286   9.707   0.435  0.00  0.00     0.051 C 
HETATM   30  C   UNK N   1      33.802  14.787   3.374  0.00  0.00     0.051 C 
HETATM   31  H   UNK N   1      28.480  13.836   2.434  0.00  0.00     0.166 HD
HETATM   32  H   UNK N   1      27.813  15.724   3.118  0.00  0.00     0.166 HD
ENDROOT
BRANCH   1  33
HETATM   33  C   UNK N   1      23.448  11.994   1.221  0.00  0.00     0.052 C 
BRANCH  33  34
HETATM   34  C   UNK N   1      23.367  11.751  -0.269  0.00  0.00     0.115 C 
BRANCH  34  35
HETATM   35  C   UNK N   1      23.648  10.307  -0.513  0.00  0.00     0.139 C 
HETATM   36  O   UNK N   1      24.280   9.662   0.307  0.00  0.00    -0.650 OA
BRANCH  35  37
HETATM   37  O   UNK N   1      23.184   9.707  -1.625  0.00  0.00    -0.776 OA
HETATM   38  H   UNK N   1      22.628   8.961  -1.744  0.00  0.00     0.167 HD
ENDBRANCH  35  37
ENDBRANCH  34  35
ENDBRANCH  33  34
ENDBRANCH   1  33
BRANCH  20  39
HETATM   39  C   UNK N   1      24.914  18.995   4.583  0.00  0.00     0.052 C 
BRANCH  39  40
HETATM   40  C   UNK N   1      24.726  20.045   3.498  0.00  0.00     0.115 C 
BRANCH  40  41
HETATM   41  C   UNK N   1      23.277  20.222   3.189  0.00  0.00     0.139 C 
HETATM   42  O   UNK N   1      22.508  19.280   3.283  0.00  0.00    -0.650 OA
BRANCH  41  43
HETATM   43  O   UNK N   1      22.820  21.425   2.795  0.00  0.00    -0.776 OA
HETATM   44  H   UNK N   1      23.321  22.197   2.970  0.00  0.00     0.167 HD
ENDBRANCH  41  43
ENDBRANCH  40  41
ENDBRANCH  39  40
ENDBRANCH  20  39
BRANCH   7  45
HETATM   45  C   UNK N   1      31.242  10.340   1.098  0.00  0.00     0.052 C 
BRANCH  45  46
HETATM   46  C   UNK N   1      31.756  10.327  -0.335  0.00  0.00     0.115 C 
BRANCH  46  47
HETATM   47  C   UNK N   1      32.429  11.616  -0.687  0.00  0.00     0.139 C 
HETATM   48  O   UNK N   1      32.092  12.234  -1.683  0.00  0.00    -0.650 OA
BRANCH  47  49
HETATM   49  O   UNK N   1      33.436  12.077   0.077  0.00  0.00    -0.776 OA
HETATM   50  H   UNK N   1      34.051  11.518   0.509  0.00  0.00     0.167 HD
ENDBRANCH  47  49
ENDBRANCH  46  47
ENDBRANCH  45  46
ENDBRANCH   7  45
BRANCH  13  51
HETATM   51  C   UNK N   1      32.831  17.436   4.552  0.00  0.00     0.052 C 
BRANCH  51  52
HETATM   52  C   UNK N   1      32.824  17.573   6.066  0.00  0.00     0.115 C 
BRANCH  52  53
HETATM   53  C   UNK N   1      34.199  17.407   6.621  0.00  0.00     0.139 C 
HETATM   54  O   UNK N   1      34.870  16.433   6.315  0.00  0.00    -0.650 OA
BRANCH  53  55
HETATM   55  O   UNK N   1      34.710  18.343   7.439  0.00  0.00    -0.776 OA
HETATM   56  H   UNK N   1      35.617  18.579   7.464  0.00  0.00     0.167 HD
ENDBRANCH  53  55
ENDBRANCH  52  53
ENDBRANCH  51  52
ENDBRANCH  13  51
TORSDOF 16
ENDMDL
MODEL 6
REMARK VINA RESULT:      -7.3      2.627      8.537
REMARK  16 active torsions:
REMARK  status: ('A' for Active; 'I' for Inactive)
REMARK    1  A    between atoms: C_33  and  C_1 
REMARK    2  A    between atoms: C_7  and  C_43 
REMARK    3  A    between atoms: C_13  and  C_27 
REMARK    4  A    between atoms: C_20  and  C_38 
REMARK    5  A    between atoms: C_27  and  C_28 
REMARK    6  A    between atoms: C_28  and  C_29 
REMARK    7  A    between atoms: C_29  and  O_31 
REMARK    8  A    between atoms: C_33  and  C_34 
REMARK    9  A    between atoms: C_34  and  C_35 
REMARK   10  A    between atoms: C_35  and  O_37 
REMARK   11  A    between atoms: C_38  and  C_39 
REMARK   12  A    between atoms: C_39  and  C_40 
REMARK   13  A    between atoms: C_40  and  O_42 
REMARK   14  A    between atoms: C_43  and  C_44 
REMARK   15  A    between atoms: C_44  and  C_45 
REMARK   16  A    between atoms: C_45  and  O_47 
ROOT
HETATM    1  C   UNK N   1      33.995  15.048   6.455  0.00  0.00    -0.023 A 
HETATM    2  C   UNK N   1      34.263  14.288   5.397  0.00  0.00    -0.027 A 
HETATM    3  C   UNK N   1      33.063  14.299   4.540  0.00  0.00     0.041 A 
HETATM    4  N   UNK N   1      32.141  15.035   5.051  0.00  0.00    -0.355 N 
ATOM      5  HN  UNK N   1      31.214  15.204   4.660  1.00  0.00     0.166 HD
HETATM    6  C   UNK N   1      32.652  15.565   6.254  0.00  0.00     0.041 A 
HETATM    7  C   UNK N   1      28.770  17.994   7.303  0.00  0.00    -0.023 A 
HETATM    8  C   UNK N   1      30.043  17.786   7.774  0.00  0.00    -0.027 A 
HETATM    9  C   UNK N   1      30.641  16.878   6.929  0.00  0.00     0.041 A 
HETATM   10  N   UNK N   1      29.789  16.508   5.948  0.00  0.00    -0.355 N 
HETATM   11  C   UNK N   1      28.641  17.187   6.175  0.00  0.00     0.041 A 
HETATM   12  C   UNK N   1      32.014  16.381   7.098  0.00  0.00     0.060 C 
HETATM   13  C   UNK N   1      26.396  15.367   2.436  0.00  0.00    -0.023 A 
HETATM   14  C   UNK N   1      26.127  16.243   3.402  0.00  0.00    -0.027 A 
HETATM   15  C   UNK N   1      27.302  16.291   4.260  0.00  0.00     0.041 A 
HETATM   16  N   UNK N   1      28.263  15.388   3.754  0.00  0.00    -0.355 N 
ATOM     17  HN  UNK N   1      29.186  15.207   4.149  1.00  0.00     0.166 HD
HETATM   18  C   UNK N   1      27.760  14.839   2.705  0.00  0.00     0.041 A 
HETATM   19  C   UNK N   1      27.442  17.085   5.328  0.00  0.00     0.060 C 
HETATM   20  C   UNK N   1      31.610  12.344   1.649  0.00  0.00    -0.023 A 
HETATM   21  C   UNK N   1      30.306  12.440   1.230  0.00  0.00    -0.027 A 
HETATM   22  C   UNK N   1      29.713  13.411   2.017  0.00  0.00     0.041 A 
HETATM   23  N   UNK N   1      30.594  13.905   2.912  0.00  0.00    -0.355 N 
HETATM   24  C   UNK N   1      31.758  13.254   2.679  0.00  0.00     0.041 A 
HETATM   25  C   UNK N   1      32.890  13.425   3.367  0.00  0.00     0.060 C 
HETATM   26  C   UNK N   1      28.442  13.810   1.890  0.00  0.00     0.060 C 
HETATM   27  C   UNK N   1      29.666  11.644   0.141  0.00  0.00     0.051 C 
HETATM   28  C   UNK N   1      35.508  13.493   5.171  0.00  0.00     0.051 C 
HETATM   29  C   UNK N   1      30.665  18.423   8.972  0.00  0.00     0.051 C 
HETATM   30  C   UNK N   1      24.876  17.051   3.542  0.00  0.00     0.051 C 
HETATM   31  H   UNK N   1      29.968  15.873   5.218  0.00  0.00     0.166 HD
HETATM   32  H   UNK N   1      30.426  14.597   3.593  0.00  0.00     0.166 HD
ENDROOT
BRANCH   1  33
HETATM   33  C   UNK N   1      34.843  15.244   7.671  0.00  0.00     0.052 C 
BRANCH  33  34
HETATM   34  C   UNK N   1      34.397  14.409   8.850  0.00  0.00     0.115 C 
BRANCH  34  35
HETATM   35  C   UNK N   1      34.094  15.336   9.978  0.00  0.00     0.139 C 
HETATM   36  O   UNK N   1      34.528  16.476   9.964  0.00  0.00    -0.650 OA
BRANCH  35  37
HETATM   37  O   UNK N   1      33.322  14.924  11.002  0.00  0.00    -0.776 OA
HETATM   38  H   UNK N   1      33.523  14.430  11.772  0.00  0.00     0.167 HD
ENDBRANCH  35  37
ENDBRANCH  34  35
ENDBRANCH  33  34
ENDBRANCH   1  33
BRANCH  20  39
HETATM   39  C   UNK N   1      32.656  11.416   1.112  0.00  0.00     0.052 C 
BRANCH  39  40
HETATM   40  C   UNK N   1      33.297  12.024  -0.127  0.00  0.00     0.115 C 
BRANCH  40  41
HETATM   41  C   UNK N   1      34.596  12.670   0.222  0.00  0.00     0.139 C 
HETATM   42  O   UNK N   1      35.349  12.144   1.024  0.00  0.00    -0.650 OA
BRANCH  41  43
HETATM   43  O   UNK N   1      34.932  13.844  -0.344  0.00  0.00    -0.776 OA
HETATM   44  H   UNK N   1      34.842  13.961  -1.270  0.00  0.00     0.167 HD
ENDBRANCH  41  43
ENDBRANCH  40  41
ENDBRANCH  39  40
ENDBRANCH  20  39
BRANCH   7  45
HETATM   45  C   UNK N   1      27.785  18.930   7.961  0.00  0.00     0.052 C 
BRANCH  45  46
HETATM   46  C   UNK N   1      27.708  20.346   7.404  0.00  0.00     0.115 C 
BRANCH  46  47
HETATM   47  C   UNK N   1      26.934  20.390   6.124  0.00  0.00     0.139 C 
HETATM   48  O   UNK N   1      27.445  20.840   5.112  0.00  0.00    -0.650 OA
BRANCH  47  49
HETATM   49  O   UNK N   1      25.658  19.965   6.097  0.00  0.00    -0.776 OA
HETATM   50  H   UNK N   1      25.328  19.369   5.455  0.00  0.00     0.167 HD
ENDBRANCH  47  49
ENDBRANCH  46  47
ENDBRANCH  45  46
ENDBRANCH   7  45
BRANCH  13  51
HETATM   51  C   UNK N   1      25.455  15.053   1.301  0.00  0.00     0.052 C 
BRANCH  51  52
HETATM   52  C   UNK N   1      24.551  13.857   1.561  0.00  0.00     0.115 C 
BRANCH  52  53
HETATM   53  C   UNK N   1      23.136  14.291   1.743  0.00  0.00     0.139 C 
HETATM   54  O   UNK N   1      22.653  14.353   2.863  0.00  0.00    -0.650 OA
BRANCH  53  55
HETATM   55  O   UNK N   1      22.397  14.637   0.674  0.00  0.00    -0.776 OA
HETATM   56  H   UNK N   1      22.592  14.376  -0.204  0.00  0.00     0.167 HD
ENDBRANCH  53  55
ENDBRANCH  52  53
ENDBRANCH  51  52
ENDBRANCH  13  51
TORSDOF 16
ENDMDL
MODEL 7
REMARK VINA RESULT:      -7.2      2.648      3.091
REMARK  16 active torsions:
REMARK  status: ('A' for Active; 'I' for Inactive)
REMARK    1  A    between atoms: C_33  and  C_1 
REMARK    2  A    between atoms: C_7  and  C_43 
REMARK    3  A    between atoms: C_13  and  C_27 
REMARK    4  A    between atoms: C_20  and  C_38 
REMARK    5  A    between atoms: C_27  and  C_28 
REMARK    6  A    between atoms: C_28  and  C_29 
REMARK    7  A    between atoms: C_29  and  O_31 
REMARK    8  A    between atoms: C_33  and  C_34 
REMARK    9  A    between atoms: C_34  and  C_35 
REMARK   10  A    between atoms: C_35  and  O_37 
REMARK   11  A    between atoms: C_38  and  C_39 
REMARK   12  A    between atoms: C_39  and  C_40 
REMARK   13  A    between atoms: C_40  and  O_42 
REMARK   14  A    between atoms: C_43  and  C_44 
REMARK   15  A    between atoms: C_44  and  C_45 
REMARK   16  A    between atoms: C_45  and  O_47 
ROOT
HETATM    1  C   UNK N   1      26.326  18.317   4.814  0.00  0.00    -0.023 A 
HETATM    2  C   UNK N   1      27.430  18.680   5.461  0.00  0.00    -0.027 A 
HETATM    3  C   UNK N   1      28.398  17.576   5.324  0.00  0.00     0.041 A 
HETATM    4  N   UNK N   1      27.904  16.618   4.623  0.00  0.00    -0.355 N 
ATOM      5  HN  UNK N   1      28.365  15.739   4.386  1.00  0.00     0.166 HD
HETATM    6  C   UNK N   1      26.603  17.010   4.241  0.00  0.00     0.041 A 
HETATM    7  C   UNK N   1      25.687  13.080   1.836  0.00  0.00    -0.023 A 
HETATM    8  C   UNK N   1      25.117  14.294   2.130  0.00  0.00    -0.027 A 
HETATM    9  C   UNK N   1      25.992  14.961   2.956  0.00  0.00     0.041 A 
HETATM   10  N   UNK N   1      27.089  14.209   3.193  0.00  0.00    -0.355 N 
HETATM   11  C   UNK N   1      26.905  13.056   2.511  0.00  0.00     0.041 A 
HETATM   12  C   UNK N   1      25.743  16.301   3.506  0.00  0.00     0.060 C 
HETATM   13  C   UNK N   1      31.032  11.180   3.849  0.00  0.00    -0.023 A 
HETATM   14  C   UNK N   1      30.007  10.827   3.076  0.00  0.00    -0.027 A 
HETATM   15  C   UNK N   1      29.034  11.907   3.155  0.00  0.00     0.041 A 
HETATM   16  N   UNK N   1      29.538  12.901   4.023  0.00  0.00    -0.355 N 
ATOM     17  HN  UNK N   1      29.075  13.775   4.272  1.00  0.00     0.166 HD
HETATM   18  C   UNK N   1      30.687  12.501   4.440  0.00  0.00     0.041 A 
HETATM   19  C   UNK N   1      27.875  11.949   2.486  0.00  0.00     0.060 C 
HETATM   20  C   UNK N   1      31.621  16.398   6.910  0.00  0.00    -0.023 A 
HETATM   21  C   UNK N   1      32.156  15.146   6.732  0.00  0.00    -0.027 A 
HETATM   22  C   UNK N   1      31.329  14.491   5.837  0.00  0.00     0.041 A 
HETATM   23  N   UNK N   1      30.301  15.283   5.468  0.00  0.00    -0.355 N 
HETATM   24  C   UNK N   1      30.486  16.454   6.122  0.00  0.00     0.041 A 
HETATM   25  C   UNK N   1      29.672  17.511   6.059  0.00  0.00     0.060 C 
HETATM   26  C   UNK N   1      31.539  13.246   5.393  0.00  0.00     0.060 C 
HETATM   27  C   UNK N   1      33.386  14.610   7.387  0.00  0.00     0.051 C 
HETATM   28  C   UNK N   1      27.617  19.929   6.260  0.00  0.00     0.051 C 
HETATM   29  C   UNK N   1      23.798  14.799   1.644  0.00  0.00     0.051 C 
HETATM   30  C   UNK N   1      29.904   9.582   2.255  0.00  0.00     0.051 C 
HETATM   31  H   UNK N   1      27.864  14.453   3.748  0.00  0.00     0.166 HD
HETATM   32  H   UNK N   1      29.567  15.056   4.851  0.00  0.00     0.166 HD
ENDROOT
BRANCH   1  33
HETATM   33  C   UNK N   1      25.017  19.037   4.776  0.00  0.00     0.052 C 
BRANCH  33  34
HETATM   34  C   UNK N   1      24.402  19.084   3.396  0.00  0.00     0.115 C 
BRANCH  34  35
HETATM   35  C   UNK N   1      24.520  20.483   2.890  0.00  0.00     0.139 C 
HETATM   36  O   UNK N   1      25.558  20.859   2.372  0.00  0.00    -0.650 OA
BRANCH  35  37
HETATM   37  O   UNK N   1      23.473  21.325   2.983  0.00  0.00    -0.776 OA
HETATM   38  H   UNK N   1      22.553  21.189   2.866  0.00  0.00     0.167 HD
ENDBRANCH  35  37
ENDBRANCH  34  35
ENDBRANCH  33  34
ENDBRANCH   1  33
BRANCH  20  39
HETATM   39  C   UNK N   1      32.150  17.479   7.801  0.00  0.00     0.052 C 
BRANCH  39  40
HETATM   40  C   UNK N   1      33.517  17.931   7.309  0.00  0.00     0.115 C 
BRANCH  40  41
HETATM   41  C   UNK N   1      34.420  18.210   8.464  0.00  0.00     0.139 C 
HETATM   42  O   UNK N   1      35.223  19.126   8.409  0.00  0.00    -0.650 OA
BRANCH  41  43
HETATM   43  O   UNK N   1      34.354  17.440   9.566  0.00  0.00    -0.776 OA
HETATM   44  H   UNK N   1      35.024  17.496  10.218  0.00  0.00     0.167 HD
ENDBRANCH  41  43
ENDBRANCH  40  41
ENDBRANCH  39  40
ENDBRANCH  20  39
BRANCH   7  45
HETATM   45  C   UNK N   1      25.032  12.047   0.951  0.00  0.00     0.052 C 
BRANCH  45  46
HETATM   46  C   UNK N   1      24.498  10.796   1.637  0.00  0.00     0.115 C 
BRANCH  46  47
HETATM   47  C   UNK N   1      23.754  11.134   2.890  0.00  0.00     0.139 C 
HETATM   48  O   UNK N   1      24.249  10.903   3.981  0.00  0.00    -0.650 OA
BRANCH  47  49
HETATM   49  O   UNK N   1      22.518  11.661   2.814  0.00  0.00    -0.776 OA
HETATM   50  H   UNK N   1      21.916  11.463   2.124  0.00  0.00     0.167 HD
ENDBRANCH  47  49
ENDBRANCH  46  47
ENDBRANCH  45  46
ENDBRANCH   7  45
BRANCH  13  51
HETATM   51  C   UNK N   1      32.284  10.356   4.011  0.00  0.00     0.052 C 
BRANCH  51  52
HETATM   52  C   UNK N   1      32.111   9.140   4.908  0.00  0.00     0.115 C 
BRANCH  52  53
HETATM   53  C   UNK N   1      31.721   9.550   6.288  0.00  0.00     0.139 C 
HETATM   54  O   UNK N   1      32.485  10.217   6.968  0.00  0.00    -0.650 OA
BRANCH  53  55
HETATM   55  O   UNK N   1      30.516   9.205   6.776  0.00  0.00    -0.776 OA
HETATM   56  H   UNK N   1      29.903   8.663   6.320  0.00  0.00     0.167 HD
ENDBRANCH  53  55
ENDBRANCH  52  53
ENDBRANCH  51  52
ENDBRANCH  13  51
TORSDOF 16
ENDMDL
MODEL 8
REMARK VINA RESULT:      -6.9      2.474     10.265
REMARK  16 active torsions:
REMARK  status: ('A' for Active; 'I' for Inactive)
REMARK    1  A    between atoms: C_33  and  C_1 
REMARK    2  A    between atoms: C_7  and  C_43 
REMARK    3  A    between atoms: C_13  and  C_27 
REMARK    4  A    between atoms: C_20  and  C_38 
REMARK    5  A    between atoms: C_27  and  C_28 
REMARK    6  A    between atoms: C_28  and  C_29 
REMARK    7  A    between atoms: C_29  and  O_31 
REMARK    8  A    between atoms: C_33  and  C_34 
REMARK    9  A    between atoms: C_34  and  C_35 
REMARK   10  A    between atoms: C_35  and  O_37 
REMARK   11  A    between atoms: C_38  and  C_39 
REMARK   12  A    between atoms: C_39  and  C_40 
REMARK   13  A    between atoms: C_40  and  O_42 
REMARK   14  A    between atoms: C_43  and  C_44 
REMARK   15  A    between atoms: C_44  and  C_45 
REMARK   16  A    between atoms: C_45  and  O_47 
ROOT
HETATM    1  C   UNK N   1      29.691  12.656   2.053  0.00  0.00    -0.023 A 
HETATM    2  C   UNK N   1      28.898  11.757   1.477  0.00  0.00    -0.027 A 
HETATM    3  C   UNK N   1      27.524  12.288   1.535  0.00  0.00     0.041 A 
HETATM    4  N   UNK N   1      27.502  13.443   2.100  0.00  0.00    -0.355 N 
ATOM      5  HN  UNK N   1      26.678  14.019   2.270  1.00  0.00     0.166 HD
HETATM    6  C   UNK N   1      28.833  13.763   2.442  0.00  0.00     0.041 A 
HETATM    7  C   UNK N   1      27.772  17.934   4.325  0.00  0.00    -0.023 A 
HETATM    8  C   UNK N   1      28.865  17.156   4.035  0.00  0.00    -0.027 A 
HETATM    9  C   UNK N   1      28.392  15.984   3.488  0.00  0.00     0.041 A 
HETATM   10  N   UNK N   1      27.042  16.000   3.427  0.00  0.00    -0.355 N 
HETATM   11  C   UNK N   1      26.659  17.190   3.941  0.00  0.00     0.041 A 
HETATM   12  C   UNK N   1      29.252  14.876   3.050  0.00  0.00     0.060 C 
HETATM   13  C   UNK N   1      22.044  16.385   3.321  0.00  0.00    -0.023 A 
HETATM   14  C   UNK N   1      22.806  17.374   3.783  0.00  0.00    -0.027 A 
HETATM   15  C   UNK N   1      24.182  16.906   3.713  0.00  0.00     0.041 A 
HETATM   16  N   UNK N   1      24.183  15.590   3.202  0.00  0.00    -0.355 N 
ATOM     17  HN  UNK N   1      25.003  15.005   3.042  1.00  0.00     0.166 HD
HETATM   18  C   UNK N   1      22.958  15.266   2.973  0.00  0.00     0.041 A 
HETATM   19  C   UNK N   1      25.258  17.627   4.055  0.00  0.00     0.060 C 
HETATM   20  C   UNK N   1      23.974  11.054   1.131  0.00  0.00    -0.023 A 
HETATM   21  C   UNK N   1      22.862  11.759   1.523  0.00  0.00    -0.027 A 
HETATM   22  C   UNK N   1      23.319  12.975   2.000  0.00  0.00     0.041 A 
HETATM   23  N   UNK N   1      24.665  13.041   1.930  0.00  0.00    -0.355 N 
HETATM   24  C   UNK N   1      25.063  11.865   1.391  0.00  0.00     0.041 A 
HETATM   25  C   UNK N   1      26.331  11.505   1.172  0.00  0.00     0.060 C 
HETATM   26  C   UNK N   1      22.524  13.952   2.452  0.00  0.00     0.060 C 
HETATM   27  C   UNK N   1      21.447  11.290   1.449  0.00  0.00     0.051 C 
HETATM   28  C   UNK N   1      29.311  10.418   0.958  0.00  0.00     0.051 C 
HETATM   29  C   UNK N   1      30.297  17.510   4.264  0.00  0.00     0.051 C 
HETATM   30  C   UNK N   1      22.334  18.718   4.239  0.00  0.00     0.051 C 
HETATM   31  H   UNK N   1      26.458  15.288   3.079  0.00  0.00     0.166 HD
HETATM   32  H   UNK N   1      25.238  13.790   2.213  0.00  0.00     0.166 HD
ENDROOT
BRANCH   1  33
HETATM   33  C   UNK N   1      31.149  12.520   2.358  0.00  0.00     0.052 C 
BRANCH  33  34
HETATM   34  C   UNK N   1      31.420  11.840   3.680  0.00  0.00     0.115 C 
BRANCH  34  35
HETATM   35  C   UNK N   1      31.952  12.867   4.622  0.00  0.00     0.139 C 
HETATM   36  O   UNK N   1      31.905  12.673   5.826  0.00  0.00    -0.650 OA
BRANCH  35  37
HETATM   37  O   UNK N   1      32.506  13.998   4.146  0.00  0.00    -0.776 OA
HETATM   38  H   UNK N   1      32.178  14.652   3.560  0.00  0.00     0.167 HD
ENDBRANCH  35  37
ENDBRANCH  34  35
ENDBRANCH  33  34
ENDBRANCH   1  33
BRANCH  20  39
HETATM   39  C   UNK N   1      24.000   9.670   0.560  0.00  0.00     0.052 C 
BRANCH  39  40
HETATM   40  C   UNK N   1      24.070   9.740  -0.958  0.00  0.00     0.115 C 
BRANCH  40  41
HETATM   41  C   UNK N   1      22.857   9.117  -1.565  0.00  0.00     0.139 C 
HETATM   42  O   UNK N   1      21.971   8.675  -0.854  0.00  0.00    -0.650 OA
BRANCH  41  43
HETATM   43  O   UNK N   1      22.747   9.036  -2.904  0.00  0.00    -0.776 OA
HETATM   44  H   UNK N   1      23.267   9.591  -3.452  0.00  0.00     0.167 HD
ENDBRANCH  41  43
ENDBRANCH  40  41
ENDBRANCH  39  40
ENDBRANCH  20  39
BRANCH   7  45
HETATM   45  C   UNK N   1      27.871  19.307   4.944  0.00  0.00     0.052 C 
BRANCH  45  46
HETATM   46  C   UNK N   1      27.684  19.394   6.453  0.00  0.00     0.115 C 
BRANCH  46  47
HETATM   47  C   UNK N   1      26.973  20.652   6.845  0.00  0.00     0.139 C 
HETATM   48  O   UNK N   1      27.129  21.674   6.197  0.00  0.00    -0.650 OA
BRANCH  47  49
HETATM   49  O   UNK N   1      26.188  20.666   7.938  0.00  0.00    -0.776 OA
HETATM   50  H   UNK N   1      25.382  20.192   7.998  0.00  0.00     0.167 HD
ENDBRANCH  47  49
ENDBRANCH  46  47
ENDBRANCH  45  46
ENDBRANCH   7  45
BRANCH  13  51
HETATM   51  C   UNK N   1      20.545  16.477   3.177  0.00  0.00     0.052 C 
BRANCH  51  52
HETATM   52  C   UNK N   1      20.043  16.206   1.767  0.00  0.00     0.115 C 
BRANCH  52  53
HETATM   53  C   UNK N   1      20.170  17.423   0.914  0.00  0.00     0.139 C 
HETATM   54  O   UNK N   1      20.386  17.313  -0.283  0.00  0.00    -0.650 OA
BRANCH  53  55
HETATM   55  O   UNK N   1      20.024  18.643   1.460  0.00  0.00    -0.776 OA
HETATM   56  H   UNK N   1      19.254  19.169   1.368  0.00  0.00     0.167 HD
ENDBRANCH  53  55
ENDBRANCH  52  53
ENDBRANCH  51  52
ENDBRANCH  13  51
TORSDOF 16
ENDMDL
MODEL 9
REMARK VINA RESULT:      -6.9      2.759      8.164
REMARK  16 active torsions:
REMARK  status: ('A' for Active; 'I' for Inactive)
REMARK    1  A    between atoms: C_33  and  C_1 
REMARK    2  A    between atoms: C_7  and  C_43 
REMARK    3  A    between atoms: C_13  and  C_27 
REMARK    4  A    between atoms: C_20  and  C_38 
REMARK    5  A    between atoms: C_27  and  C_28 
REMARK    6  A    between atoms: C_28  and  C_29 
REMARK    7  A    between atoms: C_29  and  O_31 
REMARK    8  A    between atoms: C_33  and  C_34 
REMARK    9  A    between atoms: C_34  and  C_35 
REMARK   10  A    between atoms: C_35  and  O_37 
REMARK   11  A    between atoms: C_38  and  C_39 
REMARK   12  A    between atoms: C_39  and  C_40 
REMARK   13  A    between atoms: C_40  and  O_42 
REMARK   14  A    between atoms: C_43  and  C_44 
REMARK   15  A    between atoms: C_44  and  C_45 
REMARK   16  A    between atoms: C_45  and  O_47 
ROOT
HETATM    1  C   UNK N   1      22.726  17.645   3.741  0.00  0.00    -0.023 A 
HETATM    2  C   UNK N   1      21.797  16.764   3.379  0.00  0.00    -0.027 A 
HETATM    3  C   UNK N   1      22.500  15.533   2.975  0.00  0.00     0.041 A 
HETATM    4  N   UNK N   1      23.773  15.667   3.103  0.00  0.00    -0.355 N 
ATOM      5  HN  UNK N   1      24.481  14.967   2.886  1.00  0.00     0.166 HD
HETATM    6  C   UNK N   1      24.004  16.967   3.602  0.00  0.00     0.041 A 
HETATM    7  C   UNK N   1      28.679  16.515   3.743  0.00  0.00    -0.023 A 
HETATM    8  C   UNK N   1      27.695  17.415   4.073  0.00  0.00    -0.027 A 
HETATM    9  C   UNK N   1      26.494  16.855   3.700  0.00  0.00     0.041 A 
HETATM   10  N   UNK N   1      26.689  15.638   3.147  0.00  0.00    -0.355 N 
HETATM   11  C   UNK N   1      28.025  15.428   3.168  0.00  0.00     0.041 A 
HETATM   12  C   UNK N   1      25.192  17.513   3.876  0.00  0.00     0.060 C 
HETATM   13  C   UNK N   1      27.752  11.156   1.164  0.00  0.00    -0.023 A 
HETATM   14  C   UNK N   1      28.710  11.948   1.642  0.00  0.00    -0.027 A 
HETATM   15  C   UNK N   1      28.056  13.171   2.086  0.00  0.00     0.041 A 
HETATM   16  N   UNK N   1      26.672  13.058   1.829  0.00  0.00    -0.355 N 
ATOM     17  HN  UNK N   1      25.961  13.760   2.033  1.00  0.00     0.166 HD
HETATM   18  C   UNK N   1      26.474  11.905   1.292  0.00  0.00     0.041 A 
HETATM   19  C   UNK N   1      28.675  14.207   2.665  0.00  0.00     0.060 C 
HETATM   20  C   UNK N   1      21.791  12.340   1.080  0.00  0.00    -0.023 A 
HETATM   21  C   UNK N   1      22.760  11.478   0.629  0.00  0.00    -0.027 A 
HETATM   22  C   UNK N   1      23.970  11.986   1.068  0.00  0.00     0.041 A 
HETATM   23  N   UNK N   1      23.785  13.131   1.759  0.00  0.00    -0.355 N 
HETATM   24  C   UNK N   1      22.448  13.342   1.769  0.00  0.00     0.041 A 
HETATM   25  C   UNK N   1      21.835  14.389   2.329  0.00  0.00     0.060 C 
HETATM   26  C   UNK N   1      25.155  11.405   0.848  0.00  0.00     0.060 C 
HETATM   27  C   UNK N   1      22.539  10.243  -0.180  0.00  0.00     0.051 C 
HETATM   28  C   UNK N   1      20.326  17.012   3.302  0.00  0.00     0.051 C 
HETATM   29  C   UNK N   1      27.888  18.748   4.718  0.00  0.00     0.051 C 
HETATM   30  C   UNK N   1      30.165  11.618   1.742  0.00  0.00     0.051 C 
HETATM   31  H   UNK N   1      25.998  15.030   2.798  0.00  0.00     0.166 HD
HETATM   32  H   UNK N   1      24.480  13.696   2.169  0.00  0.00     0.166 HD
ENDROOT
BRANCH   1  33
HETATM   33  C   UNK N   1      22.525  19.082   4.102  0.00  0.00     0.052 C 
BRANCH  33  34
HETATM   34  C   UNK N   1      22.521  20.003   2.904  0.00  0.00     0.115 C 
BRANCH  34  35
HETATM   35  C   UNK N   1      21.217  20.728   2.888  0.00  0.00     0.139 C 
HETATM   36  O   UNK N   1      20.414  20.558   3.790  0.00  0.00    -0.650 OA
BRANCH  35  37
HETATM   37  O   UNK N   1      20.935  21.589   1.892  0.00  0.00    -0.776 OA
HETATM   38  H   UNK N   1      20.135  22.006   1.638  0.00  0.00     0.167 HD
ENDBRANCH  35  37
ENDBRANCH  34  35
ENDBRANCH  33  34
ENDBRANCH   1  33
BRANCH  20  39
HETATM   39  C   UNK N   1      20.316  12.228   0.846  0.00  0.00     0.052 C 
BRANCH  39  40
HETATM   40  C   UNK N   1      19.639  11.663   2.086  0.00  0.00     0.115 C 
BRANCH  40  41
HETATM   41  C   UNK N   1      18.619  12.621   2.605  0.00  0.00     0.139 C 
HETATM   42  O   UNK N   1      17.969  12.349   3.600  0.00  0.00    -0.650 OA
BRANCH  41  43
HETATM   43  O   UNK N   1      18.411  13.787   1.965  0.00  0.00    -0.776 OA
HETATM   44  H   UNK N   1      18.482  14.597   2.431  0.00  0.00     0.167 HD
ENDBRANCH  41  43
ENDBRANCH  40  41
ENDBRANCH  39  40
ENDBRANCH  20  39
BRANCH   7  45
HETATM   45  C   UNK N   1      30.147  16.761   3.992  0.00  0.00     0.052 C 
BRANCH  45  46
HETATM   46  C   UNK N   1      31.046  16.841   2.765  0.00  0.00     0.115 C 
BRANCH  46  47
HETATM   47  C   UNK N   1      32.492  16.882   3.149  0.00  0.00     0.139 C 
HETATM   48  O   UNK N   1      33.306  16.193   2.555  0.00  0.00    -0.650 OA
BRANCH  47  49
HETATM   49  O   UNK N   1      32.891  17.653   4.177  0.00  0.00    -0.776 OA
HETATM   50  H   UNK N   1      32.843  18.588   4.167  0.00  0.00     0.167 HD
ENDBRANCH  47  49
ENDBRANCH  46  47
ENDBRANCH  45  46
ENDBRANCH   7  45
BRANCH  13  51
HETATM   51  C   UNK N   1      27.997   9.763   0.643  0.00  0.00     0.052 C 
BRANCH  51  52
HETATM   52  C   UNK N   1      27.536   8.661   1.584  0.00  0.00     0.115 C 
BRANCH  52  53
HETATM   53  C   UNK N   1      28.571   8.382   2.622  0.00  0.00     0.139 C 
HETATM   54  O   UNK N   1      29.650   7.910   2.300  0.00  0.00    -0.650 OA
BRANCH  53  55
HETATM   55  O   UNK N   1      28.325   8.673   3.911  0.00  0.00    -0.776 OA
HETATM   56  H   UNK N   1      28.463   8.076   4.619  0.00  0.00     0.167 HD
ENDBRANCH  53  55
ENDBRANCH  52  53
ENDBRANCH  51  52
ENDBRANCH  13  51
TORSDOF 16
ENDMDL
