MODEL 1
REMARK VINA RESULT:      -6.9      0.000      0.000
REMARK  6 active torsions:
REMARK  status: ('A' for Active; 'I' for Inactive)
REMARK       I    between atoms: C_1  and  N_20 
REMARK    1  A    between atoms: C_2  and  N_23 
REMARK    2  A    between atoms: C_5  and  N_26 
REMARK    3  A    between atoms: C_8  and  C_9 
REMARK    4  A    between atoms: C_8  and  N_26 
REMARK    5  A    between atoms: C_11  and  O_27 
REMARK    6  A    between atoms: C_13  and  O_28 
ROOT
HETATM    1  C   UNK N   1      20.740  20.204   1.552  0.00  0.00     0.679 A 
HETATM    2  C   UNK N   1      22.270  19.325   3.130  0.00  0.00     0.128 A 
HETATM    3  C   UNK N   1      21.575  18.111   3.129  0.00  0.00     0.055 A 
HETATM    4  C   UNK N   1      21.953  17.040   3.938  0.00  0.00     0.050 A 
HETATM    5  C   UNK N   1      21.201  15.856   3.945  0.00  0.00     0.046 A 
HETATM    6  C   UNK N   1      20.081  15.770   3.099  0.00  0.00     0.119 A 
HETATM    7  C   UNK N   1      20.446  17.981   2.304  0.00  0.00     0.135 A 
HETATM    8  N   UNK N   1      20.055  19.028   1.531  0.00  0.00    -0.176 N 
ATOM      9  HN  UNK N   1      19.237  18.932   0.929  1.00  0.00     0.186 HD
HETATM   10  N   UNK N   1      20.306  21.285   0.759  0.00  0.00    -0.234 N 
HETATM   11  N   UNK N   1      21.836  20.345   2.345  0.00  0.00    -0.176 N 
ATOM     12  HN  UNK N   1      22.341  21.232   2.351  1.00  0.00     0.186 HD
HETATM   13  N   UNK N   1      19.738  16.819   2.297  0.00  0.00    -0.349 N 
ATOM     14  HN  UNK N   1      18.933  16.730   1.677  1.00  0.00     0.167 HD
HETATM   15  H   UNK N   1      20.769  22.151   0.811  0.00  0.00     0.174 HD
HETATM   16  H   UNK N   1      19.538  21.173   0.153  0.00  0.00     0.174 HD
ENDROOT
BRANCH   5  17
HETATM   17  N   UNK N   1      21.522  14.806   4.863  0.00  0.00    -0.380 N 
HETATM   18  C   UNK N   1      21.498  13.441   4.386  0.00  0.00     0.150 C 
BRANCH  17  19
HETATM   19  C   UNK N   1      22.255  15.115   6.084  0.00  0.00     0.161 C 
BRANCH  19  20
HETATM   20  C   UNK N   1      21.423  15.168   7.340  0.00  0.00    -0.035 A 
HETATM   21  C   UNK N   1      20.589  16.261   7.605  0.00  0.00     0.045 A 
HETATM   22  C   UNK N   1      19.744  16.270   8.715  0.00  0.00     0.071 A 
HETATM   23  C   UNK N   1      19.704  15.148   9.558  0.00  0.00     0.073 A 
HETATM   24  C   UNK N   1      20.505  14.033   9.294  0.00  0.00     0.071 A 
HETATM   25  C   UNK N   1      21.370  14.049   8.180  0.00  0.00     0.045 A 
BRANCH  22  26
HETATM   26  O   UNK N   1      18.973  17.360   8.939  0.00  0.00    -0.356 OA
HETATM   27  C   UNK N   1      17.614  17.294   9.149  0.00  0.00     0.210 C 
ENDBRANCH  22  26
BRANCH  24  28
HETATM   28  O   UNK N   1      20.411  12.955  10.108  0.00  0.00    -0.356 OA
HETATM   29  C   UNK N   1      21.498  12.370  10.717  0.00  0.00     0.210 C 
ENDBRANCH  24  28
ENDBRANCH  19  20
ENDBRANCH  17  19
ENDBRANCH   5  17
BRANCH   2  30
HETATM   30  N   UNK N   1      23.403  19.509   3.953  0.00  0.00    -0.384 N 
HETATM   31  H   UNK N   1      23.818  20.398   4.028  0.00  0.00     0.157 HD
HETATM   32  H   UNK N   1      23.775  18.748   4.453  0.00  0.00     0.157 HD
ENDBRANCH   2  30
TORSDOF 6
ENDMDL
MODEL 2
REMARK VINA RESULT:      -6.9      0.842      2.590
REMARK  6 active torsions:
REMARK  status: ('A' for Active; 'I' for Inactive)
REMARK       I    between atoms: C_1  and  N_20 
REMARK    1  A    between atoms: C_2  and  N_23 
REMARK    2  A    between atoms: C_5  and  N_26 
REMARK    3  A    between atoms: C_8  and  C_9 
REMARK    4  A    between atoms: C_8  and  N_26 
REMARK    5  A    between atoms: C_11  and  O_27 
REMARK    6  A    between atoms: C_13  and  O_28 
ROOT
HETATM    1  C   UNK N   1      20.729  20.330   1.575  0.00  0.00     0.679 A 
HETATM    2  C   UNK N   1      22.372  19.459   3.042  0.00  0.00     0.128 A 
HETATM    3  C   UNK N   1      21.655  18.261   3.134  0.00  0.00     0.055 A 
HETATM    4  C   UNK N   1      22.080  17.204   3.939  0.00  0.00     0.050 A 
HETATM    5  C   UNK N   1      21.308  16.037   4.043  0.00  0.00     0.046 A 
HETATM    6  C   UNK N   1      20.119  15.954   3.298  0.00  0.00     0.119 A 
HETATM    7  C   UNK N   1      20.458  18.134   2.413  0.00  0.00     0.135 A 
HETATM    8  N   UNK N   1      20.022  19.168   1.646  0.00  0.00    -0.176 N 
ATOM      9  HN  UNK N   1      19.154  19.074   1.119  1.00  0.00     0.186 HD
HETATM   10  N   UNK N   1      20.250  21.398   0.792  0.00  0.00    -0.234 N 
HETATM   11  N   UNK N   1      21.892  20.467   2.268  0.00  0.00    -0.176 N 
ATOM     12  HN  UNK N   1      22.413  21.343   2.206  1.00  0.00     0.186 HD
HETATM   13  N   UNK N   1      19.729  16.988   2.499  0.00  0.00    -0.349 N 
ATOM     14  HN  UNK N   1      18.872  16.900   1.952  1.00  0.00     0.167 HD
HETATM   15  H   UNK N   1      20.733  22.255   0.780  0.00  0.00     0.174 HD
HETATM   16  H   UNK N   1      19.431  21.286   0.257  0.00  0.00     0.174 HD
ENDROOT
BRANCH   5  17
HETATM   17  N   UNK N   1      21.686  15.006   4.960  0.00  0.00    -0.380 N 
HETATM   18  C   UNK N   1      21.785  13.648   4.469  0.00  0.00     0.150 C 
BRANCH  17  19
HETATM   19  C   UNK N   1      22.358  15.357   6.204  0.00  0.00     0.161 C 
BRANCH  19  20
HETATM   20  C   UNK N   1      21.689  14.861   7.461  0.00  0.00    -0.035 A 
HETATM   21  C   UNK N   1      22.364  14.011   8.346  0.00  0.00     0.045 A 
HETATM   22  C   UNK N   1      21.789  13.629   9.558  0.00  0.00     0.071 A 
HETATM   23  C   UNK N   1      20.527  14.136   9.909  0.00  0.00     0.073 A 
HETATM   24  C   UNK N   1      19.849  15.011   9.055  0.00  0.00     0.071 A 
HETATM   25  C   UNK N   1      20.437  15.370   7.824  0.00  0.00     0.045 A 
BRANCH  22  26
HETATM   26  O   UNK N   1      22.473  12.788  10.369  0.00  0.00    -0.356 OA
HETATM   27  C   UNK N   1      23.023  11.603   9.937  0.00  0.00     0.210 C 
ENDBRANCH  22  26
BRANCH  24  28
HETATM   28  O   UNK N   1      18.652  15.508   9.446  0.00  0.00    -0.356 OA
HETATM   29  C   UNK N   1      18.236  16.789   9.163  0.00  0.00     0.210 C 
ENDBRANCH  24  28
ENDBRANCH  19  20
ENDBRANCH  17  19
ENDBRANCH   5  17
BRANCH   2  30
HETATM   30  N   UNK N   1      23.574  19.640   3.760  0.00  0.00    -0.384 N 
HETATM   31  H   UNK N   1      23.562  20.090   4.636  0.00  0.00     0.157 HD
HETATM   32  H   UNK N   1      24.424  19.315   3.385  0.00  0.00     0.157 HD
ENDBRANCH   2  30
TORSDOF 6
ENDMDL
MODEL 3
REMARK VINA RESULT:      -6.7      9.811     12.103
REMARK  6 active torsions:
REMARK  status: ('A' for Active; 'I' for Inactive)
REMARK       I    between atoms: C_1  and  N_20 
REMARK    1  A    between atoms: C_2  and  N_23 
REMARK    2  A    between atoms: C_5  and  N_26 
REMARK    3  A    between atoms: C_8  and  C_9 
REMARK    4  A    between atoms: C_8  and  N_26 
REMARK    5  A    between atoms: C_11  and  O_27 
REMARK    6  A    between atoms: C_13  and  O_28 
ROOT
HETATM    1  C   UNK N   1      34.518  16.493  10.027  0.00  0.00     0.679 A 
HETATM    2  C   UNK N   1      33.016  14.930   9.074  0.00  0.00     0.128 A 
HETATM    3  C   UNK N   1      32.958  15.698   7.906  0.00  0.00     0.055 A 
HETATM    4  C   UNK N   1      32.155  15.339   6.824  0.00  0.00     0.050 A 
HETATM    5  C   UNK N   1      32.086  16.162   5.688  0.00  0.00     0.046 A 
HETATM    6  C   UNK N   1      32.865  17.331   5.662  0.00  0.00     0.119 A 
HETATM    7  C   UNK N   1      33.715  16.878   7.836  0.00  0.00     0.135 A 
HETATM    8  N   UNK N   1      34.481  17.249   8.895  0.00  0.00    -0.176 N 
ATOM      9  HN  UNK N   1      35.033  18.105   8.843  1.00  0.00     0.186 HD
HETATM   10  N   UNK N   1      35.301  16.905  11.122  0.00  0.00    -0.234 N 
HETATM   11  N   UNK N   1      33.791  15.346  10.109  0.00  0.00    -0.176 N 
ATOM     12  HN  UNK N   1      33.829  14.788  10.963  1.00  0.00     0.186 HD
HETATM   13  N   UNK N   1      33.663  17.655   6.720  0.00  0.00    -0.349 N 
ATOM     14  HN  UNK N   1      34.234  18.499   6.673  1.00  0.00     0.167 HD
HETATM   15  H   UNK N   1      35.290  16.388  11.959  0.00  0.00     0.174 HD
HETATM   16  H   UNK N   1      35.861  17.713  11.051  0.00  0.00     0.174 HD
ENDROOT
BRANCH   5  17
HETATM   17  N   UNK N   1      31.171  15.852   4.633  0.00  0.00    -0.380 N 
HETATM   18  C   UNK N   1      31.701  15.339   3.388  0.00  0.00     0.150 C 
BRANCH  17  19
HETATM   19  C   UNK N   1      29.761  15.649   4.937  0.00  0.00     0.161 C 
BRANCH  19  20
HETATM   20  C   UNK N   1      29.028  16.866   5.444  0.00  0.00    -0.035 A 
HETATM   21  C   UNK N   1      28.833  17.067   6.816  0.00  0.00     0.045 A 
HETATM   22  C   UNK N   1      28.244  18.236   7.296  0.00  0.00     0.071 A 
HETATM   23  C   UNK N   1      27.876  19.242   6.388  0.00  0.00     0.073 A 
HETATM   24  C   UNK N   1      28.090  19.076   5.017  0.00  0.00     0.071 A 
HETATM   25  C   UNK N   1      28.667  17.878   4.547  0.00  0.00     0.045 A 
BRANCH  22  26
HETATM   26  O   UNK N   1      28.058  18.374   8.630  0.00  0.00    -0.356 OA
HETATM   27  C   UNK N   1      29.093  18.420   9.536  0.00  0.00     0.210 C 
ENDBRANCH  22  26
BRANCH  24  28
HETATM   28  O   UNK N   1      27.755  20.084   4.177  0.00  0.00    -0.356 OA
HETATM   29  C   UNK N   1      26.512  20.206   3.601  0.00  0.00     0.210 C 
ENDBRANCH  24  28
ENDBRANCH  19  20
ENDBRANCH  17  19
ENDBRANCH   5  17
BRANCH   2  30
HETATM   30  N   UNK N   1      32.262  13.743   9.198  0.00  0.00    -0.384 N 
HETATM   31  H   UNK N   1      31.409  13.750   9.688  0.00  0.00     0.157 HD
HETATM   32  H   UNK N   1      32.591  12.908   8.792  0.00  0.00     0.157 HD
ENDBRANCH   2  30
TORSDOF 6
ENDMDL
MODEL 4
REMARK VINA RESULT:      -6.6      9.326     10.981
REMARK  6 active torsions:
REMARK  status: ('A' for Active; 'I' for Inactive)
REMARK       I    between atoms: C_1  and  N_20 
REMARK    1  A    between atoms: C_2  and  N_23 
REMARK    2  A    between atoms: C_5  and  N_26 
REMARK    3  A    between atoms: C_8  and  C_9 
REMARK    4  A    between atoms: C_8  and  N_26 
REMARK    5  A    between atoms: C_11  and  O_27 
REMARK    6  A    between atoms: C_13  and  O_28 
ROOT
HETATM    1  C   UNK N   1      26.564  20.543   7.082  0.00  0.00     0.679 A 
HETATM    2  C   UNK N   1      26.936  20.035   4.800  0.00  0.00     0.128 A 
HETATM    3  C   UNK N   1      27.792  18.993   5.170  0.00  0.00     0.055 A 
HETATM    4  C   UNK N   1      28.454  18.208   4.227  0.00  0.00     0.050 A 
HETATM    5  C   UNK N   1      29.343  17.203   4.639  0.00  0.00     0.046 A 
HETATM    6  C   UNK N   1      29.524  16.994   6.017  0.00  0.00     0.119 A 
HETATM    7  C   UNK N   1      28.008  18.751   6.536  0.00  0.00     0.135 A 
HETATM    8  N   UNK N   1      27.387  19.527   7.463  0.00  0.00    -0.176 N 
ATOM      9  HN  UNK N   1      27.541  19.349   8.455  1.00  0.00     0.186 HD
HETATM   10  N   UNK N   1      25.946  21.350   8.057  0.00  0.00    -0.234 N 
HETATM   11  N   UNK N   1      26.344  20.789   5.763  0.00  0.00    -0.176 N 
ATOM     12  HN  UNK N   1      25.724  21.552   5.491  1.00  0.00     0.186 HD
HETATM   13  N   UNK N   1      28.851  17.756   6.927  0.00  0.00    -0.349 N 
ATOM     14  HN  UNK N   1      28.983  17.577   7.922  1.00  0.00     0.167 HD
HETATM   15  H   UNK N   1      25.392  22.115   7.784  0.00  0.00     0.174 HD
HETATM   16  H   UNK N   1      26.070  21.148   9.013  0.00  0.00     0.174 HD
ENDROOT
BRANCH   5  17
HETATM   17  N   UNK N   1      30.110  16.481   3.670  0.00  0.00    -0.380 N 
HETATM   18  C   UNK N   1      29.422  15.556   2.796  0.00  0.00     0.150 C 
BRANCH  17  19
HETATM   19  C   UNK N   1      31.429  16.966   3.287  0.00  0.00     0.161 C 
BRANCH  19  20
HETATM   20  C   UNK N   1      32.547  16.613   4.236  0.00  0.00    -0.035 A 
HETATM   21  C   UNK N   1      33.051  17.560   5.136  0.00  0.00     0.045 A 
HETATM   22  C   UNK N   1      34.015  17.213   6.082  0.00  0.00     0.071 A 
HETATM   23  C   UNK N   1      34.459  15.882   6.154  0.00  0.00     0.073 A 
HETATM   24  C   UNK N   1      33.946  14.914   5.286  0.00  0.00     0.071 A 
HETATM   25  C   UNK N   1      32.987  15.287   4.321  0.00  0.00     0.045 A 
BRANCH  22  26
HETATM   26  O   UNK N   1      34.486  18.170   6.915  0.00  0.00    -0.356 OA
HETATM   27  C   UNK N   1      34.469  18.053   8.286  0.00  0.00     0.210 C 
ENDBRANCH  22  26
BRANCH  24  28
HETATM   28  O   UNK N   1      34.371  13.635   5.412  0.00  0.00    -0.356 OA
HETATM   29  C   UNK N   1      34.662  13.051   6.623  0.00  0.00     0.210 C 
ENDBRANCH  24  28
ENDBRANCH  19  20
ENDBRANCH  17  19
ENDBRANCH   5  17
BRANCH   2  30
HETATM   30  N   UNK N   1      26.699  20.327   3.439  0.00  0.00    -0.384 N 
HETATM   31  H   UNK N   1      26.836  21.241   3.099  0.00  0.00     0.157 HD
HETATM   32  H   UNK N   1      26.397  19.616   2.829  0.00  0.00     0.157 HD
ENDBRANCH   2  30
TORSDOF 6
ENDMDL
MODEL 5
REMARK VINA RESULT:      -6.5      1.220      2.122
REMARK  6 active torsions:
REMARK  status: ('A' for Active; 'I' for Inactive)
REMARK       I    between atoms: C_1  and  N_20 
REMARK    1  A    between atoms: C_2  and  N_23 
REMARK    2  A    between atoms: C_5  and  N_26 
REMARK    3  A    between atoms: C_8  and  C_9 
REMARK    4  A    between atoms: C_8  and  N_26 
REMARK    5  A    between atoms: C_11  and  O_27 
REMARK    6  A    between atoms: C_13  and  O_28 
ROOT
HETATM    1  C   UNK N   1      20.641  20.072   1.455  0.00  0.00     0.679 A 
HETATM    2  C   UNK N   1      20.349  17.726   1.322  0.00  0.00     0.128 A 
HETATM    3  C   UNK N   1      20.874  17.587   2.612  0.00  0.00     0.055 A 
HETATM    4  C   UNK N   1      21.035  16.340   3.215  0.00  0.00     0.050 A 
HETATM    5  C   UNK N   1      21.611  16.238   4.491  0.00  0.00     0.046 A 
HETATM    6  C   UNK N   1      21.993  17.421   5.148  0.00  0.00     0.119 A 
HETATM    7  C   UNK N   1      21.276  18.740   3.305  0.00  0.00     0.135 A 
HETATM    8  N   UNK N   1      21.147  19.957   2.714  0.00  0.00    -0.176 N 
ATOM      9  HN  UNK N   1      21.435  20.795   3.219  1.00  0.00     0.186 HD
HETATM   10  N   UNK N   1      20.536  21.340   0.853  0.00  0.00    -0.234 N 
HETATM   11  N   UNK N   1      20.248  18.964   0.772  0.00  0.00    -0.176 N 
ATOM     12  HN  UNK N   1      19.869  19.063  -0.171  1.00  0.00     0.186 HD
HETATM   13  N   UNK N   1      21.808  18.634   4.552  0.00  0.00    -0.349 N 
ATOM     14  HN  UNK N   1      22.076  19.481   5.054  1.00  0.00     0.167 HD
HETATM   15  H   UNK N   1      20.219  21.420  -0.075  0.00  0.00     0.174 HD
HETATM   16  H   UNK N   1      20.781  22.148   1.360  0.00  0.00     0.174 HD
ENDROOT
BRANCH   5  17
HETATM   17  N   UNK N   1      21.882  14.952   5.055  0.00  0.00    -0.380 N 
HETATM   18  C   UNK N   1      21.528  13.774   4.293  0.00  0.00     0.150 C 
BRANCH  17  19
HETATM   19  C   UNK N   1      22.853  14.828   6.134  0.00  0.00     0.161 C 
BRANCH  19  20
HETATM   20  C   UNK N   1      22.269  14.605   7.507  0.00  0.00    -0.035 A 
HETATM   21  C   UNK N   1      20.978  15.047   7.819  0.00  0.00     0.045 A 
HETATM   22  C   UNK N   1      20.395  14.757   9.052  0.00  0.00     0.071 A 
HETATM   23  C   UNK N   1      21.104  13.977   9.980  0.00  0.00     0.073 A 
HETATM   24  C   UNK N   1      22.382  13.498   9.677  0.00  0.00     0.071 A 
HETATM   25  C   UNK N   1      22.965  13.819   8.433  0.00  0.00     0.045 A 
BRANCH  22  26
HETATM   26  O   UNK N   1      19.152  15.226   9.313  0.00  0.00    -0.356 OA
HETATM   27  C   UNK N   1      18.712  16.464   8.906  0.00  0.00     0.210 C 
ENDBRANCH  22  26
BRANCH  24  28
HETATM   28  O   UNK N   1      23.018  12.718  10.582  0.00  0.00    -0.356 OA
HETATM   29  C   UNK N   1      22.360  11.986  11.545  0.00  0.00     0.210 C 
ENDBRANCH  24  28
ENDBRANCH  19  20
ENDBRANCH  17  19
ENDBRANCH   5  17
BRANCH   2  30
HETATM   30  N   UNK N   1      19.946  16.595   0.580  0.00  0.00    -0.384 N 
HETATM   31  H   UNK N   1      19.117  16.121   0.816  0.00  0.00     0.157 HD
HETATM   32  H   UNK N   1      20.495  16.282  -0.175  0.00  0.00     0.157 HD
ENDBRANCH   2  30
TORSDOF 6
ENDMDL
MODEL 6
REMARK VINA RESULT:      -6.5      2.226      3.610
REMARK  6 active torsions:
REMARK  status: ('A' for Active; 'I' for Inactive)
REMARK       I    between atoms: C_1  and  N_20 
REMARK    1  A    between atoms: C_2  and  N_23 
REMARK    2  A    between atoms: C_5  and  N_26 
REMARK    3  A    between atoms: C_8  and  C_9 
REMARK    4  A    between atoms: C_8  and  N_26 
REMARK    5  A    between atoms: C_11  and  O_27 
REMARK    6  A    between atoms: C_13  and  O_28 
ROOT
HETATM    1  C   UNK N   1      20.577  18.571   2.122  0.00  0.00     0.679 A 
HETATM    2  C   UNK N   1      21.989  18.342   4.008  0.00  0.00     0.128 A 
HETATM    3  C   UNK N   1      21.083  17.441   4.578  0.00  0.00     0.055 A 
HETATM    4  C   UNK N   1      21.294  16.874   5.834  0.00  0.00     0.050 A 
HETATM    5  C   UNK N   1      20.338  16.012   6.392  0.00  0.00     0.046 A 
HETATM    6  C   UNK N   1      19.185  15.718   5.644  0.00  0.00     0.119 A 
HETATM    7  C   UNK N   1      19.914  17.122   3.870  0.00  0.00     0.135 A 
HETATM    8  N   UNK N   1      19.687  17.690   2.656  0.00  0.00    -0.176 N 
ATOM      9  HN  UNK N   1      18.839  17.456   2.140  1.00  0.00     0.186 HD
HETATM   10  N   UNK N   1      20.313  19.166   0.873  0.00  0.00    -0.234 N 
HETATM   11  N   UNK N   1      21.715  18.889   2.795  0.00  0.00    -0.176 N 
ATOM     12  HN  UNK N   1      22.374  19.551   2.383  1.00  0.00     0.186 HD
HETATM   13  N   UNK N   1      19.005  16.265   4.408  0.00  0.00    -0.349 N 
ATOM     14  HN  UNK N   1      18.169  16.024   3.873  1.00  0.00     0.167 HD
HETATM   15  H   UNK N   1      20.930  19.841   0.508  0.00  0.00     0.174 HD
HETATM   16  H   UNK N   1      19.511  18.907   0.364  0.00  0.00     0.174 HD
ENDROOT
BRANCH   5  17
HETATM   17  N   UNK N   1      20.502  15.527   7.729  0.00  0.00    -0.380 N 
HETATM   18  C   UNK N   1      20.336  16.456   8.825  0.00  0.00     0.150 C 
BRANCH  17  19
HETATM   19  C   UNK N   1      20.409  14.098   7.994  0.00  0.00     0.161 C 
BRANCH  19  20
HETATM   20  C   UNK N   1      21.578  13.501   8.737  0.00  0.00    -0.035 A 
HETATM   21  C   UNK N   1      22.885  13.647   8.257  0.00  0.00     0.045 A 
HETATM   22  C   UNK N   1      23.978  13.184   8.989  0.00  0.00     0.071 A 
HETATM   23  C   UNK N   1      23.762  12.594  10.245  0.00  0.00     0.073 A 
HETATM   24  C   UNK N   1      22.468  12.466  10.758  0.00  0.00     0.071 A 
HETATM   25  C   UNK N   1      21.372  12.921   9.994  0.00  0.00     0.045 A 
BRANCH  22  26
HETATM   26  O   UNK N   1      25.220  13.331   8.472  0.00  0.00    -0.356 OA
HETATM   27  C   UNK N   1      25.456  13.663   7.157  0.00  0.00     0.210 C 
ENDBRANCH  22  26
BRANCH  24  28
HETATM   28  O   UNK N   1      22.304  11.926  11.989  0.00  0.00    -0.356 OA
HETATM   29  C   UNK N   1      23.274  11.960  12.964  0.00  0.00     0.210 C 
ENDBRANCH  24  28
ENDBRANCH  19  20
ENDBRANCH  17  19
ENDBRANCH   5  17
BRANCH   2  30
HETATM   30  N   UNK N   1      23.173  18.705   4.688  0.00  0.00    -0.384 N 
HETATM   31  H   UNK N   1      23.412  18.259   5.532  0.00  0.00     0.157 HD
HETATM   32  H   UNK N   1      23.758  19.404   4.316  0.00  0.00     0.157 HD
ENDBRANCH   2  30
TORSDOF 6
ENDMDL
MODEL 7
REMARK VINA RESULT:      -6.4     11.766     14.120
REMARK  6 active torsions:
REMARK  status: ('A' for Active; 'I' for Inactive)
REMARK       I    between atoms: C_1  and  N_20 
REMARK    1  A    between atoms: C_2  and  N_23 
REMARK    2  A    between atoms: C_5  and  N_26 
REMARK    3  A    between atoms: C_8  and  C_9 
REMARK    4  A    between atoms: C_8  and  N_26 
REMARK    5  A    between atoms: C_11  and  O_27 
REMARK    6  A    between atoms: C_13  and  O_28 
ROOT
HETATM    1  C   UNK N   1      36.114  14.445  12.730  0.00  0.00     0.679 A 
HETATM    2  C   UNK N   1      34.798  13.530  10.988  0.00  0.00     0.128 A 
HETATM    3  C   UNK N   1      34.736  14.786  10.375  0.00  0.00     0.055 A 
HETATM    4  C   UNK N   1      34.020  15.000   9.197  0.00  0.00     0.050 A 
HETATM    5  C   UNK N   1      33.941  16.286   8.639  0.00  0.00     0.046 A 
HETATM    6  C   UNK N   1      34.621  17.336   9.280  0.00  0.00     0.119 A 
HETATM    7  C   UNK N   1      35.394  15.867  10.983  0.00  0.00     0.135 A 
HETATM    8  N   UNK N   1      36.072  15.673  12.144  0.00  0.00    -0.176 N 
ATOM      9  HN  UNK N   1      36.554  16.458  12.583  1.00  0.00     0.186 HD
HETATM   10  N   UNK N   1      36.804  14.269  13.945  0.00  0.00    -0.234 N 
HETATM   11  N   UNK N   1      35.482  13.388  12.153  0.00  0.00    -0.176 N 
ATOM     12  HN  UNK N   1      35.522  12.473  12.602  1.00  0.00     0.186 HD
HETATM   13  N   UNK N   1      35.334  17.104  10.420  0.00  0.00    -0.349 N 
ATOM     14  HN  UNK N   1      35.835  17.877  10.860  1.00  0.00     0.167 HD
HETATM   15  H   UNK N   1      36.794  13.395  14.396  0.00  0.00     0.174 HD
HETATM   16  H   UNK N   1      37.298  15.023  14.344  0.00  0.00     0.174 HD
ENDROOT
BRANCH   5  17
HETATM   17  N   UNK N   1      33.110  16.523   7.499  0.00  0.00    -0.380 N 
HETATM   18  C   UNK N   1      33.653  17.284   6.395  0.00  0.00     0.150 C 
BRANCH  17  19
HETATM   19  C   UNK N   1      31.942  15.683   7.270  0.00  0.00     0.161 C 
BRANCH  19  20
HETATM   20  C   UNK N   1      30.748  16.385   6.674  0.00  0.00    -0.035 A 
HETATM   21  C   UNK N   1      30.066  17.377   7.389  0.00  0.00     0.045 A 
HETATM   22  C   UNK N   1      29.024  18.098   6.806  0.00  0.00     0.071 A 
HETATM   23  C   UNK N   1      28.680  17.847   5.467  0.00  0.00     0.073 A 
HETATM   24  C   UNK N   1      29.369  16.883   4.725  0.00  0.00     0.071 A 
HETATM   25  C   UNK N   1      30.406  16.148   5.337  0.00  0.00     0.045 A 
BRANCH  22  26
HETATM   26  O   UNK N   1      28.383  19.032   7.546  0.00  0.00    -0.356 OA
HETATM   27  C   UNK N   1      27.533  19.971   7.006  0.00  0.00     0.210 C 
ENDBRANCH  22  26
BRANCH  24  28
HETATM   28  O   UNK N   1      29.033  16.697   3.427  0.00  0.00    -0.356 OA
HETATM   29  C   UNK N   1      29.463  15.624   2.681  0.00  0.00     0.210 C 
ENDBRANCH  24  28
ENDBRANCH  19  20
ENDBRANCH  17  19
ENDBRANCH   5  17
BRANCH   2  30
HETATM   30  N   UNK N   1      34.140  12.416  10.423  0.00  0.00    -0.384 N 
HETATM   31  H   UNK N   1      33.174  12.457  10.236  0.00  0.00     0.157 HD
HETATM   32  H   UNK N   1      34.648  11.599  10.215  0.00  0.00     0.157 HD
ENDBRANCH   2  30
TORSDOF 6
ENDMDL
MODEL 8
REMARK VINA RESULT:      -6.4     12.671     15.206
REMARK  6 active torsions:
REMARK  status: ('A' for Active; 'I' for Inactive)
REMARK       I    between atoms: C_1  and  N_20 
REMARK    1  A    between atoms: C_2  and  N_23 
REMARK    2  A    between atoms: C_5  and  N_26 
REMARK    3  A    between atoms: C_8  and  C_9 
REMARK    4  A    between atoms: C_8  and  N_26 
REMARK    5  A    between atoms: C_11  and  O_27 
REMARK    6  A    between atoms: C_13  and  O_28 
ROOT
HETATM    1  C   UNK N   1      36.822  12.569  13.143  0.00  0.00     0.679 A 
HETATM    2  C   UNK N   1      35.065  12.339  11.572  0.00  0.00     0.128 A 
HETATM    3  C   UNK N   1      35.219  13.680  11.203  0.00  0.00     0.055 A 
HETATM    4  C   UNK N   1      34.403  14.283  10.246  0.00  0.00     0.050 A 
HETATM    5  C   UNK N   1      34.556  15.644   9.939  0.00  0.00     0.046 A 
HETATM    6  C   UNK N   1      35.564  16.368  10.599  0.00  0.00     0.119 A 
HETATM    7  C   UNK N   1      36.209  14.446  11.840  0.00  0.00     0.135 A 
HETATM    8  N   UNK N   1      36.991  13.874  12.792  0.00  0.00    -0.176 N 
ATOM      9  HN  UNK N   1      37.713  14.429  13.251  1.00  0.00     0.186 HD
HETATM   10  N   UNK N   1      37.629  12.001  14.147  0.00  0.00    -0.234 N 
HETATM   11  N   UNK N   1      35.867  11.815  12.535  0.00  0.00    -0.176 N 
ATOM     12  HN  UNK N   1      35.751  10.838  12.806  1.00  0.00     0.186 HD
HETATM   13  N   UNK N   1      36.368  15.758  11.516  0.00  0.00    -0.349 N 
ATOM     14  HN  UNK N   1      37.105  16.297  11.970  1.00  0.00     0.167 HD
HETATM   15  H   UNK N   1      37.474  11.074  14.438  0.00  0.00     0.174 HD
HETATM   16  H   UNK N   1      38.348  12.532  14.560  0.00  0.00     0.174 HD
ENDROOT
BRANCH   5  17
HETATM   17  N   UNK N   1      33.641  16.285   9.046  0.00  0.00    -0.380 N 
HETATM   18  C   UNK N   1      33.978  17.597   8.537  0.00  0.00     0.150 C 
BRANCH  17  19
HETATM   19  C   UNK N   1      32.642  15.491   8.344  0.00  0.00     0.161 C 
BRANCH  19  20
HETATM   20  C   UNK N   1      31.677  16.275   7.490  0.00  0.00    -0.035 A 
HETATM   21  C   UNK N   1      31.785  16.270   6.094  0.00  0.00     0.045 A 
HETATM   22  C   UNK N   1      30.837  16.911   5.296  0.00  0.00     0.071 A 
HETATM   23  C   UNK N   1      29.738  17.539   5.905  0.00  0.00     0.073 A 
HETATM   24  C   UNK N   1      29.595  17.529   7.295  0.00  0.00     0.071 A 
HETATM   25  C   UNK N   1      30.573  16.895   8.088  0.00  0.00     0.045 A 
BRANCH  22  26
HETATM   26  O   UNK N   1      30.998  16.895   3.952  0.00  0.00    -0.356 OA
HETATM   27  C   UNK N   1      32.188  17.195   3.330  0.00  0.00     0.210 C 
ENDBRANCH  22  26
BRANCH  24  28
HETATM   28  O   UNK N   1      28.502  18.114   7.842  0.00  0.00    -0.356 OA
HETATM   29  C   UNK N   1      28.135  17.948   9.158  0.00  0.00     0.210 C 
ENDBRANCH  24  28
ENDBRANCH  19  20
ENDBRANCH  17  19
ENDBRANCH   5  17
BRANCH   2  30
HETATM   30  N   UNK N   1      34.074  11.533  10.971  0.00  0.00    -0.384 N 
HETATM   31  H   UNK N   1      34.166  10.553  10.977  0.00  0.00     0.157 HD
HETATM   32  H   UNK N   1      33.290  11.952  10.548  0.00  0.00     0.157 HD
ENDBRANCH   2  30
TORSDOF 6
ENDMDL
MODEL 9
REMARK VINA RESULT:      -6.4      3.837      7.751
REMARK  6 active torsions:
REMARK  status: ('A' for Active; 'I' for Inactive)
REMARK       I    between atoms: C_1  and  N_20 
REMARK    1  A    between atoms: C_2  and  N_23 
REMARK    2  A    between atoms: C_5  and  N_26 
REMARK    3  A    between atoms: C_8  and  C_9 
REMARK    4  A    between atoms: C_8  and  N_26 
REMARK    5  A    between atoms: C_11  and  O_27 
REMARK    6  A    between atoms: C_13  and  O_28 
ROOT
HETATM    1  C   UNK N   1      22.901  11.861  11.705  0.00  0.00     0.679 A 
HETATM    2  C   UNK N   1      24.497  13.002  10.380  0.00  0.00     0.128 A 
HETATM    3  C   UNK N   1      23.617  12.973   9.293  0.00  0.00     0.055 A 
HETATM    4  C   UNK N   1      23.960  13.500   8.049  0.00  0.00     0.050 A 
HETATM    5  C   UNK N   1      23.067  13.408   6.969  0.00  0.00     0.046 A 
HETATM    6  C   UNK N   1      21.819  12.799   7.184  0.00  0.00     0.119 A 
HETATM    7  C   UNK N   1      22.360  12.369   9.459  0.00  0.00     0.135 A 
HETATM    8  N   UNK N   1      22.027  11.830  10.661  0.00  0.00    -0.176 N 
ATOM      9  HN  UNK N   1      21.113  11.395  10.782  1.00  0.00     0.186 HD
HETATM   10  N   UNK N   1      22.546  11.277  12.936  0.00  0.00    -0.234 N 
HETATM   11  N   UNK N   1      24.122  12.443  11.560  0.00  0.00    -0.176 N 
ATOM     12  HN  UNK N   1      24.767  12.460  12.350  1.00  0.00     0.186 HD
HETATM   13  N   UNK N   1      21.491  12.309   8.414  0.00  0.00    -0.349 N 
ATOM     14  HN  UNK N   1      20.572  11.887   8.554  1.00  0.00     0.167 HD
HETATM   15  H   UNK N   1      23.194  11.253  13.676  0.00  0.00     0.174 HD
HETATM   16  H   UNK N   1      21.648  10.892  13.057  0.00  0.00     0.174 HD
ENDROOT
BRANCH   5  17
HETATM   17  N   UNK N   1      23.469  13.842   5.667  0.00  0.00    -0.380 N 
HETATM   18  C   UNK N   1      24.668  13.274   5.088  0.00  0.00     0.150 C 
BRANCH  17  19
HETATM   19  C   UNK N   1      22.501  14.488   4.791  0.00  0.00     0.161 C 
BRANCH  19  20
HETATM   20  C   UNK N   1      22.248  15.948   5.072  0.00  0.00    -0.035 A 
HETATM   21  C   UNK N   1      22.468  16.919   4.088  0.00  0.00     0.045 A 
HETATM   22  C   UNK N   1      22.141  18.256   4.309  0.00  0.00     0.071 A 
HETATM   23  C   UNK N   1      21.549  18.626   5.527  0.00  0.00     0.073 A 
HETATM   24  C   UNK N   1      21.292  17.668   6.512  0.00  0.00     0.071 A 
HETATM   25  C   UNK N   1      21.647  16.323   6.280  0.00  0.00     0.045 A 
BRANCH  22  26
HETATM   26  O   UNK N   1      22.393  19.160   3.333  0.00  0.00    -0.356 OA
HETATM   27  C   UNK N   1      21.406  19.868   2.686  0.00  0.00     0.210 C 
ENDBRANCH  22  26
BRANCH  24  28
HETATM   28  O   UNK N   1      20.685  18.058   7.658  0.00  0.00    -0.356 OA
HETATM   29  C   UNK N   1      19.873  17.232   8.403  0.00  0.00     0.210 C 
ENDBRANCH  24  28
ENDBRANCH  19  20
ENDBRANCH  17  19
ENDBRANCH   5  17
BRANCH   2  30
HETATM   30  N   UNK N   1      25.778  13.585  10.258  0.00  0.00    -0.384 N 
HETATM   31  H   UNK N   1      25.999  14.398  10.766  0.00  0.00     0.157 HD
HETATM   32  H   UNK N   1      26.449  13.176   9.666  0.00  0.00     0.157 HD
ENDBRANCH   2  30
TORSDOF 6
ENDMDL
