REMARK  6 active torsions:
REMARK  status: ('A' for Active; 'I' for Inactive)
REMARK       I    between atoms: C_1  and  N_20 
REMARK    1  A    between atoms: C_2  and  N_23 
REMARK    2  A    between atoms: C_5  and  N_26 
REMARK    3  A    between atoms: C_8  and  C_9 
REMARK    4  A    between atoms: C_8  and  N_26 
REMARK    5  A    between atoms: C_11  and  O_27 
REMARK    6  A    between atoms: C_13  and  O_28 
ROOT
HETATM    1  C   UNK N   1      -6.120  -2.196  -0.182  0.00  0.00     0.679 A 
HETATM    2  C   UNK N   1      -5.118  -0.051  -0.196  0.00  0.00     0.128 A 
HETATM    3  C   UNK N   1      -3.854  -0.640  -0.082  0.00  0.00     0.055 A 
HETATM    4  C   UNK N   1      -2.688   0.120   0.002  0.00  0.00     0.050 A 
HETATM    5  C   UNK N   1      -1.443  -0.507   0.165  0.00  0.00     0.046 A 
HETATM    6  C   UNK N   1      -1.403  -1.911   0.213  0.00  0.00     0.119 A 
HETATM    7  C   UNK N   1      -3.765  -2.040  -0.024  0.00  0.00     0.135 A 
HETATM    8  N   UNK N   1      -4.898  -2.788  -0.079  0.00  0.00    -0.176 N 
ATOM      9  HN  UNK N   1      -4.833  -3.805  -0.041  1.00  0.00     0.186 HD
HETATM   10  N   UNK N   1      -7.284  -2.988  -0.216  0.00  0.00    -0.234 N 
HETATM   11  N   UNK N   1      -6.222  -0.841  -0.240  0.00  0.00    -0.176 N 
ATOM     12  HN  UNK N   1      -7.144  -0.410  -0.318  1.00  0.00     0.186 HD
HETATM   13  N   UNK N   1      -2.551  -2.640   0.107  0.00  0.00    -0.349 N 
ATOM     14  HN  UNK N   1      -2.498  -3.659   0.126  1.00  0.00     0.167 HD
HETATM   15  H   UNK N   1      -8.170  -2.561  -0.239  0.00  0.00     0.174 HD
HETATM   16  H   UNK N   1      -7.211  -3.970  -0.216  0.00  0.00     0.174 HD
ENDROOT
BRANCH   5  17
HETATM   17  N   UNK N   1      -0.265   0.279   0.370  0.00  0.00    -0.380 N 
HETATM   18  C   UNK N   1      -0.392   1.720   0.394  0.00  0.00     0.150 C 
BRANCH  17  19
HETATM   19  C   UNK N   1       0.919  -0.335   0.956  0.00  0.00     0.161 C 
BRANCH  19  20
HETATM   20  C   UNK N   1       2.238   0.176   0.433  0.00  0.00    -0.035 A 
HETATM   21  C   UNK N   1       2.485   1.550   0.326  0.00  0.00     0.045 A 
HETATM   22  C   UNK N   1       3.736   2.029  -0.062  0.00  0.00     0.071 A 
HETATM   23  C   UNK N   1       4.773   1.116  -0.314  0.00  0.00     0.073 A 
HETATM   24  C   UNK N   1       4.557  -0.259  -0.183  0.00  0.00     0.071 A 
HETATM   25  C   UNK N   1       3.280  -0.727   0.190  0.00  0.00     0.045 A 
BRANCH  22  26
HETATM   26  O   UNK N   1       3.918   3.366  -0.171  0.00  0.00    -0.356 OA
HETATM   27  C   UNK N   1       5.116   3.938  -0.534  0.00  0.00     0.210 C 
ENDBRANCH  22  26
BRANCH  24  28
HETATM   28  O   UNK N   1       5.592  -1.105  -0.398  0.00  0.00    -0.356 OA
HETATM   29  C   UNK N   1       5.502  -2.468  -0.230  0.00  0.00     0.210 C 
ENDBRANCH  24  28
ENDBRANCH  19  20
ENDBRANCH  17  19
ENDBRANCH   5  17
BRANCH   2  30
HETATM   30  N   UNK N   1      -5.260   1.353  -0.243  0.00  0.00    -0.384 N 
HETATM   31  H   UNK N   1      -4.462   1.928  -0.277  0.00  0.00     0.157 HD
HETATM   32  H   UNK N   1      -6.158   1.756  -0.243  0.00  0.00     0.157 HD
ENDBRANCH   2  30
TORSDOF 6
