MODEL 1
REMARK VINA RESULT:      -6.7      0.000      0.000
REMARK  5 active torsions:
REMARK  status: ('A' for Active; 'I' for Inactive)
REMARK    1  A    between atoms: C_6  and  C_8 
REMARK    2  A    between atoms: N_7  and  C_10 
REMARK       I    between atoms: N_7  and  C_11 
REMARK    3  A    between atoms: C_8  and  C_9 
REMARK    4  A    between atoms: C_9  and  C_10 
REMARK       I    between atoms: C_11  and  N_13 
REMARK    5  A    between atoms: N_13  and  C_14 
ROOT
HETATM    1  N   UNK N   1      34.980  15.179  11.447  0.00  0.00    -0.343 N 
HETATM    2  C   UNK N   1      34.819  16.190  10.557  0.00  0.00     0.316 C 
HETATM    3  O   UNK N   1      35.563  17.160  10.581  0.00  0.00    -0.247 OA
HETATM    4  N   UNK N   1      33.825  16.103   9.638  0.00  0.00    -0.339 N 
HETATM    5  H   UNK N   1      34.364  14.413  11.407  0.00  0.00     0.164 HD
HETATM    6  H   UNK N   1      33.239  15.312   9.676  0.00  0.00     0.164 HD
ENDROOT
BRANCH   1   7
HETATM    7  C   UNK N   1      36.020  15.180  12.450  0.00  0.00     0.125 C 
BRANCH   7   8
HETATM    8  C   UNK N   1      35.895  13.968  13.373  0.00  0.00     0.024 C 
BRANCH   8   9
HETATM    9  C   UNK N   1      36.616  14.187  14.701  0.00  0.00     0.040 C 
BRANCH   9  10
HETATM   10  C   UNK N   1      36.200  13.187  15.728  0.00  0.00    -0.058 A 
HETATM   11  C   UNK N   1      35.509  13.585  16.880  0.00  0.00     0.007 A 
HETATM   12  C   UNK N   1      35.126  12.632  17.829  0.00  0.00     0.001 A 
HETATM   13  C   UNK N   1      35.427  11.281  17.625  0.00  0.00     0.000 A 
HETATM   14  C   UNK N   1      36.117  10.883  16.477  0.00  0.00     0.001 A 
HETATM   15  C   UNK N   1      36.506  11.836  15.531  0.00  0.00     0.007 A 
ENDBRANCH   9  10
ENDBRANCH   8   9
ENDBRANCH   7   8
ENDBRANCH   1   7
BRANCH   4  16
HETATM   16  C   UNK N   1      33.561  17.084   8.603  0.00  0.00     0.086 C 
HETATM   17  C   UNK N   1      34.482  17.067   7.383  0.00  0.00     0.025 C 
HETATM   18  C   UNK N   1      33.730  16.653   6.120  0.00  0.00     0.002 C 
HETATM   19  C   UNK N   1      32.454  17.473   5.964  0.00  0.00     0.000 C 
HETATM   20  C   UNK N   1      31.514  17.159   7.124  0.00  0.00     0.002 C 
HETATM   21  C   UNK N   1      32.128  17.605   8.449  0.00  0.00     0.025 C 
ENDBRANCH   4  16
TORSDOF 5
ENDMDL
MODEL 2
REMARK VINA RESULT:      -6.6      1.409      2.315
REMARK  5 active torsions:
REMARK  status: ('A' for Active; 'I' for Inactive)
REMARK    1  A    between atoms: C_6  and  C_8 
REMARK    2  A    between atoms: N_7  and  C_10 
REMARK       I    between atoms: N_7  and  C_11 
REMARK    3  A    between atoms: C_8  and  C_9 
REMARK    4  A    between atoms: C_9  and  C_10 
REMARK       I    between atoms: C_11  and  N_13 
REMARK    5  A    between atoms: N_13  and  C_14 
ROOT
HETATM    1  N   UNK N   1      35.405  14.691  12.617  0.00  0.00    -0.343 N 
HETATM    2  C   UNK N   1      35.147  14.738  11.286  0.00  0.00     0.316 C 
HETATM    3  O   UNK N   1      35.675  13.940  10.525  0.00  0.00    -0.247 OA
HETATM    4  N   UNK N   1      34.289  15.678  10.817  0.00  0.00    -0.339 N 
HETATM    5  H   UNK N   1      34.969  15.348  13.206  0.00  0.00     0.164 HD
HETATM    6  H   UNK N   1      33.908  16.311  11.468  0.00  0.00     0.164 HD
ENDROOT
BRANCH   1   7
HETATM    7  C   UNK N   1      36.293  13.714  13.206  0.00  0.00     0.125 C 
BRANCH   7   8
HETATM    8  C   UNK N   1      36.189  13.727  14.731  0.00  0.00     0.024 C 
BRANCH   8   9
HETATM    9  C   UNK N   1      35.061  12.829  15.232  0.00  0.00     0.040 C 
BRANCH   9  10
HETATM   10  C   UNK N   1      35.181  12.552  16.694  0.00  0.00    -0.058 A 
HETATM   11  C   UNK N   1      35.398  11.250  17.163  0.00  0.00     0.007 A 
HETATM   12  C   UNK N   1      35.510  11.011  18.536  0.00  0.00     0.001 A 
HETATM   13  C   UNK N   1      35.412  12.074  19.441  0.00  0.00     0.000 A 
HETATM   14  C   UNK N   1      35.194  13.373  18.974  0.00  0.00     0.001 A 
HETATM   15  C   UNK N   1      35.074  13.611  17.602  0.00  0.00     0.007 A 
ENDBRANCH   9  10
ENDBRANCH   8   9
ENDBRANCH   7   8
ENDBRANCH   1   7
BRANCH   4  16
HETATM   16  C   UNK N   1      33.889  15.821   9.431  0.00  0.00     0.086 C 
HETATM   17  C   UNK N   1      32.505  15.291   9.053  0.00  0.00     0.025 C 
HETATM   18  C   UNK N   1      31.564  16.423   8.648  0.00  0.00     0.002 C 
HETATM   19  C   UNK N   1      32.225  17.324   7.610  0.00  0.00     0.000 C 
HETATM   20  C   UNK N   1      33.438  18.002   8.238  0.00  0.00     0.002 C 
HETATM   21  C   UNK N   1      34.496  16.967   8.617  0.00  0.00     0.025 C 
ENDBRANCH   4  16
TORSDOF 5
ENDMDL
MODEL 3
REMARK VINA RESULT:      -6.6      1.453      2.222
REMARK  5 active torsions:
REMARK  status: ('A' for Active; 'I' for Inactive)
REMARK    1  A    between atoms: C_6  and  C_8 
REMARK    2  A    between atoms: N_7  and  C_10 
REMARK       I    between atoms: N_7  and  C_11 
REMARK    3  A    between atoms: C_8  and  C_9 
REMARK    4  A    between atoms: C_9  and  C_10 
REMARK       I    between atoms: C_11  and  N_13 
REMARK    5  A    between atoms: N_13  and  C_14 
ROOT
HETATM    1  N   UNK N   1      34.198  14.368  11.417  0.00  0.00    -0.343 N 
HETATM    2  C   UNK N   1      34.088  15.097  10.279  0.00  0.00     0.316 C 
HETATM    3  O   UNK N   1      35.088  15.519   9.716  0.00  0.00    -0.247 OA
HETATM    4  N   UNK N   1      32.854  15.343   9.773  0.00  0.00    -0.339 N 
HETATM    5  H   UNK N   1      33.375  14.045  11.851  0.00  0.00     0.164 HD
HETATM    6  H   UNK N   1      32.080  15.002  10.276  0.00  0.00     0.164 HD
ENDROOT
BRANCH   1   7
HETATM    7  C   UNK N   1      35.471  14.045  12.019  0.00  0.00     0.125 C 
BRANCH   7   8
HETATM    8  C   UNK N   1      35.284  13.227  13.296  0.00  0.00     0.024 C 
BRANCH   8   9
HETATM    9  C   UNK N   1      36.575  13.129  14.104  0.00  0.00     0.040 C 
BRANCH   9  10
HETATM   10  C   UNK N   1      36.471  13.854  15.405  0.00  0.00    -0.058 A 
HETATM   11  C   UNK N   1      37.231  15.006  15.648  0.00  0.00     0.007 A 
HETATM   12  C   UNK N   1      37.117  15.671  16.873  0.00  0.00     0.001 A 
HETATM   13  C   UNK N   1      36.241  15.191  17.852  0.00  0.00     0.000 A 
HETATM   14  C   UNK N   1      35.483  14.042  17.610  0.00  0.00     0.001 A 
HETATM   15  C   UNK N   1      35.602  13.372  16.390  0.00  0.00     0.007 A 
ENDBRANCH   9  10
ENDBRANCH   8   9
ENDBRANCH   7   8
ENDBRANCH   1   7
BRANCH   4  16
HETATM   16  C   UNK N   1      32.588  16.070   8.547  0.00  0.00     0.086 C 
HETATM   17  C   UNK N   1      32.722  17.593   8.603  0.00  0.00     0.025 C 
HETATM   18  C   UNK N   1      33.885  18.083   7.743  0.00  0.00     0.002 C 
HETATM   19  C   UNK N   1      33.806  17.485   6.343  0.00  0.00     0.000 C 
HETATM   20  C   UNK N   1      33.973  15.972   6.437  0.00  0.00     0.002 C 
HETATM   21  C   UNK N   1      32.815  15.350   7.214  0.00  0.00     0.025 C 
ENDBRANCH   4  16
TORSDOF 5
ENDMDL
MODEL 4
REMARK VINA RESULT:      -6.5     17.819     20.694
REMARK  5 active torsions:
REMARK  status: ('A' for Active; 'I' for Inactive)
REMARK    1  A    between atoms: C_6  and  C_8 
REMARK    2  A    between atoms: N_7  and  C_10 
REMARK       I    between atoms: N_7  and  C_11 
REMARK    3  A    between atoms: C_8  and  C_9 
REMARK    4  A    between atoms: C_9  and  C_10 
REMARK       I    between atoms: C_11  and  N_13 
REMARK    5  A    between atoms: N_13  and  C_14 
ROOT
HETATM    1  N   UNK N   1      29.457  23.636  -3.266  0.00  0.00    -0.343 N 
HETATM    2  C   UNK N   1      28.155  24.019  -3.247  0.00  0.00     0.316 C 
HETATM    3  O   UNK N   1      27.340  23.403  -2.575  0.00  0.00    -0.247 OA
HETATM    4  N   UNK N   1      27.777  25.097  -3.977  0.00  0.00    -0.339 N 
HETATM    5  H   UNK N   1      30.090  24.148  -3.819  0.00  0.00     0.164 HD
HETATM    6  H   UNK N   1      28.468  25.544  -4.518  0.00  0.00     0.164 HD
ENDROOT
BRANCH   1   7
HETATM    7  C   UNK N   1      29.951  22.510  -2.508  0.00  0.00     0.125 C 
BRANCH   7   8
HETATM    8  C   UNK N   1      30.571  21.458  -3.427  0.00  0.00     0.024 C 
BRANCH   8   9
HETATM    9  C   UNK N   1      30.938  22.039  -4.791  0.00  0.00     0.040 C 
BRANCH   9  10
HETATM   10  C   UNK N   1      30.165  21.396  -5.893  0.00  0.00    -0.058 A 
HETATM   11  C   UNK N   1      29.045  22.029  -6.449  0.00  0.00     0.007 A 
HETATM   12  C   UNK N   1      28.335  21.411  -7.483  0.00  0.00     0.001 A 
HETATM   13  C   UNK N   1      28.746  20.165  -7.967  0.00  0.00     0.000 A 
HETATM   14  C   UNK N   1      29.863  19.533  -7.412  0.00  0.00     0.001 A 
HETATM   15  C   UNK N   1      30.568  20.146  -6.374  0.00  0.00     0.007 A 
ENDBRANCH   9  10
ENDBRANCH   8   9
ENDBRANCH   7   8
ENDBRANCH   1   7
BRANCH   4  16
HETATM   16  C   UNK N   1      26.435  25.643  -4.020  0.00  0.00     0.086 C 
HETATM   17  C   UNK N   1      26.225  27.014  -3.375  0.00  0.00     0.025 C 
HETATM   18  C   UNK N   1      25.870  28.074  -4.416  0.00  0.00     0.002 C 
HETATM   19  C   UNK N   1      24.731  27.589  -5.307  0.00  0.00     0.000 C 
HETATM   20  C   UNK N   1      25.201  26.374  -6.101  0.00  0.00     0.002 C 
HETATM   21  C   UNK N   1      25.513  25.209  -5.165  0.00  0.00     0.025 C 
ENDBRANCH   4  16
TORSDOF 5
ENDMDL
MODEL 5
REMARK VINA RESULT:      -6.5      1.489      9.124
REMARK  5 active torsions:
REMARK  status: ('A' for Active; 'I' for Inactive)
REMARK    1  A    between atoms: C_6  and  C_8 
REMARK    2  A    between atoms: N_7  and  C_10 
REMARK       I    between atoms: N_7  and  C_11 
REMARK    3  A    between atoms: C_8  and  C_9 
REMARK    4  A    between atoms: C_9  and  C_10 
REMARK       I    between atoms: C_11  and  N_13 
REMARK    5  A    between atoms: N_13  and  C_14 
ROOT
HETATM    1  N   UNK N   1      35.780  15.031  11.857  0.00  0.00    -0.343 N 
HETATM    2  C   UNK N   1      35.737  14.248  12.964  0.00  0.00     0.316 C 
HETATM    3  O   UNK N   1      34.755  13.558  13.196  0.00  0.00    -0.247 OA
HETATM    4  N   UNK N   1      36.803  14.240  13.803  0.00  0.00    -0.339 N 
HETATM    5  H   UNK N   1      36.582  15.580  11.698  0.00  0.00     0.164 HD
HETATM    6  H   UNK N   1      37.559  14.831  13.584  0.00  0.00     0.164 HD
ENDROOT
BRANCH   1   7
HETATM    7  C   UNK N   1      34.698  15.092  10.901  0.00  0.00     0.125 C 
BRANCH   7   8
HETATM    8  C   UNK N   1      35.150  15.758   9.602  0.00  0.00     0.024 C 
BRANCH   8   9
HETATM    9  C   UNK N   1      34.517  17.135   9.418  0.00  0.00     0.040 C 
BRANCH   9  10
HETATM   10  C   UNK N   1      33.660  17.192   8.198  0.00  0.00    -0.058 A 
HETATM   11  C   UNK N   1      34.229  17.334   6.925  0.00  0.00     0.007 A 
HETATM   12  C   UNK N   1      33.408  17.383   5.795  0.00  0.00     0.001 A 
HETATM   13  C   UNK N   1      32.020  17.285   5.933  0.00  0.00     0.000 A 
HETATM   14  C   UNK N   1      31.451  17.145   7.202  0.00  0.00     0.001 A 
HETATM   15  C   UNK N   1      32.270  17.103   8.333  0.00  0.00     0.007 A 
ENDBRANCH   9  10
ENDBRANCH   8   9
ENDBRANCH   7   8
ENDBRANCH   1   7
BRANCH   4  16
HETATM   16  C   UNK N   1      36.914  13.426  14.998  0.00  0.00     0.086 C 
HETATM   17  C   UNK N   1      36.152  13.905  16.234  0.00  0.00     0.025 C 
HETATM   18  C   UNK N   1      35.025  12.942  16.604  0.00  0.00     0.002 C 
HETATM   19  C   UNK N   1      35.544  11.510  16.670  0.00  0.00     0.000 C 
HETATM   20  C   UNK N   1      36.010  11.083  15.282  0.00  0.00     0.002 C 
HETATM   21  C   UNK N   1      37.199  11.929  14.831  0.00  0.00     0.025 C 
ENDBRANCH   4  16
TORSDOF 5
ENDMDL
MODEL 6
REMARK VINA RESULT:      -6.4      2.027      9.082
REMARK  5 active torsions:
REMARK  status: ('A' for Active; 'I' for Inactive)
REMARK    1  A    between atoms: C_6  and  C_8 
REMARK    2  A    between atoms: N_7  and  C_10 
REMARK       I    between atoms: N_7  and  C_11 
REMARK    3  A    between atoms: C_8  and  C_9 
REMARK    4  A    between atoms: C_9  and  C_10 
REMARK       I    between atoms: C_11  and  N_13 
REMARK    5  A    between atoms: N_13  and  C_14 
ROOT
HETATM    1  N   UNK N   1      36.742  14.035  12.677  0.00  0.00    -0.343 N 
HETATM    2  C   UNK N   1      35.838  13.423  13.482  0.00  0.00     0.316 C 
HETATM    3  O   UNK N   1      34.788  12.997  13.022  0.00  0.00    -0.247 OA
HETATM    4  N   UNK N   1      36.121  13.286  14.801  0.00  0.00    -0.339 N 
HETATM    5  H   UNK N   1      37.576  14.373  13.076  0.00  0.00     0.164 HD
HETATM    6  H   UNK N   1      36.969  13.667  15.126  0.00  0.00     0.164 HD
ENDROOT
BRANCH   1   7
HETATM    7  C   UNK N   1      36.531  14.211  11.258  0.00  0.00     0.125 C 
BRANCH   7   8
HETATM    8  C   UNK N   1      36.189  15.664  10.930  0.00  0.00     0.024 C 
BRANCH   8   9
HETATM    9  C   UNK N   1      34.713  15.838  10.582  0.00  0.00     0.040 C 
BRANCH   9  10
HETATM   10  C   UNK N   1      34.524  16.271   9.167  0.00  0.00    -0.058 A 
HETATM   11  C   UNK N   1      34.847  15.415   8.105  0.00  0.00     0.007 A 
HETATM   12  C   UNK N   1      34.661  15.839   6.785  0.00  0.00     0.001 A 
HETATM   13  C   UNK N   1      34.147  17.114   6.525  0.00  0.00     0.000 A 
HETATM   14  C   UNK N   1      33.826  17.968   7.584  0.00  0.00     0.001 A 
HETATM   15  C   UNK N   1      34.018  17.548   8.903  0.00  0.00     0.007 A 
ENDBRANCH   9  10
ENDBRANCH   8   9
ENDBRANCH   7   8
ENDBRANCH   1   7
BRANCH   4  16
HETATM   16  C   UNK N   1      35.271  12.621  15.770  0.00  0.00     0.086 C 
HETATM   17  C   UNK N   1      35.459  11.112  15.932  0.00  0.00     0.025 C 
HETATM   18  C   UNK N   1      36.011  10.763  17.313  0.00  0.00     0.002 C 
HETATM   19  C   UNK N   1      35.191  11.441  18.405  0.00  0.00     0.000 C 
HETATM   20  C   UNK N   1      35.339  12.954  18.274  0.00  0.00     0.002 C 
HETATM   21  C   UNK N   1      34.744  13.439  16.953  0.00  0.00     0.025 C 
ENDBRANCH   4  16
TORSDOF 5
ENDMDL
MODEL 7
REMARK VINA RESULT:      -6.2     19.318     21.820
REMARK  5 active torsions:
REMARK  status: ('A' for Active; 'I' for Inactive)
REMARK    1  A    between atoms: C_6  and  C_8 
REMARK    2  A    between atoms: N_7  and  C_10 
REMARK       I    between atoms: N_7  and  C_11 
REMARK    3  A    between atoms: C_8  and  C_9 
REMARK    4  A    between atoms: C_9  and  C_10 
REMARK       I    between atoms: C_11  and  N_13 
REMARK    5  A    between atoms: N_13  and  C_14 
ROOT
HETATM    1  N   UNK N   1      26.431  23.197  -8.259  0.00  0.00    -0.343 N 
HETATM    2  C   UNK N   1      25.830  23.628  -7.122  0.00  0.00     0.316 C 
HETATM    3  O   UNK N   1      25.134  22.868  -6.465  0.00  0.00    -0.247 OA
HETATM    4  N   UNK N   1      26.020  24.911  -6.724  0.00  0.00    -0.339 N 
HETATM    5  H   UNK N   1      26.983  23.833  -8.771  0.00  0.00     0.164 HD
HETATM    6  H   UNK N   1      26.571  25.489  -7.301  0.00  0.00     0.164 HD
ENDROOT
BRANCH   1   7
HETATM    7  C   UNK N   1      26.297  21.845  -8.750  0.00  0.00     0.125 C 
BRANCH   7   8
HETATM    8  C   UNK N   1      27.411  20.950  -8.207  0.00  0.00     0.024 C 
BRANCH   8   9
HETATM    9  C   UNK N   1      28.753  21.676  -8.161  0.00  0.00     0.040 C 
BRANCH   9  10
HETATM   10  C   UNK N   1      29.378  21.600  -6.808  0.00  0.00    -0.058 A 
HETATM   11  C   UNK N   1      30.221  20.535  -6.465  0.00  0.00     0.007 A 
HETATM   12  C   UNK N   1      30.799  20.483  -5.193  0.00  0.00     0.001 A 
HETATM   13  C   UNK N   1      30.540  21.497  -4.265  0.00  0.00     0.000 A 
HETATM   14  C   UNK N   1      29.698  22.559  -4.606  0.00  0.00     0.001 A 
HETATM   15  C   UNK N   1      29.114  22.608  -5.875  0.00  0.00     0.007 A 
ENDBRANCH   9  10
ENDBRANCH   8   9
ENDBRANCH   7   8
ENDBRANCH   1   7
BRANCH   4  16
HETATM   16  C   UNK N   1      25.476  25.495  -5.515  0.00  0.00     0.086 C 
HETATM   17  C   UNK N   1      26.139  25.098  -4.196  0.00  0.00     0.025 C 
HETATM   18  C   UNK N   1      26.844  26.286  -3.544  0.00  0.00     0.002 C 
HETATM   19  C   UNK N   1      25.908  27.488  -3.469  0.00  0.00     0.000 C 
HETATM   20  C   UNK N   1      25.563  27.940  -4.884  0.00  0.00     0.002 C 
HETATM   21  C   UNK N   1      24.778  26.856  -5.618  0.00  0.00     0.025 C 
ENDBRANCH   4  16
TORSDOF 5
ENDMDL
MODEL 8
REMARK VINA RESULT:      -6.1      2.403      3.768
REMARK  5 active torsions:
REMARK  status: ('A' for Active; 'I' for Inactive)
REMARK    1  A    between atoms: C_6  and  C_8 
REMARK    2  A    between atoms: N_7  and  C_10 
REMARK       I    between atoms: N_7  and  C_11 
REMARK    3  A    between atoms: C_8  and  C_9 
REMARK    4  A    between atoms: C_9  and  C_10 
REMARK       I    between atoms: C_11  and  N_13 
REMARK    5  A    between atoms: N_13  and  C_14 
ROOT
HETATM    1  N   UNK N   1      35.843  13.792  14.318  0.00  0.00    -0.343 N 
HETATM    2  C   UNK N   1      35.646  14.143  13.022  0.00  0.00     0.316 C 
HETATM    3  O   UNK N   1      34.706  13.681  12.392  0.00  0.00    -0.247 OA
HETATM    4  N   UNK N   1      36.504  15.019  12.442  0.00  0.00    -0.339 N 
HETATM    5  H   UNK N   1      36.610  14.177  14.799  0.00  0.00     0.164 HD
HETATM    6  H   UNK N   1      37.258  15.345  12.986  0.00  0.00     0.164 HD
ENDROOT
BRANCH   1   7
HETATM    7  C   UNK N   1      34.971  12.878  15.020  0.00  0.00     0.125 C 
BRANCH   7   8
HETATM    8  C   UNK N   1      35.395  12.729  16.481  0.00  0.00     0.024 C 
BRANCH   8   9
HETATM    9  C   UNK N   1      35.954  11.338  16.772  0.00  0.00     0.040 C 
BRANCH   9  10
HETATM   10  C   UNK N   1      35.314  10.724  17.972  0.00  0.00    -0.058 A 
HETATM   11  C   UNK N   1      35.466  11.298  19.241  0.00  0.00     0.007 A 
HETATM   12  C   UNK N   1      34.856  10.708  20.352  0.00  0.00     0.001 A 
HETATM   13  C   UNK N   1      34.089   9.549  20.196  0.00  0.00     0.000 A 
HETATM   14  C   UNK N   1      33.937   8.975  18.931  0.00  0.00     0.001 A 
HETATM   15  C   UNK N   1      34.553   9.560  17.821  0.00  0.00     0.007 A 
ENDBRANCH   9  10
ENDBRANCH   8   9
ENDBRANCH   7   8
ENDBRANCH   1   7
BRANCH   4  16
HETATM   16  C   UNK N   1      36.395  15.514  11.084  0.00  0.00     0.086 C 
HETATM   17  C   UNK N   1      36.912  14.601   9.972  0.00  0.00     0.025 C 
HETATM   18  C   UNK N   1      35.776  14.113   9.076  0.00  0.00     0.002 C 
HETATM   19  C   UNK N   1      34.918  15.286   8.612  0.00  0.00     0.000 C 
HETATM   20  C   UNK N   1      34.242  15.919   9.824  0.00  0.00     0.002 C 
HETATM   21  C   UNK N   1      35.283  16.520  10.766  0.00  0.00     0.025 C 
ENDBRANCH   4  16
TORSDOF 5
ENDMDL
MODEL 9
REMARK VINA RESULT:      -6.1      1.759      2.527
REMARK  5 active torsions:
REMARK  status: ('A' for Active; 'I' for Inactive)
REMARK    1  A    between atoms: C_6  and  C_8 
REMARK    2  A    between atoms: N_7  and  C_10 
REMARK       I    between atoms: N_7  and  C_11 
REMARK    3  A    between atoms: C_8  and  C_9 
REMARK    4  A    between atoms: C_9  and  C_10 
REMARK       I    between atoms: C_11  and  N_13 
REMARK    5  A    between atoms: N_13  and  C_14 
ROOT
HETATM    1  N   UNK N   1      34.574  15.660  10.571  0.00  0.00    -0.343 N 
HETATM    2  C   UNK N   1      34.067  16.597   9.731  0.00  0.00     0.316 C 
HETATM    3  O   UNK N   1      34.669  17.643   9.534  0.00  0.00    -0.247 OA
HETATM    4  N   UNK N   1      32.887  16.351   9.109  0.00  0.00    -0.339 N 
HETATM    5  H   UNK N   1      34.065  14.829  10.713  0.00  0.00     0.164 HD
HETATM    6  H   UNK N   1      32.430  15.504   9.319  0.00  0.00     0.164 HD
ENDROOT
BRANCH   1   7
HETATM    7  C   UNK N   1      35.830  15.830  11.264  0.00  0.00     0.125 C 
BRANCH   7   8
HETATM    8  C   UNK N   1      36.000  14.779  12.360  0.00  0.00     0.024 C 
BRANCH   8   9
HETATM    9  C   UNK N   1      35.672  13.375  11.857  0.00  0.00     0.040 C 
BRANCH   9  10
HETATM   10  C   UNK N   1      35.087  12.524  12.935  0.00  0.00    -0.058 A 
HETATM   11  C   UNK N   1      34.519  11.278  12.637  0.00  0.00     0.007 A 
HETATM   12  C   UNK N   1      33.978  10.494  13.661  0.00  0.00     0.001 A 
HETATM   13  C   UNK N   1      34.010  10.951  14.983  0.00  0.00     0.000 A 
HETATM   14  C   UNK N   1      34.576  12.194  15.281  0.00  0.00     0.001 A 
HETATM   15  C   UNK N   1      35.110  12.981  14.257  0.00  0.00     0.007 A 
ENDBRANCH   9  10
ENDBRANCH   8   9
ENDBRANCH   7   8
ENDBRANCH   1   7
BRANCH   4  16
HETATM   16  C   UNK N   1      32.247  17.239   8.158  0.00  0.00     0.086 C 
HETATM   17  C   UNK N   1      32.390  16.884   6.677  0.00  0.00     0.025 C 
HETATM   18  C   UNK N   1      31.047  16.497   6.062  0.00  0.00     0.002 C 
HETATM   19  C   UNK N   1      29.988  17.546   6.384  0.00  0.00     0.000 C 
HETATM   20  C   UNK N   1      29.757  17.576   7.891  0.00  0.00     0.002 C 
HETATM   21  C   UNK N   1      31.020  18.032   8.619  0.00  0.00     0.025 C 
ENDBRANCH   4  16
TORSDOF 5
ENDMDL
