REMARK  5 active torsions:
REMARK  status: ('A' for Active; 'I' for Inactive)
REMARK    1  A    between atoms: C_6  and  C_8 
REMARK    2  A    between atoms: N_7  and  C_10 
REMARK       I    between atoms: N_7  and  C_11 
REMARK    3  A    between atoms: C_8  and  C_9 
REMARK    4  A    between atoms: C_9  and  C_10 
REMARK       I    between atoms: C_11  and  N_13 
REMARK    5  A    between atoms: N_13  and  C_14 
ROOT
HETATM    1  N   UNK N   1      -0.095   0.425   0.305  0.00  0.00    -0.343 N 
HETATM    2  C   UNK N   1       1.176  -0.036   0.194  0.00  0.00     0.316 C 
HETATM    3  O   UNK N   1       1.550  -0.987   0.865  0.00  0.00    -0.247 OA
HETATM    4  N   UNK N   1       2.020   0.570  -0.678  0.00  0.00    -0.339 N 
HETATM    5  H   UNK N   1      -0.367   1.195  -0.245  0.00  0.00     0.164 HD
HETATM    6  H   UNK N   1       1.677   1.346  -1.178  0.00  0.00     0.164 HD
ENDROOT
BRANCH   1   7
HETATM    7  C   UNK N   1      -1.066  -0.168   1.196  0.00  0.00     0.125 C 
BRANCH   7   8
HETATM    8  C   UNK N   1      -1.787  -1.336   0.524  0.00  0.00     0.024 C 
BRANCH   8   9
HETATM    9  C   UNK N   1      -2.525  -0.899  -0.739  0.00  0.00     0.040 C 
BRANCH   9  10
HETATM   10  C   UNK N   1      -3.651   0.030  -0.429  0.00  0.00    -0.058 A 
HETATM   11  C   UNK N   1      -4.811  -0.434   0.206  0.00  0.00     0.007 A 
HETATM   12  C   UNK N   1      -5.854   0.453   0.490  0.00  0.00     0.001 A 
HETATM   13  C   UNK N   1      -5.737   1.804   0.146  0.00  0.00     0.000 A 
HETATM   14  C   UNK N   1      -4.581   2.267  -0.488  0.00  0.00     0.001 A 
HETATM   15  C   UNK N   1      -3.541   1.380  -0.779  0.00  0.00     0.007 A 
ENDBRANCH   9  10
ENDBRANCH   8   9
ENDBRANCH   7   8
ENDBRANCH   1   7
BRANCH   4  16
HETATM   16  C   UNK N   1       3.388   0.162  -0.931  0.00  0.00     0.086 C 
HETATM   17  C   UNK N   1       4.489   0.975  -0.249  0.00  0.00     0.025 C 
HETATM   18  C   UNK N   1       5.237   0.142   0.790  0.00  0.00     0.002 C 
HETATM   19  C   UNK N   1       5.682  -1.188   0.191  0.00  0.00     0.000 C 
HETATM   20  C   UNK N   1       4.449  -2.005  -0.181  0.00  0.00     0.002 C 
HETATM   21  C   UNK N   1       3.653  -1.306  -1.281  0.00  0.00     0.025 C 
ENDBRANCH   4  16
TORSDOF 5
