MODEL 1
REMARK VINA RESULT:      -6.5      0.000      0.000
REMARK  5 active torsions:
REMARK  status: ('A' for Active; 'I' for Inactive)
REMARK    1  A    between atoms: C_1  and  C_7 
REMARK    2  A    between atoms: C_7  and  N_8 
REMARK    3  A    between atoms: C_7  and  N_9 
REMARK    4  A    between atoms: C_13  and  C_14 
REMARK    5  A    between atoms: C_19  and  O_20 
ROOT
HETATM    1  C   UNK N   1      30.638  16.939   8.460  0.00  0.00     0.009 A 
HETATM    2  C   UNK N   1      29.862  17.575   9.470  0.00  0.00     0.017 A 
HETATM    3  C   UNK N   1      28.725  18.340   9.131  0.00  0.00     0.033 A 
HETATM    4  C   UNK N   1      28.402  18.445   7.780  0.00  0.00     0.060 A 
HETATM    5  C   UNK N   1      29.155  17.850   6.819  0.00  0.00     0.061 A 
HETATM    6  C   UNK N   1      30.275  17.090   7.107  0.00  0.00     0.047 A 
HETATM    7  N   UNK N   1      27.363  19.080   7.211  0.00  0.00    -0.340 N 
HETATM    8  N   UNK N   1      28.630  18.094   5.616  0.00  0.00    -0.340 N 
ATOM      9  HN  UNK N   1      28.975  17.786   4.707  1.00  0.00     0.167 HD
HETATM   10  C   UNK N   1      27.533  18.845   5.879  0.00  0.00     0.119 A 
HETATM   11  H   UNK N   1      26.650  19.594   7.653  0.00  0.00     0.167 HD
ENDROOT
BRANCH  10  12
HETATM   12  C   UNK N   1      26.603  19.307   4.825  0.00  0.00     0.041 A 
HETATM   13  C   UNK N   1      27.031  20.261   3.891  0.00  0.00     0.018 A 
HETATM   14  C   UNK N   1      26.157  20.731   2.907  0.00  0.00     0.001 A 
HETATM   15  C   UNK N   1      24.848  20.249   2.843  0.00  0.00     0.003 A 
HETATM   16  C   UNK N   1      24.412  19.294   3.761  0.00  0.00     0.037 A 
HETATM   17  C   UNK N   1      25.276  18.821   4.751  0.00  0.00     0.079 A 
BRANCH  17  18
HETATM   18  O   UNK N   1      24.823  17.899   5.619  0.00  0.00    -0.360 OA
ATOM     19  HO  UNK N   1      24.285  18.146   6.362  1.00  0.00     0.217 HD
ENDBRANCH  17  18
ENDBRANCH  10  12
BRANCH   1  20
HETATM   20  C   UNK N   1      31.804  16.103   8.814  0.00  0.00     0.102 C 
BRANCH  20  21
HETATM   21  N   UNK N   1      31.771  15.280   9.961  0.00  0.00    -0.385 N 
HETATM   22  H   UNK N   1      32.588  15.144  10.494  0.00  0.00     0.157 HD
HETATM   23  H   UNK N   1      30.932  14.841  10.228  0.00  0.00     0.157 HD
ENDBRANCH  20  21
BRANCH  20  24
HETATM   24  N   UNK N   1      32.842  16.087   8.058  0.00  0.00    -0.385 N 
HETATM   25  H   UNK N   1      33.695  15.728   8.394  0.00  0.00     0.157 HD
HETATM   26  H   UNK N   1      32.785  16.436   7.139  0.00  0.00     0.157 HD
ENDBRANCH  20  24
ENDBRANCH   1  20
TORSDOF 5
ENDMDL
MODEL 2
REMARK VINA RESULT:      -6.4      2.711      7.288
REMARK  5 active torsions:
REMARK  status: ('A' for Active; 'I' for Inactive)
REMARK    1  A    between atoms: C_1  and  C_7 
REMARK    2  A    between atoms: C_7  and  N_8 
REMARK    3  A    between atoms: C_7  and  N_9 
REMARK    4  A    between atoms: C_13  and  C_14 
REMARK    5  A    between atoms: C_19  and  O_20 
ROOT
HETATM    1  C   UNK N   1      23.799  19.753   3.524  0.00  0.00     0.009 A 
HETATM    2  C   UNK N   1      24.725  20.527   2.770  0.00  0.00     0.017 A 
HETATM    3  C   UNK N   1      26.097  20.540   3.107  0.00  0.00     0.033 A 
HETATM    4  C   UNK N   1      26.496  19.771   4.198  0.00  0.00     0.060 A 
HETATM    5  C   UNK N   1      25.606  19.047   4.923  0.00  0.00     0.061 A 
HETATM    6  C   UNK N   1      24.255  19.004   4.627  0.00  0.00     0.047 A 
HETATM    7  N   UNK N   1      27.733  19.593   4.692  0.00  0.00    -0.340 N 
HETATM    8  N   UNK N   1      26.240  18.396   5.901  0.00  0.00    -0.340 N 
ATOM      9  HN  UNK N   1      25.840  17.781   6.609  1.00  0.00     0.167 HD
HETATM   10  C   UNK N   1      27.541  18.741   5.740  0.00  0.00     0.119 A 
HETATM   11  H   UNK N   1      28.577  19.984   4.372  0.00  0.00     0.167 HD
ENDROOT
BRANCH  10  12
HETATM   12  C   UNK N   1      28.628  18.201   6.586  0.00  0.00     0.041 A 
HETATM   13  C   UNK N   1      29.693  17.509   5.989  0.00  0.00     0.018 A 
HETATM   14  C   UNK N   1      30.713  16.966   6.776  0.00  0.00     0.001 A 
HETATM   15  C   UNK N   1      30.683  17.113   8.163  0.00  0.00     0.003 A 
HETATM   16  C   UNK N   1      29.635  17.807   8.768  0.00  0.00     0.037 A 
HETATM   17  C   UNK N   1      28.608  18.349   7.993  0.00  0.00     0.079 A 
BRANCH  17  18
HETATM   18  O   UNK N   1      27.613  19.013   8.608  0.00  0.00    -0.360 OA
ATOM     19  HO  UNK N   1      27.700  19.932   8.832  1.00  0.00     0.217 HD
ENDBRANCH  17  18
ENDBRANCH  10  12
BRANCH   1  20
HETATM   20  C   UNK N   1      22.370  19.703   3.149  0.00  0.00     0.102 C 
BRANCH  20  21
HETATM   21  N   UNK N   1      21.575  18.594   3.513  0.00  0.00    -0.385 N 
HETATM   22  H   UNK N   1      20.604  18.612   3.355  0.00  0.00     0.157 HD
HETATM   23  H   UNK N   1      21.991  17.804   3.927  0.00  0.00     0.157 HD
ENDBRANCH  20  21
BRANCH  20  24
HETATM   24  N   UNK N   1      21.830  20.686   2.525  0.00  0.00    -0.385 N 
HETATM   25  H   UNK N   1      21.323  20.530   1.696  0.00  0.00     0.157 HD
HETATM   26  H   UNK N   1      21.923  21.602   2.877  0.00  0.00     0.157 HD
ENDBRANCH  20  24
ENDBRANCH   1  20
TORSDOF 5
ENDMDL
MODEL 3
REMARK VINA RESULT:      -6.4      4.021      8.579
REMARK  5 active torsions:
REMARK  status: ('A' for Active; 'I' for Inactive)
REMARK    1  A    between atoms: C_1  and  C_7 
REMARK    2  A    between atoms: C_7  and  N_8 
REMARK    3  A    between atoms: C_7  and  N_9 
REMARK    4  A    between atoms: C_13  and  C_14 
REMARK    5  A    between atoms: C_19  and  O_20 
ROOT
HETATM    1  C   UNK N   1      29.467  17.886   7.670  0.00  0.00     0.009 A 
HETATM    2  C   UNK N   1      29.791  17.464   6.350  0.00  0.00     0.017 A 
HETATM    3  C   UNK N   1      31.016  16.815   6.081  0.00  0.00     0.033 A 
HETATM    4  C   UNK N   1      31.883  16.611   7.153  0.00  0.00     0.060 A 
HETATM    5  C   UNK N   1      31.576  17.030   8.407  0.00  0.00     0.061 A 
HETATM    6  C   UNK N   1      30.387  17.667   8.715  0.00  0.00     0.047 A 
HETATM    7  N   UNK N   1      33.078  15.996   7.162  0.00  0.00    -0.340 N 
HETATM    8  N   UNK N   1      32.561  16.707   9.248  0.00  0.00    -0.340 N 
ATOM      9  HN  UNK N   1      32.620  16.894  10.249  1.00  0.00     0.167 HD
HETATM   10  C   UNK N   1      33.469  16.072   8.466  0.00  0.00     0.119 A 
HETATM   11  H   UNK N   1      33.556  15.588   6.405  0.00  0.00     0.167 HD
ENDROOT
BRANCH  10  12
HETATM   12  C   UNK N   1      34.718  15.485   8.998  0.00  0.00     0.041 A 
HETATM   13  C   UNK N   1      35.256  14.337   8.397  0.00  0.00     0.018 A 
HETATM   14  C   UNK N   1      36.420  13.752   8.905  0.00  0.00     0.001 A 
HETATM   15  C   UNK N   1      37.060  14.310  10.013  0.00  0.00     0.003 A 
HETATM   16  C   UNK N   1      36.540  15.456  10.614  0.00  0.00     0.037 A 
HETATM   17  C   UNK N   1      35.376  16.047  10.118  0.00  0.00     0.079 A 
BRANCH  17  18
HETATM   18  O   UNK N   1      34.903  17.152  10.720  0.00  0.00    -0.360 OA
ATOM     19  HO  UNK N   1      34.041  17.494  10.514  1.00  0.00     0.217 HD
ENDBRANCH  17  18
ENDBRANCH  10  12
BRANCH   1  20
HETATM   20  C   UNK N   1      28.168  18.527   7.964  0.00  0.00     0.102 C 
BRANCH  20  21
HETATM   21  N   UNK N   1      27.463  19.209   6.947  0.00  0.00    -0.385 N 
HETATM   22  H   UNK N   1      27.734  19.108   6.007  0.00  0.00     0.157 HD
HETATM   23  H   UNK N   1      26.700  19.786   7.179  0.00  0.00     0.157 HD
ENDBRANCH  20  21
BRANCH  20  24
HETATM   24  N   UNK N   1      27.651  18.436   9.135  0.00  0.00    -0.385 N 
HETATM   25  H   UNK N   1      27.844  19.118   9.818  0.00  0.00     0.157 HD
HETATM   26  H   UNK N   1      27.058  17.679   9.351  0.00  0.00     0.157 HD
ENDBRANCH  20  24
ENDBRANCH   1  20
TORSDOF 5
ENDMDL
MODEL 4
REMARK VINA RESULT:      -6.2      1.201      2.018
REMARK  5 active torsions:
REMARK  status: ('A' for Active; 'I' for Inactive)
REMARK    1  A    between atoms: C_1  and  C_7 
REMARK    2  A    between atoms: C_7  and  N_8 
REMARK    3  A    between atoms: C_7  and  N_9 
REMARK    4  A    between atoms: C_13  and  C_14 
REMARK    5  A    between atoms: C_19  and  O_20 
ROOT
HETATM    1  C   UNK N   1      31.731  16.643   7.769  0.00  0.00     0.009 A 
HETATM    2  C   UNK N   1      32.382  16.611   6.504  0.00  0.00     0.017 A 
HETATM    3  C   UNK N   1      31.706  17.025   5.335  0.00  0.00     0.033 A 
HETATM    4  C   UNK N   1      30.390  17.459   5.475  0.00  0.00     0.060 A 
HETATM    5  C   UNK N   1      29.768  17.472   6.681  0.00  0.00     0.061 A 
HETATM    6  C   UNK N   1      30.393  17.078   7.851  0.00  0.00     0.047 A 
HETATM    7  N   UNK N   1      29.556  17.929   4.531  0.00  0.00    -0.340 N 
HETATM    8  N   UNK N   1      28.524  17.938   6.546  0.00  0.00    -0.340 N 
ATOM      9  HN  UNK N   1      27.817  18.058   7.270  1.00  0.00     0.167 HD
HETATM   10  C   UNK N   1      28.416  18.214   5.223  0.00  0.00     0.119 A 
HETATM   11  H   UNK N   1      29.728  18.040   3.569  0.00  0.00     0.167 HD
ENDROOT
BRANCH  10  12
HETATM   12  C   UNK N   1      27.202  18.810   4.623  0.00  0.00     0.041 A 
HETATM   13  C   UNK N   1      27.323  19.912   3.763  0.00  0.00     0.018 A 
HETATM   14  C   UNK N   1      26.185  20.507   3.210  0.00  0.00     0.001 A 
HETATM   15  C   UNK N   1      24.917  20.004   3.506  0.00  0.00     0.003 A 
HETATM   16  C   UNK N   1      24.783  18.903   4.353  0.00  0.00     0.037 A 
HETATM   17  C   UNK N   1      25.913  18.304   4.914  0.00  0.00     0.079 A 
BRANCH  17  18
HETATM   18  O   UNK N   1      25.749  17.244   5.725  0.00  0.00    -0.360 OA
ATOM     19  HO  UNK N   1      25.955  17.297   6.651  1.00  0.00     0.217 HD
ENDBRANCH  17  18
ENDBRANCH  10  12
BRANCH   1  20
HETATM   20  C   UNK N   1      32.447  16.250   9.000  0.00  0.00     0.102 C 
BRANCH  20  21
HETATM   21  N   UNK N   1      31.962  15.193   9.802  0.00  0.00    -0.385 N 
HETATM   22  H   UNK N   1      32.100  15.211  10.777  0.00  0.00     0.157 HD
HETATM   23  H   UNK N   1      31.485  14.439   9.387  0.00  0.00     0.157 HD
ENDBRANCH  20  21
BRANCH  20  24
HETATM   24  N   UNK N   1      33.539  16.838   9.330  0.00  0.00    -0.385 N 
HETATM   25  H   UNK N   1      33.574  17.406  10.133  0.00  0.00     0.157 HD
HETATM   26  H   UNK N   1      34.346  16.721   8.777  0.00  0.00     0.157 HD
ENDBRANCH  20  24
ENDBRANCH   1  20
TORSDOF 5
ENDMDL
MODEL 5
REMARK VINA RESULT:      -6.1      6.885     10.055
REMARK  5 active torsions:
REMARK  status: ('A' for Active; 'I' for Inactive)
REMARK    1  A    between atoms: C_1  and  C_7 
REMARK    2  A    between atoms: C_7  and  N_8 
REMARK    3  A    between atoms: C_7  and  N_9 
REMARK    4  A    between atoms: C_13  and  C_14 
REMARK    5  A    between atoms: C_19  and  O_20 
ROOT
HETATM    1  C   UNK N   1      20.457  17.822   3.390  0.00  0.00     0.009 A 
HETATM    2  C   UNK N   1      21.733  18.386   3.670  0.00  0.00     0.017 A 
HETATM    3  C   UNK N   1      22.482  17.957   4.788  0.00  0.00     0.033 A 
HETATM    4  C   UNK N   1      21.919  16.970   5.596  0.00  0.00     0.060 A 
HETATM    5  C   UNK N   1      20.695  16.447   5.334  0.00  0.00     0.061 A 
HETATM    6  C   UNK N   1      19.929  16.836   4.249  0.00  0.00     0.047 A 
HETATM    7  N   UNK N   1      22.440  16.379   6.685  0.00  0.00    -0.340 N 
HETATM    8  N   UNK N   1      20.393  15.519   6.245  0.00  0.00    -0.340 N 
ATOM      9  HN  UNK N   1      19.543  14.960   6.314  1.00  0.00     0.167 HD
HETATM   10  C   UNK N   1      21.476  15.491   7.060  0.00  0.00     0.119 A 
HETATM   11  H   UNK N   1      23.311  16.547   7.109  0.00  0.00     0.167 HD
ENDROOT
BRANCH  10  12
HETATM   12  C   UNK N   1      21.602  14.554   8.198  0.00  0.00     0.041 A 
HETATM   13  C   UNK N   1      22.767  13.785   8.339  0.00  0.00     0.018 A 
HETATM   14  C   UNK N   1      22.891  12.873   9.391  0.00  0.00     0.001 A 
HETATM   15  C   UNK N   1      21.856  12.724  10.315  0.00  0.00     0.003 A 
HETATM   16  C   UNK N   1      20.695  13.489  10.192  0.00  0.00     0.037 A 
HETATM   17  C   UNK N   1      20.559  14.399   9.142  0.00  0.00     0.079 A 
BRANCH  17  18
HETATM   18  O   UNK N   1      19.428  15.122   9.054  0.00  0.00    -0.360 OA
ATOM     19  HO  UNK N   1      18.729  15.020   9.690  1.00  0.00     0.217 HD
ENDBRANCH  17  18
ENDBRANCH  10  12
BRANCH   1  20
HETATM   20  C   UNK N   1      19.689  18.237   2.198  0.00  0.00     0.102 C 
BRANCH  20  21
HETATM   21  N   UNK N   1      20.160  17.929   0.902  0.00  0.00    -0.385 N 
HETATM   22  H   UNK N   1      19.803  18.409   0.121  0.00  0.00     0.157 HD
HETATM   23  H   UNK N   1      20.845  17.233   0.780  0.00  0.00     0.157 HD
ENDBRANCH  20  21
BRANCH  20  24
HETATM   24  N   UNK N   1      18.567  18.846   2.330  0.00  0.00    -0.385 N 
HETATM   25  H   UNK N   1      17.900  18.821   1.607  0.00  0.00     0.157 HD
HETATM   26  H   UNK N   1      18.373  19.342   3.159  0.00  0.00     0.157 HD
ENDBRANCH  20  24
ENDBRANCH   1  20
TORSDOF 5
ENDMDL
MODEL 6
REMARK VINA RESULT:      -6.1      4.753      6.789
REMARK  5 active torsions:
REMARK  status: ('A' for Active; 'I' for Inactive)
REMARK    1  A    between atoms: C_1  and  C_7 
REMARK    2  A    between atoms: C_7  and  N_8 
REMARK    3  A    between atoms: C_7  and  N_9 
REMARK    4  A    between atoms: C_13  and  C_14 
REMARK    5  A    between atoms: C_19  and  O_20 
ROOT
HETATM    1  C   UNK N   1      35.194  14.500  11.603  0.00  0.00     0.009 A 
HETATM    2  C   UNK N   1      35.780  15.796  11.654  0.00  0.00     0.017 A 
HETATM    3  C   UNK N   1      35.444  16.777  10.696  0.00  0.00     0.033 A 
HETATM    4  C   UNK N   1      34.527  16.422   9.709  0.00  0.00     0.060 A 
HETATM    5  C   UNK N   1      33.984  15.179   9.654  0.00  0.00     0.061 A 
HETATM    6  C   UNK N   1      34.282  14.189  10.573  0.00  0.00     0.047 A 
HETATM    7  N   UNK N   1      34.027  17.178   8.716  0.00  0.00    -0.340 N 
HETATM    8  N   UNK N   1      33.134  15.100   8.628  0.00  0.00    -0.340 N 
ATOM      9  HN  UNK N   1      32.582  14.295   8.331  1.00  0.00     0.167 HD
HETATM   10  C   UNK N   1      33.173  16.334   8.069  0.00  0.00     0.119 A 
HETATM   11  H   UNK N   1      34.230  18.117   8.507  0.00  0.00     0.167 HD
ENDROOT
BRANCH  10  12
HETATM   12  C   UNK N   1      32.332  16.722   6.915  0.00  0.00     0.041 A 
HETATM   13  C   UNK N   1      30.952  16.476   6.948  0.00  0.00     0.018 A 
HETATM   14  C   UNK N   1      30.147  16.808   5.855  0.00  0.00     0.001 A 
HETATM   15  C   UNK N   1      30.712  17.392   4.720  0.00  0.00     0.003 A 
HETATM   16  C   UNK N   1      32.082  17.650   4.677  0.00  0.00     0.037 A 
HETATM   17  C   UNK N   1      32.896  17.318   5.762  0.00  0.00     0.079 A 
BRANCH  17  18
HETATM   18  O   UNK N   1      34.213  17.581   5.688  0.00  0.00    -0.360 OA
ATOM     19  HO  UNK N   1      34.536  18.475   5.676  1.00  0.00     0.217 HD
ENDBRANCH  17  18
ENDBRANCH  10  12
BRANCH   1  20
HETATM   20  C   UNK N   1      35.511  13.483  12.628  0.00  0.00     0.102 C 
BRANCH  20  21
HETATM   21  N   UNK N   1      36.714  13.562  13.363  0.00  0.00    -0.385 N 
HETATM   22  H   UNK N   1      36.950  12.848  13.999  0.00  0.00     0.157 HD
HETATM   23  H   UNK N   1      37.317  14.330  13.241  0.00  0.00     0.157 HD
ENDBRANCH  20  21
BRANCH  20  24
HETATM   24  N   UNK N   1      34.676  12.543  12.887  0.00  0.00    -0.385 N 
HETATM   25  H   UNK N   1      33.877  12.420  12.326  0.00  0.00     0.157 HD
HETATM   26  H   UNK N   1      34.835  11.944  13.652  0.00  0.00     0.157 HD
ENDBRANCH  20  24
ENDBRANCH   1  20
TORSDOF 5
ENDMDL
MODEL 7
REMARK VINA RESULT:      -6.0      6.279      9.665
REMARK  5 active torsions:
REMARK  status: ('A' for Active; 'I' for Inactive)
REMARK    1  A    between atoms: C_1  and  C_7 
REMARK    2  A    between atoms: C_7  and  N_8 
REMARK    3  A    between atoms: C_7  and  N_9 
REMARK    4  A    between atoms: C_13  and  C_14 
REMARK    5  A    between atoms: C_19  and  O_20 
ROOT
HETATM    1  C   UNK N   1      33.358  16.429   4.661  0.00  0.00     0.009 A 
HETATM    2  C   UNK N   1      33.204  17.664   5.351  0.00  0.00     0.017 A 
HETATM    3  C   UNK N   1      33.565  17.780   6.711  0.00  0.00     0.033 A 
HETATM    4  C   UNK N   1      34.071  16.643   7.339  0.00  0.00     0.060 A 
HETATM    5  C   UNK N   1      34.200  15.463   6.681  0.00  0.00     0.061 A 
HETATM    6  C   UNK N   1      33.861  15.306   5.349  0.00  0.00     0.047 A 
HETATM    7  N   UNK N   1      34.511  16.507   8.602  0.00  0.00    -0.340 N 
HETATM    8  N   UNK N   1      34.713  14.541   7.499  0.00  0.00    -0.340 N 
ATOM      9  HN  UNK N   1      34.919  13.564   7.293  1.00  0.00     0.167 HD
HETATM   10  C   UNK N   1      34.899  15.202   8.668  0.00  0.00     0.119 A 
HETATM   11  H   UNK N   1      34.544  17.189   9.310  0.00  0.00     0.167 HD
ENDROOT
BRANCH  10  12
HETATM   12  C   UNK N   1      35.508  14.572   9.860  0.00  0.00     0.041 A 
HETATM   13  C   UNK N   1      36.812  14.061   9.786  0.00  0.00     0.018 A 
HETATM   14  C   UNK N   1      37.392  13.436  10.893  0.00  0.00     0.001 A 
HETATM   15  C   UNK N   1      36.677  13.319  12.086  0.00  0.00     0.003 A 
HETATM   16  C   UNK N   1      35.383  13.830  12.177  0.00  0.00     0.037 A 
HETATM   17  C   UNK N   1      34.792  14.452  11.075  0.00  0.00     0.079 A 
BRANCH  17  18
HETATM   18  O   UNK N   1      33.543  14.935  11.197  0.00  0.00    -0.360 OA
ATOM     19  HO  UNK N   1      33.197  15.566  10.576  1.00  0.00     0.217 HD
ENDBRANCH  17  18
ENDBRANCH  10  12
BRANCH   1  20
HETATM   20  C   UNK N   1      33.020  16.314   3.227  0.00  0.00     0.102 C 
BRANCH  20  21
HETATM   21  N   UNK N   1      32.065  17.178   2.647  0.00  0.00    -0.385 N 
HETATM   22  H   UNK N   1      31.829  17.084   1.696  0.00  0.00     0.157 HD
HETATM   23  H   UNK N   1      31.635  17.875   3.193  0.00  0.00     0.157 HD
ENDBRANCH  20  21
BRANCH  20  24
HETATM   24  N   UNK N   1      33.623  15.456   2.486  0.00  0.00    -0.385 N 
HETATM   25  H   UNK N   1      34.545  15.181   2.694  0.00  0.00     0.157 HD
HETATM   26  H   UNK N   1      33.160  15.071   1.706  0.00  0.00     0.157 HD
ENDBRANCH  20  24
ENDBRANCH   1  20
TORSDOF 5
ENDMDL
MODEL 8
REMARK VINA RESULT:      -6.0     10.857     13.408
REMARK  5 active torsions:
REMARK  status: ('A' for Active; 'I' for Inactive)
REMARK    1  A    between atoms: C_1  and  C_7 
REMARK    2  A    between atoms: C_7  and  N_8 
REMARK    3  A    between atoms: C_7  and  N_9 
REMARK    4  A    between atoms: C_13  and  C_14 
REMARK    5  A    between atoms: C_19  and  O_20 
ROOT
HETATM    1  C   UNK N   1      35.317  12.037  18.381  0.00  0.00     0.009 A 
HETATM    2  C   UNK N   1      35.609  10.737  17.883  0.00  0.00     0.017 A 
HETATM    3  C   UNK N   1      35.927  10.540  16.521  0.00  0.00     0.033 A 
HETATM    4  C   UNK N   1      35.940  11.664  15.697  0.00  0.00     0.060 A 
HETATM    5  C   UNK N   1      35.645  12.900  16.174  0.00  0.00     0.061 A 
HETATM    6  C   UNK N   1      35.330  13.138  17.500  0.00  0.00     0.047 A 
HETATM    7  N   UNK N   1      36.240  11.743  14.390  0.00  0.00    -0.340 N 
HETATM    8  N   UNK N   1      35.737  13.799  15.191  0.00  0.00    -0.340 N 
ATOM      9  HN  UNK N   1      35.569  14.804  15.241  1.00  0.00     0.167 HD
HETATM   10  C   UNK N   1      36.106  13.071  14.109  0.00  0.00     0.119 A 
HETATM   11  H   UNK N   1      36.497  11.015  13.780  0.00  0.00     0.167 HD
ENDROOT
BRANCH  10  12
HETATM   12  C   UNK N   1      36.380  13.676  12.787  0.00  0.00     0.041 A 
HETATM   13  C   UNK N   1      35.733  14.865  12.421  0.00  0.00     0.018 A 
HETATM   14  C   UNK N   1      35.957  15.435  11.164  0.00  0.00     0.001 A 
HETATM   15  C   UNK N   1      36.832  14.826  10.264  0.00  0.00     0.003 A 
HETATM   16  C   UNK N   1      37.489  13.648  10.618  0.00  0.00     0.037 A 
HETATM   17  C   UNK N   1      37.269  13.067  11.869  0.00  0.00     0.079 A 
BRANCH  17  18
HETATM   18  O   UNK N   1      37.919  11.932  12.180  0.00  0.00    -0.360 OA
ATOM     19  HO  UNK N   1      38.494  11.885  12.935  1.00  0.00     0.217 HD
ENDBRANCH  17  18
ENDBRANCH  10  12
BRANCH   1  20
HETATM   20  C   UNK N   1      35.025  12.253  19.813  0.00  0.00     0.102 C 
BRANCH  20  21
HETATM   21  N   UNK N   1      34.993  11.161  20.708  0.00  0.00    -0.385 N 
HETATM   22  H   UNK N   1      35.049  11.317  21.678  0.00  0.00     0.157 HD
HETATM   23  H   UNK N   1      34.917  10.243  20.362  0.00  0.00     0.157 HD
ENDBRANCH  20  21
BRANCH  20  24
HETATM   24  N   UNK N   1      34.837  13.441  20.264  0.00  0.00    -0.385 N 
HETATM   25  H   UNK N   1      34.561  13.579  21.199  0.00  0.00     0.157 HD
HETATM   26  H   UNK N   1      34.969  14.216  19.672  0.00  0.00     0.157 HD
ENDBRANCH  20  24
ENDBRANCH   1  20
TORSDOF 5
ENDMDL
MODEL 9
REMARK VINA RESULT:      -5.9      6.376      7.345
REMARK  5 active torsions:
REMARK  status: ('A' for Active; 'I' for Inactive)
REMARK    1  A    between atoms: C_1  and  C_7 
REMARK    2  A    between atoms: C_7  and  N_8 
REMARK    3  A    between atoms: C_7  and  N_9 
REMARK    4  A    between atoms: C_13  and  C_14 
REMARK    5  A    between atoms: C_19  and  O_20 
ROOT
HETATM    1  C   UNK N   1      22.845  12.947   9.949  0.00  0.00     0.009 A 
HETATM    2  C   UNK N   1      24.099  12.744   9.308  0.00  0.00     0.017 A 
HETATM    3  C   UNK N   1      24.395  13.383   8.083  0.00  0.00     0.033 A 
HETATM    4  C   UNK N   1      23.413  14.208   7.537  0.00  0.00     0.060 A 
HETATM    5  C   UNK N   1      22.213  14.385   8.145  0.00  0.00     0.061 A 
HETATM    6  C   UNK N   1      21.883  13.782   9.345  0.00  0.00     0.047 A 
HETATM    7  N   UNK N   1      23.465  14.943   6.413  0.00  0.00    -0.340 N 
HETATM    8  N   UNK N   1      21.461  15.224   7.428  0.00  0.00    -0.340 N 
ATOM      9  HN  UNK N   1      20.513  15.543   7.626  1.00  0.00     0.167 HD
HETATM   10  C   UNK N   1      22.248  15.557   6.375  0.00  0.00     0.119 A 
HETATM   11  H   UNK N   1      24.206  15.020   5.771  0.00  0.00     0.167 HD
ENDROOT
BRANCH  10  12
HETATM   12  C   UNK N   1      21.833  16.523   5.334  0.00  0.00     0.041 A 
HETATM   13  C   UNK N   1      21.658  16.086   4.013  0.00  0.00     0.018 A 
HETATM   14  C   UNK N   1      21.295  16.990   3.010  0.00  0.00     0.001 A 
HETATM   15  C   UNK N   1      21.099  18.337   3.319  0.00  0.00     0.003 A 
HETATM   16  C   UNK N   1      21.261  18.783   4.630  0.00  0.00     0.037 A 
HETATM   17  C   UNK N   1      21.627  17.889   5.639  0.00  0.00     0.079 A 
BRANCH  17  18
HETATM   18  O   UNK N   1      21.774  18.352   6.893  0.00  0.00    -0.360 OA
ATOM     19  HO  UNK N   1      21.574  19.255   7.110  1.00  0.00     0.217 HD
ENDBRANCH  17  18
ENDBRANCH  10  12
BRANCH   1  20
HETATM   20  C   UNK N   1      22.548  12.314  11.251  0.00  0.00     0.102 C 
BRANCH  20  21
HETATM   21  N   UNK N   1      23.550  12.213  12.241  0.00  0.00    -0.385 N 
HETATM   22  H   UNK N   1      23.620  12.900  12.942  0.00  0.00     0.157 HD
HETATM   23  H   UNK N   1      24.179  11.457  12.229  0.00  0.00     0.157 HD
ENDBRANCH  20  21
BRANCH  20  24
HETATM   24  N   UNK N   1      21.364  11.887  11.508  0.00  0.00    -0.385 N 
HETATM   25  H   UNK N   1      20.709  11.774  10.783  0.00  0.00     0.157 HD
HETATM   26  H   UNK N   1      21.112  11.672  12.436  0.00  0.00     0.157 HD
ENDBRANCH  20  24
ENDBRANCH   1  20
TORSDOF 5
ENDMDL
