MODEL 1
REMARK VINA RESULT:      -6.6      0.000      0.000
REMARK  5 active torsions:
REMARK  status: ('A' for Active; 'I' for Inactive)
REMARK    1  A    between atoms: O_1  and  C_2 
REMARK    2  A    between atoms: C_2  and  C_4 
REMARK    3  A    between atoms: C_4  and  C_5 
REMARK    4  A    between atoms: C_5  and  C_6 
REMARK    5  A    between atoms: C_6  and  N_7 
ROOT
HETATM    1  N   UNK N   1      27.095  24.439  -4.599  0.00  0.00    -0.345 N 
HETATM    2  C   UNK N   1      26.467  25.631  -4.496  0.00  0.00     0.046 A 
HETATM    3  C   UNK N   1      26.436  26.485  -3.398  0.00  0.00     0.030 A 
HETATM    4  C   UNK N   1      25.834  25.945  -5.681  0.00  0.00     0.003 A 
HETATM    5  C   UNK N   1      25.130  27.135  -5.841  0.00  0.00     0.014 A 
HETATM    6  C   UNK N   1      25.082  28.018  -4.745  0.00  0.00     0.001 A 
HETATM    7  C   UNK N   1      25.730  27.695  -3.531  0.00  0.00     0.002 A 
HETATM    8  C   UNK N   1      26.078  24.903  -6.546  0.00  0.00     0.003 A 
HETATM    9  C   UNK N   1      26.856  23.996  -5.855  0.00  0.00     0.046 A 
HETATM   10  C   UNK N   1      27.300  22.815  -6.451  0.00  0.00     0.030 A 
HETATM   11  C   UNK N   1      25.697  24.691  -7.868  0.00  0.00     0.014 A 
HETATM   12  C   UNK N   1      26.128  23.505  -8.491  0.00  0.00     0.001 A 
HETATM   13  C   UNK N   1      26.924  22.571  -7.786  0.00  0.00     0.002 A 
ENDROOT
BRANCH   1  14
HETATM   14  C   UNK N   1      27.908  23.815  -3.560  0.00  0.00     0.130 C 
BRANCH  14  15
HETATM   15  C   UNK N   1      29.373  24.153  -3.721  0.00  0.00     0.031 C 
BRANCH  15  16
HETATM   16  C   UNK N   1      30.123  22.837  -3.722  0.00  0.00     0.111 C 
BRANCH  16  17
HETATM   17  C   UNK N   1      30.835  22.630  -2.429  0.00  0.00     0.139 C 
HETATM   18  O   UNK N   1      30.371  23.077  -1.393  0.00  0.00    -0.650 OA
BRANCH  17  19
HETATM   19  O   UNK N   1      31.973  21.913  -2.401  0.00  0.00    -0.776 OA
HETATM   20  H   UNK N   1      32.109  21.152  -2.930  0.00  0.00     0.167 HD
ENDBRANCH  17  19
ENDBRANCH  16  17
ENDBRANCH  15  16
ENDBRANCH  14  15
ENDBRANCH   1  14
TORSDOF 5
ENDMDL
MODEL 2
REMARK VINA RESULT:      -6.5      0.169      3.584
REMARK  5 active torsions:
REMARK  status: ('A' for Active; 'I' for Inactive)
REMARK    1  A    between atoms: O_1  and  C_2 
REMARK    2  A    between atoms: C_2  and  C_4 
REMARK    3  A    between atoms: C_4  and  C_5 
REMARK    4  A    between atoms: C_5  and  C_6 
REMARK    5  A    between atoms: C_6  and  N_7 
ROOT
HETATM    1  N   UNK N   1      27.252  24.430  -4.639  0.00  0.00    -0.345 N 
HETATM    2  C   UNK N   1      26.994  23.955  -5.877  0.00  0.00     0.046 A 
HETATM    3  C   UNK N   1      27.458  22.774  -6.449  0.00  0.00     0.030 A 
HETATM    4  C   UNK N   1      26.148  24.809  -6.554  0.00  0.00     0.003 A 
HETATM    5  C   UNK N   1      25.713  24.534  -7.847  0.00  0.00     0.014 A 
HETATM    6  C   UNK N   1      26.167  23.346  -8.451  0.00  0.00     0.001 A 
HETATM    7  C   UNK N   1      27.035  22.472  -7.756  0.00  0.00     0.002 A 
HETATM    8  C   UNK N   1      25.879  25.855  -5.701  0.00  0.00     0.003 A 
HETATM    9  C   UNK N   1      26.567  25.593  -4.533  0.00  0.00     0.046 A 
HETATM   10  C   UNK N   1      26.502  26.458  -3.440  0.00  0.00     0.030 A 
HETATM   11  C   UNK N   1      25.085  26.988  -5.849  0.00  0.00     0.014 A 
HETATM   12  C   UNK N   1      25.004  27.878  -4.762  0.00  0.00     0.001 A 
HETATM   13  C   UNK N   1      25.710  27.615  -3.565  0.00  0.00     0.002 A 
ENDROOT
BRANCH   1  14
HETATM   14  C   UNK N   1      28.064  23.764  -3.625  0.00  0.00     0.130 C 
BRANCH  14  15
HETATM   15  C   UNK N   1      29.536  24.056  -3.809  0.00  0.00     0.031 C 
BRANCH  15  16
HETATM   16  C   UNK N   1      30.249  22.721  -3.783  0.00  0.00     0.111 C 
BRANCH  16  17
HETATM   17  C   UNK N   1      30.902  22.492  -2.463  0.00  0.00     0.139 C 
HETATM   18  O   UNK N   1      30.530  23.108  -1.478  0.00  0.00    -0.650 OA
BRANCH  17  19
HETATM   19  O   UNK N   1      31.878  21.574  -2.352  0.00  0.00    -0.776 OA
HETATM   20  H   UNK N   1      32.724  21.770  -2.002  0.00  0.00     0.167 HD
ENDBRANCH  17  19
ENDBRANCH  16  17
ENDBRANCH  15  16
ENDBRANCH  14  15
ENDBRANCH   1  14
TORSDOF 5
ENDMDL
MODEL 3
REMARK VINA RESULT:      -6.4     11.445     14.444
REMARK  5 active torsions:
REMARK  status: ('A' for Active; 'I' for Inactive)
REMARK    1  A    between atoms: O_1  and  C_2 
REMARK    2  A    between atoms: C_2  and  C_4 
REMARK    3  A    between atoms: C_4  and  C_5 
REMARK    4  A    between atoms: C_5  and  C_6 
REMARK    5  A    between atoms: C_6  and  N_7 
ROOT
HETATM    1  N   UNK N   1      29.364  17.712   5.744  0.00  0.00    -0.345 N 
HETATM    2  C   UNK N   1      30.681  17.542   5.494  0.00  0.00     0.046 A 
HETATM    3  C   UNK N   1      31.329  17.609   4.264  0.00  0.00     0.030 A 
HETATM    4  C   UNK N   1      31.366  17.298   6.667  0.00  0.00     0.003 A 
HETATM    5  C   UNK N   1      32.744  17.107   6.682  0.00  0.00     0.014 A 
HETATM    6  C   UNK N   1      33.426  17.169   5.451  0.00  0.00     0.001 A 
HETATM    7  C   UNK N   1      32.723  17.418   4.250  0.00  0.00     0.002 A 
HETATM    8  C   UNK N   1      30.433  17.314   7.678  0.00  0.00     0.003 A 
HETATM    9  C   UNK N   1      29.215  17.573   7.083  0.00  0.00     0.046 A 
HETATM   10  C   UNK N   1      28.043  17.672   7.834  0.00  0.00     0.030 A 
HETATM   11  C   UNK N   1      30.558  17.140   9.053  0.00  0.00     0.014 A 
HETATM   12  C   UNK N   1      29.390  17.231   9.834  0.00  0.00     0.001 A 
HETATM   13  C   UNK N   1      28.140  17.494   9.227  0.00  0.00     0.002 A 
ENDROOT
BRANCH   1  14
HETATM   14  C   UNK N   1      28.346  18.039   4.751  0.00  0.00     0.130 C 
BRANCH  14  15
HETATM   15  C   UNK N   1      28.156  19.533   4.616  0.00  0.00     0.031 C 
BRANCH  15  16
HETATM   16  C   UNK N   1      26.784  19.847   5.173  0.00  0.00     0.111 C 
BRANCH  16  17
HETATM   17  C   UNK N   1      26.878  20.804   6.311  0.00  0.00     0.139 C 
HETATM   18  O   UNK N   1      27.644  21.753   6.255  0.00  0.00    -0.650 OA
BRANCH  17  19
HETATM   19  O   UNK N   1      26.087  20.643   7.386  0.00  0.00    -0.776 OA
HETATM   20  H   UNK N   1      26.210  19.957   8.012  0.00  0.00     0.167 HD
ENDBRANCH  17  19
ENDBRANCH  16  17
ENDBRANCH  15  16
ENDBRANCH  14  15
ENDBRANCH   1  14
TORSDOF 5
ENDMDL
MODEL 4
REMARK VINA RESULT:      -6.3     11.446     14.197
REMARK  5 active torsions:
REMARK  status: ('A' for Active; 'I' for Inactive)
REMARK    1  A    between atoms: O_1  and  C_2 
REMARK    2  A    between atoms: C_2  and  C_4 
REMARK    3  A    between atoms: C_4  and  C_5 
REMARK    4  A    between atoms: C_5  and  C_6 
REMARK    5  A    between atoms: C_6  and  N_7 
ROOT
HETATM    1  N   UNK N   1      29.348  17.704   5.767  0.00  0.00    -0.345 N 
HETATM    2  C   UNK N   1      29.212  17.575   7.106  0.00  0.00     0.046 A 
HETATM    3  C   UNK N   1      28.040  17.644   7.853  0.00  0.00     0.030 A 
HETATM    4  C   UNK N   1      30.437  17.332   7.692  0.00  0.00     0.003 A 
HETATM    5  C   UNK N   1      30.565  17.141   9.065  0.00  0.00     0.014 A 
HETATM    6  C   UNK N   1      29.395  17.205   9.846  0.00  0.00     0.001 A 
HETATM    7  C   UNK N   1      28.140  17.456   9.243  0.00  0.00     0.002 A 
HETATM    8  C   UNK N   1      31.364  17.314   6.676  0.00  0.00     0.003 A 
HETATM    9  C   UNK N   1      30.666  17.543   5.507  0.00  0.00     0.046 A 
HETATM   10  C   UNK N   1      31.310  17.575   4.269  0.00  0.00     0.030 A 
HETATM   11  C   UNK N   1      32.740  17.104   6.683  0.00  0.00     0.014 A 
HETATM   12  C   UNK N   1      33.414  17.136   5.448  0.00  0.00     0.001 A 
HETATM   13  C   UNK N   1      32.702  17.372   4.247  0.00  0.00     0.002 A 
ENDROOT
BRANCH   1  14
HETATM   14  C   UNK N   1      28.258  17.914   4.820  0.00  0.00     0.130 C 
BRANCH  14  15
HETATM   15  C   UNK N   1      28.028  19.384   4.552  0.00  0.00     0.031 C 
BRANCH  15  16
HETATM   16  C   UNK N   1      26.707  19.740   5.200  0.00  0.00     0.111 C 
BRANCH  16  17
HETATM   17  C   UNK N   1      26.904  20.720   6.306  0.00  0.00     0.139 C 
HETATM   18  O   UNK N   1      27.775  21.571   6.225  0.00  0.00    -0.650 OA
BRANCH  17  19
HETATM   19  O   UNK N   1      26.092  20.690   7.377  0.00  0.00    -0.776 OA
HETATM   20  H   UNK N   1      26.173  20.055   8.060  0.00  0.00     0.167 HD
ENDBRANCH  17  19
ENDBRANCH  16  17
ENDBRANCH  15  16
ENDBRANCH  14  15
ENDBRANCH   1  14
TORSDOF 5
ENDMDL
MODEL 5
REMARK VINA RESULT:      -6.3     16.499     18.626
REMARK  5 active torsions:
REMARK  status: ('A' for Active; 'I' for Inactive)
REMARK    1  A    between atoms: O_1  and  C_2 
REMARK    2  A    between atoms: C_2  and  C_4 
REMARK    3  A    between atoms: C_4  and  C_5 
REMARK    4  A    between atoms: C_5  and  C_6 
REMARK    5  A    between atoms: C_6  and  N_7 
ROOT
HETATM    1  N   UNK N   1      21.721  14.275   8.124  0.00  0.00    -0.345 N 
HETATM    2  C   UNK N   1      22.949  14.310   7.563  0.00  0.00     0.046 A 
HETATM    3  C   UNK N   1      23.343  14.993   6.416  0.00  0.00     0.030 A 
HETATM    4  C   UNK N   1      23.840  13.564   8.308  0.00  0.00     0.003 A 
HETATM    5  C   UNK N   1      25.180  13.455   7.950  0.00  0.00     0.014 A 
HETATM    6  C   UNK N   1      25.606  14.136   6.793  0.00  0.00     0.001 A 
HETATM    7  C   UNK N   1      24.692  14.900   6.030  0.00  0.00     0.002 A 
HETATM    8  C   UNK N   1      23.130  13.045   9.366  0.00  0.00     0.003 A 
HETATM    9  C   UNK N   1      21.834  13.501   9.229  0.00  0.00     0.046 A 
HETATM   10  C   UNK N   1      20.844  13.169  10.153  0.00  0.00     0.030 A 
HETATM   11  C   UNK N   1      23.517  12.236  10.430  0.00  0.00     0.014 A 
HETATM   12  C   UNK N   1      22.535  11.883  11.375  0.00  0.00     0.001 A 
HETATM   13  C   UNK N   1      21.205  12.346  11.237  0.00  0.00     0.002 A 
ENDROOT
BRANCH   1  14
HETATM   14  C   UNK N   1      20.545  14.991   7.639  0.00  0.00     0.130 C 
BRANCH  14  15
HETATM   15  C   UNK N   1      20.525  16.423   8.124  0.00  0.00     0.031 C 
BRANCH  15  16
HETATM   16  C   UNK N   1      19.227  16.605   8.883  0.00  0.00     0.111 C 
BRANCH  16  17
HETATM   17  C   UNK N   1      19.057  18.021   9.315  0.00  0.00     0.139 C 
HETATM   18  O   UNK N   1      19.954  18.830   9.138  0.00  0.00    -0.650 OA
BRANCH  17  19
HETATM   19  O   UNK N   1      17.895  18.416   9.864  0.00  0.00    -0.776 OA
HETATM   20  H   UNK N   1      17.770  18.496  10.789  0.00  0.00     0.167 HD
ENDBRANCH  17  19
ENDBRANCH  16  17
ENDBRANCH  15  16
ENDBRANCH  14  15
ENDBRANCH   1  14
TORSDOF 5
ENDMDL
MODEL 6
REMARK VINA RESULT:      -6.2     10.814     13.532
REMARK  5 active torsions:
REMARK  status: ('A' for Active; 'I' for Inactive)
REMARK    1  A    between atoms: O_1  and  C_2 
REMARK    2  A    between atoms: C_2  and  C_4 
REMARK    3  A    between atoms: C_4  and  C_5 
REMARK    4  A    between atoms: C_5  and  C_6 
REMARK    5  A    between atoms: C_6  and  N_7 
ROOT
HETATM    1  N   UNK N   1      29.504  17.699   5.615  0.00  0.00    -0.345 N 
HETATM    2  C   UNK N   1      29.570  17.644   6.964  0.00  0.00     0.046 A 
HETATM    3  C   UNK N   1      30.409  16.853   7.744  0.00  0.00     0.030 A 
HETATM    4  C   UNK N   1      28.673  18.530   7.525  0.00  0.00     0.003 A 
HETATM    5  C   UNK N   1      28.560  18.679   8.904  0.00  0.00     0.014 A 
HETATM    6  C   UNK N   1      29.396  17.891   9.718  0.00  0.00     0.001 A 
HETATM    7  C   UNK N   1      30.314  16.983   9.141  0.00  0.00     0.002 A 
HETATM    8  C   UNK N   1      28.026  19.151   6.481  0.00  0.00     0.003 A 
HETATM    9  C   UNK N   1      28.559  18.622   5.323  0.00  0.00     0.046 A 
HETATM   10  C   UNK N   1      28.131  19.048   4.065  0.00  0.00     0.030 A 
HETATM   11  C   UNK N   1      27.040  20.132   6.458  0.00  0.00     0.014 A 
HETATM   12  C   UNK N   1      26.587  20.576   5.201  0.00  0.00     0.001 A 
HETATM   13  C   UNK N   1      27.129  20.035   4.011  0.00  0.00     0.002 A 
ENDROOT
BRANCH   1  14
HETATM   14  C   UNK N   1      30.343  16.941   4.693  0.00  0.00     0.130 C 
BRANCH  14  15
HETATM   15  C   UNK N   1      31.709  17.570   4.535  0.00  0.00     0.031 C 
BRANCH  15  16
HETATM   16  C   UNK N   1      32.718  16.445   4.641  0.00  0.00     0.111 C 
BRANCH  16  17
HETATM   17  C   UNK N   1      33.889  16.856   5.466  0.00  0.00     0.139 C 
HETATM   18  O   UNK N   1      33.928  17.969   5.966  0.00  0.00    -0.650 OA
BRANCH  17  19
HETATM   19  O   UNK N   1      34.885  15.983   5.693  0.00  0.00    -0.776 OA
HETATM   20  H   UNK N   1      35.790  16.205   5.594  0.00  0.00     0.167 HD
ENDBRANCH  17  19
ENDBRANCH  16  17
ENDBRANCH  15  16
ENDBRANCH  14  15
ENDBRANCH   1  14
TORSDOF 5
ENDMDL
MODEL 7
REMARK VINA RESULT:      -6.2     12.151     14.251
REMARK  5 active torsions:
REMARK  status: ('A' for Active; 'I' for Inactive)
REMARK    1  A    between atoms: O_1  and  C_2 
REMARK    2  A    between atoms: C_2  and  C_4 
REMARK    3  A    between atoms: C_4  and  C_5 
REMARK    4  A    between atoms: C_5  and  C_6 
REMARK    5  A    between atoms: C_6  and  N_7 
ROOT
HETATM    1  N   UNK N   1      31.024  16.681   6.456  0.00  0.00    -0.345 N 
HETATM    2  C   UNK N   1      30.275  17.260   7.419  0.00  0.00     0.046 A 
HETATM    3  C   UNK N   1      30.628  17.502   8.744  0.00  0.00     0.030 A 
HETATM    4  C   UNK N   1      29.045  17.633   6.914  0.00  0.00     0.003 A 
HETATM    5  C   UNK N   1      28.093  18.270   7.704  0.00  0.00     0.014 A 
HETATM    6  C   UNK N   1      28.425  18.526   9.049  0.00  0.00     0.001 A 
HETATM    7  C   UNK N   1      29.684  18.143   9.565  0.00  0.00     0.002 A 
HETATM    8  C   UNK N   1      29.036  17.263   5.589  0.00  0.00     0.003 A 
HETATM    9  C   UNK N   1      30.264  16.685   5.336  0.00  0.00     0.046 A 
HETATM   10  C   UNK N   1      30.596  16.207   4.068  0.00  0.00     0.030 A 
HETATM   11  C   UNK N   1      28.069  17.401   4.598  0.00  0.00     0.014 A 
HETATM   12  C   UNK N   1      28.377  16.923   3.310  0.00  0.00     0.001 A 
HETATM   13  C   UNK N   1      29.634  16.328   3.047  0.00  0.00     0.002 A 
ENDROOT
BRANCH   1  14
HETATM   14  C   UNK N   1      32.397  16.212   6.614  0.00  0.00     0.130 C 
BRANCH  14  15
HETATM   15  C   UNK N   1      33.397  17.316   6.355  0.00  0.00     0.031 C 
BRANCH  15  16
HETATM   16  C   UNK N   1      34.587  17.041   7.250  0.00  0.00     0.111 C 
BRANCH  16  17
HETATM   17  C   UNK N   1      34.572  17.934   8.443  0.00  0.00     0.139 C 
HETATM   18  O   UNK N   1      34.933  19.096   8.345  0.00  0.00    -0.650 OA
BRANCH  17  19
HETATM   19  O   UNK N   1      34.123  17.467   9.621  0.00  0.00    -0.776 OA
HETATM   20  H   UNK N   1      34.619  17.523  10.414  0.00  0.00     0.167 HD
ENDBRANCH  17  19
ENDBRANCH  16  17
ENDBRANCH  15  16
ENDBRANCH  14  15
ENDBRANCH   1  14
TORSDOF 5
ENDMDL
MODEL 8
REMARK VINA RESULT:      -6.2     13.364     15.291
REMARK  5 active torsions:
REMARK  status: ('A' for Active; 'I' for Inactive)
REMARK    1  A    between atoms: O_1  and  C_2 
REMARK    2  A    between atoms: C_2  and  C_4 
REMARK    3  A    between atoms: C_4  and  C_5 
REMARK    4  A    between atoms: C_5  and  C_6 
REMARK    5  A    between atoms: C_6  and  N_7 
ROOT
HETATM    1  N   UNK N   1      32.010  17.606   7.422  0.00  0.00    -0.345 N 
HETATM    2  C   UNK N   1      30.710  17.513   7.778  0.00  0.00     0.046 A 
HETATM    3  C   UNK N   1      30.158  17.701   9.042  0.00  0.00     0.030 A 
HETATM    4  C   UNK N   1      29.930  17.213   6.680  0.00  0.00     0.003 A 
HETATM    5  C   UNK N   1      28.548  17.082   6.778  0.00  0.00     0.014 A 
HETATM    6  C   UNK N   1      27.963  17.267   8.045  0.00  0.00     0.001 A 
HETATM    7  C   UNK N   1      28.763  17.574   9.170  0.00  0.00     0.002 A 
HETATM    8  C   UNK N   1      30.785  17.112   5.606  0.00  0.00     0.003 A 
HETATM    9  C   UNK N   1      32.053  17.361   6.091  0.00  0.00     0.046 A 
HETATM   10  C   UNK N   1      33.168  17.352   5.253  0.00  0.00     0.030 A 
HETATM   11  C   UNK N   1      30.551  16.841   4.261  0.00  0.00     0.014 A 
HETATM   12  C   UNK N   1      31.660  16.822   3.394  0.00  0.00     0.001 A 
HETATM   13  C   UNK N   1      32.962  17.074   3.888  0.00  0.00     0.002 A 
ENDROOT
BRANCH   1  14
HETATM   14  C   UNK N   1      33.111  17.961   8.311  0.00  0.00     0.130 C 
BRANCH  14  15
HETATM   15  C   UNK N   1      33.720  16.739   8.960  0.00  0.00     0.031 C 
BRANCH  15  16
HETATM   16  C   UNK N   1      35.030  17.183   9.576  0.00  0.00     0.111 C 
BRANCH  16  17
HETATM   17  C   UNK N   1      35.477  16.225  10.626  0.00  0.00     0.139 C 
HETATM   18  O   UNK N   1      34.666  15.505  11.187  0.00  0.00    -0.650 OA
BRANCH  17  19
HETATM   19  O   UNK N   1      36.783  16.126  10.927  0.00  0.00    -0.776 OA
HETATM   20  H   UNK N   1      37.449  16.015  10.279  0.00  0.00     0.167 HD
ENDBRANCH  17  19
ENDBRANCH  16  17
ENDBRANCH  15  16
ENDBRANCH  14  15
ENDBRANCH   1  14
TORSDOF 5
ENDMDL
MODEL 9
REMARK VINA RESULT:      -6.2     13.320     15.571
REMARK  5 active torsions:
REMARK  status: ('A' for Active; 'I' for Inactive)
REMARK    1  A    between atoms: O_1  and  C_2 
REMARK    2  A    between atoms: C_2  and  C_4 
REMARK    3  A    between atoms: C_4  and  C_5 
REMARK    4  A    between atoms: C_5  and  C_6 
REMARK    5  A    between atoms: C_6  and  N_7 
ROOT
HETATM    1  N   UNK N   1      32.027  17.502   7.496  0.00  0.00    -0.345 N 
HETATM    2  C   UNK N   1      32.069  17.316   6.158  0.00  0.00     0.046 A 
HETATM    3  C   UNK N   1      33.195  17.237   5.345  0.00  0.00     0.030 A 
HETATM    4  C   UNK N   1      30.792  17.184   5.651  0.00  0.00     0.003 A 
HETATM    5  C   UNK N   1      30.564  16.964   4.296  0.00  0.00     0.014 A 
HETATM    6  C   UNK N   1      31.686  16.879   3.449  0.00  0.00     0.001 A 
HETATM    7  C   UNK N   1      32.993  17.015   3.970  0.00  0.00     0.002 A 
HETATM    8  C   UNK N   1      29.931  17.298   6.718  0.00  0.00     0.003 A 
HETATM    9  C   UNK N   1      30.717  17.490   7.836  0.00  0.00     0.046 A 
HETATM   10  C   UNK N   1      30.155  17.631   9.106  0.00  0.00     0.030 A 
HETATM   11  C   UNK N   1      28.543  17.235   6.795  0.00  0.00     0.014 A 
HETATM   12  C   UNK N   1      27.950  17.378   8.064  0.00  0.00     0.001 A 
HETATM   13  C   UNK N   1      28.753  17.576   9.213  0.00  0.00     0.002 A 
ENDROOT
BRANCH   1  14
HETATM   14  C   UNK N   1      33.187  17.627   8.373  0.00  0.00     0.130 C 
BRANCH  14  15
HETATM   15  C   UNK N   1      33.528  16.313   9.037  0.00  0.00     0.031 C 
BRANCH  15  16
HETATM   16  C   UNK N   1      35.038  16.202   9.027  0.00  0.00     0.111 C 
BRANCH  16  17
HETATM   17  C   UNK N   1      35.598  16.422  10.391  0.00  0.00     0.139 C 
HETATM   18  O   UNK N   1      36.743  16.086  10.647  0.00  0.00    -0.650 OA
BRANCH  17  19
HETATM   19  O   UNK N   1      34.850  17.029  11.329  0.00  0.00    -0.776 OA
HETATM   20  H   UNK N   1      34.192  16.583  11.823  0.00  0.00     0.167 HD
ENDBRANCH  17  19
ENDBRANCH  16  17
ENDBRANCH  15  16
ENDBRANCH  14  15
ENDBRANCH   1  14
TORSDOF 5
ENDMDL
