MODEL 1
REMARK VINA RESULT:      -6.2      0.000      0.000
REMARK  9 active torsions:
REMARK  status: ('A' for Active; 'I' for Inactive)
REMARK    1  A    between atoms: C_2  and  C_1 
REMARK    2  A    between atoms: C_1  and  O_20 
REMARK    3  A    between atoms: C_3  and  O_4 
REMARK    4  A    between atoms: C_5  and  O_6 
REMARK    5  A    between atoms: C_7  and  N_9 
REMARK    6  A    between atoms: C_14  and  N_15 
REMARK    7  A    between atoms: P_18  and  O_20 
REMARK    8  A    between atoms: P_18  and  O_21 
REMARK    9  A    between atoms: P_18  and  O_22 
ROOT
HETATM    1  C   UNK N   1      21.836  16.864   6.445  0.00  0.00     0.180 C 
HETATM    2  C   UNK N   1      20.630  17.467   7.109  0.00  0.00     0.182 C 
HETATM    3  C   UNK N   1      20.669  16.805   8.438  0.00  0.00     0.198 C 
HETATM    4  C   UNK N   1      21.000  15.403   7.949  0.00  0.00     0.263 C 
HETATM    5  O   UNK N   1      21.966  15.543   6.921  0.00  0.00    -0.353 OA
ENDROOT
BRANCH   4   6
HETATM    6  N   UNK N   1      21.416  14.382   8.945  0.00  0.00    -0.280 N 
HETATM    7  C   UNK N   1      20.539  13.754   9.821  0.00  0.00     0.330 A 
HETATM    8  O   UNK N   1      19.373  14.080   9.889  0.00  0.00    -0.246 OA
HETATM    9  N   UNK N   1      20.986  12.732  10.621  0.00  0.00    -0.295 N 
HETATM   10  C   UNK N   1      22.269  12.307  10.570  0.00  0.00     0.103 A 
ATOM     11  HN  UNK N   1      20.337  12.283  11.268  1.00  0.00     0.172 HD
HETATM   12  C   UNK N   1      23.166  12.919   9.707  0.00  0.00     0.065 A 
HETATM   13  C   UNK N   1      22.713  13.958   8.898  0.00  0.00     0.102 A 
BRANCH  10  14
HETATM   14  N   UNK N   1      22.691  11.235  11.380  0.00  0.00    -0.385 N 
HETATM   15  H   UNK N   1      22.424  11.193  12.326  0.00  0.00     0.157 HD
HETATM   16  H   UNK N   1      23.255  10.524  10.997  0.00  0.00     0.157 HD
ENDBRANCH  10  14
ENDBRANCH   4   6
BRANCH   3  17
HETATM   17  O   UNK N   1      19.390  16.877   8.990  0.00  0.00    -0.388 OA
HETATM   18  H   UNK N   1      18.530  16.649   8.602  0.00  0.00     0.210 HD
ENDBRANCH   3  17
BRANCH   2  19
HETATM   19  O   UNK N   1      20.727  18.854   7.207  0.00  0.00    -0.390 OA
HETATM   20  H   UNK N   1      20.042  19.511   7.410  0.00  0.00     0.210 HD
ENDBRANCH   2  19
BRANCH   1  21
HETATM   21  C   UNK N   1      21.625  16.850   4.946  0.00  0.00     0.215 C 
BRANCH  21  22
HETATM   22  O   UNK N   1      20.404  17.457   4.639  0.00  0.00    -0.294 OA
BRANCH  22  23
HETATM   23  P   UNK N   1      20.692  18.331   3.161  0.00  0.00     0.390 P 
HETATM   24  O   UNK N   1      20.597  19.475   4.207  0.00  0.00    -0.632 OA
BRANCH  23  25
HETATM   25  O   UNK N   1      19.484  19.377   2.486  0.00  0.00    -0.307 OA
HETATM   26  H   UNK N   1      19.586  20.007   1.756  0.00  0.00     0.222 HD
ENDBRANCH  23  25
BRANCH  23  27
HETATM   27  O   UNK N   1      19.148  17.540   3.028  0.00  0.00    -0.307 OA
HETATM   28  H   UNK N   1      18.795  16.662   2.821  0.00  0.00     0.222 HD
ENDBRANCH  23  27
ENDBRANCH  22  23
ENDBRANCH  21  22
ENDBRANCH   1  21
TORSDOF 9
ENDMDL
MODEL 2
REMARK VINA RESULT:      -6.2     11.242     12.546
REMARK  9 active torsions:
REMARK  status: ('A' for Active; 'I' for Inactive)
REMARK    1  A    between atoms: C_2  and  C_1 
REMARK    2  A    between atoms: C_1  and  O_20 
REMARK    3  A    between atoms: C_3  and  O_4 
REMARK    4  A    between atoms: C_5  and  O_6 
REMARK    5  A    between atoms: C_7  and  N_9 
REMARK    6  A    between atoms: C_14  and  N_15 
REMARK    7  A    between atoms: P_18  and  O_20 
REMARK    8  A    between atoms: P_18  and  O_21 
REMARK    9  A    between atoms: P_18  and  O_22 
ROOT
HETATM    1  C   UNK N   1      31.569  16.367   7.948  0.00  0.00     0.180 C 
HETATM    2  C   UNK N   1      32.320  17.316   7.059  0.00  0.00     0.182 C 
HETATM    3  C   UNK N   1      33.714  16.832   7.230  0.00  0.00     0.198 C 
HETATM    4  C   UNK N   1      33.667  16.630   8.737  0.00  0.00     0.263 C 
HETATM    5  O   UNK N   1      32.409  16.048   9.035  0.00  0.00    -0.353 OA
ENDROOT
BRANCH   4   6
HETATM    6  N   UNK N   1      34.774  15.884   9.389  0.00  0.00    -0.280 N 
HETATM    7  C   UNK N   1      35.647  16.446  10.313  0.00  0.00     0.330 A 
HETATM    8  O   UNK N   1      35.613  17.630  10.574  0.00  0.00    -0.246 OA
HETATM    9  N   UNK N   1      36.561  15.653  10.961  0.00  0.00    -0.295 N 
HETATM   10  C   UNK N   1      36.628  14.322  10.731  0.00  0.00     0.103 A 
ATOM     11  HN  UNK N   1      37.204  16.077  11.631  1.00  0.00     0.172 HD
HETATM   12  C   UNK N   1      35.770  13.736   9.812  0.00  0.00     0.065 A 
HETATM   13  C   UNK N   1      34.846  14.541   9.152  0.00  0.00     0.102 A 
BRANCH  10  14
HETATM   14  N   UNK N   1      37.554  13.529  11.435  0.00  0.00    -0.385 N 
HETATM   15  H   UNK N   1      37.469  13.415  12.409  0.00  0.00     0.157 HD
HETATM   16  H   UNK N   1      38.290  13.089  10.952  0.00  0.00     0.157 HD
ENDBRANCH  10  14
ENDBRANCH   4   6
BRANCH   3  17
HETATM   17  O   UNK N   1      34.574  17.870   6.869  0.00  0.00    -0.388 OA
HETATM   18  H   UNK N   1      34.491  18.533   6.166  0.00  0.00     0.210 HD
ENDBRANCH   3  17
BRANCH   2  19
HETATM   19  O   UNK N   1      31.894  17.238   5.733  0.00  0.00    -0.390 OA
HETATM   20  H   UNK N   1      32.106  17.811   4.979  0.00  0.00     0.210 HD
ENDBRANCH   2  19
BRANCH   1  21
HETATM   21  C   UNK N   1      30.313  17.045   8.454  0.00  0.00     0.215 C 
BRANCH  21  22
HETATM   22  O   UNK N   1      29.512  17.416   7.370  0.00  0.00    -0.294 OA
BRANCH  22  23
HETATM   23  P   UNK N   1      28.430  18.625   7.999  0.00  0.00     0.390 P 
HETATM   24  O   UNK N   1      29.441  18.451   9.164  0.00  0.00    -0.632 OA
BRANCH  23  25
HETATM   25  O   UNK N   1      27.404  18.294   9.359  0.00  0.00    -0.307 OA
HETATM   26  H   UNK N   1      27.495  18.627  10.265  0.00  0.00     0.222 HD
ENDBRANCH  23  25
BRANCH  23  27
HETATM   27  O   UNK N   1      27.529  17.151   7.791  0.00  0.00    -0.307 OA
HETATM   28  H   UNK N   1      26.930  16.748   7.143  0.00  0.00     0.222 HD
ENDBRANCH  23  27
ENDBRANCH  22  23
ENDBRANCH  21  22
ENDBRANCH   1  21
TORSDOF 9
ENDMDL
MODEL 3
REMARK VINA RESULT:      -6.2     12.082     14.112
REMARK  9 active torsions:
REMARK  status: ('A' for Active; 'I' for Inactive)
REMARK    1  A    between atoms: C_2  and  C_1 
REMARK    2  A    between atoms: C_1  and  O_20 
REMARK    3  A    between atoms: C_3  and  O_4 
REMARK    4  A    between atoms: C_5  and  O_6 
REMARK    5  A    between atoms: C_7  and  N_9 
REMARK    6  A    between atoms: C_14  and  N_15 
REMARK    7  A    between atoms: P_18  and  O_20 
REMARK    8  A    between atoms: P_18  and  O_21 
REMARK    9  A    between atoms: P_18  and  O_22 
ROOT
HETATM    1  C   UNK N   1      33.414  16.180   9.569  0.00  0.00     0.180 C 
HETATM    2  C   UNK N   1      34.578  16.939   8.999  0.00  0.00     0.182 C 
HETATM    3  C   UNK N   1      33.904  17.780   7.977  0.00  0.00     0.198 C 
HETATM    4  C   UNK N   1      32.983  16.706   7.418  0.00  0.00     0.263 C 
HETATM    5  O   UNK N   1      32.493  15.967   8.524  0.00  0.00    -0.353 OA
ENDROOT
BRANCH   4   6
HETATM    6  N   UNK N   1      31.879  17.118   6.512  0.00  0.00    -0.280 N 
HETATM    7  C   UNK N   1      32.054  17.415   5.165  0.00  0.00     0.330 A 
HETATM    8  O   UNK N   1      33.157  17.447   4.664  0.00  0.00    -0.246 OA
HETATM    9  N   UNK N   1      30.961  17.663   4.373  0.00  0.00    -0.295 N 
HETATM   10  C   UNK N   1      29.704  17.614   4.870  0.00  0.00     0.103 A 
ATOM     11  HN  UNK N   1      31.099  17.889   3.387  1.00  0.00     0.172 HD
HETATM   12  C   UNK N   1      29.502  17.324   6.211  0.00  0.00     0.065 A 
HETATM   13  C   UNK N   1      30.611  17.075   7.015  0.00  0.00     0.102 A 
BRANCH  10  14
HETATM   14  N   UNK N   1      28.601  17.842   4.024  0.00  0.00    -0.385 N 
HETATM   15  H   UNK N   1      28.599  17.488   3.106  0.00  0.00     0.157 HD
HETATM   16  H   UNK N   1      27.829  18.357   4.353  0.00  0.00     0.157 HD
ENDBRANCH  10  14
ENDBRANCH   4   6
BRANCH   3  17
HETATM   17  O   UNK N   1      34.866  18.178   7.048  0.00  0.00    -0.388 OA
HETATM   18  H   UNK N   1      35.491  18.920   7.076  0.00  0.00     0.210 HD
ENDBRANCH   3  17
BRANCH   2  19
HETATM   19  O   UNK N   1      35.228  17.705   9.967  0.00  0.00    -0.390 OA
HETATM   20  H   UNK N   1      35.814  17.425  10.687  0.00  0.00     0.210 HD
ENDBRANCH   2  19
BRANCH   1  21
HETATM   21  C   UNK N   1      33.900  14.849  10.103  0.00  0.00     0.215 C 
BRANCH  21  22
HETATM   22  O   UNK N   1      34.308  14.998  11.431  0.00  0.00    -0.294 OA
BRANCH  22  23
HETATM   23  P   UNK N   1      35.656  13.911  11.614  0.00  0.00     0.390 P 
HETATM   24  O   UNK N   1      34.824  13.622  12.893  0.00  0.00    -0.632 OA
BRANCH  23  25
HETATM   25  O   UNK N   1      36.814  14.122  12.889  0.00  0.00    -0.307 OA
HETATM   26  H   UNK N   1      36.732  14.678  13.679  0.00  0.00     0.222 HD
ENDBRANCH  23  25
BRANCH  23  27
HETATM   27  O   UNK N   1      36.264  15.540  11.677  0.00  0.00    -0.307 OA
HETATM   28  H   UNK N   1      35.952  16.441  11.505  0.00  0.00     0.222 HD
ENDBRANCH  23  27
ENDBRANCH  22  23
ENDBRANCH  21  22
ENDBRANCH   1  21
TORSDOF 9
ENDMDL
MODEL 4
REMARK VINA RESULT:      -5.9     14.054     15.459
REMARK  9 active torsions:
REMARK  status: ('A' for Active; 'I' for Inactive)
REMARK    1  A    between atoms: C_2  and  C_1 
REMARK    2  A    between atoms: C_1  and  O_20 
REMARK    3  A    between atoms: C_3  and  O_4 
REMARK    4  A    between atoms: C_5  and  O_6 
REMARK    5  A    between atoms: C_7  and  N_9 
REMARK    6  A    between atoms: C_14  and  N_15 
REMARK    7  A    between atoms: P_18  and  O_20 
REMARK    8  A    between atoms: P_18  and  O_21 
REMARK    9  A    between atoms: P_18  and  O_22 
ROOT
HETATM    1  C   UNK N   1      34.638  14.459  10.623  0.00  0.00     0.180 C 
HETATM    2  C   UNK N   1      36.089  14.285  10.278  0.00  0.00     0.182 C 
HETATM    3  C   UNK N   1      36.532  13.352  11.345  0.00  0.00     0.198 C 
HETATM    4  C   UNK N   1      35.807  14.021  12.503  0.00  0.00     0.263 C 
HETATM    5  O   UNK N   1      34.524  14.391  12.026  0.00  0.00    -0.353 OA
ENDROOT
BRANCH   4   6
HETATM    6  N   UNK N   1      35.714  13.297  13.797  0.00  0.00    -0.280 N 
HETATM    7  C   UNK N   1      36.285  13.751  14.981  0.00  0.00     0.330 A 
HETATM    8  O   UNK N   1      36.988  14.738  15.004  0.00  0.00    -0.246 OA
HETATM    9  N   UNK N   1      36.043  13.085  16.156  0.00  0.00    -0.295 N 
HETATM   10  C   UNK N   1      35.245  11.994  16.197  0.00  0.00     0.103 A 
ATOM     11  HN  UNK N   1      36.474  13.421  17.018  1.00  0.00     0.172 HD
HETATM   12  C   UNK N   1      34.665  11.518  15.030  0.00  0.00     0.065 A 
HETATM   13  C   UNK N   1      34.913  12.192  13.837  0.00  0.00     0.102 A 
BRANCH  10  14
HETATM   14  N   UNK N   1      34.989  11.351  17.424  0.00  0.00    -0.385 N 
HETATM   15  H   UNK N   1      35.017  11.861  18.265  0.00  0.00     0.157 HD
HETATM   16  H   UNK N   1      34.783  10.389  17.439  0.00  0.00     0.157 HD
ENDBRANCH  10  14
ENDBRANCH   4   6
BRANCH   3  17
HETATM   17  O   UNK N   1      37.917  13.462  11.463  0.00  0.00    -0.388 OA
HETATM   18  H   UNK N   1      38.619  13.195  10.848  0.00  0.00     0.210 HD
ENDBRANCH   3  17
BRANCH   2  19
HETATM   19  O   UNK N   1      36.263  13.748   9.003  0.00  0.00    -0.390 OA
HETATM   20  H   UNK N   1      35.975  12.893   8.645  0.00  0.00     0.210 HD
ENDBRANCH   2  19
BRANCH   1  21
HETATM   21  C   UNK N   1      34.168  15.813  10.136  0.00  0.00     0.215 C 
BRANCH  21  22
HETATM   22  O   UNK N   1      34.676  16.053   8.857  0.00  0.00    -0.294 OA
BRANCH  22  23
HETATM   23  P   UNK N   1      34.110  17.644   8.435  0.00  0.00     0.390 P 
HETATM   24  O   UNK N   1      34.767  17.168   7.112  0.00  0.00    -0.632 OA
BRANCH  23  25
HETATM   25  O   UNK N   1      35.220  18.925   8.069  0.00  0.00    -0.307 OA
HETATM   26  H   UNK N   1      36.084  19.097   8.476  0.00  0.00     0.222 HD
ENDBRANCH  23  25
BRANCH  23  27
HETATM   27  O   UNK N   1      35.333  17.814   9.660  0.00  0.00    -0.307 OA
HETATM   28  H   UNK N   1      35.410  17.765  10.625  0.00  0.00     0.222 HD
ENDBRANCH  23  27
ENDBRANCH  22  23
ENDBRANCH  21  22
ENDBRANCH   1  21
TORSDOF 9
ENDMDL
MODEL 5
REMARK VINA RESULT:      -5.8      3.957      7.147
REMARK  9 active torsions:
REMARK  status: ('A' for Active; 'I' for Inactive)
REMARK    1  A    between atoms: C_2  and  C_1 
REMARK    2  A    between atoms: C_1  and  O_20 
REMARK    3  A    between atoms: C_3  and  O_4 
REMARK    4  A    between atoms: C_5  and  O_6 
REMARK    5  A    between atoms: C_7  and  N_9 
REMARK    6  A    between atoms: C_14  and  N_15 
REMARK    7  A    between atoms: P_18  and  O_20 
REMARK    8  A    between atoms: P_18  and  O_21 
REMARK    9  A    between atoms: P_18  and  O_22 
ROOT
HETATM    1  C   UNK N   1      21.585  13.716   7.846  0.00  0.00     0.180 C 
HETATM    2  C   UNK N   1      21.083  14.600   8.951  0.00  0.00     0.182 C 
HETATM    3  C   UNK N   1      20.472  15.712   8.179  0.00  0.00     0.198 C 
HETATM    4  C   UNK N   1      21.576  15.860   7.143  0.00  0.00     0.263 C 
HETATM    5  O   UNK N   1      21.978  14.550   6.780  0.00  0.00    -0.353 OA
ENDROOT
BRANCH   4   6
HETATM    6  N   UNK N   1      21.317  16.698   5.943  0.00  0.00    -0.280 N 
HETATM    7  C   UNK N   1      21.271  18.087   5.965  0.00  0.00     0.330 A 
HETATM    8  O   UNK N   1      21.347  18.705   7.005  0.00  0.00    -0.246 OA
HETATM    9  N   UNK N   1      21.153  18.785   4.789  0.00  0.00    -0.295 N 
HETATM   10  C   UNK N   1      21.091  18.151   3.595  0.00  0.00     0.103 A 
ATOM     11  HN  UNK N   1      21.110  19.805   4.815  1.00  0.00     0.172 HD
HETATM   12  C   UNK N   1      21.132  16.766   3.546  0.00  0.00     0.065 A 
HETATM   13  C   UNK N   1      21.249  16.058   4.739  0.00  0.00     0.102 A 
BRANCH  10  14
HETATM   14  N   UNK N   1      21.002  18.896   2.404  0.00  0.00    -0.385 N 
HETATM   15  H   UNK N   1      21.418  18.561   1.577  0.00  0.00     0.157 HD
HETATM   16  H   UNK N   1      20.524  19.757   2.398  0.00  0.00     0.157 HD
ENDBRANCH  10  14
ENDBRANCH   4   6
BRANCH   3  17
HETATM   17  O   UNK N   1      20.390  16.823   9.019  0.00  0.00    -0.388 OA
HETATM   18  H   UNK N   1      19.709  17.067   9.665  0.00  0.00     0.210 HD
ENDBRANCH   3  17
BRANCH   2  19
HETATM   19  O   UNK N   1      20.154  13.948   9.762  0.00  0.00    -0.390 OA
HETATM   20  H   UNK N   1      19.753  14.232  10.598  0.00  0.00     0.210 HD
ENDBRANCH   2  19
BRANCH   1  21
HETATM   21  C   UNK N   1      22.777  12.925   8.343  0.00  0.00     0.215 C 
BRANCH  21  22
HETATM   22  O   UNK N   1      23.191  13.428   9.579  0.00  0.00    -0.294 OA
BRANCH  22  23
HETATM   23  P   UNK N   1      24.093  12.135  10.315  0.00  0.00     0.390 P 
HETATM   24  O   UNK N   1      22.994  12.415  11.376  0.00  0.00    -0.632 OA
BRANCH  23  25
HETATM   25  O   UNK N   1      25.009  12.390  11.766  0.00  0.00    -0.307 OA
HETATM   26  H   UNK N   1      25.475  13.196  12.040  0.00  0.00     0.222 HD
ENDBRANCH  23  25
BRANCH  23  27
HETATM   27  O   UNK N   1      25.140  13.518  10.188  0.00  0.00    -0.307 OA
HETATM   28  H   UNK N   1      25.122  14.415   9.820  0.00  0.00     0.222 HD
ENDBRANCH  23  27
ENDBRANCH  22  23
ENDBRANCH  21  22
ENDBRANCH   1  21
TORSDOF 9
ENDMDL
MODEL 6
REMARK VINA RESULT:      -5.7     10.878     12.683
REMARK  9 active torsions:
REMARK  status: ('A' for Active; 'I' for Inactive)
REMARK    1  A    between atoms: C_2  and  C_1 
REMARK    2  A    between atoms: C_1  and  O_20 
REMARK    3  A    between atoms: C_3  and  O_4 
REMARK    4  A    between atoms: C_5  and  O_6 
REMARK    5  A    between atoms: C_7  and  N_9 
REMARK    6  A    between atoms: C_14  and  N_15 
REMARK    7  A    between atoms: P_18  and  O_20 
REMARK    8  A    between atoms: P_18  and  O_21 
REMARK    9  A    between atoms: P_18  and  O_22 
ROOT
HETATM    1  C   UNK N   1      33.249  17.725   7.642  0.00  0.00     0.180 C 
HETATM    2  C   UNK N   1      33.451  16.524   6.762  0.00  0.00     0.182 C 
HETATM    3  C   UNK N   1      32.221  16.561   5.933  0.00  0.00     0.198 C 
HETATM    4  C   UNK N   1      31.241  16.883   7.051  0.00  0.00     0.263 C 
HETATM    5  O   UNK N   1      31.866  17.848   7.880  0.00  0.00    -0.353 OA
ENDROOT
BRANCH   4   6
HETATM    6  N   UNK N   1      29.859  17.295   6.690  0.00  0.00    -0.280 N 
HETATM    7  C   UNK N   1      28.841  17.484   7.617  0.00  0.00     0.330 A 
HETATM    8  O   UNK N   1      29.000  17.227   8.791  0.00  0.00    -0.246 OA
HETATM    9  N   UNK N   1      27.631  17.988   7.210  0.00  0.00    -0.295 N 
HETATM   10  C   UNK N   1      27.403  18.319   5.918  0.00  0.00     0.103 A 
ATOM     11  HN  UNK N   1      26.886  18.115   7.896  1.00  0.00     0.172 HD
HETATM   12  C   UNK N   1      28.401  18.136   4.973  0.00  0.00     0.065 A 
HETATM   13  C   UNK N   1      29.628  17.623   5.385  0.00  0.00     0.102 A 
BRANCH  10  14
HETATM   14  N   UNK N   1      26.162  18.863   5.537  0.00  0.00    -0.385 N 
HETATM   15  H   UNK N   1      25.569  18.367   4.929  0.00  0.00     0.157 HD
HETATM   16  H   UNK N   1      25.888  19.745   5.879  0.00  0.00     0.157 HD
ENDBRANCH  10  14
ENDBRANCH   4   6
BRANCH   3  17
HETATM   17  O   UNK N   1      32.016  15.283   5.412  0.00  0.00    -0.388 OA
HETATM   18  H   UNK N   1      32.471  14.825   4.687  0.00  0.00     0.210 HD
ENDBRANCH   3  17
BRANCH   2  19
HETATM   19  O   UNK N   1      34.610  16.628   5.992  0.00  0.00    -0.390 OA
HETATM   20  H   UNK N   1      34.863  16.152   5.186  0.00  0.00     0.210 HD
ENDBRANCH   2  19
BRANCH   1  21
HETATM   21  C   UNK N   1      33.977  17.512   8.952  0.00  0.00     0.215 C 
BRANCH  21  22
HETATM   22  O   UNK N   1      34.672  16.300   8.910  0.00  0.00    -0.294 OA
BRANCH  22  23
HETATM   23  P   UNK N   1      35.267  16.062  10.528  0.00  0.00     0.390 P 
HETATM   24  O   UNK N   1      35.659  17.538  10.247  0.00  0.00    -0.632 OA
BRANCH  23  25
HETATM   25  O   UNK N   1      36.967  16.086  10.874  0.00  0.00    -0.307 OA
HETATM   26  H   UNK N   1      37.456  16.736  11.402  0.00  0.00     0.222 HD
ENDBRANCH  23  25
BRANCH  23  27
HETATM   27  O   UNK N   1      36.162  15.014   9.466  0.00  0.00    -0.307 OA
HETATM   28  H   UNK N   1      36.389  14.952   8.526  0.00  0.00     0.222 HD
ENDBRANCH  23  27
ENDBRANCH  22  23
ENDBRANCH  21  22
ENDBRANCH   1  21
TORSDOF 9
ENDMDL
MODEL 7
REMARK VINA RESULT:      -5.6     10.945     12.079
REMARK  9 active torsions:
REMARK  status: ('A' for Active; 'I' for Inactive)
REMARK    1  A    between atoms: C_2  and  C_1 
REMARK    2  A    between atoms: C_1  and  O_20 
REMARK    3  A    between atoms: C_3  and  O_4 
REMARK    4  A    between atoms: C_5  and  O_6 
REMARK    5  A    between atoms: C_7  and  N_9 
REMARK    6  A    between atoms: C_14  and  N_15 
REMARK    7  A    between atoms: P_18  and  O_20 
REMARK    8  A    between atoms: P_18  and  O_21 
REMARK    9  A    between atoms: P_18  and  O_22 
ROOT
HETATM    1  C   UNK N   1      31.474  15.943   6.945  0.00  0.00     0.180 C 
HETATM    2  C   UNK N   1      32.399  16.813   6.144  0.00  0.00     0.182 C 
HETATM    3  C   UNK N   1      33.692  16.578   6.835  0.00  0.00     0.198 C 
HETATM    4  C   UNK N   1      33.166  16.648   8.261  0.00  0.00     0.263 C 
HETATM    5  O   UNK N   1      31.931  15.953   8.279  0.00  0.00    -0.353 OA
ENDROOT
BRANCH   4   6
HETATM    6  N   UNK N   1      34.052  16.202   9.368  0.00  0.00    -0.280 N 
HETATM    7  C   UNK N   1      35.054  16.991   9.922  0.00  0.00     0.330 A 
HETATM    8  O   UNK N   1      35.331  18.076   9.460  0.00  0.00    -0.246 OA
HETATM    9  N   UNK N   1      35.740  16.548  11.026  0.00  0.00    -0.295 N 
HETATM   10  C   UNK N   1      35.457  15.358  11.602  0.00  0.00     0.103 A 
ATOM     11  HN  UNK N   1      36.481  17.130  11.420  1.00  0.00     0.172 HD
HETATM   12  C   UNK N   1      34.464  14.551  11.067  0.00  0.00     0.065 A 
HETATM   13  C   UNK N   1      33.770  14.998   9.946  0.00  0.00     0.102 A 
BRANCH  10  14
HETATM   14  N   UNK N   1      36.156  14.946  12.752  0.00  0.00    -0.385 N 
HETATM   15  H   UNK N   1      36.242  13.988  12.964  0.00  0.00     0.157 HD
HETATM   16  H   UNK N   1      36.559  15.618  13.348  0.00  0.00     0.157 HD
ENDBRANCH  10  14
ENDBRANCH   4   6
BRANCH   3  17
HETATM   17  O   UNK N   1      34.538  17.646   6.538  0.00  0.00    -0.388 OA
HETATM   18  H   UNK N   1      35.493  17.744   6.681  0.00  0.00     0.210 HD
ENDBRANCH   3  17
BRANCH   2  19
HETATM   19  O   UNK N   1      32.442  16.435   4.802  0.00  0.00    -0.390 OA
HETATM   20  H   UNK N   1      33.063  15.847   4.343  0.00  0.00     0.210 HD
ENDBRANCH   2  19
BRANCH   1  21
HETATM   21  C   UNK N   1      30.073  16.512   6.880  0.00  0.00     0.215 C 
BRANCH  21  22
HETATM   22  O   UNK N   1      30.017  17.508   5.902  0.00  0.00    -0.294 OA
BRANCH  22  23
HETATM   23  P   UNK N   1      28.586  17.155   4.975  0.00  0.00     0.390 P 
HETATM   24  O   UNK N   1      29.709  17.024   3.910  0.00  0.00    -0.632 OA
BRANCH  23  25
HETATM   25  O   UNK N   1      28.049  18.214   3.711  0.00  0.00    -0.307 OA
HETATM   26  H   UNK N   1      27.820  17.981   2.798  0.00  0.00     0.222 HD
ENDBRANCH  23  25
BRANCH  23  27
HETATM   27  O   UNK N   1      28.486  18.806   5.511  0.00  0.00    -0.307 OA
HETATM   28  H   UNK N   1      28.308  19.684   5.139  0.00  0.00     0.222 HD
ENDBRANCH  23  27
ENDBRANCH  22  23
ENDBRANCH  21  22
ENDBRANCH   1  21
TORSDOF 9
ENDMDL
MODEL 8
REMARK VINA RESULT:      -5.6      3.856      7.197
REMARK  9 active torsions:
REMARK  status: ('A' for Active; 'I' for Inactive)
REMARK    1  A    between atoms: C_2  and  C_1 
REMARK    2  A    between atoms: C_1  and  O_20 
REMARK    3  A    between atoms: C_3  and  O_4 
REMARK    4  A    between atoms: C_5  and  O_6 
REMARK    5  A    between atoms: C_7  and  N_9 
REMARK    6  A    between atoms: C_14  and  N_15 
REMARK    7  A    between atoms: P_18  and  O_20 
REMARK    8  A    between atoms: P_18  and  O_21 
REMARK    9  A    between atoms: P_18  and  O_22 
ROOT
HETATM    1  C   UNK N   1      20.691  14.169   7.668  0.00  0.00     0.180 C 
HETATM    2  C   UNK N   1      20.200  15.191   8.654  0.00  0.00     0.182 C 
HETATM    3  C   UNK N   1      19.641  16.225   7.747  0.00  0.00     0.198 C 
HETATM    4  C   UNK N   1      20.767  16.218   6.724  0.00  0.00     0.263 C 
HETATM    5  O   UNK N   1      21.130  14.863   6.522  0.00  0.00    -0.353 OA
ENDROOT
BRANCH   4   6
HETATM    6  N   UNK N   1      20.557  16.919   5.431  0.00  0.00    -0.280 N 
HETATM    7  C   UNK N   1      19.582  16.562   4.506  0.00  0.00     0.330 A 
HETATM    8  O   UNK N   1      18.895  15.576   4.663  0.00  0.00    -0.246 OA
HETATM    9  N   UNK N   1      19.374  17.342   3.396  0.00  0.00    -0.295 N 
HETATM   10  C   UNK N   1      20.092  18.468   3.181  0.00  0.00     0.103 A 
ATOM     11  HN  UNK N   1      18.663  17.067   2.718  1.00  0.00     0.172 HD
HETATM   12  C   UNK N   1      21.073  18.846   4.087  0.00  0.00     0.065 A 
HETATM   13  C   UNK N   1      21.286  18.053   5.211  0.00  0.00     0.102 A 
BRANCH  10  14
HETATM   14  N   UNK N   1      19.833  19.266   2.050  0.00  0.00    -0.385 N 
HETATM   15  H   UNK N   1      19.836  18.866   1.151  0.00  0.00     0.157 HD
HETATM   16  H   UNK N   1      19.650  20.227   2.159  0.00  0.00     0.157 HD
ENDBRANCH  10  14
ENDBRANCH   4   6
BRANCH   3  17
HETATM   17  O   UNK N   1      19.584  17.428   8.452  0.00  0.00    -0.388 OA
HETATM   18  H   UNK N   1      19.712  17.602   9.399  0.00  0.00     0.210 HD
ENDBRANCH   3  17
BRANCH   2  19
HETATM   19  O   UNK N   1      19.237  14.666   9.514  0.00  0.00    -0.390 OA
HETATM   20  H   UNK N   1      18.279  14.575   9.391  0.00  0.00     0.210 HD
ENDBRANCH   2  19
BRANCH   1  21
HETATM   21  C   UNK N   1      21.845  13.403   8.276  0.00  0.00     0.215 C 
BRANCH  21  22
HETATM   22  O   UNK N   1      21.353  12.433   9.154  0.00  0.00    -0.294 OA
BRANCH  22  23
HETATM   23  P   UNK N   1      22.285  12.627  10.612  0.00  0.00     0.390 P 
HETATM   24  O   UNK N   1      22.738  11.227  10.116  0.00  0.00    -0.632 OA
BRANCH  23  25
HETATM   25  O   UNK N   1      22.011  11.617  11.995  0.00  0.00    -0.307 OA
HETATM   26  H   UNK N   1      22.653  11.053  12.454  0.00  0.00     0.222 HD
ENDBRANCH  23  25
BRANCH  23  27
HETATM   27  O   UNK N   1      20.603  12.568  11.051  0.00  0.00    -0.307 OA
HETATM   28  H   UNK N   1      19.970  13.078  11.579  0.00  0.00     0.222 HD
ENDBRANCH  23  27
ENDBRANCH  22  23
ENDBRANCH  21  22
ENDBRANCH   1  21
TORSDOF 9
ENDMDL
MODEL 9
REMARK VINA RESULT:      -5.6     13.412     15.317
REMARK  9 active torsions:
REMARK  status: ('A' for Active; 'I' for Inactive)
REMARK    1  A    between atoms: C_2  and  C_1 
REMARK    2  A    between atoms: C_1  and  O_20 
REMARK    3  A    between atoms: C_3  and  O_4 
REMARK    4  A    between atoms: C_5  and  O_6 
REMARK    5  A    between atoms: C_7  and  N_9 
REMARK    6  A    between atoms: C_14  and  N_15 
REMARK    7  A    between atoms: P_18  and  O_20 
REMARK    8  A    between atoms: P_18  and  O_21 
REMARK    9  A    between atoms: P_18  and  O_22 
ROOT
HETATM    1  C   UNK N   1      34.388  13.814   9.337  0.00  0.00     0.180 C 
HETATM    2  C   UNK N   1      34.272  15.091  10.120  0.00  0.00     0.182 C 
HETATM    3  C   UNK N   1      33.509  15.944   9.173  0.00  0.00     0.198 C 
HETATM    4  C   UNK N   1      34.266  15.559   7.911  0.00  0.00     0.263 C 
HETATM    5  O   UNK N   1      34.486  14.160   7.974  0.00  0.00    -0.353 OA
ENDROOT
BRANCH   4   6
HETATM    6  N   UNK N   1      33.702  15.957   6.595  0.00  0.00    -0.280 N 
HETATM    7  C   UNK N   1      33.834  17.230   6.050  0.00  0.00     0.330 A 
HETATM    8  O   UNK N   1      34.346  18.134   6.675  0.00  0.00    -0.246 OA
HETATM    9  N   UNK N   1      33.392  17.476   4.774  0.00  0.00    -0.295 N 
HETATM   10  C   UNK N   1      32.837  16.501   4.020  0.00  0.00     0.103 A 
ATOM     11  HN  UNK N   1      33.484  18.416   4.386  1.00  0.00     0.172 HD
HETATM   12  C   UNK N   1      32.691  15.223   4.540  0.00  0.00     0.065 A 
HETATM   13  C   UNK N   1      33.136  14.974   5.835  0.00  0.00     0.102 A 
BRANCH  10  14
HETATM   14  N   UNK N   1      32.423  16.776   2.702  0.00  0.00    -0.385 N 
HETATM   15  H   UNK N   1      32.522  17.682   2.331  0.00  0.00     0.157 HD
HETATM   16  H   UNK N   1      32.033  16.060   2.151  0.00  0.00     0.157 HD
ENDBRANCH  10  14
ENDBRANCH   4   6
BRANCH   3  17
HETATM   17  O   UNK N   1      33.727  17.276   9.526  0.00  0.00    -0.388 OA
HETATM   18  H   UNK N   1      33.565  18.089   9.022  0.00  0.00     0.210 HD
ENDBRANCH   3  17
BRANCH   2  19
HETATM   19  O   UNK N   1      33.595  14.906  11.325  0.00  0.00    -0.390 OA
HETATM   20  H   UNK N   1      33.196  15.561  11.919  0.00  0.00     0.210 HD
ENDBRANCH   2  19
BRANCH   1  21
HETATM   21  C   UNK N   1      35.637  13.077   9.769  0.00  0.00     0.215 C 
BRANCH  21  22
HETATM   22  O   UNK N   1      35.636  12.928  11.159  0.00  0.00    -0.294 OA
BRANCH  22  23
HETATM   23  P   UNK N   1      37.193  12.250  11.543  0.00  0.00     0.390 P 
HETATM   24  O   UNK N   1      36.230  11.346  12.360  0.00  0.00    -0.632 OA
BRANCH  23  25
HETATM   25  O   UNK N   1      37.842  12.342  13.149  0.00  0.00    -0.307 OA
HETATM   26  H   UNK N   1      38.521  11.776  13.548  0.00  0.00     0.222 HD
ENDBRANCH  23  25
BRANCH  23  27
HETATM   27  O   UNK N   1      37.140  13.870  12.173  0.00  0.00    -0.307 OA
HETATM   28  H   UNK N   1      37.742  14.618  12.312  0.00  0.00     0.222 HD
ENDBRANCH  23  27
ENDBRANCH  22  23
ENDBRANCH  21  22
ENDBRANCH   1  21
TORSDOF 9
ENDMDL
