MODEL 1
REMARK VINA RESULT:      -4.4      0.000      0.000
REMARK  4 active torsions:
REMARK  status: ('A' for Active; 'I' for Inactive)
REMARK    1  A    between atoms: C_1  and  C_2 
REMARK    2  A    between atoms: C_1  and  O_6 
REMARK    3  A    between atoms: C_3  and  C_4 
REMARK    4  A    between atoms: C_4  and  O_8 
ROOT
HETATM    1  C   UNK N   1      20.962  20.637   2.430  0.00  0.00     0.088 C 
HETATM    2  C   UNK N   1      20.421  19.607   3.109  0.00  0.00     0.088 C 
ENDROOT
BRANCH   1   3
HETATM    3  C   UNK N   1      20.778  21.046   1.017  0.00  0.00     0.165 C 
HETATM    4  O   UNK N   1      20.947  20.267   0.093  0.00  0.00    -0.647 OA
BRANCH   3   5
HETATM    5  O   UNK N   1      20.415  22.309   0.747  0.00  0.00    -0.773 OA
HETATM    6  H   UNK N   1      20.954  22.846   0.200  0.00  0.00     0.167 HD
ENDBRANCH   3   5
ENDBRANCH   1   3
BRANCH   2   7
HETATM    7  C   UNK N   1      19.471  18.558   2.658  0.00  0.00     0.165 C 
HETATM    8  O   UNK N   1      19.864  17.412   2.568  0.00  0.00    -0.647 OA
BRANCH   7   9
HETATM    9  O   UNK N   1      18.192  18.836   2.346  0.00  0.00    -0.773 OA
HETATM   10  H   UNK N   1      17.567  18.141   2.273  0.00  0.00     0.167 HD
ENDBRANCH   7   9
ENDBRANCH   2   7
TORSDOF 4
ENDMDL
MODEL 2
REMARK VINA RESULT:      -4.3      1.710      3.639
REMARK  4 active torsions:
REMARK  status: ('A' for Active; 'I' for Inactive)
REMARK    1  A    between atoms: C_1  and  C_2 
REMARK    2  A    between atoms: C_1  and  O_6 
REMARK    3  A    between atoms: C_3  and  C_4 
REMARK    4  A    between atoms: C_4  and  O_8 
ROOT
HETATM    1  C   UNK N   1      19.877  18.208   2.122  0.00  0.00     0.088 C 
HETATM    2  C   UNK N   1      20.183  19.518   2.184  0.00  0.00     0.088 C 
ENDROOT
BRANCH   1   3
HETATM    3  C   UNK N   1      20.239  17.194   1.104  0.00  0.00     0.165 C 
HETATM    4  O   UNK N   1      20.541  16.051   1.411  0.00  0.00    -0.647 OA
BRANCH   3   5
HETATM    5  O   UNK N   1      20.236  17.541  -0.192  0.00  0.00    -0.773 OA
HETATM    6  H   UNK N   1      20.650  16.990  -0.827  0.00  0.00     0.167 HD
ENDBRANCH   3   5
ENDBRANCH   1   3
BRANCH   2   7
HETATM    7  C   UNK N   1      20.978  20.359   1.253  0.00  0.00     0.165 C 
HETATM    8  O   UNK N   1      21.989  20.892   1.664  0.00  0.00    -0.647 OA
BRANCH   7   9
HETATM    9  O   UNK N   1      20.615  20.551  -0.028  0.00  0.00    -0.773 OA
HETATM   10  H   UNK N   1      19.841  20.140  -0.361  0.00  0.00     0.167 HD
ENDBRANCH   7   9
ENDBRANCH   2   7
TORSDOF 4
ENDMDL
MODEL 3
REMARK VINA RESULT:      -4.3      1.719      2.082
REMARK  4 active torsions:
REMARK  status: ('A' for Active; 'I' for Inactive)
REMARK    1  A    between atoms: C_1  and  C_2 
REMARK    2  A    between atoms: C_1  and  O_6 
REMARK    3  A    between atoms: C_3  and  C_4 
REMARK    4  A    between atoms: C_4  and  O_8 
ROOT
HETATM    1  C   UNK N   1      20.206  19.490   2.209  0.00  0.00     0.088 C 
HETATM    2  C   UNK N   1      19.876  18.186   2.127  0.00  0.00     0.088 C 
ENDROOT
BRANCH   1   3
HETATM    3  C   UNK N   1      21.011  20.327   1.287  0.00  0.00     0.165 C 
HETATM    4  O   UNK N   1      22.050  20.861   1.643  0.00  0.00    -0.647 OA
BRANCH   3   5
HETATM    5  O   UNK N   1      20.586  20.502   0.027  0.00  0.00    -0.773 OA
HETATM    6  H   UNK N   1      21.129  20.244  -0.692  0.00  0.00     0.167 HD
ENDBRANCH   3   5
ENDBRANCH   1   3
BRANCH   2   7
HETATM    7  C   UNK N   1      20.213  17.178   1.090  0.00  0.00     0.165 C 
HETATM    8  O   UNK N   1      20.477  16.045   1.439  0.00  0.00    -0.647 OA
BRANCH   7   9
HETATM    9  O   UNK N   1      20.235  17.478  -0.221  0.00  0.00    -0.773 OA
HETATM   10  H   UNK N   1      20.897  17.112  -0.774  0.00  0.00     0.167 HD
ENDBRANCH   7   9
ENDBRANCH   2   7
TORSDOF 4
ENDMDL
MODEL 4
REMARK VINA RESULT:      -4.1     10.900     12.373
REMARK  4 active torsions:
REMARK  status: ('A' for Active; 'I' for Inactive)
REMARK    1  A    between atoms: C_1  and  C_2 
REMARK    2  A    between atoms: C_1  and  O_6 
REMARK    3  A    between atoms: C_3  and  C_4 
REMARK    4  A    between atoms: C_4  and  O_8 
ROOT
HETATM    1  C   UNK N   1      21.749  12.287  10.920  0.00  0.00     0.088 C 
HETATM    2  C   UNK N   1      22.330  11.748  12.010  0.00  0.00     0.088 C 
ENDROOT
BRANCH   1   3
HETATM    3  C   UNK N   1      22.228  13.366  10.024  0.00  0.00     0.165 C 
HETATM    4  O   UNK N   1      23.347  13.350   9.537  0.00  0.00    -0.647 OA
BRANCH   3   5
HETATM    5  O   UNK N   1      21.407  14.389   9.739  0.00  0.00    -0.773 OA
HETATM    6  H   UNK N   1      21.029  14.464   8.885  0.00  0.00     0.167 HD
ENDBRANCH   3   5
ENDBRANCH   1   3
BRANCH   2   7
HETATM    7  C   UNK N   1      23.629  12.062  12.655  0.00  0.00     0.165 C 
HETATM    8  O   UNK N   1      23.664  12.210  13.861  0.00  0.00    -0.647 OA
BRANCH   7   9
HETATM    9  O   UNK N   1      24.768  12.189  11.950  0.00  0.00    -0.773 OA
HETATM   10  H   UNK N   1      25.049  13.036  11.663  0.00  0.00     0.167 HD
ENDBRANCH   7   9
ENDBRANCH   2   7
TORSDOF 4
ENDMDL
MODEL 5
REMARK VINA RESULT:      -4.1     10.925     12.684
REMARK  4 active torsions:
REMARK  status: ('A' for Active; 'I' for Inactive)
REMARK    1  A    between atoms: C_1  and  C_2 
REMARK    2  A    between atoms: C_1  and  O_6 
REMARK    3  A    between atoms: C_3  and  C_4 
REMARK    4  A    between atoms: C_4  and  O_8 
ROOT
HETATM    1  C   UNK N   1      22.367  11.728  12.002  0.00  0.00     0.088 C 
HETATM    2  C   UNK N   1      21.812  12.261  10.896  0.00  0.00     0.088 C 
ENDROOT
BRANCH   1   3
HETATM    3  C   UNK N   1      23.638  12.066  12.685  0.00  0.00     0.165 C 
HETATM    4  O   UNK N   1      23.695  12.242  13.892  0.00  0.00    -0.647 OA
BRANCH   3   5
HETATM    5  O   UNK N   1      24.759  12.182  11.956  0.00  0.00    -0.773 OA
HETATM    6  H   UNK N   1      25.552  12.477  12.358  0.00  0.00     0.167 HD
ENDBRANCH   3   5
ENDBRANCH   1   3
BRANCH   2   7
HETATM    7  C   UNK N   1      22.297  13.352  10.014  0.00  0.00     0.165 C 
HETATM    8  O   UNK N   1      21.552  14.280   9.767  0.00  0.00    -0.647 OA
BRANCH   7   9
HETATM    9  O   UNK N   1      23.531  13.347   9.480  0.00  0.00    -0.773 OA
HETATM   10  H   UNK N   1      23.665  13.658   8.606  0.00  0.00     0.167 HD
ENDBRANCH   7   9
ENDBRANCH   2   7
TORSDOF 4
ENDMDL
MODEL 6
REMARK VINA RESULT:      -4.1      2.388      3.235
REMARK  4 active torsions:
REMARK  status: ('A' for Active; 'I' for Inactive)
REMARK    1  A    between atoms: C_1  and  C_2 
REMARK    2  A    between atoms: C_1  and  O_6 
REMARK    3  A    between atoms: C_3  and  C_4 
REMARK    4  A    between atoms: C_4  and  O_8 
ROOT
HETATM    1  C   UNK N   1      20.718  19.758   2.367  0.00  0.00     0.088 C 
HETATM    2  C   UNK N   1      21.703  19.556   3.264  0.00  0.00     0.088 C 
ENDROOT
BRANCH   1   3
HETATM    3  C   UNK N   1      20.733  20.517   1.094  0.00  0.00     0.165 C 
HETATM    4  O   UNK N   1      20.867  21.731   1.068  0.00  0.00    -0.647 OA
BRANCH   3   5
HETATM    5  O   UNK N   1      20.594  19.852  -0.063  0.00  0.00    -0.773 OA
HETATM    6  H   UNK N   1      20.681  20.306  -0.879  0.00  0.00     0.167 HD
ENDBRANCH   3   5
ENDBRANCH   1   3
BRANCH   2   7
HETATM    7  C   UNK N   1      23.111  20.028   3.260  0.00  0.00     0.165 C 
HETATM    8  O   UNK N   1      23.987  19.259   3.602  0.00  0.00    -0.647 OA
BRANCH   7   9
HETATM    9  O   UNK N   1      23.447  21.277   2.892  0.00  0.00    -0.773 OA
HETATM   10  H   UNK N   1      23.007  21.688   2.174  0.00  0.00     0.167 HD
ENDBRANCH   7   9
ENDBRANCH   2   7
TORSDOF 4
ENDMDL
MODEL 7
REMARK VINA RESULT:      -4.1     11.291     12.226
REMARK  4 active torsions:
REMARK  status: ('A' for Active; 'I' for Inactive)
REMARK    1  A    between atoms: C_1  and  C_2 
REMARK    2  A    between atoms: C_1  and  O_6 
REMARK    3  A    between atoms: C_3  and  C_4 
REMARK    4  A    between atoms: C_4  and  O_8 
ROOT
HETATM    1  C   UNK N   1      23.848  11.992   9.702  0.00  0.00     0.088 C 
HETATM    2  C   UNK N   1      22.505  11.924   9.624  0.00  0.00     0.088 C 
ENDROOT
BRANCH   1   3
HETATM    3  C   UNK N   1      24.716  12.415  10.827  0.00  0.00     0.165 C 
HETATM    4  O   UNK N   1      24.631  11.906  11.934  0.00  0.00    -0.647 OA
BRANCH   3   5
HETATM    5  O   UNK N   1      25.619  13.386  10.624  0.00  0.00    -0.773 OA
HETATM    6  H   UNK N   1      26.369  13.454  11.182  0.00  0.00     0.167 HD
ENDBRANCH   3   5
ENDBRANCH   1   3
BRANCH   2   7
HETATM    7  C   UNK N   1      21.471  12.250  10.639  0.00  0.00     0.165 C 
HETATM    8  O   UNK N   1      20.517  12.924  10.306  0.00  0.00    -0.647 OA
BRANCH   7   9
HETATM    9  O   UNK N   1      21.557  11.826  11.912  0.00  0.00    -0.773 OA
HETATM   10  H   UNK N   1      22.396  11.717  12.314  0.00  0.00     0.167 HD
ENDBRANCH   7   9
ENDBRANCH   2   7
TORSDOF 4
ENDMDL
MODEL 8
REMARK VINA RESULT:      -4.0     16.193     16.720
REMARK  4 active torsions:
REMARK  status: ('A' for Active; 'I' for Inactive)
REMARK    1  A    between atoms: C_1  and  C_2 
REMARK    2  A    between atoms: C_1  and  O_6 
REMARK    3  A    between atoms: C_3  and  C_4 
REMARK    4  A    between atoms: C_4  and  O_8 
ROOT
HETATM    1  C   UNK N   1      33.642  17.133   8.586  0.00  0.00     0.088 C 
HETATM    2  C   UNK N   1      34.095  16.360   9.592  0.00  0.00     0.088 C 
ENDROOT
BRANCH   1   3
HETATM    3  C   UNK N   1      34.356  18.138   7.764  0.00  0.00     0.165 C 
HETATM    4  O   UNK N   1      34.377  18.076   6.544  0.00  0.00    -0.647 OA
BRANCH   3   5
HETATM    5  O   UNK N   1      34.998  19.145   8.376  0.00  0.00    -0.773 OA
HETATM    6  H   UNK N   1      34.666  19.493   9.181  0.00  0.00     0.167 HD
ENDBRANCH   3   5
ENDBRANCH   1   3
BRANCH   2   7
HETATM    7  C   UNK N   1      35.450  16.271  10.194  0.00  0.00     0.165 C 
HETATM    8  O   UNK N   1      35.972  17.284  10.614  0.00  0.00    -0.647 OA
BRANCH   7   9
HETATM    9  O   UNK N   1      36.117  15.107  10.289  0.00  0.00    -0.773 OA
HETATM   10  H   UNK N   1      36.216  14.690  11.123  0.00  0.00     0.167 HD
ENDBRANCH   7   9
ENDBRANCH   2   7
TORSDOF 4
ENDMDL
MODEL 9
REMARK VINA RESULT:      -3.9     14.242     14.808
REMARK  4 active torsions:
REMARK  status: ('A' for Active; 'I' for Inactive)
REMARK    1  A    between atoms: C_1  and  C_2 
REMARK    2  A    between atoms: C_1  and  O_6 
REMARK    3  A    between atoms: C_3  and  C_4 
REMARK    4  A    between atoms: C_4  and  O_8 
ROOT
HETATM    1  C   UNK N   1      33.852  17.802   7.278  0.00  0.00     0.088 C 
HETATM    2  C   UNK N   1      32.561  17.432   7.164  0.00  0.00     0.088 C 
ENDROOT
BRANCH   1   3
HETATM    3  C   UNK N   1      34.633  18.166   8.484  0.00  0.00     0.165 C 
HETATM    4  O   UNK N   1      34.661  17.452   9.474  0.00  0.00    -0.647 OA
BRANCH   3   5
HETATM    5  O   UNK N   1      35.330  19.312   8.487  0.00  0.00    -0.773 OA
HETATM    6  H   UNK N   1      36.202  19.331   8.830  0.00  0.00     0.167 HD
ENDBRANCH   3   5
ENDBRANCH   1   3
BRANCH   2   7
HETATM    7  C   UNK N   1      31.516  17.273   8.207  0.00  0.00     0.165 C 
HETATM    8  O   UNK N   1      30.459  17.856   8.070  0.00  0.00    -0.647 OA
BRANCH   7   9
HETATM    9  O   UNK N   1      31.701  16.506   9.296  0.00  0.00    -0.773 OA
HETATM   10  H   UNK N   1      32.199  15.714   9.232  0.00  0.00     0.167 HD
ENDBRANCH   7   9
ENDBRANCH   2   7
TORSDOF 4
ENDMDL
