MODEL 1
REMARK VINA RESULT:      -7.2      0.000      0.000
REMARK  6 active torsions:
REMARK  status: ('A' for Active; 'I' for Inactive)
REMARK    1  A    between atoms: O_1  and  C_2 
REMARK    2  A    between atoms: C_2  and  C_4 
REMARK    3  A    between atoms: C_4  and  O_6 
REMARK    4  A    between atoms: O_6  and  C_7 
REMARK    5  A    between atoms: C_12  and  O_13 
REMARK    6  A    between atoms: O_13  and  C_14 
ROOT
HETATM    1  C   UNK N   1      23.345  19.804   3.278  0.00  0.00     0.070 A 
HETATM    2  C   UNK N   1      24.326  20.633   2.723  0.00  0.00     0.039 A 
HETATM    3  C   UNK N   1      25.679  20.355   2.951  0.00  0.00     0.040 A 
HETATM    4  C   UNK N   1      23.720  18.630   3.948  0.00  0.00     0.039 A 
HETATM    5  C   UNK N   1      25.063  18.345   4.158  0.00  0.00     0.040 A 
HETATM    6  C   UNK N   1      26.043  19.249   3.727  0.00  0.00     0.076 A 
ENDROOT
BRANCH   6   7
HETATM    7  O   UNK N   1      27.323  19.111   4.131  0.00  0.00    -0.309 OA
BRANCH   7   8
HETATM    8  C   UNK N   1      27.717  18.923   5.428  0.00  0.00     0.098 A 
HETATM    9  C   UNK N   1      28.377  17.727   5.735  0.00  0.00     0.041 A 
HETATM   10  C   UNK N   1      28.835  17.469   7.030  0.00  0.00     0.026 A 
HETATM   11  C   UNK N   1      28.639  18.407   8.041  0.00  0.00     0.035 A 
HETATM   12 Cl   UNK N   1      29.218  18.096   9.663  0.00  0.00    -0.084 Cl
HETATM   13  C   UNK N   1      28.002  19.609   7.759  0.00  0.00     0.050 A 
HETATM   14  C   UNK N   1      27.540  19.892   6.474  0.00  0.00     0.069 A 
HETATM   15 Cl   UNK N   1      26.845  21.499   6.265  0.00  0.00    -0.081 Cl
ENDBRANCH   7   8
ENDBRANCH   6   7
BRANCH   1  16
HETATM   16  O   UNK N   1      22.054  20.211   3.285  0.00  0.00    -0.336 OA
BRANCH  16  17
HETATM   17  C   UNK N   1      21.176  19.784   2.297  0.00  0.00     0.222 C 
HETATM   18  C   UNK N   1      19.805  19.519   2.917  0.00  0.00     0.051 C 
BRANCH  17  19
HETATM   19  C   UNK N   1      21.009  20.804   1.214  0.00  0.00     0.170 C 
HETATM   20  O   UNK N   1      21.107  20.485   0.037  0.00  0.00    -0.648 OA
BRANCH  19  21
HETATM   21  O   UNK N   1      20.746  22.084   1.537  0.00  0.00    -0.774 OA
HETATM   22  H   UNK N   1      19.922  22.466   1.307  0.00  0.00     0.167 HD
ENDBRANCH  19  21
ENDBRANCH  17  19
ENDBRANCH  16  17
ENDBRANCH   1  16
TORSDOF 6
ENDMDL
MODEL 2
REMARK VINA RESULT:      -6.3      4.291      9.547
REMARK  6 active torsions:
REMARK  status: ('A' for Active; 'I' for Inactive)
REMARK    1  A    between atoms: O_1  and  C_2 
REMARK    2  A    between atoms: C_2  and  C_4 
REMARK    3  A    between atoms: C_4  and  O_6 
REMARK    4  A    between atoms: O_6  and  C_7 
REMARK    5  A    between atoms: C_12  and  O_13 
REMARK    6  A    between atoms: O_13  and  C_14 
ROOT
HETATM    1  C   UNK N   1      31.682  17.320   7.165  0.00  0.00     0.070 A 
HETATM    2  C   UNK N   1      30.814  17.577   8.231  0.00  0.00     0.039 A 
HETATM    3  C   UNK N   1      29.432  17.471   8.041  0.00  0.00     0.040 A 
HETATM    4  C   UNK N   1      31.174  16.832   5.953  0.00  0.00     0.039 A 
HETATM    5  C   UNK N   1      29.802  16.709   5.769  0.00  0.00     0.040 A 
HETATM    6  C   UNK N   1      28.926  17.104   6.789  0.00  0.00     0.076 A 
ENDROOT
BRANCH   6   7
HETATM    7  O   UNK N   1      27.604  17.220   6.544  0.00  0.00    -0.309 OA
BRANCH   7   8
HETATM    8  C   UNK N   1      27.055  18.032   5.589  0.00  0.00     0.098 A 
HETATM    9  C   UNK N   1      26.391  17.414   4.521  0.00  0.00     0.041 A 
HETATM   10  C   UNK N   1      25.780  18.171   3.518  0.00  0.00     0.026 A 
HETATM   11  C   UNK N   1      25.823  19.563   3.568  0.00  0.00     0.035 A 
HETATM   12 Cl   UNK N   1      25.053  20.519   2.322  0.00  0.00    -0.084 Cl
HETATM   13  C   UNK N   1      26.460  20.200   4.626  0.00  0.00     0.050 A 
HETATM   14  C   UNK N   1      27.073  19.467   5.641  0.00  0.00     0.069 A 
HETATM   15 Cl   UNK N   1      27.748  20.428   6.956  0.00  0.00    -0.081 Cl
ENDBRANCH   7   8
ENDBRANCH   6   7
BRANCH   1  16
HETATM   16  O   UNK N   1      32.986  17.673   7.266  0.00  0.00    -0.336 OA
BRANCH  16  17
HETATM   17  C   UNK N   1      33.841  16.975   8.109  0.00  0.00     0.222 C 
HETATM   18  C   UNK N   1      34.670  15.990   7.287  0.00  0.00     0.051 C 
BRANCH  17  19
HETATM   19  C   UNK N   1      34.783  17.886   8.834  0.00  0.00     0.170 C 
HETATM   20  O   UNK N   1      35.344  17.516   9.857  0.00  0.00    -0.648 OA
BRANCH  19  21
HETATM   21  O   UNK N   1      35.017  19.122   8.356  0.00  0.00    -0.774 OA
HETATM   22  H   UNK N   1      34.573  19.860   8.726  0.00  0.00     0.167 HD
ENDBRANCH  19  21
ENDBRANCH  17  19
ENDBRANCH  16  17
ENDBRANCH   1  16
TORSDOF 6
ENDMDL
MODEL 3
REMARK VINA RESULT:      -6.3     10.502     13.903
REMARK  6 active torsions:
REMARK  status: ('A' for Active; 'I' for Inactive)
REMARK    1  A    between atoms: O_1  and  C_2 
REMARK    2  A    between atoms: C_2  and  C_4 
REMARK    3  A    between atoms: C_4  and  O_6 
REMARK    4  A    between atoms: O_6  and  C_7 
REMARK    5  A    between atoms: C_12  and  O_13 
REMARK    6  A    between atoms: O_13  and  C_14 
ROOT
HETATM    1  C   UNK N   1      35.149  15.467   9.863  0.00  0.00     0.070 A 
HETATM    2  C   UNK N   1      36.431  14.912   9.799  0.00  0.00     0.039 A 
HETATM    3  C   UNK N   1      36.795  13.900  10.694  0.00  0.00     0.040 A 
HETATM    4  C   UNK N   1      34.195  14.921  10.734  0.00  0.00     0.039 A 
HETATM    5  C   UNK N   1      34.551  13.904  11.611  0.00  0.00     0.040 A 
HETATM    6  C   UNK N   1      35.874  13.446  11.645  0.00  0.00     0.076 A 
ENDROOT
BRANCH   6   7
HETATM    7  O   UNK N   1      36.291  12.641  12.645  0.00  0.00    -0.309 OA
BRANCH   7   8
HETATM    8  C   UNK N   1      36.002  12.825  13.970  0.00  0.00     0.098 A 
HETATM    9  C   UNK N   1      36.718  13.816  14.654  0.00  0.00     0.041 A 
HETATM   10  C   UNK N   1      36.464  14.085  16.002  0.00  0.00     0.026 A 
HETATM   11  C   UNK N   1      35.487  13.367  16.687  0.00  0.00     0.035 A 
HETATM   12 Cl   UNK N   1      35.157  13.704  18.372  0.00  0.00    -0.084 Cl
HETATM   13  C   UNK N   1      34.751  12.391  16.027  0.00  0.00     0.050 A 
HETATM   14  C   UNK N   1      34.982  12.106  14.681  0.00  0.00     0.069 A 
HETATM   15 Cl   UNK N   1      33.896  10.912  13.971  0.00  0.00    -0.081 Cl
ENDBRANCH   7   8
ENDBRANCH   6   7
BRANCH   1  16
HETATM   16  O   UNK N   1      34.883  16.610   9.188  0.00  0.00    -0.336 OA
BRANCH  16  17
HETATM   17  C   UNK N   1      33.887  16.640   8.220  0.00  0.00     0.222 C 
HETATM   18  C   UNK N   1      32.909  17.770   8.534  0.00  0.00     0.051 C 
BRANCH  17  19
HETATM   19  C   UNK N   1      34.443  16.872   6.850  0.00  0.00     0.170 C 
HETATM   20  O   UNK N   1      34.213  17.915   6.252  0.00  0.00    -0.648 OA
BRANCH  19  21
HETATM   21  O   UNK N   1      35.206  15.927   6.269  0.00  0.00    -0.774 OA
HETATM   22  H   UNK N   1      35.064  15.695   5.373  0.00  0.00     0.167 HD
ENDBRANCH  19  21
ENDBRANCH  17  19
ENDBRANCH  16  17
ENDBRANCH   1  16
TORSDOF 6
ENDMDL
MODEL 4
REMARK VINA RESULT:      -6.2      4.789      9.516
REMARK  6 active torsions:
REMARK  status: ('A' for Active; 'I' for Inactive)
REMARK    1  A    between atoms: O_1  and  C_2 
REMARK    2  A    between atoms: C_2  and  C_4 
REMARK    3  A    between atoms: C_4  and  O_6 
REMARK    4  A    between atoms: O_6  and  C_7 
REMARK    5  A    between atoms: C_12  and  O_13 
REMARK    6  A    between atoms: O_13  and  C_14 
ROOT
HETATM    1  C   UNK N   1      31.628  17.230   7.808  0.00  0.00     0.070 A 
HETATM    2  C   UNK N   1      31.196  17.033   6.492  0.00  0.00     0.039 A 
HETATM    3  C   UNK N   1      29.892  17.388   6.129  0.00  0.00     0.040 A 
HETATM    4  C   UNK N   1      30.802  17.901   8.721  0.00  0.00     0.039 A 
HETATM    5  C   UNK N   1      29.513  18.270   8.356  0.00  0.00     0.040 A 
HETATM    6  C   UNK N   1      29.030  17.944   7.082  0.00  0.00     0.076 A 
ENDROOT
BRANCH   6   7
HETATM    7  O   UNK N   1      27.718  18.076   6.795  0.00  0.00    -0.309 OA
BRANCH   7   8
HETATM    8  C   UNK N   1      27.080  17.459   5.754  0.00  0.00     0.098 A 
HETATM    9  C   UNK N   1      26.538  16.189   5.991  0.00  0.00     0.041 A 
HETATM   10  C   UNK N   1      25.848  15.503   4.988  0.00  0.00     0.026 A 
HETATM   11  C   UNK N   1      25.688  16.078   3.729  0.00  0.00     0.035 A 
HETATM   12 Cl   UNK N   1      24.817  15.230   2.471  0.00  0.00    -0.084 Cl
HETATM   13  C   UNK N   1      26.201  17.344   3.474  0.00  0.00     0.050 A 
HETATM   14  C   UNK N   1      26.890  18.051   4.459  0.00  0.00     0.069 A 
HETATM   15 Cl   UNK N   1      27.388  19.679   4.002  0.00  0.00    -0.081 Cl
ENDBRANCH   7   8
ENDBRANCH   6   7
BRANCH   1  16
HETATM   16  O   UNK N   1      32.780  16.652   8.226  0.00  0.00    -0.336 OA
BRANCH  16  17
HETATM   17  C   UNK N   1      33.725  17.392   8.925  0.00  0.00     0.222 C 
HETATM   18  C   UNK N   1      34.657  16.442   9.676  0.00  0.00     0.051 C 
BRANCH  17  19
HETATM   19  C   UNK N   1      34.558  18.241   8.017  0.00  0.00     0.170 C 
HETATM   20  O   UNK N   1      34.592  18.019   6.814  0.00  0.00    -0.648 OA
BRANCH  19  21
HETATM   21  O   UNK N   1      35.274  19.261   8.526  0.00  0.00    -0.774 OA
HETATM   22  H   UNK N   1      35.404  19.326   9.452  0.00  0.00     0.167 HD
ENDBRANCH  19  21
ENDBRANCH  17  19
ENDBRANCH  16  17
ENDBRANCH   1  16
TORSDOF 6
ENDMDL
MODEL 5
REMARK VINA RESULT:      -6.2      5.050      5.823
REMARK  6 active torsions:
REMARK  status: ('A' for Active; 'I' for Inactive)
REMARK    1  A    between atoms: O_1  and  C_2 
REMARK    2  A    between atoms: C_2  and  C_4 
REMARK    3  A    between atoms: C_4  and  O_6 
REMARK    4  A    between atoms: O_6  and  C_7 
REMARK    5  A    between atoms: C_12  and  O_13 
REMARK    6  A    between atoms: O_13  and  C_14 
ROOT
HETATM    1  C   UNK N   1      21.746  18.044   4.334  0.00  0.00     0.070 A 
HETATM    2  C   UNK N   1      21.447  18.105   5.699  0.00  0.00     0.039 A 
HETATM    3  C   UNK N   1      21.387  16.926   6.450  0.00  0.00     0.040 A 
HETATM    4  C   UNK N   1      22.113  16.821   3.754  0.00  0.00     0.039 A 
HETATM    5  C   UNK N   1      22.072  15.652   4.504  0.00  0.00     0.040 A 
HETATM    6  C   UNK N   1      21.633  15.694   5.834  0.00  0.00     0.076 A 
ENDROOT
BRANCH   6   7
HETATM    7  O   UNK N   1      21.357  14.551   6.497  0.00  0.00    -0.309 OA
BRANCH   7   8
HETATM    8  C   UNK N   1      22.108  14.041   7.521  0.00  0.00     0.098 A 
HETATM    9  C   UNK N   1      23.417  13.642   7.223  0.00  0.00     0.041 A 
HETATM   10  C   UNK N   1      24.259  13.135   8.216  0.00  0.00     0.026 A 
HETATM   11  C   UNK N   1      23.803  13.019   9.528  0.00  0.00     0.035 A 
HETATM   12 Cl   UNK N   1      24.853  12.395  10.780  0.00  0.00    -0.084 Cl
HETATM   13  C   UNK N   1      22.514  13.424   9.852  0.00  0.00     0.050 A 
HETATM   14  C   UNK N   1      21.656  13.937   8.880  0.00  0.00     0.069 A 
HETATM   15 Cl   UNK N   1      20.094  14.494   9.477  0.00  0.00    -0.081 Cl
ENDBRANCH   7   8
ENDBRANCH   6   7
BRANCH   1  16
HETATM   16  O   UNK N   1      21.547  19.135   3.558  0.00  0.00    -0.336 OA
BRANCH  16  17
HETATM   17  C   UNK N   1      20.816  19.038   2.381  0.00  0.00     0.222 C 
HETATM   18  C   UNK N   1      19.328  18.960   2.713  0.00  0.00     0.051 C 
BRANCH  17  19
HETATM   19  C   UNK N   1      21.033  20.218   1.486  0.00  0.00     0.170 C 
HETATM   20  O   UNK N   1      21.492  21.262   1.932  0.00  0.00    -0.648 OA
BRANCH  19  21
HETATM   21  O   UNK N   1      20.724  20.132   0.179  0.00  0.00    -0.774 OA
HETATM   22  H   UNK N   1      21.089  20.742  -0.431  0.00  0.00     0.167 HD
ENDBRANCH  19  21
ENDBRANCH  17  19
ENDBRANCH  16  17
ENDBRANCH   1  16
TORSDOF 6
ENDMDL
MODEL 6
REMARK VINA RESULT:      -6.2      7.467     10.828
REMARK  6 active torsions:
REMARK  status: ('A' for Active; 'I' for Inactive)
REMARK    1  A    between atoms: O_1  and  C_2 
REMARK    2  A    between atoms: C_2  and  C_4 
REMARK    3  A    between atoms: C_4  and  O_6 
REMARK    4  A    between atoms: O_6  and  C_7 
REMARK    5  A    between atoms: C_12  and  O_13 
REMARK    6  A    between atoms: O_13  and  C_14 
ROOT
HETATM    1  C   UNK N   1      32.050  17.087   8.206  0.00  0.00     0.070 A 
HETATM    2  C   UNK N   1      33.055  18.039   8.003  0.00  0.00     0.039 A 
HETATM    3  C   UNK N   1      34.328  17.830   8.545  0.00  0.00     0.040 A 
HETATM    4  C   UNK N   1      32.356  15.872   8.836  0.00  0.00     0.039 A 
HETATM    5  C   UNK N   1      33.625  15.657   9.358  0.00  0.00     0.040 A 
HETATM    6  C   UNK N   1      34.591  16.669   9.281  0.00  0.00     0.076 A 
ENDROOT
BRANCH   6   7
HETATM    7  O   UNK N   1      35.737  16.573   9.987  0.00  0.00    -0.309 OA
BRANCH   7   8
HETATM    8  C   UNK N   1      36.105  15.488  10.736  0.00  0.00     0.098 A 
HETATM    9  C   UNK N   1      35.811  15.521  12.105  0.00  0.00     0.041 A 
HETATM   10  C   UNK N   1      36.130  14.443  12.935  0.00  0.00     0.026 A 
HETATM   11  C   UNK N   1      36.748  13.311  12.407  0.00  0.00     0.035 A 
HETATM   12 Cl   UNK N   1      37.141  11.954  13.438  0.00  0.00    -0.084 Cl
HETATM   13  C   UNK N   1      37.034  13.247  11.049  0.00  0.00     0.050 A 
HETATM   14  C   UNK N   1      36.722  14.308  10.199  0.00  0.00     0.069 A 
HETATM   15 Cl   UNK N   1      37.061  14.024   8.492  0.00  0.00    -0.081 Cl
ENDBRANCH   7   8
ENDBRANCH   6   7
BRANCH   1  16
HETATM   16  O   UNK N   1      30.765  17.403   7.918  0.00  0.00    -0.336 OA
BRANCH  16  17
HETATM   17  C   UNK N   1      29.808  17.448   8.924  0.00  0.00     0.222 C 
HETATM   18  C   UNK N   1      29.916  18.778   9.667  0.00  0.00     0.051 C 
BRANCH  17  19
HETATM   19  C   UNK N   1      28.418  17.327   8.383  0.00  0.00     0.170 C 
HETATM   20  O   UNK N   1      28.216  17.340   7.175  0.00  0.00    -0.648 OA
BRANCH  19  21
HETATM   21  O   UNK N   1      27.380  17.201   9.230  0.00  0.00    -0.774 OA
HETATM   22  H   UNK N   1      27.467  17.470  10.123  0.00  0.00     0.167 HD
ENDBRANCH  19  21
ENDBRANCH  17  19
ENDBRANCH  16  17
ENDBRANCH   1  16
TORSDOF 6
ENDMDL
MODEL 7
REMARK VINA RESULT:      -6.2      5.847     11.023
REMARK  6 active torsions:
REMARK  status: ('A' for Active; 'I' for Inactive)
REMARK    1  A    between atoms: O_1  and  C_2 
REMARK    2  A    between atoms: C_2  and  C_4 
REMARK    3  A    between atoms: C_4  and  O_6 
REMARK    4  A    between atoms: O_6  and  C_7 
REMARK    5  A    between atoms: C_12  and  O_13 
REMARK    6  A    between atoms: O_13  and  C_14 
ROOT
HETATM    1  C   UNK N   1      33.737  16.063   7.879  0.00  0.00     0.070 A 
HETATM    2  C   UNK N   1      33.050  15.148   7.074  0.00  0.00     0.039 A 
HETATM    3  C   UNK N   1      31.696  15.353   6.790  0.00  0.00     0.040 A 
HETATM    4  C   UNK N   1      33.105  17.245   8.288  0.00  0.00     0.039 A 
HETATM    5  C   UNK N   1      31.764  17.459   7.991  0.00  0.00     0.040 A 
HETATM    6  C   UNK N   1      31.037  16.475   7.308  0.00  0.00     0.076 A 
ENDROOT
BRANCH   6   7
HETATM    7  O   UNK N   1      29.693  16.555   7.224  0.00  0.00    -0.309 OA
BRANCH   7   8
HETATM    8  C   UNK N   1      29.002  17.648   6.774  0.00  0.00     0.098 A 
HETATM    9  C   UNK N   1      28.412  18.479   7.735  0.00  0.00     0.041 A 
HETATM   10  C   UNK N   1      27.712  19.628   7.361  0.00  0.00     0.026 A 
HETATM   11  C   UNK N   1      27.591  19.967   6.015  0.00  0.00     0.035 A 
HETATM   12 Cl   UNK N   1      26.724  21.409   5.538  0.00  0.00    -0.084 Cl
HETATM   13  C   UNK N   1      28.181  19.168   5.043  0.00  0.00     0.050 A 
HETATM   14  C   UNK N   1      28.889  18.018   5.391  0.00  0.00     0.069 A 
HETATM   15 Cl   UNK N   1      29.657  17.176   4.046  0.00  0.00    -0.081 Cl
ENDBRANCH   7   8
ENDBRANCH   6   7
BRANCH   1  16
HETATM   16  O   UNK N   1      34.956  15.736   8.369  0.00  0.00    -0.336 OA
BRANCH  16  17
HETATM   17  C   UNK N   1      35.087  15.243   9.661  0.00  0.00     0.222 C 
HETATM   18  C   UNK N   1      35.849  13.920   9.624  0.00  0.00     0.051 C 
BRANCH  17  19
HETATM   19  C   UNK N   1      35.835  16.187  10.550  0.00  0.00     0.170 C 
HETATM   20  O   UNK N   1      35.283  17.178  11.011  0.00  0.00    -0.648 OA
BRANCH  19  21
HETATM   21  O   UNK N   1      37.125  15.946  10.847  0.00  0.00    -0.774 OA
HETATM   22  H   UNK N   1      37.386  15.097  11.145  0.00  0.00     0.167 HD
ENDBRANCH  19  21
ENDBRANCH  17  19
ENDBRANCH  16  17
ENDBRANCH   1  16
TORSDOF 6
ENDMDL
MODEL 8
REMARK VINA RESULT:      -6.1      8.572     13.304
REMARK  6 active torsions:
REMARK  status: ('A' for Active; 'I' for Inactive)
REMARK    1  A    between atoms: O_1  and  C_2 
REMARK    2  A    between atoms: C_2  and  C_4 
REMARK    3  A    between atoms: C_4  and  O_6 
REMARK    4  A    between atoms: O_6  and  C_7 
REMARK    5  A    between atoms: C_12  and  O_13 
REMARK    6  A    between atoms: O_13  and  C_14 
ROOT
HETATM    1  C   UNK N   1      34.727  14.929  11.292  0.00  0.00     0.070 A 
HETATM    2  C   UNK N   1      33.862  14.578  10.250  0.00  0.00     0.039 A 
HETATM    3  C   UNK N   1      33.579  15.506   9.241  0.00  0.00     0.040 A 
HETATM    4  C   UNK N   1      35.406  16.155  11.252  0.00  0.00     0.039 A 
HETATM    5  C   UNK N   1      35.139  17.069  10.241  0.00  0.00     0.040 A 
HETATM    6  C   UNK N   1      34.166  16.776   9.277  0.00  0.00     0.076 A 
ENDROOT
BRANCH   6   7
HETATM    7  O   UNK N   1      33.724  17.738   8.440  0.00  0.00    -0.309 OA
BRANCH   7   8
HETATM    8  C   UNK N   1      33.038  17.507   7.278  0.00  0.00     0.098 A 
HETATM    9  C   UNK N   1      33.785  17.417   6.096  0.00  0.00     0.041 A 
HETATM   10  C   UNK N   1      33.165  17.157   4.871  0.00  0.00     0.026 A 
HETATM   11  C   UNK N   1      31.784  16.984   4.809  0.00  0.00     0.035 A 
HETATM   12 Cl   UNK N   1      31.000  16.649   3.281  0.00  0.00    -0.084 Cl
HETATM   13  C   UNK N   1      31.023  17.052   5.969  0.00  0.00     0.050 A 
HETATM   14  C   UNK N   1      31.618  17.305   7.204  0.00  0.00     0.069 A 
HETATM   15 Cl   UNK N   1      30.525  17.261   8.587  0.00  0.00    -0.081 Cl
ENDBRANCH   7   8
ENDBRANCH   6   7
BRANCH   1  16
HETATM   16  O   UNK N   1      34.795  14.145  12.394  0.00  0.00    -0.336 OA
BRANCH  16  17
HETATM   17  C   UNK N   1      36.010  13.934  13.033  0.00  0.00     0.222 C 
HETATM   18  C   UNK N   1      35.755  13.441  14.456  0.00  0.00     0.051 C 
BRANCH  17  19
HETATM   19  C   UNK N   1      36.845  12.911  12.328  0.00  0.00     0.170 C 
HETATM   20  O   UNK N   1      36.556  11.723  12.386  0.00  0.00    -0.648 OA
BRANCH  19  21
HETATM   21  O   UNK N   1      37.923  13.299  11.623  0.00  0.00    -0.774 OA
HETATM   22  H   UNK N   1      37.816  13.687  10.777  0.00  0.00     0.167 HD
ENDBRANCH  19  21
ENDBRANCH  17  19
ENDBRANCH  16  17
ENDBRANCH   1  16
TORSDOF 6
ENDMDL
MODEL 9
REMARK VINA RESULT:      -6.1     14.132     17.774
REMARK  6 active torsions:
REMARK  status: ('A' for Active; 'I' for Inactive)
REMARK    1  A    between atoms: O_1  and  C_2 
REMARK    2  A    between atoms: C_2  and  C_4 
REMARK    3  A    between atoms: C_4  and  O_6 
REMARK    4  A    between atoms: O_6  and  C_7 
REMARK    5  A    between atoms: C_12  and  O_13 
REMARK    6  A    between atoms: O_13  and  C_14 
ROOT
HETATM    1  C   UNK N   1      34.566  12.403  14.243  0.00  0.00     0.070 A 
HETATM    2  C   UNK N   1      34.089  11.092  14.343  0.00  0.00     0.039 A 
HETATM    3  C   UNK N   1      34.335  10.351  15.504  0.00  0.00     0.040 A 
HETATM    4  C   UNK N   1      35.172  13.013  15.351  0.00  0.00     0.039 A 
HETATM    5  C   UNK N   1      35.400  12.282  16.511  0.00  0.00     0.040 A 
HETATM    6  C   UNK N   1      35.052  10.927  16.560  0.00  0.00     0.076 A 
ENDROOT
BRANCH   6   7
HETATM    7  O   UNK N   1      35.481  10.149  17.576  0.00  0.00    -0.309 OA
BRANCH   7   8
HETATM    8  C   UNK N   1      34.777   9.903  18.723  0.00  0.00     0.098 A 
HETATM    9  C   UNK N   1      34.033   8.718  18.782  0.00  0.00     0.041 A 
HETATM   10  C   UNK N   1      33.307   8.380  19.928  0.00  0.00     0.026 A 
HETATM   11  C   UNK N   1      33.315   9.225  21.036  0.00  0.00     0.035 A 
HETATM   12 Cl   UNK N   1      32.417   8.805  22.477  0.00  0.00    -0.084 Cl
HETATM   13  C   UNK N   1      34.058  10.398  21.008  0.00  0.00     0.050 A 
HETATM   14  C   UNK N   1      34.794  10.756  19.879  0.00  0.00     0.069 A 
HETATM   15 Cl   UNK N   1      35.758  12.222  20.046  0.00  0.00    -0.081 Cl
ENDBRANCH   7   8
ENDBRANCH   6   7
BRANCH   1  16
HETATM   16  O   UNK N   1      34.562  13.024  13.039  0.00  0.00    -0.336 OA
BRANCH  16  17
HETATM   17  C   UNK N   1      35.512  13.995  12.745  0.00  0.00     0.222 C 
HETATM   18  C   UNK N   1      36.774  13.323  12.207  0.00  0.00     0.051 C 
BRANCH  17  19
HETATM   19  C   UNK N   1      35.023  14.963  11.714  0.00  0.00     0.170 C 
HETATM   20  O   UNK N   1      35.794  15.759  11.192  0.00  0.00    -0.648 OA
BRANCH  19  21
HETATM   21  O   UNK N   1      33.727  14.959  11.354  0.00  0.00    -0.774 OA
HETATM   22  H   UNK N   1      33.061  14.835  12.001  0.00  0.00     0.167 HD
ENDBRANCH  19  21
ENDBRANCH  17  19
ENDBRANCH  16  17
ENDBRANCH   1  16
TORSDOF 6
ENDMDL
