MODEL 1
REMARK VINA RESULT:      -5.0      0.000      0.000
REMARK  11 active torsions:
REMARK  status: ('A' for Active; 'I' for Inactive)
REMARK    1  A    between atoms: C_1  and  C_3 
REMARK    2  A    between atoms: C_1  and  S_12 
REMARK    3  A    between atoms: C_4  and  C_5 
REMARK    4  A    between atoms: C_5  and  C_6 
REMARK    5  A    between atoms: C_6  and  C_7 
REMARK    6  A    between atoms: C_7  and  C_8 
REMARK    7  A    between atoms: C_8  and  C_9 
REMARK    8  A    between atoms: C_9  and  C_10 
REMARK    9  A    between atoms: S_12  and  C_13 
REMARK   10  A    between atoms: C_13  and  C_14 
REMARK   11  A    between atoms: C_14  and  N_15 
REMARK       I    between atoms: N_15  and  C_16 
ROOT
HETATM    1  C   UNK N   1      25.738  25.389  -5.805  0.00  0.00     0.208 C 
HETATM    2  O   UNK N   1      25.157  24.469  -5.248  0.00  0.00    -0.281 OA
ENDROOT
BRANCH   1   3
HETATM    3  C   UNK N   1      25.131  26.731  -5.932  0.00  0.00     0.058 C 
HETATM    4  C   UNK N   1      25.158  27.690  -4.998  0.00  0.00    -0.022 C 
BRANCH   4   5
HETATM    5  C   UNK N   1      25.743  27.496  -3.636  0.00  0.00     0.027 C 
BRANCH   5   6
HETATM    6  C   UNK N   1      26.898  28.448  -3.410  0.00  0.00     0.004 C 
BRANCH   6   7
HETATM    7  C   UNK N   1      26.427  29.887  -3.536  0.00  0.00     0.000 C 
BRANCH   7   8
HETATM    8  C   UNK N   1      27.269  30.615  -4.566  0.00  0.00     0.000 C 
BRANCH   8   9
HETATM    9  C   UNK N   1      28.662  30.006  -4.611  0.00  0.00    -0.000 C 
BRANCH   9  10
HETATM   10  C   UNK N   1      29.130  29.849  -6.045  0.00  0.00    -0.005 C 
HETATM   11  C   UNK N   1      28.127  29.036  -6.839  0.00  0.00     0.005 C 
ENDBRANCH   9  10
ENDBRANCH   8   9
ENDBRANCH   7   8
ENDBRANCH   6   7
ENDBRANCH   5   6
ENDBRANCH   4   5
ENDBRANCH   1   3
BRANCH   1  12
HETATM   12  S   UNK N   1      27.353  25.122  -6.519  0.00  0.00    -0.086 SA
BRANCH  12  13
HETATM   13  C   UNK N   1      28.185  25.205  -4.898  0.00  0.00     0.102 C 
BRANCH  13  14
HETATM   14  C   UNK N   1      28.846  23.890  -4.475  0.00  0.00     0.133 C 
BRANCH  14  15
HETATM   15  N   UNK N   1      29.335  23.816  -3.107  0.00  0.00    -0.361 N 
HETATM   16  C   UNK N   1      30.127  22.854  -2.560  0.00  0.00     0.213 C 
HETATM   17  O   UNK N   1      30.514  22.989  -1.413  0.00  0.00    -0.274 OA
HETATM   18  C   UNK N   1      30.542  21.631  -3.312  0.00  0.00     0.117 C 
HETATM   19  H   UNK N   1      29.061  24.548  -2.508  0.00  0.00     0.162 HD
ENDBRANCH  14  15
ENDBRANCH  13  14
ENDBRANCH  12  13
ENDBRANCH   1  12
TORSDOF 11
ENDMDL
MODEL 2
REMARK VINA RESULT:      -4.9     18.576     23.218
REMARK  11 active torsions:
REMARK  status: ('A' for Active; 'I' for Inactive)
REMARK    1  A    between atoms: C_1  and  C_3 
REMARK    2  A    between atoms: C_1  and  S_12 
REMARK    3  A    between atoms: C_4  and  C_5 
REMARK    4  A    between atoms: C_5  and  C_6 
REMARK    5  A    between atoms: C_6  and  C_7 
REMARK    6  A    between atoms: C_7  and  C_8 
REMARK    7  A    between atoms: C_8  and  C_9 
REMARK    8  A    between atoms: C_9  and  C_10 
REMARK    9  A    between atoms: S_12  and  C_13 
REMARK   10  A    between atoms: C_13  and  C_14 
REMARK   11  A    between atoms: C_14  and  N_15 
REMARK       I    between atoms: N_15  and  C_16 
ROOT
HETATM    1  C   UNK N   1      35.777  13.902  12.312  0.00  0.00     0.208 C 
HETATM    2  O   UNK N   1      34.583  14.016  12.544  0.00  0.00    -0.281 OA
ENDROOT
BRANCH   1   3
HETATM    3  C   UNK N   1      36.699  13.258  13.271  0.00  0.00     0.058 C 
HETATM    4  C   UNK N   1      36.969  11.948  13.334  0.00  0.00    -0.022 C 
BRANCH   4   5
HETATM    5  C   UNK N   1      36.291  10.926  12.479  0.00  0.00     0.027 C 
BRANCH   5   6
HETATM    6  C   UNK N   1      35.502   9.955  13.331  0.00  0.00     0.004 C 
BRANCH   6   7
HETATM    7  C   UNK N   1      34.030  10.333  13.335  0.00  0.00     0.000 C 
BRANCH   7   8
HETATM    8  C   UNK N   1      33.687  11.050  14.626  0.00  0.00     0.000 C 
BRANCH   8   9
HETATM    9  C   UNK N   1      34.495  10.457  15.771  0.00  0.00    -0.000 C 
BRANCH   9  10
HETATM   10  C   UNK N   1      35.148  11.554  16.588  0.00  0.00    -0.005 C 
HETATM   11  C   UNK N   1      34.587  12.906  16.196  0.00  0.00     0.005 C 
ENDBRANCH   9  10
ENDBRANCH   8   9
ENDBRANCH   7   8
ENDBRANCH   6   7
ENDBRANCH   5   6
ENDBRANCH   4   5
ENDBRANCH   1   3
BRANCH   1  12
HETATM   12  S   UNK N   1      36.457  14.549  10.792  0.00  0.00    -0.086 SA
BRANCH  12  13
HETATM   13  C   UNK N   1      35.554  16.126  10.951  0.00  0.00     0.102 C 
BRANCH  13  14
HETATM   14  C   UNK N   1      35.075  16.700   9.615  0.00  0.00     0.133 C 
BRANCH  14  15
HETATM   15  N   UNK N   1      33.714  17.212   9.576  0.00  0.00    -0.361 N 
HETATM   16  C   UNK N   1      33.020  17.640   8.486  0.00  0.00     0.213 C 
HETATM   17  O   UNK N   1      31.852  17.963   8.618  0.00  0.00    -0.274 OA
HETATM   18  C   UNK N   1      33.633  17.732   7.127  0.00  0.00     0.117 C 
HETATM   19  H   UNK N   1      33.240  17.254  10.438  0.00  0.00     0.162 HD
ENDBRANCH  14  15
ENDBRANCH  13  14
ENDBRANCH  12  13
ENDBRANCH   1  12
TORSDOF 11
ENDMDL
MODEL 3
REMARK VINA RESULT:      -4.8     12.478     14.793
REMARK  11 active torsions:
REMARK  status: ('A' for Active; 'I' for Inactive)
REMARK    1  A    between atoms: C_1  and  C_3 
REMARK    2  A    between atoms: C_1  and  S_12 
REMARK    3  A    between atoms: C_4  and  C_5 
REMARK    4  A    between atoms: C_5  and  C_6 
REMARK    5  A    between atoms: C_6  and  C_7 
REMARK    6  A    between atoms: C_7  and  C_8 
REMARK    7  A    between atoms: C_8  and  C_9 
REMARK    8  A    between atoms: C_9  and  C_10 
REMARK    9  A    between atoms: S_12  and  C_13 
REMARK   10  A    between atoms: C_13  and  C_14 
REMARK   11  A    between atoms: C_14  and  N_15 
REMARK       I    between atoms: N_15  and  C_16 
ROOT
HETATM    1  C   UNK N   1      33.397  17.169   5.909  0.00  0.00     0.208 C 
HETATM    2  O   UNK N   1      34.168  18.030   6.305  0.00  0.00    -0.281 OA
ENDROOT
BRANCH   1   3
HETATM    3  C   UNK N   1      33.074  17.012   4.474  0.00  0.00     0.058 C 
HETATM    4  C   UNK N   1      31.916  17.351   3.894  0.00  0.00    -0.022 C 
BRANCH   4   5
HETATM    5  C   UNK N   1      30.734  17.862   4.653  0.00  0.00     0.027 C 
BRANCH   5   6
HETATM    6  C   UNK N   1      29.574  16.894   4.553  0.00  0.00     0.004 C 
BRANCH   6   7
HETATM    7  C   UNK N   1      28.279  17.648   4.305  0.00  0.00     0.000 C 
BRANCH   7   8
HETATM    8  C   UNK N   1      28.450  19.105   4.691  0.00  0.00     0.000 C 
BRANCH   8   9
HETATM    9  C   UNK N   1      27.291  19.920   4.138  0.00  0.00    -0.000 C 
BRANCH   9  10
HETATM   10  C   UNK N   1      26.550  20.624   5.258  0.00  0.00    -0.005 C 
HETATM   11  C   UNK N   1      27.534  21.269   6.214  0.00  0.00     0.005 C 
ENDBRANCH   9  10
ENDBRANCH   8   9
ENDBRANCH   7   8
ENDBRANCH   6   7
ENDBRANCH   5   6
ENDBRANCH   4   5
ENDBRANCH   1   3
BRANCH   1  12
HETATM   12  S   UNK N   1      32.603  16.075   7.076  0.00  0.00    -0.086 SA
BRANCH  12  13
HETATM   13  C   UNK N   1      32.658  17.313   8.415  0.00  0.00     0.102 C 
BRANCH  13  14
HETATM   14  C   UNK N   1      31.346  18.078   8.603  0.00  0.00     0.133 C 
BRANCH  14  15
HETATM   15  N   UNK N   1      30.367  17.484   9.500  0.00  0.00    -0.361 N 
HETATM   16  C   UNK N   1      29.010  17.552   9.410  0.00  0.00     0.213 C 
HETATM   17  O   UNK N   1      28.334  16.923  10.205  0.00  0.00    -0.274 OA
HETATM   18  C   UNK N   1      28.313  18.371   8.373  0.00  0.00     0.117 C 
HETATM   19  H   UNK N   1      30.728  16.972  10.260  0.00  0.00     0.162 HD
ENDBRANCH  14  15
ENDBRANCH  13  14
ENDBRANCH  12  13
ENDBRANCH   1  12
TORSDOF 11
ENDMDL
MODEL 4
REMARK VINA RESULT:      -4.8     19.328     23.782
REMARK  11 active torsions:
REMARK  status: ('A' for Active; 'I' for Inactive)
REMARK    1  A    between atoms: C_1  and  C_3 
REMARK    2  A    between atoms: C_1  and  S_12 
REMARK    3  A    between atoms: C_4  and  C_5 
REMARK    4  A    between atoms: C_5  and  C_6 
REMARK    5  A    between atoms: C_6  and  C_7 
REMARK    6  A    between atoms: C_7  and  C_8 
REMARK    7  A    between atoms: C_8  and  C_9 
REMARK    8  A    between atoms: C_9  and  C_10 
REMARK    9  A    between atoms: S_12  and  C_13 
REMARK   10  A    between atoms: C_13  and  C_14 
REMARK   11  A    between atoms: C_14  and  N_15 
REMARK       I    between atoms: N_15  and  C_16 
ROOT
HETATM    1  C   UNK N   1      36.577  13.778  11.520  0.00  0.00     0.208 C 
HETATM    2  O   UNK N   1      37.570  13.074  11.403  0.00  0.00    -0.281 OA
ENDROOT
BRANCH   1   3
HETATM    3  C   UNK N   1      35.426  13.370  12.353  0.00  0.00     0.058 C 
HETATM    4  C   UNK N   1      35.406  13.336  13.692  0.00  0.00    -0.022 C 
BRANCH   4   5
HETATM    5  C   UNK N   1      36.602  13.629  14.540  0.00  0.00     0.027 C 
BRANCH   5   6
HETATM    6  C   UNK N   1      36.194  13.846  15.982  0.00  0.00     0.004 C 
BRANCH   6   7
HETATM    7  C   UNK N   1      35.005  12.967  16.331  0.00  0.00     0.000 C 
BRANCH   7   8
HETATM    8  C   UNK N   1      35.207  12.350  17.702  0.00  0.00     0.000 C 
BRANCH   8   9
HETATM    9  C   UNK N   1      35.715  10.924  17.551  0.00  0.00    -0.000 C 
BRANCH   9  10
HETATM   10  C   UNK N   1      36.144  10.365  18.893  0.00  0.00    -0.005 C 
HETATM   11  C   UNK N   1      35.862  11.368  19.995  0.00  0.00     0.005 C 
ENDBRANCH   9  10
ENDBRANCH   8   9
ENDBRANCH   7   8
ENDBRANCH   6   7
ENDBRANCH   5   6
ENDBRANCH   4   5
ENDBRANCH   1   3
BRANCH   1  12
HETATM   12  S   UNK N   1      36.479  15.333  10.647  0.00  0.00    -0.086 SA
BRANCH  12  13
HETATM   13  C   UNK N   1      34.935  14.863   9.796  0.00  0.00     0.102 C 
BRANCH  13  14
HETATM   14  C   UNK N   1      33.991  16.040   9.537  0.00  0.00     0.133 C 
BRANCH  14  15
HETATM   15  N   UNK N   1      34.605  17.351   9.398  0.00  0.00    -0.361 N 
HETATM   16  C   UNK N   1      34.565  18.176   8.317  0.00  0.00     0.213 C 
HETATM   17  O   UNK N   1      35.067  19.283   8.398  0.00  0.00    -0.274 OA
HETATM   18  C   UNK N   1      33.927  17.778   7.025  0.00  0.00     0.117 C 
HETATM   19  H   UNK N   1      35.108  17.680  10.178  0.00  0.00     0.162 HD
ENDBRANCH  14  15
ENDBRANCH  13  14
ENDBRANCH  12  13
ENDBRANCH   1  12
TORSDOF 11
ENDMDL
MODEL 5
REMARK VINA RESULT:      -4.6     15.543     18.282
REMARK  11 active torsions:
REMARK  status: ('A' for Active; 'I' for Inactive)
REMARK    1  A    between atoms: C_1  and  C_3 
REMARK    2  A    between atoms: C_1  and  S_12 
REMARK    3  A    between atoms: C_4  and  C_5 
REMARK    4  A    between atoms: C_5  and  C_6 
REMARK    5  A    between atoms: C_6  and  C_7 
REMARK    6  A    between atoms: C_7  and  C_8 
REMARK    7  A    between atoms: C_8  and  C_9 
REMARK    8  A    between atoms: C_9  and  C_10 
REMARK    9  A    between atoms: S_12  and  C_13 
REMARK   10  A    between atoms: C_13  and  C_14 
REMARK   11  A    between atoms: C_14  and  N_15 
REMARK       I    between atoms: N_15  and  C_16 
ROOT
HETATM    1  C   UNK N   1      19.671  16.272   6.250  0.00  0.00     0.208 C 
HETATM    2  O   UNK N   1      18.824  15.521   5.788  0.00  0.00    -0.281 OA
ENDROOT
BRANCH   1   3
HETATM    3  C   UNK N   1      19.725  16.593   7.692  0.00  0.00     0.058 C 
HETATM    4  C   UNK N   1      20.555  16.037   8.584  0.00  0.00    -0.022 C 
BRANCH   4   5
HETATM    5  C   UNK N   1      21.500  14.929   8.249  0.00  0.00     0.027 C 
BRANCH   5   6
HETATM    6  C   UNK N   1      20.877  13.584   8.553  0.00  0.00     0.004 C 
BRANCH   6   7
HETATM    7  C   UNK N   1      21.180  13.173   9.984  0.00  0.00     0.000 C 
BRANCH   7   8
HETATM    8  C   UNK N   1      22.680  13.097  10.190  0.00  0.00     0.000 C 
BRANCH   8   9
HETATM    9  C   UNK N   1      23.033  11.806  10.912  0.00  0.00    -0.000 C 
BRANCH   9  10
HETATM   10  C   UNK N   1      22.393  11.769  12.286  0.00  0.00    -0.005 C 
HETATM   11  C   UNK N   1      23.442  11.977  13.360  0.00  0.00     0.005 C 
ENDBRANCH   9  10
ENDBRANCH   8   9
ENDBRANCH   7   8
ENDBRANCH   6   7
ENDBRANCH   5   6
ENDBRANCH   4   5
ENDBRANCH   1   3
BRANCH   1  12
HETATM   12  S   UNK N   1      20.871  17.036   5.170  0.00  0.00    -0.086 SA
BRANCH  12  13
HETATM   13  C   UNK N   1      19.714  17.073   3.760  0.00  0.00     0.102 C 
BRANCH  13  14
HETATM   14  C   UNK N   1      20.093  18.089   2.678  0.00  0.00     0.133 C 
BRANCH  14  15
HETATM   15  N   UNK N   1      21.047  19.119   3.056  0.00  0.00    -0.361 N 
HETATM   16  C   UNK N   1      21.344  20.263   2.380  0.00  0.00     0.213 C 
HETATM   17  O   UNK N   1      22.113  21.064   2.882  0.00  0.00    -0.274 OA
HETATM   18  C   UNK N   1      20.764  20.579   1.040  0.00  0.00     0.117 C 
HETATM   19  H   UNK N   1      21.534  18.973   3.899  0.00  0.00     0.162 HD
ENDBRANCH  14  15
ENDBRANCH  13  14
ENDBRANCH  12  13
ENDBRANCH   1  12
TORSDOF 11
ENDMDL
MODEL 6
REMARK VINA RESULT:      -4.6      3.322      5.250
REMARK  11 active torsions:
REMARK  status: ('A' for Active; 'I' for Inactive)
REMARK    1  A    between atoms: C_1  and  C_3 
REMARK    2  A    between atoms: C_1  and  S_12 
REMARK    3  A    between atoms: C_4  and  C_5 
REMARK    4  A    between atoms: C_5  and  C_6 
REMARK    5  A    between atoms: C_6  and  C_7 
REMARK    6  A    between atoms: C_7  and  C_8 
REMARK    7  A    between atoms: C_8  and  C_9 
REMARK    8  A    between atoms: C_9  and  C_10 
REMARK    9  A    between atoms: S_12  and  C_13 
REMARK   10  A    between atoms: C_13  and  C_14 
REMARK   11  A    between atoms: C_14  and  N_15 
REMARK       I    between atoms: N_15  and  C_16 
ROOT
HETATM    1  C   UNK N   1      30.589  23.177  -2.595  0.00  0.00     0.208 C 
HETATM    2  O   UNK N   1      30.278  23.052  -1.420  0.00  0.00    -0.281 OA
ENDROOT
BRANCH   1   3
HETATM    3  C   UNK N   1      30.446  24.465  -3.307  0.00  0.00     0.058 C 
HETATM    4  C   UNK N   1      29.383  24.843  -4.029  0.00  0.00    -0.022 C 
BRANCH   4   5
HETATM    5  C   UNK N   1      28.209  23.956  -4.291  0.00  0.00     0.027 C 
BRANCH   5   6
HETATM    6  C   UNK N   1      27.052  24.317  -3.385  0.00  0.00     0.004 C 
BRANCH   6   7
HETATM    7  C   UNK N   1      26.379  25.589  -3.872  0.00  0.00     0.000 C 
BRANCH   7   8
HETATM    8  C   UNK N   1      25.683  25.329  -5.194  0.00  0.00     0.000 C 
BRANCH   8   9
HETATM    9  C   UNK N   1      25.224  26.647  -5.799  0.00  0.00    -0.000 C 
BRANCH   9  10
HETATM   10  C   UNK N   1      26.251  27.735  -5.553  0.00  0.00    -0.005 C 
HETATM   11  C   UNK N   1      27.231  27.802  -6.708  0.00  0.00     0.005 C 
ENDBRANCH   9  10
ENDBRANCH   8   9
ENDBRANCH   7   8
ENDBRANCH   6   7
ENDBRANCH   5   6
ENDBRANCH   4   5
ENDBRANCH   1   3
BRANCH   1  12
HETATM   12  S   UNK N   1      31.211  21.774  -3.508  0.00  0.00    -0.086 SA
BRANCH  12  13
HETATM   13  C   UNK N   1      32.479  22.771  -4.359  0.00  0.00     0.102 C 
BRANCH  13  14
HETATM   14  C   UNK N   1      33.314  21.978  -5.367  0.00  0.00     0.133 C 
BRANCH  14  15
HETATM   15  N   UNK N   1      34.666  21.627  -4.961  0.00  0.00    -0.361 N 
HETATM   16  C   UNK N   1      35.091  20.453  -4.419  0.00  0.00     0.213 C 
HETATM   17  O   UNK N   1      36.281  20.294  -4.212  0.00  0.00    -0.274 OA
HETATM   18  C   UNK N   1      34.154  19.345  -4.064  0.00  0.00     0.117 C 
HETATM   19  H   UNK N   1      35.353  22.319  -5.095  0.00  0.00     0.162 HD
ENDBRANCH  14  15
ENDBRANCH  13  14
ENDBRANCH  12  13
ENDBRANCH   1  12
TORSDOF 11
ENDMDL
MODEL 7
REMARK VINA RESULT:      -4.5      3.311      5.004
REMARK  11 active torsions:
REMARK  status: ('A' for Active; 'I' for Inactive)
REMARK    1  A    between atoms: C_1  and  C_3 
REMARK    2  A    between atoms: C_1  and  S_12 
REMARK    3  A    between atoms: C_4  and  C_5 
REMARK    4  A    between atoms: C_5  and  C_6 
REMARK    5  A    between atoms: C_6  and  C_7 
REMARK    6  A    between atoms: C_7  and  C_8 
REMARK    7  A    between atoms: C_8  and  C_9 
REMARK    8  A    between atoms: C_9  and  C_10 
REMARK    9  A    between atoms: S_12  and  C_13 
REMARK   10  A    between atoms: C_13  and  C_14 
REMARK   11  A    between atoms: C_14  and  N_15 
REMARK       I    between atoms: N_15  and  C_16 
ROOT
HETATM    1  C   UNK N   1      30.767  23.272  -2.638  0.00  0.00     0.208 C 
HETATM    2  O   UNK N   1      30.403  23.068  -1.489  0.00  0.00    -0.281 OA
ENDROOT
BRANCH   1   3
HETATM    3  C   UNK N   1      30.342  24.474  -3.388  0.00  0.00     0.058 C 
HETATM    4  C   UNK N   1      29.084  24.772  -3.735  0.00  0.00    -0.022 C 
BRANCH   4   5
HETATM    5  C   UNK N   1      27.924  23.865  -3.482  0.00  0.00     0.027 C 
BRANCH   5   6
HETATM    6  C   UNK N   1      26.632  24.508  -3.938  0.00  0.00     0.004 C 
BRANCH   6   7
HETATM    7  C   UNK N   1      26.581  25.961  -3.496  0.00  0.00     0.000 C 
BRANCH   7   8
HETATM    8  C   UNK N   1      25.922  26.803  -4.571  0.00  0.00     0.000 C 
BRANCH   8   9
HETATM    9  C   UNK N   1      25.817  28.245  -4.099  0.00  0.00    -0.000 C 
BRANCH   9  10
HETATM   10  C   UNK N   1      26.814  29.121  -4.830  0.00  0.00    -0.005 C 
HETATM   11  C   UNK N   1      27.275  28.441  -6.104  0.00  0.00     0.005 C 
ENDBRANCH   9  10
ENDBRANCH   8   9
ENDBRANCH   7   8
ENDBRANCH   6   7
ENDBRANCH   5   6
ENDBRANCH   4   5
ENDBRANCH   1   3
BRANCH   1  12
HETATM   12  S   UNK N   1      31.817  22.089  -3.466  0.00  0.00    -0.086 SA
BRANCH  12  13
HETATM   13  C   UNK N   1      30.402  21.071  -4.004  0.00  0.00     0.102 C 
BRANCH  13  14
HETATM   14  C   UNK N   1      30.089  21.189  -5.498  0.00  0.00     0.133 C 
BRANCH  14  15
HETATM   15  N   UNK N   1      30.990  20.501  -6.410  0.00  0.00    -0.361 N 
HETATM   16  C   UNK N   1      30.659  19.651  -7.420  0.00  0.00     0.213 C 
HETATM   17  O   UNK N   1      31.539  19.223  -8.145  0.00  0.00    -0.274 OA
HETATM   18  C   UNK N   1      29.252  19.217  -7.677  0.00  0.00     0.117 C 
HETATM   19  H   UNK N   1      31.951  20.670  -6.281  0.00  0.00     0.162 HD
ENDBRANCH  14  15
ENDBRANCH  13  14
ENDBRANCH  12  13
ENDBRANCH   1  12
TORSDOF 11
ENDMDL
MODEL 8
REMARK VINA RESULT:      -4.5     13.660     17.046
REMARK  11 active torsions:
REMARK  status: ('A' for Active; 'I' for Inactive)
REMARK    1  A    between atoms: C_1  and  C_3 
REMARK    2  A    between atoms: C_1  and  S_12 
REMARK    3  A    between atoms: C_4  and  C_5 
REMARK    4  A    between atoms: C_5  and  C_6 
REMARK    5  A    between atoms: C_6  and  C_7 
REMARK    6  A    between atoms: C_7  and  C_8 
REMARK    7  A    between atoms: C_8  and  C_9 
REMARK    8  A    between atoms: C_9  and  C_10 
REMARK    9  A    between atoms: S_12  and  C_13 
REMARK   10  A    between atoms: C_13  and  C_14 
REMARK   11  A    between atoms: C_14  and  N_15 
REMARK       I    between atoms: N_15  and  C_16 
ROOT
HETATM    1  C   UNK N   1      33.954  17.420   7.608  0.00  0.00     0.208 C 
HETATM    2  O   UNK N   1      34.469  17.886   6.603  0.00  0.00    -0.281 OA
ENDROOT
BRANCH   1   3
HETATM    3  C   UNK N   1      32.770  18.042   8.238  0.00  0.00     0.058 C 
HETATM    4  C   UNK N   1      31.497  17.687   8.026  0.00  0.00    -0.022 C 
BRANCH   4   5
HETATM    5  C   UNK N   1      31.087  16.646   7.033  0.00  0.00     0.027 C 
BRANCH   5   6
HETATM    6  C   UNK N   1      29.626  16.799   6.670  0.00  0.00     0.004 C 
BRANCH   6   7
HETATM    7  C   UNK N   1      29.476  17.692   5.451  0.00  0.00     0.000 C 
BRANCH   7   8
HETATM    8  C   UNK N   1      28.039  18.162   5.331  0.00  0.00     0.000 C 
BRANCH   8   9
HETATM    9  C   UNK N   1      28.010  19.664   5.097  0.00  0.00    -0.000 C 
BRANCH   9  10
HETATM   10  C   UNK N   1      27.222  19.995   3.845  0.00  0.00    -0.005 C 
HETATM   11  C   UNK N   1      26.042  19.054   3.703  0.00  0.00     0.005 C 
ENDBRANCH   9  10
ENDBRANCH   8   9
ENDBRANCH   7   8
ENDBRANCH   6   7
ENDBRANCH   5   6
ENDBRANCH   4   5
ENDBRANCH   1   3
BRANCH   1  12
HETATM   12  S   UNK N   1      34.649  15.963   8.373  0.00  0.00    -0.086 SA
BRANCH  12  13
HETATM   13  C   UNK N   1      34.944  16.822   9.955  0.00  0.00     0.102 C 
BRANCH  13  14
HETATM   14  C   UNK N   1      35.730  15.989  10.972  0.00  0.00     0.133 C 
BRANCH  14  15
HETATM   15  N   UNK N   1      35.106  14.757  11.428  0.00  0.00    -0.361 N 
HETATM   16  C   UNK N   1      35.323  14.102  12.601  0.00  0.00     0.213 C 
HETATM   17  O   UNK N   1      34.650  13.120  12.863  0.00  0.00    -0.274 OA
HETATM   18  C   UNK N   1      36.358  14.538  13.586  0.00  0.00     0.117 C 
HETATM   19  H   UNK N   1      34.450  14.350  10.817  0.00  0.00     0.162 HD
ENDBRANCH  14  15
ENDBRANCH  13  14
ENDBRANCH  12  13
ENDBRANCH   1  12
TORSDOF 11
ENDMDL
MODEL 9
REMARK VINA RESULT:      -4.5     18.278     22.849
REMARK  11 active torsions:
REMARK  status: ('A' for Active; 'I' for Inactive)
REMARK    1  A    between atoms: C_1  and  C_3 
REMARK    2  A    between atoms: C_1  and  S_12 
REMARK    3  A    between atoms: C_4  and  C_5 
REMARK    4  A    between atoms: C_5  and  C_6 
REMARK    5  A    between atoms: C_6  and  C_7 
REMARK    6  A    between atoms: C_7  and  C_8 
REMARK    7  A    between atoms: C_8  and  C_9 
REMARK    8  A    between atoms: C_9  and  C_10 
REMARK    9  A    between atoms: S_12  and  C_13 
REMARK   10  A    between atoms: C_13  and  C_14 
REMARK   11  A    between atoms: C_14  and  N_15 
REMARK       I    between atoms: N_15  and  C_16 
ROOT
HETATM    1  C   UNK N   1      37.316  13.361  10.253  0.00  0.00     0.208 C 
HETATM    2  O   UNK N   1      37.294  12.864   9.136  0.00  0.00    -0.281 OA
ENDROOT
BRANCH   1   3
HETATM    3  C   UNK N   1      37.804  12.611  11.430  0.00  0.00     0.058 C 
HETATM    4  C   UNK N   1      37.034  12.062  12.378  0.00  0.00    -0.022 C 
BRANCH   4   5
HETATM    5  C   UNK N   1      35.548  12.211  12.420  0.00  0.00     0.027 C 
BRANCH   5   6
HETATM    6  C   UNK N   1      35.131  13.094  13.577  0.00  0.00     0.004 C 
BRANCH   6   7
HETATM    7  C   UNK N   1      36.340  13.812  14.154  0.00  0.00     0.000 C 
BRANCH   7   8
HETATM    8  C   UNK N   1      36.357  13.660  15.663  0.00  0.00     0.000 C 
BRANCH   8   9
HETATM    9  C   UNK N   1      35.079  12.974  16.122  0.00  0.00    -0.000 C 
BRANCH   9  10
HETATM   10  C   UNK N   1      35.391  11.864  17.106  0.00  0.00    -0.005 C 
HETATM   11  C   UNK N   1      36.343  10.862  16.482  0.00  0.00     0.005 C 
ENDBRANCH   9  10
ENDBRANCH   8   9
ENDBRANCH   7   8
ENDBRANCH   6   7
ENDBRANCH   5   6
ENDBRANCH   4   5
ENDBRANCH   1   3
BRANCH   1  12
HETATM   12  S   UNK N   1      36.722  15.027  10.501  0.00  0.00    -0.086 SA
BRANCH  12  13
HETATM   13  C   UNK N   1      35.210  14.731   9.524  0.00  0.00     0.102 C 
BRANCH  13  14
HETATM   14  C   UNK N   1      34.250  15.924   9.496  0.00  0.00     0.133 C 
BRANCH  14  15
HETATM   15  N   UNK N   1      34.850  17.241   9.359  0.00  0.00    -0.361 N 
HETATM   16  C   UNK N   1      34.602  18.170   8.395  0.00  0.00     0.213 C 
HETATM   17  O   UNK N   1      35.135  19.263   8.475  0.00  0.00    -0.274 OA
HETATM   18  C   UNK N   1      33.699  17.902   7.234  0.00  0.00     0.117 C 
HETATM   19  H   UNK N   1      35.512  17.491  10.043  0.00  0.00     0.162 HD
ENDBRANCH  14  15
ENDBRANCH  13  14
ENDBRANCH  12  13
ENDBRANCH   1  12
TORSDOF 11
ENDMDL
