MODEL 1
REMARK VINA RESULT:      -4.9      0.000      0.000
REMARK  3 active torsions:
REMARK  status: ('A' for Active; 'I' for Inactive)
REMARK    1  A    between atoms: O_2  and  C_3 
REMARK    2  A    between atoms: C_5  and  C_6 
REMARK    3  A    between atoms: C_10  and  O_11 
ROOT
HETATM    1  C   UNK N   1      24.072  13.008   9.853  0.00  0.00     0.102 A 
HETATM    2  C   UNK N   1      22.818  13.473   9.450  0.00  0.00     0.051 A 
HETATM    3  C   UNK N   1      21.661  13.161  10.172  0.00  0.00    -0.034 A 
HETATM    4  C   UNK N   1      21.756  12.370  11.320  0.00  0.00     0.014 A 
HETATM    5  C   UNK N   1      23.001  11.894  11.742  0.00  0.00     0.040 A 
HETATM    6  C   UNK N   1      24.160  12.204  11.021  0.00  0.00     0.099 A 
ENDROOT
BRANCH   1   7
HETATM    7  O   UNK N   1      25.139  13.358   9.093  0.00  0.00    -0.353 OA
HETATM    8  C   UNK N   1      25.120  13.556   7.732  0.00  0.00     0.210 C 
ENDBRANCH   1   7
BRANCH   6   9
HETATM    9  O   UNK N   1      25.340  11.729  11.456  0.00  0.00    -0.358 OA
HETATM   10  H   UNK N   1      25.448  10.811  11.608  0.00  0.00     0.217 HD
ENDBRANCH   6   9
BRANCH   3  11
HETATM   11  C   UNK N   1      20.346  13.658   9.736  0.00  0.00     0.001 C 
HETATM   12  C   UNK N   1      20.187  14.886   9.236  0.00  0.00     0.012 C 
ENDBRANCH   3  11
TORSDOF 3
ENDMDL
MODEL 2
REMARK VINA RESULT:      -4.8     18.006     20.168
REMARK  3 active torsions:
REMARK  status: ('A' for Active; 'I' for Inactive)
REMARK    1  A    between atoms: O_2  and  C_3 
REMARK    2  A    between atoms: C_5  and  C_6 
REMARK    3  A    between atoms: C_10  and  O_11 
ROOT
HETATM    1  C   UNK N   1      26.198  25.329  -3.956  0.00  0.00     0.102 A 
HETATM    2  C   UNK N   1      26.430  26.598  -3.418  0.00  0.00     0.051 A 
HETATM    3  C   UNK N   1      26.023  27.757  -4.087  0.00  0.00    -0.034 A 
HETATM    4  C   UNK N   1      25.371  27.649  -5.318  0.00  0.00     0.014 A 
HETATM    5  C   UNK N   1      25.128  26.390  -5.875  0.00  0.00     0.040 A 
HETATM    6  C   UNK N   1      25.534  25.230  -5.208  0.00  0.00     0.099 A 
ENDROOT
BRANCH   1   7
HETATM    7  O   UNK N   1      26.627  24.261  -3.239  0.00  0.00    -0.353 OA
HETATM    8  C   UNK N   1      27.938  23.873  -3.090  0.00  0.00     0.210 C 
ENDBRANCH   1   7
BRANCH   6   9
HETATM    9  O   UNK N   1      25.284  24.036  -5.774  0.00  0.00    -0.358 OA
HETATM   10  H   UNK N   1      24.423  23.668  -5.732  0.00  0.00     0.217 HD
ENDBRANCH   6   9
BRANCH   3  11
HETATM   11  C   UNK N   1      26.274  29.087  -3.509  0.00  0.00     0.001 C 
HETATM   12  C   UNK N   1      26.686  30.114  -4.256  0.00  0.00     0.012 C 
ENDBRANCH   3  11
TORSDOF 3
ENDMDL
MODEL 3
REMARK VINA RESULT:      -4.8     12.745     14.429
REMARK  3 active torsions:
REMARK  status: ('A' for Active; 'I' for Inactive)
REMARK    1  A    between atoms: O_2  and  C_3 
REMARK    2  A    between atoms: C_5  and  C_6 
REMARK    3  A    between atoms: C_10  and  O_11 
ROOT
HETATM    1  C   UNK N   1      35.268  13.591  18.125  0.00  0.00     0.102 A 
HETATM    2  C   UNK N   1      34.994  13.279  16.791  0.00  0.00     0.051 A 
HETATM    3  C   UNK N   1      34.858  11.953  16.367  0.00  0.00    -0.034 A 
HETATM    4  C   UNK N   1      34.999  10.916  17.293  0.00  0.00     0.014 A 
HETATM    5  C   UNK N   1      35.273  11.205  18.633  0.00  0.00     0.040 A 
HETATM    6  C   UNK N   1      35.409  12.530  19.059  0.00  0.00     0.099 A 
ENDROOT
BRANCH   1   7
HETATM    7  O   UNK N   1      35.382  14.904  18.446  0.00  0.00    -0.353 OA
HETATM    8  C   UNK N   1      36.297  15.780  17.911  0.00  0.00     0.210 C 
ENDBRANCH   1   7
BRANCH   6   9
HETATM    9  O   UNK N   1      35.673  12.770  20.355  0.00  0.00    -0.358 OA
HETATM   10  H   UNK N   1      36.378  13.339  20.593  0.00  0.00     0.217 HD
ENDBRANCH   6   9
BRANCH   3  11
HETATM   11  C   UNK N   1      34.570  11.639  14.958  0.00  0.00     0.001 C 
HETATM   12  C   UNK N   1      33.660  10.724  14.613  0.00  0.00     0.012 C 
ENDBRANCH   3  11
TORSDOF 3
ENDMDL
MODEL 4
REMARK VINA RESULT:      -4.8      2.116      3.709
REMARK  3 active torsions:
REMARK  status: ('A' for Active; 'I' for Inactive)
REMARK    1  A    between atoms: O_2  and  C_3 
REMARK    2  A    between atoms: C_5  and  C_6 
REMARK    3  A    between atoms: C_10  and  O_11 
ROOT
HETATM    1  C   UNK N   1      21.468  13.004  10.167  0.00  0.00     0.102 A 
HETATM    2  C   UNK N   1      22.600  13.396   9.447  0.00  0.00     0.051 A 
HETATM    3  C   UNK N   1      23.880  12.973   9.819  0.00  0.00    -0.034 A 
HETATM    4  C   UNK N   1      24.036  12.141  10.931  0.00  0.00     0.014 A 
HETATM    5  C   UNK N   1      22.918  11.737  11.666  0.00  0.00     0.040 A 
HETATM    6  C   UNK N   1      21.636  12.159  11.296  0.00  0.00     0.099 A 
ENDROOT
BRANCH   1   7
HETATM    7  O   UNK N   1      20.267  13.463   9.735  0.00  0.00    -0.353 OA
HETATM    8  C   UNK N   1      20.001  14.751   9.334  0.00  0.00     0.210 C 
ENDBRANCH   1   7
BRANCH   6   9
HETATM    9  O   UNK N   1      20.584  11.750  12.026  0.00  0.00    -0.358 OA
HETATM   10  H   UNK N   1      20.190  12.331  12.647  0.00  0.00     0.217 HD
ENDBRANCH   6   9
BRANCH   3  11
HETATM   11  C   UNK N   1      25.064  13.393   9.051  0.00  0.00     0.001 C 
HETATM   12  C   UNK N   1      25.017  13.579   7.730  0.00  0.00     0.012 C 
ENDBRANCH   3  11
TORSDOF 3
ENDMDL
MODEL 5
REMARK VINA RESULT:      -4.7     21.196     23.526
REMARK  3 active torsions:
REMARK  status: ('A' for Active; 'I' for Inactive)
REMARK    1  A    between atoms: O_2  and  C_3 
REMARK    2  A    between atoms: C_5  and  C_6 
REMARK    3  A    between atoms: C_10  and  O_11 
ROOT
HETATM    1  C   UNK N   1      44.034  23.275   3.085  0.00  0.00     0.102 A 
HETATM    2  C   UNK N   1      42.764  23.171   2.512  0.00  0.00     0.051 A 
HETATM    3  C   UNK N   1      42.063  21.961   2.512  0.00  0.00    -0.034 A 
HETATM    4  C   UNK N   1      42.641  20.830   3.095  0.00  0.00     0.014 A 
HETATM    5  C   UNK N   1      43.911  20.911   3.674  0.00  0.00     0.040 A 
HETATM    6  C   UNK N   1      44.613  22.121   3.675  0.00  0.00     0.099 A 
ENDROOT
BRANCH   1   7
HETATM    7  O   UNK N   1      44.640  24.488   3.039  0.00  0.00    -0.353 OA
HETATM    8  C   UNK N   1      45.546  24.893   2.088  0.00  0.00     0.210 C 
ENDBRANCH   1   7
BRANCH   6   9
HETATM    9  O   UNK N   1      45.832  22.161   4.241  0.00  0.00    -0.358 OA
HETATM   10  H   UNK N   1      46.429  21.449   4.121  0.00  0.00     0.217 HD
ENDBRANCH   6   9
BRANCH   3  11
HETATM   11  C   UNK N   1      40.726  21.865   1.905  0.00  0.00     0.001 C 
HETATM   12  C   UNK N   1      39.888  20.869   2.200  0.00  0.00     0.012 C 
ENDBRANCH   3  11
TORSDOF 3
ENDMDL
MODEL 6
REMARK VINA RESULT:      -4.6      8.630     10.559
REMARK  3 active torsions:
REMARK  status: ('A' for Active; 'I' for Inactive)
REMARK    1  A    between atoms: O_2  and  C_3 
REMARK    2  A    between atoms: C_5  and  C_6 
REMARK    3  A    between atoms: C_10  and  O_11 
ROOT
HETATM    1  C   UNK N   1      20.532  18.377   1.171  0.00  0.00     0.102 A 
HETATM    2  C   UNK N   1      20.634  17.704   2.392  0.00  0.00     0.051 A 
HETATM    3  C   UNK N   1      20.897  18.392   3.581  0.00  0.00    -0.034 A 
HETATM    4  C   UNK N   1      21.061  19.779   3.553  0.00  0.00     0.014 A 
HETATM    5  C   UNK N   1      20.963  20.473   2.343  0.00  0.00     0.040 A 
HETATM    6  C   UNK N   1      20.701  19.787   1.153  0.00  0.00     0.099 A 
ENDROOT
BRANCH   1   7
HETATM    7  O   UNK N   1      20.276  17.629   0.069  0.00  0.00    -0.353 OA
HETATM    8  C   UNK N   1      19.479  16.509   0.031  0.00  0.00     0.210 C 
ENDBRANCH   1   7
BRANCH   6   9
HETATM    9  O   UNK N   1      20.614  20.486   0.008  0.00  0.00    -0.358 OA
HETATM   10  H   UNK N   1      21.391  20.713  -0.464  0.00  0.00     0.217 HD
ENDBRANCH   6   9
BRANCH   3  11
HETATM   11  C   UNK N   1      21.002  17.671   4.860  0.00  0.00     0.001 C 
HETATM   12  C   UNK N   1      21.426  18.272   5.974  0.00  0.00     0.012 C 
ENDBRANCH   3  11
TORSDOF 3
ENDMDL
MODEL 7
REMARK VINA RESULT:      -4.6      7.453      9.361
REMARK  3 active torsions:
REMARK  status: ('A' for Active; 'I' for Inactive)
REMARK    1  A    between atoms: O_2  and  C_3 
REMARK    2  A    between atoms: C_5  and  C_6 
REMARK    3  A    between atoms: C_10  and  O_11 
ROOT
HETATM    1  C   UNK N   1      28.732  17.284   7.618  0.00  0.00     0.102 A 
HETATM    2  C   UNK N   1      30.018  17.097   7.105  0.00  0.00     0.051 A 
HETATM    3  C   UNK N   1      31.143  17.613   7.757  0.00  0.00    -0.034 A 
HETATM    4  C   UNK N   1      30.982  18.332   8.944  0.00  0.00     0.014 A 
HETATM    5  C   UNK N   1      29.705  18.532   9.475  0.00  0.00     0.040 A 
HETATM    6  C   UNK N   1      28.578  18.016   8.825  0.00  0.00     0.099 A 
ENDROOT
BRANCH   1   7
HETATM    7  O   UNK N   1      27.700  16.748   6.920  0.00  0.00    -0.353 OA
HETATM    8  C   UNK N   1      27.121  17.299   5.800  0.00  0.00     0.210 C 
ENDBRANCH   1   7
BRANCH   6   9
HETATM    9  O   UNK N   1      27.365  18.228   9.365  0.00  0.00    -0.358 OA
HETATM   10  H   UNK N   1      27.104  19.094   9.607  0.00  0.00     0.217 HD
ENDBRANCH   6   9
BRANCH   3  11
HETATM   11  C   UNK N   1      32.492  17.408   7.205  0.00  0.00     0.001 C 
HETATM   12  C   UNK N   1      33.557  18.051   7.692  0.00  0.00     0.012 C 
ENDBRANCH   3  11
TORSDOF 3
ENDMDL
MODEL 8
REMARK VINA RESULT:      -4.5     12.308     13.928
REMARK  3 active torsions:
REMARK  status: ('A' for Active; 'I' for Inactive)
REMARK    1  A    between atoms: O_2  and  C_3 
REMARK    2  A    between atoms: C_5  and  C_6 
REMARK    3  A    between atoms: C_10  and  O_11 
ROOT
HETATM    1  C   UNK N   1      35.666  13.478  16.264  0.00  0.00     0.102 A 
HETATM    2  C   UNK N   1      34.738  12.501  15.895  0.00  0.00     0.051 A 
HETATM    3  C   UNK N   1      34.766  11.915  14.625  0.00  0.00    -0.034 A 
HETATM    4  C   UNK N   1      35.740  12.311  13.705  0.00  0.00     0.014 A 
HETATM    5  C   UNK N   1      36.679  13.286  14.053  0.00  0.00     0.040 A 
HETATM    6  C   UNK N   1      36.652  13.874  15.322  0.00  0.00     0.099 A 
ENDROOT
BRANCH   1   7
HETATM    7  O   UNK N   1      35.563  13.992  17.516  0.00  0.00    -0.353 OA
HETATM    8  C   UNK N   1      35.191  13.291  18.639  0.00  0.00     0.210 C 
ENDBRANCH   1   7
BRANCH   6   9
HETATM    9  O   UNK N   1      37.571  14.809  15.622  0.00  0.00    -0.358 OA
HETATM   10  H   UNK N   1      37.352  15.513  16.201  0.00  0.00     0.217 HD
ENDBRANCH   6   9
BRANCH   3  11
HETATM   11  C   UNK N   1      33.782  10.887  14.249  0.00  0.00     0.001 C 
HETATM   12  C   UNK N   1      33.827  10.268  13.067  0.00  0.00     0.012 C 
ENDBRANCH   3  11
TORSDOF 3
ENDMDL
MODEL 9
REMARK VINA RESULT:      -4.5     12.134     13.213
REMARK  3 active torsions:
REMARK  status: ('A' for Active; 'I' for Inactive)
REMARK    1  A    between atoms: O_2  and  C_3 
REMARK    2  A    between atoms: C_5  and  C_6 
REMARK    3  A    between atoms: C_10  and  O_11 
ROOT
HETATM    1  C   UNK N   1      34.805  12.704  14.128  0.00  0.00     0.102 A 
HETATM    2  C   UNK N   1      35.076  12.876  15.488  0.00  0.00     0.051 A 
HETATM    3  C   UNK N   1      34.944  11.819  16.395  0.00  0.00    -0.034 A 
HETATM    4  C   UNK N   1      34.534  10.565  15.936  0.00  0.00     0.014 A 
HETATM    5  C   UNK N   1      34.258  10.370  14.580  0.00  0.00     0.040 A 
HETATM    6  C   UNK N   1      34.389  11.426  13.671  0.00  0.00     0.099 A 
ENDROOT
BRANCH   1   7
HETATM    7  O   UNK N   1      34.960  13.784  13.322  0.00  0.00    -0.353 OA
HETATM    8  C   UNK N   1      36.144  14.444  13.088  0.00  0.00     0.210 C 
ENDBRANCH   1   7
BRANCH   6   9
HETATM    9  O   UNK N   1      34.115  11.201  12.374  0.00  0.00    -0.358 OA
HETATM   10  H   UNK N   1      34.529  11.718  11.711  0.00  0.00     0.217 HD
ENDBRANCH   6   9
BRANCH   3  11
HETATM   11  C   UNK N   1      35.232  12.014  17.825  0.00  0.00     0.001 C 
HETATM   12  C   UNK N   1      35.211  13.224  18.389  0.00  0.00     0.012 C 
ENDBRANCH   3  11
TORSDOF 3
ENDMDL
