REMARK  7 active torsions:
REMARK  status: ('A' for Active; 'I' for Inactive)
REMARK    1  A    between atoms: C_1  and  O_7 
REMARK    2  A    between atoms: C_2  and  O_8 
REMARK    3  A    between atoms: C_3  and  O_9 
REMARK    4  A    between atoms: C_4  and  O_10 
REMARK    5  A    between atoms: C_5  and  O_11 
REMARK    6  A    between atoms: C_6  and  O_15 
REMARK    7  A    between atoms: P_16  and  O_15 
ROOT
HETATM    1  C   UNK N   1       2.140   1.411   0.356  0.00  0.00     0.180 C 
HETATM    2  C   UNK N   1       0.880   1.976  -0.317  0.00  0.00     0.180 C 
HETATM    3  C   UNK N   1       2.313  -0.067  -0.021  0.00  0.00     0.180 C 
HETATM    4  C   UNK N   1      -0.357   1.175   0.125  0.00  0.00     0.181 C 
HETATM    5  C   UNK N   1       1.087  -0.883   0.424  0.00  0.00     0.181 C 
HETATM    6  C   UNK N   1      -0.218  -0.328  -0.206  0.00  0.00     0.198 C 
ENDROOT
BRANCH   6   7
HETATM    7  O   UNK N   1      -1.355  -0.975   0.339  0.00  0.00    -0.272 OA
BRANCH   7   8
HETATM    8  P   UNK N   1      -1.751  -2.471  -0.494  0.00  0.00     0.422 P 
HETATM    9  O   UNK N   1      -0.880  -3.831   0.140  0.00  0.00    -0.617 OA
HETATM   10  O   UNK N   1      -3.456  -2.774  -0.380  0.00  0.00    -0.617 OA
HETATM   11  O   UNK N   1      -1.430  -2.349  -2.008  0.00  0.00    -0.617 OA
ENDBRANCH   7   8
ENDBRANCH   6   7
BRANCH   4  12
HETATM   12  O   UNK N   1      -1.496   1.690  -0.503  0.00  0.00    -0.390 OA
HETATM   13  H   UNK N   1      -1.582   2.552  -0.938  0.00  0.00     0.210 HD
ENDBRANCH   4  12
BRANCH   5  14
HETATM   14  O   UNK N   1       1.281  -2.213   0.052  0.00  0.00    -0.390 OA
HETATM   15  H   UNK N   1       0.547  -2.793  -0.207  0.00  0.00     0.210 HD
ENDBRANCH   5  14
BRANCH   2  16
HETATM   16  O   UNK N   1       0.722   3.318   0.038  0.00  0.00    -0.390 OA
HETATM   17  H   UNK N   1       1.474   3.879   0.285  0.00  0.00     0.210 HD
ENDBRANCH   2  16
BRANCH   3  18
HETATM   18  O   UNK N   1       3.461  -0.576   0.594  0.00  0.00    -0.390 OA
HETATM   19  H   UNK N   1       3.553  -1.443   1.021  0.00  0.00     0.210 HD
ENDBRANCH   3  18
BRANCH   1  20
HETATM   20  O   UNK N   1       3.261   2.138  -0.053  0.00  0.00    -0.390 OA
HETATM   21  H   UNK N   1       4.087   1.716  -0.337  0.00  0.00     0.210 HD
ENDBRANCH   1  20
TORSDOF 7
