MODEL 1
REMARK VINA RESULT:      -6.0      0.000      0.000
REMARK WARNING: 32 MAX_TORS EXCEEDED!!!
REMARK  33 active torsions:
REMARK  status: ('A' for Active; 'I' for Inactive)
REMARK    1  A    between atoms: C_1  and  N_2 
REMARK    2  A    between atoms: C_1  and  C_3 
REMARK    3  A    between atoms: C_1  and  C_4 
REMARK       I    between atoms: N_2  and  C_5 
REMARK       I    between atoms: C_3  and  N_6 
REMARK    4  A    between atoms: C_4  and  S_8 
REMARK    5  A    between atoms: C_5  and  C_9 
REMARK    6  A    between atoms: N_6  and  C_11 
REMARK    7  A    between atoms: C_9  and  C_13 
REMARK    8  A    between atoms: C_11  and  C_14 
REMARK    9  A    between atoms: S_12  and  C_15 
REMARK   10  A    between atoms: C_13  and  C_16 
REMARK       I    between atoms: C_14  and  N_17 
REMARK   11  A    between atoms: C_15  and  C_19 
REMARK   12  A    between atoms: C_16  and  C_20 
REMARK   13  A    between atoms: C_16  and  N_21 
REMARK   14  A    between atoms: N_17  and  C_22 
REMARK   15  A    between atoms: C_19  and  N_23 
REMARK   16  A    between atoms: C_19  and  C_24 
REMARK   17  A    between atoms: C_20  and  O_25 
REMARK   18  A    between atoms: C_22  and  C_27 
REMARK       I    between atoms: N_23  and  C_28 
REMARK       I    between atoms: C_24  and  N_29 
REMARK   19  A    between atoms: C_27  and  C_31 
REMARK   20  A    between atoms: C_28  and  C_32 
REMARK   21  A    between atoms: N_29  and  C_34 
REMARK   22  A    between atoms: C_31  and  C_35 
REMARK   23  A    between atoms: C_32  and  C_36 
REMARK   24  A    between atoms: C_34  and  C_37 
REMARK   25  A    between atoms: C_35  and  N_38 
REMARK   26  A    between atoms: C_36  and  C_39 
REMARK       I    between atoms: C_37  and  N_40 
REMARK   27  A    between atoms: N_38  and  C_42 
REMARK   28  A    between atoms: C_39  and  C_43 
REMARK   29  A    between atoms: C_39  and  N_44 
REMARK   30  A    between atoms: N_40  and  C_45 
REMARK   31  A    between atoms: C_42  and  C_46 
REMARK   32  A    between atoms: C_43  and  O_47 
REMARK   33  A    between atoms: C_45  and  C_46 
ROOT
HETATM    1  N   UNK N   1      22.224  14.311   2.262  0.00  0.00    -0.421 N 
HETATM    2  H   UNK N   1      22.469  14.204   3.246  0.00  0.00     0.153 HD
ENDROOT
BRANCH   1   3
HETATM    3  C   UNK N   1      23.144  14.306   1.139  0.00  0.00     0.113 C 
BRANCH   3   4
HETATM    4  C   UNK N   1      24.510  14.802   1.574  0.00  0.00     0.021 C 
BRANCH   4   5
HETATM    5  C   UNK N   1      24.553  14.745   3.081  0.00  0.00     0.021 C 
BRANCH   5   6
HETATM    6  C   UNK N   1      25.629  15.661   3.610  0.00  0.00     0.122 C 
BRANCH   6   7
HETATM    7  N   UNK N   1      26.726  15.664   2.678  0.00  0.00    -0.360 N 
HETATM    8  C   UNK N   1      28.007  15.503   3.078  0.00  0.00     0.235 C 
HETATM    9  O   UNK N   1      28.899  15.490   2.245  0.00  0.00    -0.272 OA
HETATM   10  H   UNK N   1      26.538  15.787   1.720  0.00  0.00     0.162 HD
BRANCH   8  11
HETATM   11  C   UNK N   1      28.346  15.298   4.520  0.00  0.00     0.225 C 
BRANCH  11  12
HETATM   12  N   UNK N   1      28.667  16.574   5.109  0.00  0.00    -0.351 N 
HETATM   13  C   UNK N   1      28.159  16.944   6.312  0.00  0.00     0.241 C 
HETATM   14  O   UNK N   1      27.445  16.179   6.937  0.00  0.00    -0.271 OA
HETATM   15  H   UNK N   1      29.267  17.189   4.629  0.00  0.00     0.163 HD
BRANCH  13  16
HETATM   16  C   UNK N   1      28.488  18.294   6.906  0.00  0.00     0.185 C 
BRANCH  16  17
HETATM   17  N   UNK N   1      27.439  19.208   6.514  0.00  0.00    -0.347 N 
HETATM   18  C   UNK N   1      27.511  19.914   5.360  0.00  0.00     0.218 C 
HETATM   19  O   UNK N   1      28.524  19.883   4.675  0.00  0.00    -0.274 OA
HETATM   20  H   UNK N   1      26.654  19.320   7.098  0.00  0.00     0.163 HD
BRANCH  18  21
HETATM   21  C   UNK N   1      26.290  20.580   4.823  0.00  0.00     0.105 C 
BRANCH  21  22
HETATM   22  C   UNK N   1      25.004  19.816   5.077  0.00  0.00     0.044 C 
BRANCH  22  23
HETATM   23  C   UNK N   1      24.372  19.392   3.749  0.00  0.00     0.173 C 
BRANCH  23  24
HETATM   24  C   UNK N   1      24.131  20.543   2.803  0.00  0.00     0.163 C 
HETATM   25  O   UNK N   1      23.244  21.348   3.034  0.00  0.00    -0.648 OA
BRANCH  24  26
HETATM   26  O   UNK N   1      24.917  20.714   1.723  0.00  0.00    -0.775 OA
HETATM   27  H   UNK N   1      25.470  21.467   1.654  0.00  0.00     0.167 HD
ENDBRANCH  24  26
ENDBRANCH  23  24
BRANCH  23  28
HETATM   28  N   UNK N   1      23.129  18.686   4.015  0.00  0.00    -0.418 N 
HETATM   29  H   UNK N   1      22.180  18.984   3.789  0.00  0.00     0.150 HD
HETATM   30  H   UNK N   1      23.217  17.784   4.486  0.00  0.00     0.150 HD
ENDBRANCH  23  28
ENDBRANCH  22  23
ENDBRANCH  21  22
ENDBRANCH  18  21
ENDBRANCH  16  17
BRANCH  16  31
HETATM   31  C   UNK N   1      28.642  18.282   8.423  0.00  0.00     0.105 C 
BRANCH  31  32
HETATM   32  S   UNK N   1      30.239  17.569   8.928  0.00  0.00    -0.180 SA
HETATM   33  H   UNK N   1      30.379  16.433   9.663  0.00  0.00     0.101 HD
ENDBRANCH  31  32
ENDBRANCH  16  31
ENDBRANCH  13  16
ENDBRANCH  11  12
ENDBRANCH   8  11
ENDBRANCH   6   7
ENDBRANCH   5   6
ENDBRANCH   4   5
ENDBRANCH   3   4
ENDBRANCH   1   3
BRANCH   1  34
HETATM   34  C   UNK N   1      20.889  14.494   1.717  0.00  0.00     0.115 C 
BRANCH  34  35
HETATM   35  C   UNK N   1      20.625  15.975   1.575  0.00  0.00     0.039 C 
BRANCH  35  36
HETATM   36  C   UNK N   1      20.516  16.614   2.937  0.00  0.00     0.124 C 
BRANCH  36  37
HETATM   37  N   UNK N   1      19.314  16.143   3.577  0.00  0.00    -0.360 N 
HETATM   38  C   UNK N   1      19.169  16.105   4.924  0.00  0.00     0.235 C 
HETATM   39  O   UNK N   1      18.126  15.695   5.402  0.00  0.00    -0.272 OA
HETATM   40  H   UNK N   1      18.567  15.837   3.013  0.00  0.00     0.162 HD
BRANCH  38  41
HETATM   41  C   UNK N   1      20.258  16.566   5.843  0.00  0.00     0.225 C 
BRANCH  41  42
HETATM   42  N   UNK N   1      21.060  15.448   6.282  0.00  0.00    -0.351 N 
HETATM   43  C   UNK N   1      22.414  15.465   6.300  0.00  0.00     0.241 C 
HETATM   44  O   UNK N   1      23.036  16.467   5.975  0.00  0.00    -0.271 OA
HETATM   45  H   UNK N   1      20.599  14.632   6.583  0.00  0.00     0.163 HD
BRANCH  43  46
HETATM   46  C   UNK N   1      23.127  14.276   6.848  0.00  0.00     0.185 C 
BRANCH  46  47
HETATM   47  C   UNK N   1      24.652  14.376   6.902  0.00  0.00     0.105 C 
BRANCH  47  48
HETATM   48  S   UNK N   1      25.428  12.838   6.319  0.00  0.00    -0.180 SA
HETATM   49  H   UNK N   1      24.785  11.639   6.323  0.00  0.00     0.101 HD
ENDBRANCH  47  48
ENDBRANCH  46  47
BRANCH  46  50
HETATM   50  N   UNK N   1      22.495  13.892   8.089  0.00  0.00    -0.347 N 
HETATM   51  C   UNK N   1      21.951  12.679   8.336  0.00  0.00     0.218 C 
HETATM   52  O   UNK N   1      21.781  11.864   7.442  0.00  0.00    -0.274 OA
HETATM   53  H   UNK N   1      22.457  14.563   8.807  0.00  0.00     0.163 HD
BRANCH  51  54
HETATM   54  C   UNK N   1      21.672  12.293   9.743  0.00  0.00     0.105 C 
BRANCH  54  55
HETATM   55  C   UNK N   1      22.667  13.001  10.657  0.00  0.00     0.044 C 
BRANCH  55  56
HETATM   56  C   UNK N   1      23.591  11.988  11.330  0.00  0.00     0.173 C 
BRANCH  56  57
HETATM   57  C   UNK N   1      23.264  11.835  12.792  0.00  0.00     0.163 C 
HETATM   58  O   UNK N   1      23.985  12.325  13.645  0.00  0.00    -0.648 OA
BRANCH  57  59
HETATM   59  O   UNK N   1      22.174  11.137  13.166  0.00  0.00    -0.775 OA
HETATM   60  H   UNK N   1      22.116  10.207  13.264  0.00  0.00     0.167 HD
ENDBRANCH  57  59
ENDBRANCH  56  57
BRANCH  56  61
HETATM   61  N   UNK N   1      24.977  12.382  11.133  0.00  0.00    -0.418 N 
HETATM   62  H   UNK N   1      25.655  12.497  11.886  0.00  0.00     0.150 HD
HETATM   63  H   UNK N   1      25.292  12.553  10.179  0.00  0.00     0.150 HD
ENDBRANCH  56  61
ENDBRANCH  55  56
ENDBRANCH  54  55
ENDBRANCH  51  54
ENDBRANCH  46  50
ENDBRANCH  43  46
ENDBRANCH  41  42
ENDBRANCH  38  41
ENDBRANCH  36  37
ENDBRANCH  35  36
ENDBRANCH  34  35
ENDBRANCH   1  34
TORSDOF 33
ENDMDL
MODEL 2
REMARK VINA RESULT:      -5.9      6.911     11.759
REMARK WARNING: 32 MAX_TORS EXCEEDED!!!
REMARK  33 active torsions:
REMARK  status: ('A' for Active; 'I' for Inactive)
REMARK    1  A    between atoms: C_1  and  N_2 
REMARK    2  A    between atoms: C_1  and  C_3 
REMARK    3  A    between atoms: C_1  and  C_4 
REMARK       I    between atoms: N_2  and  C_5 
REMARK       I    between atoms: C_3  and  N_6 
REMARK    4  A    between atoms: C_4  and  S_8 
REMARK    5  A    between atoms: C_5  and  C_9 
REMARK    6  A    between atoms: N_6  and  C_11 
REMARK    7  A    between atoms: C_9  and  C_13 
REMARK    8  A    between atoms: C_11  and  C_14 
REMARK    9  A    between atoms: S_12  and  C_15 
REMARK   10  A    between atoms: C_13  and  C_16 
REMARK       I    between atoms: C_14  and  N_17 
REMARK   11  A    between atoms: C_15  and  C_19 
REMARK   12  A    between atoms: C_16  and  C_20 
REMARK   13  A    between atoms: C_16  and  N_21 
REMARK   14  A    between atoms: N_17  and  C_22 
REMARK   15  A    between atoms: C_19  and  N_23 
REMARK   16  A    between atoms: C_19  and  C_24 
REMARK   17  A    between atoms: C_20  and  O_25 
REMARK   18  A    between atoms: C_22  and  C_27 
REMARK       I    between atoms: N_23  and  C_28 
REMARK       I    between atoms: C_24  and  N_29 
REMARK   19  A    between atoms: C_27  and  C_31 
REMARK   20  A    between atoms: C_28  and  C_32 
REMARK   21  A    between atoms: N_29  and  C_34 
REMARK   22  A    between atoms: C_31  and  C_35 
REMARK   23  A    between atoms: C_32  and  C_36 
REMARK   24  A    between atoms: C_34  and  C_37 
REMARK   25  A    between atoms: C_35  and  N_38 
REMARK   26  A    between atoms: C_36  and  C_39 
REMARK       I    between atoms: C_37  and  N_40 
REMARK   27  A    between atoms: N_38  and  C_42 
REMARK   28  A    between atoms: C_39  and  C_43 
REMARK   29  A    between atoms: C_39  and  N_44 
REMARK   30  A    between atoms: N_40  and  C_45 
REMARK   31  A    between atoms: C_42  and  C_46 
REMARK   32  A    between atoms: C_43  and  O_47 
REMARK   33  A    between atoms: C_45  and  C_46 
ROOT
HETATM    1  N   UNK N   1      30.848  16.981   9.079  0.00  0.00    -0.421 N 
HETATM    2  H   UNK N   1      30.448  16.231   9.643  0.00  0.00     0.153 HD
ENDROOT
BRANCH   1   3
HETATM    3  C   UNK N   1      32.045  16.900   8.263  0.00  0.00     0.113 C 
BRANCH   3   4
HETATM    4  C   UNK N   1      32.637  18.281   8.056  0.00  0.00     0.021 C 
BRANCH   4   5
HETATM    5  C   UNK N   1      34.123  18.176   8.289  0.00  0.00     0.021 C 
BRANCH   5   6
HETATM    6  C   UNK N   1      34.519  16.736   8.509  0.00  0.00     0.122 C 
BRANCH   6   7
HETATM    7  N   UNK N   1      35.296  16.657   9.719  0.00  0.00    -0.360 N 
HETATM    8  C   UNK N   1      34.980  15.803  10.719  0.00  0.00     0.235 C 
HETATM    9  O   UNK N   1      35.683  15.757  11.715  0.00  0.00    -0.272 OA
HETATM   10  H   UNK N   1      36.080  17.242   9.823  0.00  0.00     0.162 HD
BRANCH   8  11
HETATM   11  C   UNK N   1      33.807  14.882  10.606  0.00  0.00     0.225 C 
BRANCH  11  12
HETATM   12  N   UNK N   1      34.183  13.584  11.106  0.00  0.00    -0.351 N 
HETATM   13  C   UNK N   1      34.411  12.543  10.266  0.00  0.00     0.241 C 
HETATM   14  O   UNK N   1      34.336  12.701   9.060  0.00  0.00    -0.271 OA
HETATM   15  H   UNK N   1      34.277  13.450  12.076  0.00  0.00     0.163 HD
BRANCH  13  16
HETATM   16  C   UNK N   1      34.784  11.182  10.807  0.00  0.00     0.185 C 
BRANCH  16  17
HETATM   17  N   UNK N   1      34.004  10.963  12.004  0.00  0.00    -0.347 N 
HETATM   18  C   UNK N   1      34.587  10.596  13.171  0.00  0.00     0.218 C 
HETATM   19  O   UNK N   1      35.780  10.326  13.212  0.00  0.00    -0.274 OA
HETATM   20  H   UNK N   1      33.028  11.083  11.972  0.00  0.00     0.163 HD
BRANCH  18  21
HETATM   21  C   UNK N   1      33.822  10.702  14.445  0.00  0.00     0.105 C 
BRANCH  21  22
HETATM   22  C   UNK N   1      34.664  11.102  15.642  0.00  0.00     0.044 C 
BRANCH  22  23
HETATM   23  C   UNK N   1      34.649  12.623  15.813  0.00  0.00     0.173 C 
BRANCH  23  24
HETATM   24  C   UNK N   1      35.647  13.336  14.933  0.00  0.00     0.163 C 
HETATM   25  O   UNK N   1      36.823  13.382  15.255  0.00  0.00    -0.648 OA
BRANCH  24  26
HETATM   26  O   UNK N   1      35.257  13.889  13.768  0.00  0.00    -0.775 OA
HETATM   27  H   UNK N   1      34.394  14.245  13.679  0.00  0.00     0.167 HD
ENDBRANCH  24  26
ENDBRANCH  23  24
BRANCH  23  28
HETATM   28  N   UNK N   1      34.881  12.950  17.210  0.00  0.00    -0.418 N 
HETATM   29  H   UNK N   1      35.041  13.871  17.618  0.00  0.00     0.150 HD
HETATM   30  H   UNK N   1      34.885  12.163  17.861  0.00  0.00     0.150 HD
ENDBRANCH  23  28
ENDBRANCH  22  23
ENDBRANCH  21  22
ENDBRANCH  18  21
ENDBRANCH  16  17
BRANCH  16  31
HETATM   31  C   UNK N   1      34.569  10.042   9.817  0.00  0.00     0.105 C 
BRANCH  31  32
HETATM   32  S   UNK N   1      35.746   8.682  10.098  0.00  0.00    -0.180 SA
HETATM   33  H   UNK N   1      36.815   8.748  10.937  0.00  0.00     0.101 HD
ENDBRANCH  31  32
ENDBRANCH  16  31
ENDBRANCH  13  16
ENDBRANCH  11  12
ENDBRANCH   8  11
ENDBRANCH   6   7
ENDBRANCH   5   6
ENDBRANCH   4   5
ENDBRANCH   3   4
ENDBRANCH   1   3
BRANCH   1  34
HETATM   34  C   UNK N   1      30.327  18.330   8.941  0.00  0.00     0.115 C 
BRANCH  34  35
HETATM   35  C   UNK N   1      28.823  18.284   9.079  0.00  0.00     0.039 C 
BRANCH  35  36
HETATM   36  C   UNK N   1      28.174  18.937   7.884  0.00  0.00     0.124 C 
BRANCH  36  37
HETATM   37  N   UNK N   1      27.247  19.938   8.347  0.00  0.00    -0.360 N 
HETATM   38  C   UNK N   1      26.687  20.855   7.522  0.00  0.00     0.235 C 
HETATM   39  O   UNK N   1      25.910  21.676   7.978  0.00  0.00    -0.272 OA
HETATM   40  H   UNK N   1      27.011  19.957   9.303  0.00  0.00     0.162 HD
BRANCH  38  41
HETATM   41  C   UNK N   1      26.991  20.879   6.055  0.00  0.00     0.225 C 
BRANCH  41  42
HETATM   42  N   UNK N   1      26.082  20.020   5.334  0.00  0.00    -0.351 N 
HETATM   43  C   UNK N   1      26.350  19.516   4.106  0.00  0.00     0.241 C 
HETATM   44  O   UNK N   1      27.418  19.738   3.553  0.00  0.00    -0.271 OA
HETATM   45  H   UNK N   1      25.223  19.788   5.756  0.00  0.00     0.163 HD
BRANCH  43  46
HETATM   46  C   UNK N   1      25.364  18.576   3.497  0.00  0.00     0.185 C 
BRANCH  46  47
HETATM   47  C   UNK N   1      25.467  17.117   3.944  0.00  0.00     0.105 C 
BRANCH  47  48
HETATM   48  S   UNK N   1      25.497  15.998   2.511  0.00  0.00    -0.180 SA
HETATM   49  H   UNK N   1      25.434  14.644   2.630  0.00  0.00     0.101 HD
ENDBRANCH  47  48
ENDBRANCH  46  47
BRANCH  46  50
HETATM   50  N   UNK N   1      24.047  19.159   3.605  0.00  0.00    -0.347 N 
HETATM   51  C   UNK N   1      23.607  20.214   2.883  0.00  0.00     0.218 C 
HETATM   52  O   UNK N   1      24.373  20.886   2.208  0.00  0.00    -0.274 OA
HETATM   53  H   UNK N   1      23.423  18.758   4.252  0.00  0.00     0.163 HD
BRANCH  51  54
HETATM   54  C   UNK N   1      22.147  20.476   2.816  0.00  0.00     0.105 C 
BRANCH  54  55
HETATM   55  C   UNK N   1      21.399  19.153   2.956  0.00  0.00     0.044 C 
BRANCH  55  56
HETATM   56  C   UNK N   1      20.262  19.072   1.940  0.00  0.00     0.173 C 
BRANCH  56  57
HETATM   57  C   UNK N   1      20.239  17.733   1.249  0.00  0.00     0.163 C 
HETATM   58  O   UNK N   1      20.187  16.701   1.897  0.00  0.00    -0.648 OA
BRANCH  57  59
HETATM   59  O   UNK N   1      20.292  17.671  -0.095  0.00  0.00    -0.775 OA
HETATM   60  H   UNK N   1      19.733  17.163  -0.650  0.00  0.00     0.167 HD
ENDBRANCH  57  59
ENDBRANCH  56  57
BRANCH  56  61
HETATM   61  N   UNK N   1      20.381  20.161   0.983  0.00  0.00    -0.418 N 
HETATM   62  H   UNK N   1      20.620  21.121   1.230  0.00  0.00     0.150 HD
HETATM   63  H   UNK N   1      20.216  19.950  -0.001  0.00  0.00     0.150 HD
ENDBRANCH  56  61
ENDBRANCH  55  56
ENDBRANCH  54  55
ENDBRANCH  51  54
ENDBRANCH  46  50
ENDBRANCH  43  46
ENDBRANCH  41  42
ENDBRANCH  38  41
ENDBRANCH  36  37
ENDBRANCH  35  36
ENDBRANCH  34  35
ENDBRANCH   1  34
TORSDOF 33
ENDMDL
MODEL 3
REMARK VINA RESULT:      -5.9      3.314      8.447
REMARK WARNING: 32 MAX_TORS EXCEEDED!!!
REMARK  33 active torsions:
REMARK  status: ('A' for Active; 'I' for Inactive)
REMARK    1  A    between atoms: C_1  and  N_2 
REMARK    2  A    between atoms: C_1  and  C_3 
REMARK    3  A    between atoms: C_1  and  C_4 
REMARK       I    between atoms: N_2  and  C_5 
REMARK       I    between atoms: C_3  and  N_6 
REMARK    4  A    between atoms: C_4  and  S_8 
REMARK    5  A    between atoms: C_5  and  C_9 
REMARK    6  A    between atoms: N_6  and  C_11 
REMARK    7  A    between atoms: C_9  and  C_13 
REMARK    8  A    between atoms: C_11  and  C_14 
REMARK    9  A    between atoms: S_12  and  C_15 
REMARK   10  A    between atoms: C_13  and  C_16 
REMARK       I    between atoms: C_14  and  N_17 
REMARK   11  A    between atoms: C_15  and  C_19 
REMARK   12  A    between atoms: C_16  and  C_20 
REMARK   13  A    between atoms: C_16  and  N_21 
REMARK   14  A    between atoms: N_17  and  C_22 
REMARK   15  A    between atoms: C_19  and  N_23 
REMARK   16  A    between atoms: C_19  and  C_24 
REMARK   17  A    between atoms: C_20  and  O_25 
REMARK   18  A    between atoms: C_22  and  C_27 
REMARK       I    between atoms: N_23  and  C_28 
REMARK       I    between atoms: C_24  and  N_29 
REMARK   19  A    between atoms: C_27  and  C_31 
REMARK   20  A    between atoms: C_28  and  C_32 
REMARK   21  A    between atoms: N_29  and  C_34 
REMARK   22  A    between atoms: C_31  and  C_35 
REMARK   23  A    between atoms: C_32  and  C_36 
REMARK   24  A    between atoms: C_34  and  C_37 
REMARK   25  A    between atoms: C_35  and  N_38 
REMARK   26  A    between atoms: C_36  and  C_39 
REMARK       I    between atoms: C_37  and  N_40 
REMARK   27  A    between atoms: N_38  and  C_42 
REMARK   28  A    between atoms: C_39  and  C_43 
REMARK   29  A    between atoms: C_39  and  N_44 
REMARK   30  A    between atoms: N_40  and  C_45 
REMARK   31  A    between atoms: C_42  and  C_46 
REMARK   32  A    between atoms: C_43  and  O_47 
REMARK   33  A    between atoms: C_45  and  C_46 
ROOT
HETATM    1  N   UNK N   1      23.129  17.978   4.262  0.00  0.00    -0.421 N 
HETATM    2  H   UNK N   1      22.984  18.601   3.469  0.00  0.00     0.153 HD
ENDROOT
BRANCH   1   3
HETATM    3  C   UNK N   1      24.221  17.035   4.429  0.00  0.00     0.113 C 
BRANCH   3   4
HETATM    4  C   UNK N   1      25.436  17.490   3.645  0.00  0.00     0.021 C 
BRANCH   4   5
HETATM    5  C   UNK N   1      26.552  16.518   3.936  0.00  0.00     0.021 C 
BRANCH   5   6
HETATM    6  C   UNK N   1      26.893  15.725   2.698  0.00  0.00     0.122 C 
BRANCH   6   7
HETATM    7  N   UNK N   1      25.712  15.622   1.881  0.00  0.00    -0.360 N 
HETATM    8  C   UNK N   1      25.164  14.429   1.559  0.00  0.00     0.235 C 
HETATM    9  O   UNK N   1      24.149  14.397   0.883  0.00  0.00    -0.272 OA
HETATM   10  H   UNK N   1      25.290  16.446   1.546  0.00  0.00     0.162 HD
BRANCH   8  11
HETATM   11  C   UNK N   1      25.758  13.149   2.054  0.00  0.00     0.225 C 
BRANCH  11  12
HETATM   12  N   UNK N   1      24.783  12.466   2.866  0.00  0.00    -0.351 N 
HETATM   13  C   UNK N   1      25.075  12.059   4.127  0.00  0.00     0.241 C 
HETATM   14  O   UNK N   1      26.167  12.299   4.611  0.00  0.00    -0.271 OA
HETATM   15  H   UNK N   1      23.886  12.292   2.499  0.00  0.00     0.163 HD
BRANCH  13  16
HETATM   16  C   UNK N   1      24.049  11.325   4.958  0.00  0.00     0.185 C 
BRANCH  16  17
HETATM   17  N   UNK N   1      23.836  12.094   6.164  0.00  0.00    -0.347 N 
HETATM   18  C   UNK N   1      23.817  11.506   7.384  0.00  0.00     0.218 C 
HETATM   19  O   UNK N   1      23.864  10.288   7.488  0.00  0.00    -0.274 OA
HETATM   20  H   UNK N   1      23.701  13.067   6.097  0.00  0.00     0.163 HD
BRANCH  18  21
HETATM   21  C   UNK N   1      23.931  12.344   8.611  0.00  0.00     0.105 C 
BRANCH  21  22
HETATM   22  C   UNK N   1      23.155  11.811   9.801  0.00  0.00     0.044 C 
BRANCH  22  23
HETATM   23  C   UNK N   1      24.038  11.817  11.051  0.00  0.00     0.173 C 
BRANCH  23  24
HETATM   24  C   UNK N   1      23.255  11.892  12.340  0.00  0.00     0.163 C 
HETATM   25  O   UNK N   1      23.839  12.021  13.403  0.00  0.00    -0.648 OA
BRANCH  24  26
HETATM   26  O   UNK N   1      21.909  11.858  12.323  0.00  0.00    -0.775 OA
HETATM   27  H   UNK N   1      21.449  11.719  11.518  0.00  0.00     0.167 HD
ENDBRANCH  24  26
ENDBRANCH  23  24
BRANCH  23  28
HETATM   28  N   UNK N   1      24.980  12.920  10.966  0.00  0.00    -0.418 N 
HETATM   29  H   UNK N   1      25.966  12.922  11.230  0.00  0.00     0.150 HD
HETATM   30  H   UNK N   1      24.612  13.799  10.599  0.00  0.00     0.150 HD
ENDBRANCH  23  28
ENDBRANCH  22  23
ENDBRANCH  21  22
ENDBRANCH  18  21
ENDBRANCH  16  17
BRANCH  16  31
HETATM   31  C   UNK N   1      22.725  11.087   4.240  0.00  0.00     0.105 C 
BRANCH  31  32
HETATM   32  S   UNK N   1      22.649   9.419   3.513  0.00  0.00    -0.180 SA
HETATM   33  H   UNK N   1      23.101   9.098   2.271  0.00  0.00     0.101 HD
ENDBRANCH  31  32
ENDBRANCH  16  31
ENDBRANCH  13  16
ENDBRANCH  11  12
ENDBRANCH   8  11
ENDBRANCH   6   7
ENDBRANCH   5   6
ENDBRANCH   4   5
ENDBRANCH   3   4
ENDBRANCH   1   3
BRANCH   1  34
HETATM   34  C   UNK N   1      22.285  17.865   5.440  0.00  0.00     0.115 C 
BRANCH  34  35
HETATM   35  C   UNK N   1      22.597  16.560   6.134  0.00  0.00     0.039 C 
BRANCH  35  36
HETATM   36  C   UNK N   1      21.428  16.137   6.989  0.00  0.00     0.124 C 
BRANCH  36  37
HETATM   37  N   UNK N   1      21.479  14.709   7.173  0.00  0.00    -0.360 N 
HETATM   38  C   UNK N   1      20.592  13.864   6.594  0.00  0.00     0.235 C 
HETATM   39  O   UNK N   1      20.691  12.665   6.791  0.00  0.00    -0.272 OA
HETATM   40  H   UNK N   1      22.188  14.331   7.743  0.00  0.00     0.162 HD
BRANCH  38  41
HETATM   41  C   UNK N   1      19.495  14.366   5.706  0.00  0.00     0.225 C 
BRANCH  41  42
HETATM   42  N   UNK N   1      19.936  14.412   4.332  0.00  0.00    -0.351 N 
HETATM   43  C   UNK N   1      19.311  13.753   3.327  0.00  0.00     0.241 C 
HETATM   44  O   UNK N   1      18.296  13.103   3.536  0.00  0.00    -0.271 OA
HETATM   45  H   UNK N   1      20.731  14.951   4.113  0.00  0.00     0.163 HD
BRANCH  43  46
HETATM   46  C   UNK N   1      19.816  13.943   1.937  0.00  0.00     0.185 C 
BRANCH  46  47
HETATM   47  C   UNK N   1      19.409  12.871   0.925  0.00  0.00     0.105 C 
BRANCH  47  48
HETATM   48  S   UNK N   1      20.602  11.498   0.915  0.00  0.00    -0.180 SA
HETATM   49  H   UNK N   1      21.050  10.918  -0.231  0.00  0.00     0.101 HD
ENDBRANCH  47  48
ENDBRANCH  46  47
BRANCH  46  50
HETATM   50  N   UNK N   1      19.546  15.302   1.531  0.00  0.00    -0.347 N 
HETATM   51  C   UNK N   1      20.399  16.339   1.686  0.00  0.00     0.218 C 
HETATM   52  O   UNK N   1      21.407  16.236   2.368  0.00  0.00    -0.274 OA
HETATM   53  H   UNK N   1      18.675  15.487   1.111  0.00  0.00     0.163 HD
BRANCH  51  54
HETATM   54  C   UNK N   1      20.163  17.582   0.907  0.00  0.00     0.105 C 
BRANCH  54  55
HETATM   55  C   UNK N   1      19.937  18.738   1.877  0.00  0.00     0.044 C 
BRANCH  55  56
HETATM   56  C   UNK N   1      20.923  19.871   1.597  0.00  0.00     0.173 C 
BRANCH  56  57
HETATM   57  C   UNK N   1      21.152  20.714   2.823  0.00  0.00     0.163 C 
HETATM   58  O   UNK N   1      20.466  20.561   3.820  0.00  0.00    -0.648 OA
BRANCH  57  59
HETATM   59  O   UNK N   1      22.113  21.659   2.818  0.00  0.00    -0.775 OA
HETATM   60  H   UNK N   1      22.903  21.650   3.322  0.00  0.00     0.167 HD
ENDBRANCH  57  59
ENDBRANCH  56  57
BRANCH  56  61
HETATM   61  N   UNK N   1      20.445  20.673   0.482  0.00  0.00    -0.418 N 
HETATM   62  H   UNK N   1      20.516  21.689   0.431  0.00  0.00     0.150 HD
HETATM   63  H   UNK N   1      20.009  20.187  -0.301  0.00  0.00     0.150 HD
ENDBRANCH  56  61
ENDBRANCH  55  56
ENDBRANCH  54  55
ENDBRANCH  51  54
ENDBRANCH  46  50
ENDBRANCH  43  46
ENDBRANCH  41  42
ENDBRANCH  38  41
ENDBRANCH  36  37
ENDBRANCH  35  36
ENDBRANCH  34  35
ENDBRANCH   1  34
TORSDOF 33
ENDMDL
MODEL 4
REMARK VINA RESULT:      -5.9      3.889      8.044
REMARK WARNING: 32 MAX_TORS EXCEEDED!!!
REMARK  33 active torsions:
REMARK  status: ('A' for Active; 'I' for Inactive)
REMARK    1  A    between atoms: C_1  and  N_2 
REMARK    2  A    between atoms: C_1  and  C_3 
REMARK    3  A    between atoms: C_1  and  C_4 
REMARK       I    between atoms: N_2  and  C_5 
REMARK       I    between atoms: C_3  and  N_6 
REMARK    4  A    between atoms: C_4  and  S_8 
REMARK    5  A    between atoms: C_5  and  C_9 
REMARK    6  A    between atoms: N_6  and  C_11 
REMARK    7  A    between atoms: C_9  and  C_13 
REMARK    8  A    between atoms: C_11  and  C_14 
REMARK    9  A    between atoms: S_12  and  C_15 
REMARK   10  A    between atoms: C_13  and  C_16 
REMARK       I    between atoms: C_14  and  N_17 
REMARK   11  A    between atoms: C_15  and  C_19 
REMARK   12  A    between atoms: C_16  and  C_20 
REMARK   13  A    between atoms: C_16  and  N_21 
REMARK   14  A    between atoms: N_17  and  C_22 
REMARK   15  A    between atoms: C_19  and  N_23 
REMARK   16  A    between atoms: C_19  and  C_24 
REMARK   17  A    between atoms: C_20  and  O_25 
REMARK   18  A    between atoms: C_22  and  C_27 
REMARK       I    between atoms: N_23  and  C_28 
REMARK       I    between atoms: C_24  and  N_29 
REMARK   19  A    between atoms: C_27  and  C_31 
REMARK   20  A    between atoms: C_28  and  C_32 
REMARK   21  A    between atoms: N_29  and  C_34 
REMARK   22  A    between atoms: C_31  and  C_35 
REMARK   23  A    between atoms: C_32  and  C_36 
REMARK   24  A    between atoms: C_34  and  C_37 
REMARK   25  A    between atoms: C_35  and  N_38 
REMARK   26  A    between atoms: C_36  and  C_39 
REMARK       I    between atoms: C_37  and  N_40 
REMARK   27  A    between atoms: N_38  and  C_42 
REMARK   28  A    between atoms: C_39  and  C_43 
REMARK   29  A    between atoms: C_39  and  N_44 
REMARK   30  A    between atoms: N_40  and  C_45 
REMARK   31  A    between atoms: C_42  and  C_46 
REMARK   32  A    between atoms: C_43  and  O_47 
REMARK   33  A    between atoms: C_45  and  C_46 
ROOT
HETATM    1  N   UNK N   1      24.536  13.031   8.921  0.00  0.00    -0.421 N 
HETATM    2  H   UNK N   1      24.688  13.572   9.772  0.00  0.00     0.153 HD
ENDROOT
BRANCH   1   3
HETATM    3  C   UNK N   1      24.812  13.465   7.564  0.00  0.00     0.113 C 
BRANCH   3   4
HETATM    4  C   UNK N   1      25.521  14.805   7.571  0.00  0.00     0.021 C 
BRANCH   4   5
HETATM    5  C   UNK N   1      25.307  15.437   6.218  0.00  0.00     0.021 C 
BRANCH   5   6
HETATM    6  C   UNK N   1      26.614  15.956   5.669  0.00  0.00     0.122 C 
BRANCH   6   7
HETATM    7  N   UNK N   1      27.127  16.951   6.575  0.00  0.00    -0.360 N 
HETATM    8  C   UNK N   1      27.880  17.989   6.147  0.00  0.00     0.235 C 
HETATM    9  O   UNK N   1      28.272  18.818   6.952  0.00  0.00    -0.272 OA
HETATM   10  H   UNK N   1      26.924  16.872   7.535  0.00  0.00     0.162 HD
BRANCH   8  11
HETATM   11  C   UNK N   1      28.206  18.161   4.698  0.00  0.00     0.225 C 
BRANCH  11  12
HETATM   12  N   UNK N   1      29.635  18.272   4.552  0.00  0.00    -0.351 N 
HETATM   13  C   UNK N   1      30.442  17.187   4.662  0.00  0.00     0.241 C 
HETATM   14  O   UNK N   1      29.963  16.083   4.851  0.00  0.00    -0.271 OA
HETATM   15  H   UNK N   1      30.034  19.153   4.369  0.00  0.00     0.163 HD
BRANCH  13  16
HETATM   16  C   UNK N   1      31.942  17.323   4.528  0.00  0.00     0.185 C 
BRANCH  16  17
HETATM   17  N   UNK N   1      32.546  16.438   5.497  0.00  0.00    -0.347 N 
HETATM   18  C   UNK N   1      33.576  16.843   6.279  0.00  0.00     0.218 C 
HETATM   19  O   UNK N   1      34.099  17.935   6.102  0.00  0.00    -0.274 OA
HETATM   20  H   UNK N   1      32.203  15.521   5.592  0.00  0.00     0.163 HD
BRANCH  18  21
HETATM   21  C   UNK N   1      33.953  16.043   7.478  0.00  0.00     0.105 C 
BRANCH  21  22
HETATM   22  C   UNK N   1      33.820  16.792   8.791  0.00  0.00     0.044 C 
BRANCH  22  23
HETATM   23  C   UNK N   1      34.748  16.180   9.844  0.00  0.00     0.173 C 
BRANCH  23  24
HETATM   24  C   UNK N   1      34.147  14.993  10.558  0.00  0.00     0.163 C 
HETATM   25  O   UNK N   1      34.829  14.007  10.783  0.00  0.00    -0.648 OA
BRANCH  24  26
HETATM   26  O   UNK N   1      32.871  15.029  10.987  0.00  0.00    -0.775 OA
HETATM   27  H   UNK N   1      32.570  15.740  11.518  0.00  0.00     0.167 HD
ENDBRANCH  24  26
ENDBRANCH  23  24
BRANCH  23  28
HETATM   28  N   UNK N   1      35.128  17.207  10.800  0.00  0.00    -0.418 N 
HETATM   29  H   UNK N   1      35.766  17.990  10.655  0.00  0.00     0.150 HD
HETATM   30  H   UNK N   1      34.706  17.137  11.727  0.00  0.00     0.150 HD
ENDBRANCH  23  28
ENDBRANCH  22  23
ENDBRANCH  21  22
ENDBRANCH  18  21
ENDBRANCH  16  17
BRANCH  16  31
HETATM   31  C   UNK N   1      32.469  17.019   3.130  0.00  0.00     0.105 C 
BRANCH  31  32
HETATM   32  S   UNK N   1      33.271  15.387   3.057  0.00  0.00    -0.180 SA
HETATM   33  H   UNK N   1      34.613  15.183   3.138  0.00  0.00     0.101 HD
ENDBRANCH  31  32
ENDBRANCH  16  31
ENDBRANCH  13  16
ENDBRANCH  11  12
ENDBRANCH   8  11
ENDBRANCH   6   7
ENDBRANCH   5   6
ENDBRANCH   4   5
ENDBRANCH   3   4
ENDBRANCH   1   3
BRANCH   1  34
HETATM   34  C   UNK N   1      24.003  11.682   8.838  0.00  0.00     0.115 C 
BRANCH  34  35
HETATM   35  C   UNK N   1      22.967  11.503   9.923  0.00  0.00     0.039 C 
BRANCH  35  36
HETATM   36  C   UNK N   1      22.642  12.836  10.551  0.00  0.00     0.124 C 
BRANCH  36  37
HETATM   37  N   UNK N   1      21.213  13.016  10.544  0.00  0.00    -0.360 N 
HETATM   38  C   UNK N   1      20.598  13.967   9.798  0.00  0.00     0.235 C 
HETATM   39  O   UNK N   1      19.384  14.067   9.838  0.00  0.00    -0.272 OA
HETATM   40  H   UNK N   1      20.659  12.426  11.104  0.00  0.00     0.162 HD
BRANCH  38  41
HETATM   41  C   UNK N   1      21.376  14.893   8.913  0.00  0.00     0.225 C 
BRANCH  41  42
HETATM   42  N   UNK N   1      21.348  14.432   7.546  0.00  0.00    -0.351 N 
HETATM   43  C   UNK N   1      21.531  15.248   6.481  0.00  0.00     0.241 C 
HETATM   44  O   UNK N   1      21.775  16.437   6.634  0.00  0.00    -0.271 OA
HETATM   45  H   UNK N   1      21.187  13.475   7.378  0.00  0.00     0.163 HD
BRANCH  43  46
HETATM   46  C   UNK N   1      21.558  14.638   5.120  0.00  0.00     0.185 C 
BRANCH  46  47
HETATM   47  C   UNK N   1      21.202  13.153   5.045  0.00  0.00     0.105 C 
BRANCH  47  48
HETATM   48  S   UNK N   1      19.465  12.923   4.559  0.00  0.00    -0.180 SA
HETATM   49  H   UNK N   1      18.537  12.357   5.377  0.00  0.00     0.101 HD
ENDBRANCH  47  48
ENDBRANCH  46  47
BRANCH  46  50
HETATM   50  N   UNK N   1      20.818  15.492   4.220  0.00  0.00    -0.347 N 
HETATM   51  C   UNK N   1      21.261  15.908   3.012  0.00  0.00     0.218 C 
HETATM   52  O   UNK N   1      22.422  15.745   2.669  0.00  0.00    -0.274 OA
HETATM   53  H   UNK N   1      19.927  15.792   4.507  0.00  0.00     0.163 HD
BRANCH  51  54
HETATM   54  C   UNK N   1      20.280  16.461   2.043  0.00  0.00     0.105 C 
BRANCH  54  55
HETATM   55  C   UNK N   1      19.779  17.807   2.558  0.00  0.00     0.044 C 
BRANCH  55  56
HETATM   56  C   UNK N   1      20.791  18.908   2.248  0.00  0.00     0.173 C 
BRANCH  56  57
HETATM   57  C   UNK N   1      21.428  19.437   3.506  0.00  0.00     0.163 C 
HETATM   58  O   UNK N   1      22.131  20.433   3.475  0.00  0.00    -0.648 OA
BRANCH  57  59
HETATM   59  O   UNK N   1      21.235  18.797   4.676  0.00  0.00    -0.775 OA
HETATM   60  H   UNK N   1      21.748  18.895   5.454  0.00  0.00     0.167 HD
ENDBRANCH  57  59
ENDBRANCH  56  57
BRANCH  56  61
HETATM   61  N   UNK N   1      20.144  19.970   1.494  0.00  0.00    -0.418 N 
HETATM   62  H   UNK N   1      20.458  20.303   0.582  0.00  0.00     0.150 HD
HETATM   63  H   UNK N   1      19.321  20.411   1.903  0.00  0.00     0.150 HD
ENDBRANCH  56  61
ENDBRANCH  55  56
ENDBRANCH  54  55
ENDBRANCH  51  54
ENDBRANCH  46  50
ENDBRANCH  43  46
ENDBRANCH  41  42
ENDBRANCH  38  41
ENDBRANCH  36  37
ENDBRANCH  35  36
ENDBRANCH  34  35
ENDBRANCH   1  34
TORSDOF 33
ENDMDL
MODEL 5
REMARK VINA RESULT:      -5.7      2.725      4.033
REMARK WARNING: 32 MAX_TORS EXCEEDED!!!
REMARK  33 active torsions:
REMARK  status: ('A' for Active; 'I' for Inactive)
REMARK    1  A    between atoms: C_1  and  N_2 
REMARK    2  A    between atoms: C_1  and  C_3 
REMARK    3  A    between atoms: C_1  and  C_4 
REMARK       I    between atoms: N_2  and  C_5 
REMARK       I    between atoms: C_3  and  N_6 
REMARK    4  A    between atoms: C_4  and  S_8 
REMARK    5  A    between atoms: C_5  and  C_9 
REMARK    6  A    between atoms: N_6  and  C_11 
REMARK    7  A    between atoms: C_9  and  C_13 
REMARK    8  A    between atoms: C_11  and  C_14 
REMARK    9  A    between atoms: S_12  and  C_15 
REMARK   10  A    between atoms: C_13  and  C_16 
REMARK       I    between atoms: C_14  and  N_17 
REMARK   11  A    between atoms: C_15  and  C_19 
REMARK   12  A    between atoms: C_16  and  C_20 
REMARK   13  A    between atoms: C_16  and  N_21 
REMARK   14  A    between atoms: N_17  and  C_22 
REMARK   15  A    between atoms: C_19  and  N_23 
REMARK   16  A    between atoms: C_19  and  C_24 
REMARK   17  A    between atoms: C_20  and  O_25 
REMARK   18  A    between atoms: C_22  and  C_27 
REMARK       I    between atoms: N_23  and  C_28 
REMARK       I    between atoms: C_24  and  N_29 
REMARK   19  A    between atoms: C_27  and  C_31 
REMARK   20  A    between atoms: C_28  and  C_32 
REMARK   21  A    between atoms: N_29  and  C_34 
REMARK   22  A    between atoms: C_31  and  C_35 
REMARK   23  A    between atoms: C_32  and  C_36 
REMARK   24  A    between atoms: C_34  and  C_37 
REMARK   25  A    between atoms: C_35  and  N_38 
REMARK   26  A    between atoms: C_36  and  C_39 
REMARK       I    between atoms: C_37  and  N_40 
REMARK   27  A    between atoms: N_38  and  C_42 
REMARK   28  A    between atoms: C_39  and  C_43 
REMARK   29  A    between atoms: C_39  and  N_44 
REMARK   30  A    between atoms: N_40  and  C_45 
REMARK   31  A    between atoms: C_42  and  C_46 
REMARK   32  A    between atoms: C_43  and  O_47 
REMARK   33  A    between atoms: C_45  and  C_46 
ROOT
HETATM    1  N   UNK N   1      22.512  14.909   2.253  0.00  0.00    -0.421 N 
HETATM    2  H   UNK N   1      22.799  15.187   3.191  0.00  0.00     0.153 HD
ENDROOT
BRANCH   1   3
HETATM    3  C   UNK N   1      23.371  14.377   1.211  0.00  0.00     0.113 C 
BRANCH   3   4
HETATM    4  C   UNK N   1      24.825  14.673   1.524  0.00  0.00     0.021 C 
BRANCH   4   5
HETATM    5  C   UNK N   1      24.981  14.640   3.024  0.00  0.00     0.021 C 
BRANCH   5   6
HETATM    6  C   UNK N   1      26.025  15.637   3.465  0.00  0.00     0.122 C 
BRANCH   6   7
HETATM    7  N   UNK N   1      27.174  15.504   2.609  0.00  0.00    -0.360 N 
HETATM    8  C   UNK N   1      28.371  16.047   2.926  0.00  0.00     0.235 C 
HETATM    9  O   UNK N   1      29.321  15.887   2.177  0.00  0.00    -0.272 OA
HETATM   10  H   UNK N   1      27.087  15.003   1.767  0.00  0.00     0.162 HD
BRANCH   8  11
HETATM   11  C   UNK N   1      28.561  16.806   4.200  0.00  0.00     0.225 C 
BRANCH  11  12
HETATM   12  N   UNK N   1      28.089  18.155   4.014  0.00  0.00    -0.351 N 
HETATM   13  C   UNK N   1      27.717  18.925   5.068  0.00  0.00     0.241 C 
HETATM   14  O   UNK N   1      27.812  18.495   6.205  0.00  0.00    -0.271 OA
HETATM   15  H   UNK N   1      28.035  18.526   3.104  0.00  0.00     0.163 HD
BRANCH  13  16
HETATM   16  C   UNK N   1      27.203  20.330   4.855  0.00  0.00     0.185 C 
BRANCH  16  17
HETATM   17  N   UNK N   1      25.768  20.248   4.700  0.00  0.00    -0.347 N 
HETATM   18  C   UNK N   1      25.175  20.425   3.495  0.00  0.00     0.218 C 
HETATM   19  O   UNK N   1      25.833  20.774   2.524  0.00  0.00    -0.274 OA
HETATM   20  H   UNK N   1      25.208  20.060   5.488  0.00  0.00     0.163 HD
BRANCH  18  21
HETATM   21  C   UNK N   1      23.756  20.011   3.300  0.00  0.00     0.105 C 
BRANCH  21  22
HETATM   22  C   UNK N   1      23.501  18.536   3.544  0.00  0.00     0.044 C 
BRANCH  22  23
HETATM   23  C   UNK N   1      22.749  18.341   4.863  0.00  0.00     0.173 C 
BRANCH  23  24
HETATM   24  C   UNK N   1      22.757  16.914   5.355  0.00  0.00     0.163 C 
HETATM   25  O   UNK N   1      21.891  16.137   4.987  0.00  0.00    -0.648 OA
BRANCH  24  26
HETATM   26  O   UNK N   1      23.738  16.477   6.167  0.00  0.00    -0.775 OA
HETATM   27  H   UNK N   1      24.351  15.835   5.866  0.00  0.00     0.167 HD
ENDBRANCH  24  26
ENDBRANCH  23  24
BRANCH  23  28
HETATM   28  N   UNK N   1      21.385  18.818   4.710  0.00  0.00    -0.418 N 
HETATM   29  H   UNK N   1      20.523  18.276   4.773  0.00  0.00     0.150 HD
HETATM   30  H   UNK N   1      21.276  19.814   4.517  0.00  0.00     0.150 HD
ENDBRANCH  23  28
ENDBRANCH  22  23
ENDBRANCH  21  22
ENDBRANCH  18  21
ENDBRANCH  16  17
BRANCH  16  31
HETATM   31  C   UNK N   1      27.562  21.298   5.976  0.00  0.00     0.105 C 
BRANCH  31  32
HETATM   32  S   UNK N   1      26.167  21.544   7.120  0.00  0.00    -0.180 SA
HETATM   33  H   UNK N   1      26.294  21.924   8.420  0.00  0.00     0.101 HD
ENDBRANCH  31  32
ENDBRANCH  16  31
ENDBRANCH  13  16
ENDBRANCH  11  12
ENDBRANCH   8  11
ENDBRANCH   6   7
ENDBRANCH   5   6
ENDBRANCH   4   5
ENDBRANCH   3   4
ENDBRANCH   1   3
BRANCH   1  34
HETATM   34  C   UNK N   1      21.166  14.967   1.707  0.00  0.00     0.115 C 
BRANCH  34  35
HETATM   35  C   UNK N   1      20.931  13.732   0.869  0.00  0.00     0.039 C 
BRANCH  35  36
HETATM   36  C   UNK N   1      19.916  12.839   1.538  0.00  0.00     0.124 C 
BRANCH  36  37
HETATM   37  N   UNK N   1      19.192  13.609   2.517  0.00  0.00    -0.360 N 
HETATM   38  C   UNK N   1      19.022  13.194   3.796  0.00  0.00     0.235 C 
HETATM   39  O   UNK N   1      18.398  13.894   4.575  0.00  0.00    -0.272 OA
HETATM   40  H   UNK N   1      18.804  14.472   2.246  0.00  0.00     0.162 HD
BRANCH  38  41
HETATM   41  C   UNK N   1      19.595  11.897   4.282  0.00  0.00     0.225 C 
BRANCH  41  42
HETATM   42  N   UNK N   1      20.321  12.093   5.514  0.00  0.00    -0.351 N 
HETATM   43  C   UNK N   1      21.623  12.462   5.560  0.00  0.00     0.241 C 
HETATM   44  O   UNK N   1      22.249  12.692   4.534  0.00  0.00    -0.271 OA
HETATM   45  H   UNK N   1      19.846  11.951   6.365  0.00  0.00     0.163 HD
BRANCH  43  46
HETATM   46  C   UNK N   1      22.241  12.709   6.895  0.00  0.00     0.185 C 
BRANCH  46  47
HETATM   47  C   UNK N   1      23.686  12.237   7.061  0.00  0.00     0.105 C 
BRANCH  47  48
HETATM   48  S   UNK N   1      24.721  13.550   7.777  0.00  0.00    -0.180 SA
HETATM   49  H   UNK N   1      26.071  13.440   7.903  0.00  0.00     0.101 HD
ENDBRANCH  47  48
ENDBRANCH  46  47
BRANCH  46  50
HETATM   50  N   UNK N   1      21.998  14.083   7.267  0.00  0.00    -0.347 N 
HETATM   51  C   UNK N   1      20.880  14.532   7.880  0.00  0.00     0.218 C 
HETATM   52  O   UNK N   1      19.890  13.825   7.994  0.00  0.00    -0.274 OA
HETATM   53  H   UNK N   1      22.699  14.742   7.059  0.00  0.00     0.163 HD
BRANCH  51  54
HETATM   54  C   UNK N   1      20.908  15.866   8.532  0.00  0.00     0.105 C 
BRANCH  54  55
HETATM   55  C   UNK N   1      19.558  16.123   9.193  0.00  0.00     0.044 C 
BRANCH  55  56
HETATM   56  C   UNK N   1      18.958  17.436   8.693  0.00  0.00     0.173 C 
BRANCH  56  57
HETATM   57  C   UNK N   1      19.961  18.558   8.761  0.00  0.00     0.163 C 
HETATM   58  O   UNK N   1      20.669  18.819   7.803  0.00  0.00    -0.648 OA
BRANCH  57  59
HETATM   59  O   UNK N   1      20.091  19.273   9.896  0.00  0.00    -0.775 OA
HETATM   60  H   UNK N   1      20.414  18.958  10.717  0.00  0.00     0.167 HD
ENDBRANCH  57  59
ENDBRANCH  56  57
BRANCH  56  61
HETATM   61  N   UNK N   1      17.759  17.748   9.453  0.00  0.00    -0.418 N 
HETATM   62  H   UNK N   1      17.032  17.072   9.686  0.00  0.00     0.150 HD
HETATM   63  H   UNK N   1      17.636  18.708   9.776  0.00  0.00     0.150 HD
ENDBRANCH  56  61
ENDBRANCH  55  56
ENDBRANCH  54  55
ENDBRANCH  51  54
ENDBRANCH  46  50
ENDBRANCH  43  46
ENDBRANCH  41  42
ENDBRANCH  38  41
ENDBRANCH  36  37
ENDBRANCH  35  36
ENDBRANCH  34  35
ENDBRANCH   1  34
TORSDOF 33
ENDMDL
MODEL 6
REMARK VINA RESULT:      -5.7      3.922      9.107
REMARK WARNING: 32 MAX_TORS EXCEEDED!!!
REMARK  33 active torsions:
REMARK  status: ('A' for Active; 'I' for Inactive)
REMARK    1  A    between atoms: C_1  and  N_2 
REMARK    2  A    between atoms: C_1  and  C_3 
REMARK    3  A    between atoms: C_1  and  C_4 
REMARK       I    between atoms: N_2  and  C_5 
REMARK       I    between atoms: C_3  and  N_6 
REMARK    4  A    between atoms: C_4  and  S_8 
REMARK    5  A    between atoms: C_5  and  C_9 
REMARK    6  A    between atoms: N_6  and  C_11 
REMARK    7  A    between atoms: C_9  and  C_13 
REMARK    8  A    between atoms: C_11  and  C_14 
REMARK    9  A    between atoms: S_12  and  C_15 
REMARK   10  A    between atoms: C_13  and  C_16 
REMARK       I    between atoms: C_14  and  N_17 
REMARK   11  A    between atoms: C_15  and  C_19 
REMARK   12  A    between atoms: C_16  and  C_20 
REMARK   13  A    between atoms: C_16  and  N_21 
REMARK   14  A    between atoms: N_17  and  C_22 
REMARK   15  A    between atoms: C_19  and  N_23 
REMARK   16  A    between atoms: C_19  and  C_24 
REMARK   17  A    between atoms: C_20  and  O_25 
REMARK   18  A    between atoms: C_22  and  C_27 
REMARK       I    between atoms: N_23  and  C_28 
REMARK       I    between atoms: C_24  and  N_29 
REMARK   19  A    between atoms: C_27  and  C_31 
REMARK   20  A    between atoms: C_28  and  C_32 
REMARK   21  A    between atoms: N_29  and  C_34 
REMARK   22  A    between atoms: C_31  and  C_35 
REMARK   23  A    between atoms: C_32  and  C_36 
REMARK   24  A    between atoms: C_34  and  C_37 
REMARK   25  A    between atoms: C_35  and  N_38 
REMARK   26  A    between atoms: C_36  and  C_39 
REMARK       I    between atoms: C_37  and  N_40 
REMARK   27  A    between atoms: N_38  and  C_42 
REMARK   28  A    between atoms: C_39  and  C_43 
REMARK   29  A    between atoms: C_39  and  N_44 
REMARK   30  A    between atoms: N_40  and  C_45 
REMARK   31  A    between atoms: C_42  and  C_46 
REMARK   32  A    between atoms: C_43  and  O_47 
REMARK   33  A    between atoms: C_45  and  C_46 
ROOT
HETATM    1  N   UNK N   1      29.330  17.177   3.094  0.00  0.00    -0.421 N 
HETATM    2  H   UNK N   1      29.298  17.617   2.175  0.00  0.00     0.153 HD
ENDROOT
BRANCH   1   3
HETATM    3  C   UNK N   1      28.293  17.223   4.108  0.00  0.00     0.113 C 
BRANCH   3   4
HETATM    4  C   UNK N   1      28.510  18.405   5.033  0.00  0.00     0.021 C 
BRANCH   4   5
HETATM    5  C   UNK N   1      27.979  19.631   4.332  0.00  0.00     0.021 C 
BRANCH   5   6
HETATM    6  C   UNK N   1      26.880  20.267   5.147  0.00  0.00     0.122 C 
BRANCH   6   7
HETATM    7  N   UNK N   1      25.756  20.516   4.281  0.00  0.00    -0.360 N 
HETATM    8  C   UNK N   1      24.734  19.638   4.163  0.00  0.00     0.235 C 
HETATM    9  O   UNK N   1      23.793  19.906   3.434  0.00  0.00    -0.272 OA
HETATM   10  H   UNK N   1      25.730  21.350   3.760  0.00  0.00     0.162 HD
BRANCH   8  11
HETATM   11  C   UNK N   1      24.717  18.363   4.945  0.00  0.00     0.225 C 
BRANCH  11  12
HETATM   12  N   UNK N   1      23.936  17.388   4.228  0.00  0.00    -0.351 N 
HETATM   13  C   UNK N   1      23.567  16.216   4.805  0.00  0.00     0.241 C 
HETATM   14  O   UNK N   1      23.864  15.984   5.964  0.00  0.00    -0.271 OA
HETATM   15  H   UNK N   1      23.664  17.575   3.301  0.00  0.00     0.163 HD
BRANCH  13  16
HETATM   16  C   UNK N   1      22.767  15.193   4.032  0.00  0.00     0.185 C 
BRANCH  16  17
HETATM   17  N   UNK N   1      21.867  15.915   3.161  0.00  0.00    -0.347 N 
HETATM   18  C   UNK N   1      20.591  16.185   3.527  0.00  0.00     0.218 C 
HETATM   19  O   UNK N   1      20.131  15.721   4.561  0.00  0.00    -0.274 OA
HETATM   20  H   UNK N   1      22.189  16.217   2.281  0.00  0.00     0.163 HD
BRANCH  18  21
HETATM   21  C   UNK N   1      19.804  17.199   2.771  0.00  0.00     0.105 C 
BRANCH  21  22
HETATM   22  C   UNK N   1      20.651  18.215   2.029  0.00  0.00     0.044 C 
BRANCH  22  23
HETATM   23  C   UNK N   1      20.387  19.622   2.573  0.00  0.00     0.173 C 
BRANCH  23  24
HETATM   24  C   UNK N   1      21.093  20.709   1.800  0.00  0.00     0.163 C 
HETATM   25  O   UNK N   1      21.068  20.706   0.580  0.00  0.00    -0.648 OA
BRANCH  24  26
HETATM   26  O   UNK N   1      21.719  21.710   2.448  0.00  0.00    -0.775 OA
HETATM   27  H   UNK N   1      22.345  21.522   3.119  0.00  0.00     0.167 HD
ENDBRANCH  24  26
ENDBRANCH  23  24
BRANCH  23  28
HETATM   28  N   UNK N   1      20.765  19.670   3.976  0.00  0.00    -0.418 N 
HETATM   29  H   UNK N   1      21.646  19.374   4.396  0.00  0.00     0.150 HD
HETATM   30  H   UNK N   1      20.064  20.044   4.618  0.00  0.00     0.150 HD
ENDBRANCH  23  28
ENDBRANCH  22  23
ENDBRANCH  21  22
ENDBRANCH  18  21
ENDBRANCH  16  17
BRANCH  16  31
HETATM   31  C   UNK N   1      23.619  14.219   3.227  0.00  0.00     0.105 C 
BRANCH  31  32
HETATM   32  S   UNK N   1      23.328  14.395   1.439  0.00  0.00    -0.180 SA
HETATM   33  H   UNK N   1      22.126  14.205   0.831  0.00  0.00     0.101 HD
ENDBRANCH  31  32
ENDBRANCH  16  31
ENDBRANCH  13  16
ENDBRANCH  11  12
ENDBRANCH   8  11
ENDBRANCH   6   7
ENDBRANCH   5   6
ENDBRANCH   4   5
ENDBRANCH   3   4
ENDBRANCH   1   3
BRANCH   1  34
HETATM   34  C   UNK N   1      30.422  16.386   3.637  0.00  0.00     0.115 C 
BRANCH  34  35
HETATM   35  C   UNK N   1      31.728  17.052   3.272  0.00  0.00     0.039 C 
BRANCH  35  36
HETATM   36  C   UNK N   1      32.873  16.090   3.475  0.00  0.00     0.124 C 
BRANCH  36  37
HETATM   37  N   UNK N   1      32.422  14.757   3.167  0.00  0.00    -0.360 N 
HETATM   38  C   UNK N   1      33.118  13.649   3.519  0.00  0.00     0.235 C 
HETATM   39  O   UNK N   1      32.680  12.550   3.227  0.00  0.00    -0.272 OA
HETATM   40  H   UNK N   1      31.574  14.647   2.680  0.00  0.00     0.162 HD
BRANCH  38  41
HETATM   41  C   UNK N   1      34.410  13.740   4.271  0.00  0.00     0.225 C 
BRANCH  41  42
HETATM   42  N   UNK N   1      34.165  13.947   5.679  0.00  0.00    -0.351 N 
HETATM   43  C   UNK N   1      34.860  14.831   6.433  0.00  0.00     0.241 C 
HETATM   44  O   UNK N   1      35.724  15.541   5.937  0.00  0.00    -0.271 OA
HETATM   45  H   UNK N   1      33.456  13.419   6.112  0.00  0.00     0.163 HD
BRANCH  43  46
HETATM   46  C   UNK N   1      34.461  15.010   7.859  0.00  0.00     0.185 C 
BRANCH  46  47
HETATM   47  C   UNK N   1      35.553  14.755   8.898  0.00  0.00     0.105 C 
BRANCH  47  48
HETATM   48  S   UNK N   1      34.929  13.724  10.260  0.00  0.00    -0.180 SA
HETATM   49  H   UNK N   1      33.988  14.156  11.142  0.00  0.00     0.101 HD
ENDBRANCH  47  48
ENDBRANCH  46  47
BRANCH  46  50
HETATM   50  N   UNK N   1      33.776  16.275   7.988  0.00  0.00    -0.347 N 
HETATM   51  C   UNK N   1      32.465  16.475   7.725  0.00  0.00     0.218 C 
HETATM   52  O   UNK N   1      31.792  15.624   7.164  0.00  0.00    -0.274 OA
HETATM   53  H   UNK N   1      34.303  17.049   8.290  0.00  0.00     0.163 HD
BRANCH  51  54
HETATM   54  C   UNK N   1      31.811  17.704   8.244  0.00  0.00     0.105 C 
BRANCH  54  55
HETATM   55  C   UNK N   1      30.305  17.594   8.026  0.00  0.00     0.044 C 
BRANCH  55  56
HETATM   56  C   UNK N   1      29.565  17.660   9.361  0.00  0.00     0.173 C 
BRANCH  56  57
HETATM   57  C   UNK N   1      28.073  17.685   9.160  0.00  0.00     0.163 C 
HETATM   58  O   UNK N   1      27.391  16.712   9.436  0.00  0.00    -0.648 OA
BRANCH  57  59
HETATM   59  O   UNK N   1      27.483  18.787   8.655  0.00  0.00    -0.775 OA
HETATM   60  H   UNK N   1      27.915  19.569   8.374  0.00  0.00     0.167 HD
ENDBRANCH  57  59
ENDBRANCH  56  57
BRANCH  56  61
HETATM   61  N   UNK N   1      30.020  18.817  10.116  0.00  0.00    -0.418 N 
HETATM   62  H   UNK N   1      29.615  19.123  11.000  0.00  0.00     0.150 HD
HETATM   63  H   UNK N   1      30.796  19.358   9.736  0.00  0.00     0.150 HD
ENDBRANCH  56  61
ENDBRANCH  55  56
ENDBRANCH  54  55
ENDBRANCH  51  54
ENDBRANCH  46  50
ENDBRANCH  43  46
ENDBRANCH  41  42
ENDBRANCH  38  41
ENDBRANCH  36  37
ENDBRANCH  35  36
ENDBRANCH  34  35
ENDBRANCH   1  34
TORSDOF 33
ENDMDL
MODEL 7
REMARK VINA RESULT:      -5.5      3.519      6.637
REMARK WARNING: 32 MAX_TORS EXCEEDED!!!
REMARK  33 active torsions:
REMARK  status: ('A' for Active; 'I' for Inactive)
REMARK    1  A    between atoms: C_1  and  N_2 
REMARK    2  A    between atoms: C_1  and  C_3 
REMARK    3  A    between atoms: C_1  and  C_4 
REMARK       I    between atoms: N_2  and  C_5 
REMARK       I    between atoms: C_3  and  N_6 
REMARK    4  A    between atoms: C_4  and  S_8 
REMARK    5  A    between atoms: C_5  and  C_9 
REMARK    6  A    between atoms: N_6  and  C_11 
REMARK    7  A    between atoms: C_9  and  C_13 
REMARK    8  A    between atoms: C_11  and  C_14 
REMARK    9  A    between atoms: S_12  and  C_15 
REMARK   10  A    between atoms: C_13  and  C_16 
REMARK       I    between atoms: C_14  and  N_17 
REMARK   11  A    between atoms: C_15  and  C_19 
REMARK   12  A    between atoms: C_16  and  C_20 
REMARK   13  A    between atoms: C_16  and  N_21 
REMARK   14  A    between atoms: N_17  and  C_22 
REMARK   15  A    between atoms: C_19  and  N_23 
REMARK   16  A    between atoms: C_19  and  C_24 
REMARK   17  A    between atoms: C_20  and  O_25 
REMARK   18  A    between atoms: C_22  and  C_27 
REMARK       I    between atoms: N_23  and  C_28 
REMARK       I    between atoms: C_24  and  N_29 
REMARK   19  A    between atoms: C_27  and  C_31 
REMARK   20  A    between atoms: C_28  and  C_32 
REMARK   21  A    between atoms: N_29  and  C_34 
REMARK   22  A    between atoms: C_31  and  C_35 
REMARK   23  A    between atoms: C_32  and  C_36 
REMARK   24  A    between atoms: C_34  and  C_37 
REMARK   25  A    between atoms: C_35  and  N_38 
REMARK   26  A    between atoms: C_36  and  C_39 
REMARK       I    between atoms: C_37  and  N_40 
REMARK   27  A    between atoms: N_38  and  C_42 
REMARK   28  A    between atoms: C_39  and  C_43 
REMARK   29  A    between atoms: C_39  and  N_44 
REMARK   30  A    between atoms: N_40  and  C_45 
REMARK   31  A    between atoms: C_42  and  C_46 
REMARK   32  A    between atoms: C_43  and  O_47 
REMARK   33  A    between atoms: C_45  and  C_46 
ROOT
HETATM    1  N   UNK N   1      27.085  11.464   1.202  0.00  0.00    -0.421 N 
HETATM    2  H   UNK N   1      26.428  11.382   0.427  0.00  0.00     0.153 HD
ENDROOT
BRANCH   1   3
HETATM    3  C   UNK N   1      28.438  10.941   1.244  0.00  0.00     0.113 C 
BRANCH   3   4
HETATM    4  C   UNK N   1      29.200  11.541   2.410  0.00  0.00     0.021 C 
BRANCH   4   5
HETATM    5  C   UNK N   1      30.518  12.045   1.876  0.00  0.00     0.021 C 
BRANCH   5   6
HETATM    6  C   UNK N   1      30.922  13.313   2.589  0.00  0.00     0.122 C 
BRANCH   6   7
HETATM    7  N   UNK N   1      29.834  14.253   2.500  0.00  0.00    -0.360 N 
HETATM    8  C   UNK N   1      29.945  15.522   2.953  0.00  0.00     0.235 C 
HETATM    9  O   UNK N   1      29.001  16.287   2.834  0.00  0.00    -0.272 OA
HETATM   10  H   UNK N   1      28.984  13.962   2.099  0.00  0.00     0.162 HD
BRANCH   8  11
HETATM   11  C   UNK N   1      31.220  16.017   3.558  0.00  0.00     0.225 C 
BRANCH  11  12
HETATM   12  N   UNK N   1      31.022  16.203   4.973  0.00  0.00    -0.351 N 
HETATM   13  C   UNK N   1      31.878  16.954   5.713  0.00  0.00     0.241 C 
HETATM   14  O   UNK N   1      32.816  17.518   5.179  0.00  0.00    -0.271 OA
HETATM   15  H   UNK N   1      30.250  15.778   5.412  0.00  0.00     0.163 HD
BRANCH  13  16
HETATM   16  C   UNK N   1      31.669  17.122   7.200  0.00  0.00     0.185 C 
BRANCH  16  17
HETATM   17  N   UNK N   1      30.246  17.240   7.428  0.00  0.00    -0.347 N 
HETATM   18  C   UNK N   1      29.743  18.134   8.312  0.00  0.00     0.218 C 
HETATM   19  O   UNK N   1      30.490  18.787   9.029  0.00  0.00    -0.274 OA
HETATM   20  H   UNK N   1      29.629  16.657   6.929  0.00  0.00     0.163 HD
BRANCH  18  21
HETATM   21  C   UNK N   1      28.290  18.465   8.284  0.00  0.00     0.105 C 
BRANCH  21  22
HETATM   22  C   UNK N   1      27.930  19.595   7.338  0.00  0.00     0.044 C 
BRANCH  22  23
HETATM   23  C   UNK N   1      27.259  19.036   6.080  0.00  0.00     0.173 C 
BRANCH  23  24
HETATM   24  C   UNK N   1      28.122  19.130   4.845  0.00  0.00     0.163 C 
HETATM   25  O   UNK N   1      29.260  18.689   4.860  0.00  0.00    -0.648 OA
BRANCH  24  26
HETATM   26  O   UNK N   1      27.632  19.663   3.710  0.00  0.00    -0.775 OA
HETATM   27  H   UNK N   1      27.716  19.204   2.897  0.00  0.00     0.167 HD
ENDBRANCH  24  26
ENDBRANCH  23  24
BRANCH  23  28
HETATM   28  N   UNK N   1      25.995  19.721   5.868  0.00  0.00    -0.418 N 
HETATM   29  H   UNK N   1      25.054  19.357   6.021  0.00  0.00     0.150 HD
HETATM   30  H   UNK N   1      26.055  20.680   5.525  0.00  0.00     0.150 HD
ENDBRANCH  23  28
ENDBRANCH  22  23
ENDBRANCH  21  22
ENDBRANCH  18  21
ENDBRANCH  16  17
BRANCH  16  31
HETATM   31  C   UNK N   1      32.249  15.988   8.039  0.00  0.00     0.105 C 
BRANCH  31  32
HETATM   32  S   UNK N   1      33.787  16.492   8.872  0.00  0.00    -0.180 SA
HETATM   33  H   UNK N   1      33.850  17.368   9.911  0.00  0.00     0.101 HD
ENDBRANCH  31  32
ENDBRANCH  16  31
ENDBRANCH  13  16
ENDBRANCH  11  12
ENDBRANCH   8  11
ENDBRANCH   6   7
ENDBRANCH   5   6
ENDBRANCH   4   5
ENDBRANCH   3   4
ENDBRANCH   1   3
BRANCH   1  34
HETATM   34  C   UNK N   1      26.844  12.126   2.473  0.00  0.00     0.115 C 
BRANCH  34  35
HETATM   35  C   UNK N   1      26.137  13.435   2.210  0.00  0.00     0.039 C 
BRANCH  35  36
HETATM   36  C   UNK N   1      26.150  14.290   3.453  0.00  0.00     0.124 C 
BRANCH  36  37
HETATM   37  N   UNK N   1      25.948  15.665   3.074  0.00  0.00    -0.360 N 
HETATM   38  C   UNK N   1      25.432  16.589   3.920  0.00  0.00     0.235 C 
HETATM   39  O   UNK N   1      25.286  17.737   3.537  0.00  0.00    -0.272 OA
HETATM   40  H   UNK N   1      26.194  15.945   2.163  0.00  0.00     0.162 HD
BRANCH  38  41
HETATM   41  C   UNK N   1      25.046  16.237   5.325  0.00  0.00     0.225 C 
BRANCH  41  42
HETATM   42  N   UNK N   1      23.656  16.546   5.562  0.00  0.00    -0.351 N 
HETATM   43  C   UNK N   1      22.718  15.605   5.821  0.00  0.00     0.241 C 
HETATM   44  O   UNK N   1      23.020  14.422   5.909  0.00  0.00    -0.271 OA
HETATM   45  H   UNK N   1      23.375  17.489   5.533  0.00  0.00     0.163 HD
BRANCH  43  46
HETATM   46  C   UNK N   1      21.329  16.056   6.126  0.00  0.00     0.185 C 
BRANCH  46  47
HETATM   47  C   UNK N   1      21.082  16.541   7.555  0.00  0.00     0.105 C 
BRANCH  47  48
HETATM   48  S   UNK N   1      20.715  15.146   8.663  0.00  0.00    -0.180 SA
HETATM   49  H   UNK N   1      21.683  14.364   9.212  0.00  0.00     0.101 HD
ENDBRANCH  47  48
ENDBRANCH  46  47
BRANCH  46  50
HETATM   50  N   UNK N   1      20.903  16.965   5.088  0.00  0.00    -0.347 N 
HETATM   51  C   UNK N   1      20.077  16.641   4.068  0.00  0.00     0.218 C 
HETATM   52  O   UNK N   1      19.777  15.480   3.838  0.00  0.00    -0.274 OA
HETATM   53  H   UNK N   1      21.239  17.889   5.126  0.00  0.00     0.163 HD
BRANCH  51  54
HETATM   54  C   UNK N   1      19.431  17.734   3.297  0.00  0.00     0.105 C 
BRANCH  54  55
HETATM   55  C   UNK N   1      20.368  18.937   3.261  0.00  0.00     0.044 C 
BRANCH  55  56
HETATM   56  C   UNK N   1      20.976  19.099   1.869  0.00  0.00     0.173 C 
BRANCH  56  57
HETATM   57  C   UNK N   1      21.211  20.550   1.539  0.00  0.00     0.163 C 
HETATM   58  O   UNK N   1      21.286  20.919   0.379  0.00  0.00    -0.648 OA
BRANCH  57  59
HETATM   59  O   UNK N   1      21.354  21.449   2.532  0.00  0.00    -0.775 OA
HETATM   60  H   UNK N   1      21.850  22.243   2.495  0.00  0.00     0.167 HD
ENDBRANCH  57  59
ENDBRANCH  56  57
BRANCH  56  61
HETATM   61  N   UNK N   1      20.118  18.462   0.882  0.00  0.00    -0.418 N 
HETATM   62  H   UNK N   1      19.499  17.676   1.079  0.00  0.00     0.150 HD
HETATM   63  H   UNK N   1      20.136  18.826  -0.070  0.00  0.00     0.150 HD
ENDBRANCH  56  61
ENDBRANCH  55  56
ENDBRANCH  54  55
ENDBRANCH  51  54
ENDBRANCH  46  50
ENDBRANCH  43  46
ENDBRANCH  41  42
ENDBRANCH  38  41
ENDBRANCH  36  37
ENDBRANCH  35  36
ENDBRANCH  34  35
ENDBRANCH   1  34
TORSDOF 33
ENDMDL
MODEL 8
REMARK VINA RESULT:      -5.4      3.648      7.876
REMARK WARNING: 32 MAX_TORS EXCEEDED!!!
REMARK  33 active torsions:
REMARK  status: ('A' for Active; 'I' for Inactive)
REMARK    1  A    between atoms: C_1  and  N_2 
REMARK    2  A    between atoms: C_1  and  C_3 
REMARK    3  A    between atoms: C_1  and  C_4 
REMARK       I    between atoms: N_2  and  C_5 
REMARK       I    between atoms: C_3  and  N_6 
REMARK    4  A    between atoms: C_4  and  S_8 
REMARK    5  A    between atoms: C_5  and  C_9 
REMARK    6  A    between atoms: N_6  and  C_11 
REMARK    7  A    between atoms: C_9  and  C_13 
REMARK    8  A    between atoms: C_11  and  C_14 
REMARK    9  A    between atoms: S_12  and  C_15 
REMARK   10  A    between atoms: C_13  and  C_16 
REMARK       I    between atoms: C_14  and  N_17 
REMARK   11  A    between atoms: C_15  and  C_19 
REMARK   12  A    between atoms: C_16  and  C_20 
REMARK   13  A    between atoms: C_16  and  N_21 
REMARK   14  A    between atoms: N_17  and  C_22 
REMARK   15  A    between atoms: C_19  and  N_23 
REMARK   16  A    between atoms: C_19  and  C_24 
REMARK   17  A    between atoms: C_20  and  O_25 
REMARK   18  A    between atoms: C_22  and  C_27 
REMARK       I    between atoms: N_23  and  C_28 
REMARK       I    between atoms: C_24  and  N_29 
REMARK   19  A    between atoms: C_27  and  C_31 
REMARK   20  A    between atoms: C_28  and  C_32 
REMARK   21  A    between atoms: N_29  and  C_34 
REMARK   22  A    between atoms: C_31  and  C_35 
REMARK   23  A    between atoms: C_32  and  C_36 
REMARK   24  A    between atoms: C_34  and  C_37 
REMARK   25  A    between atoms: C_35  and  N_38 
REMARK   26  A    between atoms: C_36  and  C_39 
REMARK       I    between atoms: C_37  and  N_40 
REMARK   27  A    between atoms: N_38  and  C_42 
REMARK   28  A    between atoms: C_39  and  C_43 
REMARK   29  A    between atoms: C_39  and  N_44 
REMARK   30  A    between atoms: N_40  and  C_45 
REMARK   31  A    between atoms: C_42  and  C_46 
REMARK   32  A    between atoms: C_43  and  O_47 
REMARK   33  A    between atoms: C_45  and  C_46 
ROOT
HETATM    1  N   UNK N   1      24.448  14.494   2.428  0.00  0.00    -0.421 N 
HETATM    2  H   UNK N   1      23.715  15.180   2.608  0.00  0.00     0.153 HD
ENDROOT
BRANCH   1   3
HETATM    3  C   UNK N   1      24.379  13.385   1.494  0.00  0.00     0.113 C 
BRANCH   3   4
HETATM    4  C   UNK N   1      23.330  13.653   0.432  0.00  0.00     0.021 C 
BRANCH   4   5
HETATM    5  C   UNK N   1      22.394  12.470   0.412  0.00  0.00     0.021 C 
BRANCH   5   6
HETATM    6  C   UNK N   1      21.089  12.821   1.085  0.00  0.00     0.122 C 
BRANCH   6   7
HETATM    7  N   UNK N   1      20.743  14.174   0.732  0.00  0.00    -0.360 N 
HETATM    8  C   UNK N   1      20.116  15.002   1.596  0.00  0.00     0.235 C 
HETATM    9  O   UNK N   1      19.864  16.147   1.257  0.00  0.00    -0.272 OA
HETATM   10  H   UNK N   1      20.971  14.506  -0.167  0.00  0.00     0.162 HD
BRANCH   8  11
HETATM   11  C   UNK N   1      19.761  14.552   2.977  0.00  0.00     0.225 C 
BRANCH  11  12
HETATM   12  N   UNK N   1      20.435  15.396   3.930  0.00  0.00    -0.351 N 
HETATM   13  C   UNK N   1      21.589  15.004   4.529  0.00  0.00     0.241 C 
HETATM   14  O   UNK N   1      22.097  13.936   4.238  0.00  0.00    -0.271 OA
HETATM   15  H   UNK N   1      20.051  16.275   4.152  0.00  0.00     0.163 HD
BRANCH  13  16
HETATM   16  C   UNK N   1      22.272  15.892   5.543  0.00  0.00     0.185 C 
BRANCH  16  17
HETATM   17  N   UNK N   1      22.086  17.261   5.116  0.00  0.00    -0.347 N 
HETATM   18  C   UNK N   1      22.986  17.881   4.316  0.00  0.00     0.218 C 
HETATM   19  O   UNK N   1      24.042  17.335   4.028  0.00  0.00    -0.274 OA
HETATM   20  H   UNK N   1      21.287  17.754   5.414  0.00  0.00     0.163 HD
BRANCH  18  21
HETATM   21  C   UNK N   1      22.615  19.151   3.630  0.00  0.00     0.105 C 
BRANCH  21  22
HETATM   22  C   UNK N   1      21.124  19.431   3.608  0.00  0.00     0.044 C 
BRANCH  22  23
HETATM   23  C   UNK N   1      20.585  19.310   2.180  0.00  0.00     0.173 C 
BRANCH  23  24
HETATM   24  C   UNK N   1      20.877  20.519   1.323  0.00  0.00     0.163 C 
HETATM   25  O   UNK N   1      20.967  20.402   0.113  0.00  0.00    -0.648 OA
BRANCH  24  26
HETATM   26  O   UNK N   1      20.999  21.738   1.883  0.00  0.00    -0.775 OA
HETATM   27  H   UNK N   1      20.669  22.496   1.442  0.00  0.00     0.167 HD
ENDBRANCH  24  26
ENDBRANCH  23  24
BRANCH  23  28
HETATM   28  N   UNK N   1      19.155  19.057   2.229  0.00  0.00    -0.418 N 
HETATM   29  H   UNK N   1      18.451  19.315   1.537  0.00  0.00     0.150 HD
HETATM   30  H   UNK N   1      18.814  18.562   3.054  0.00  0.00     0.150 HD
ENDBRANCH  23  28
ENDBRANCH  22  23
ENDBRANCH  21  22
ENDBRANCH  18  21
ENDBRANCH  16  17
BRANCH  16  31
HETATM   31  C   UNK N   1      21.766  15.707   6.969  0.00  0.00     0.105 C 
BRANCH  31  32
HETATM   32  S   UNK N   1      20.544  16.980   7.416  0.00  0.00    -0.180 SA
HETATM   33  H   UNK N   1      20.617  18.285   7.040  0.00  0.00     0.101 HD
ENDBRANCH  31  32
ENDBRANCH  16  31
ENDBRANCH  13  16
ENDBRANCH  11  12
ENDBRANCH   8  11
ENDBRANCH   6   7
ENDBRANCH   5   6
ENDBRANCH   4   5
ENDBRANCH   3   4
ENDBRANCH   1   3
BRANCH   1  34
HETATM   34  C   UNK N   1      25.758  14.442   3.055  0.00  0.00     0.115 C 
BRANCH  34  35
HETATM   35  C   UNK N   1      26.676  15.402   2.336  0.00  0.00     0.039 C 
BRANCH  35  36
HETATM   36  C   UNK N   1      27.211  16.429   3.304  0.00  0.00     0.124 C 
BRANCH  36  37
HETATM   37  N   UNK N   1      26.848  16.040   4.642  0.00  0.00    -0.360 N 
HETATM   38  C   UNK N   1      27.390  16.614   5.744  0.00  0.00     0.235 C 
HETATM   39  O   UNK N   1      27.039  16.239   6.849  0.00  0.00    -0.272 OA
HETATM   40  H   UNK N   1      26.178  15.329   4.762  0.00  0.00     0.162 HD
BRANCH  38  41
HETATM   41  C   UNK N   1      28.406  17.711   5.637  0.00  0.00     0.225 C 
BRANCH  41  42
HETATM   42  N   UNK N   1      29.742  17.180   5.773  0.00  0.00    -0.351 N 
HETATM   43  C   UNK N   1      30.446  17.222   6.928  0.00  0.00     0.241 C 
HETATM   44  O   UNK N   1      29.955  17.688   7.948  0.00  0.00    -0.271 OA
HETATM   45  H   UNK N   1      30.162  16.766   4.985  0.00  0.00     0.163 HD
BRANCH  43  46
HETATM   46  C   UNK N   1      31.786  16.570   6.963  0.00  0.00     0.185 C 
BRANCH  46  47
HETATM   47  C   UNK N   1      32.291  16.149   8.344  0.00  0.00     0.105 C 
BRANCH  47  48
HETATM   48  S   UNK N   1      33.778  17.087   8.808  0.00  0.00    -0.180 SA
HETATM   49  H   UNK N   1      33.725  18.314   9.393  0.00  0.00     0.101 HD
ENDBRANCH  47  48
ENDBRANCH  46  47
BRANCH  46  50
HETATM   50  N   UNK N   1      31.820  15.534   5.957  0.00  0.00    -0.347 N 
HETATM   51  C   UNK N   1      32.846  15.319   5.103  0.00  0.00     0.218 C 
HETATM   52  O   UNK N   1      33.758  16.123   4.990  0.00  0.00    -0.274 OA
HETATM   53  H   UNK N   1      31.038  14.941   5.888  0.00  0.00     0.163 HD
BRANCH  51  54
HETATM   54  C   UNK N   1      32.918  14.021   4.385  0.00  0.00     0.105 C 
BRANCH  54  55
HETATM   55  C   UNK N   1      32.115  12.981   5.160  0.00  0.00     0.044 C 
BRANCH  55  56
HETATM   56  C   UNK N   1      30.989  12.420   4.294  0.00  0.00     0.173 C 
BRANCH  56  57
HETATM   57  C   UNK N   1      30.021  13.499   3.886  0.00  0.00     0.163 C 
HETATM   58  O   UNK N   1      29.403  14.130   4.728  0.00  0.00    -0.648 OA
BRANCH  57  59
HETATM   59  O   UNK N   1      29.822  13.763   2.580  0.00  0.00    -0.775 OA
HETATM   60  H   UNK N   1      30.250  13.347   1.858  0.00  0.00     0.167 HD
ENDBRANCH  57  59
ENDBRANCH  56  57
BRANCH  56  61
HETATM   61  N   UNK N   1      30.317  11.342   5.003  0.00  0.00    -0.418 N 
HETATM   62  H   UNK N   1      30.593  10.362   4.958  0.00  0.00     0.150 HD
HETATM   63  H   UNK N   1      29.515  11.583   5.584  0.00  0.00     0.150 HD
ENDBRANCH  56  61
ENDBRANCH  55  56
ENDBRANCH  54  55
ENDBRANCH  51  54
ENDBRANCH  46  50
ENDBRANCH  43  46
ENDBRANCH  41  42
ENDBRANCH  38  41
ENDBRANCH  36  37
ENDBRANCH  35  36
ENDBRANCH  34  35
ENDBRANCH   1  34
TORSDOF 33
ENDMDL
MODEL 9
REMARK VINA RESULT:      -5.4      5.002      8.270
REMARK WARNING: 32 MAX_TORS EXCEEDED!!!
REMARK  33 active torsions:
REMARK  status: ('A' for Active; 'I' for Inactive)
REMARK    1  A    between atoms: C_1  and  N_2 
REMARK    2  A    between atoms: C_1  and  C_3 
REMARK    3  A    between atoms: C_1  and  C_4 
REMARK       I    between atoms: N_2  and  C_5 
REMARK       I    between atoms: C_3  and  N_6 
REMARK    4  A    between atoms: C_4  and  S_8 
REMARK    5  A    between atoms: C_5  and  C_9 
REMARK    6  A    between atoms: N_6  and  C_11 
REMARK    7  A    between atoms: C_9  and  C_13 
REMARK    8  A    between atoms: C_11  and  C_14 
REMARK    9  A    between atoms: S_12  and  C_15 
REMARK   10  A    between atoms: C_13  and  C_16 
REMARK       I    between atoms: C_14  and  N_17 
REMARK   11  A    between atoms: C_15  and  C_19 
REMARK   12  A    between atoms: C_16  and  C_20 
REMARK   13  A    between atoms: C_16  and  N_21 
REMARK   14  A    between atoms: N_17  and  C_22 
REMARK   15  A    between atoms: C_19  and  N_23 
REMARK   16  A    between atoms: C_19  and  C_24 
REMARK   17  A    between atoms: C_20  and  O_25 
REMARK   18  A    between atoms: C_22  and  C_27 
REMARK       I    between atoms: N_23  and  C_28 
REMARK       I    between atoms: C_24  and  N_29 
REMARK   19  A    between atoms: C_27  and  C_31 
REMARK   20  A    between atoms: C_28  and  C_32 
REMARK   21  A    between atoms: N_29  and  C_34 
REMARK   22  A    between atoms: C_31  and  C_35 
REMARK   23  A    between atoms: C_32  and  C_36 
REMARK   24  A    between atoms: C_34  and  C_37 
REMARK   25  A    between atoms: C_35  and  N_38 
REMARK   26  A    between atoms: C_36  and  C_39 
REMARK       I    between atoms: C_37  and  N_40 
REMARK   27  A    between atoms: N_38  and  C_42 
REMARK   28  A    between atoms: C_39  and  C_43 
REMARK   29  A    between atoms: C_39  and  N_44 
REMARK   30  A    between atoms: N_40  and  C_45 
REMARK   31  A    between atoms: C_42  and  C_46 
REMARK   32  A    between atoms: C_43  and  O_47 
REMARK   33  A    between atoms: C_45  and  C_46 
ROOT
HETATM    1  N   UNK N   1      26.535  16.371   4.745  0.00  0.00    -0.421 N 
HETATM    2  H   UNK N   1      26.068  15.954   3.940  0.00  0.00     0.153 HD
ENDROOT
BRANCH   1   3
HETATM    3  C   UNK N   1      27.373  15.681   5.708  0.00  0.00     0.113 C 
BRANCH   3   4
HETATM    4  C   UNK N   1      28.736  15.391   5.110  0.00  0.00     0.021 C 
BRANCH   4   5
HETATM    5  C   UNK N   1      29.769  16.011   6.017  0.00  0.00     0.021 C 
BRANCH   5   6
HETATM    6  C   UNK N   1      30.149  17.384   5.518  0.00  0.00     0.122 C 
BRANCH   6   7
HETATM    7  N   UNK N   1      30.576  17.269   4.147  0.00  0.00    -0.360 N 
HETATM    8  C   UNK N   1      31.883  17.267   3.802  0.00  0.00     0.235 C 
HETATM    9  O   UNK N   1      32.195  17.144   2.628  0.00  0.00    -0.272 OA
HETATM   10  H   UNK N   1      29.896  17.191   3.440  0.00  0.00     0.162 HD
BRANCH   8  11
HETATM   11  C   UNK N   1      32.956  17.369   4.839  0.00  0.00     0.225 C 
BRANCH  11  12
HETATM   12  N   UNK N   1      33.761  16.175   4.797  0.00  0.00    -0.351 N 
HETATM   13  C   UNK N   1      34.663  15.897   5.772  0.00  0.00     0.241 C 
HETATM   14  O   UNK N   1      34.782  16.643   6.727  0.00  0.00    -0.271 OA
HETATM   15  H   UNK N   1      33.653  15.547   4.046  0.00  0.00     0.163 HD
BRANCH  13  16
HETATM   16  C   UNK N   1      35.515  14.650   5.701  0.00  0.00     0.185 C 
BRANCH  16  17
HETATM   17  N   UNK N   1      35.157  13.816   6.826  0.00  0.00    -0.347 N 
HETATM   18  C   UNK N   1      36.035  13.561   7.826  0.00  0.00     0.218 C 
HETATM   19  O   UNK N   1      37.196  13.938   7.744  0.00  0.00    -0.274 OA
HETATM   20  H   UNK N   1      34.255  13.424   6.867  0.00  0.00     0.163 HD
BRANCH  18  21
HETATM   21  C   UNK N   1      35.546  12.989   9.112  0.00  0.00     0.105 C 
BRANCH  21  22
HETATM   22  C   UNK N   1      35.597  13.955  10.280  0.00  0.00     0.044 C 
BRANCH  22  23
HETATM   23  C   UNK N   1      34.584  15.085  10.075  0.00  0.00     0.173 C 
BRANCH  23  24
HETATM   24  C   UNK N   1      35.190  16.463  10.188  0.00  0.00     0.163 C 
HETATM   25  O   UNK N   1      36.291  16.607  10.694  0.00  0.00    -0.648 OA
BRANCH  24  26
HETATM   26  O   UNK N   1      34.541  17.536   9.697  0.00  0.00    -0.775 OA
HETATM   27  H   UNK N   1      34.230  17.538   8.813  0.00  0.00     0.167 HD
ENDBRANCH  24  26
ENDBRANCH  23  24
BRANCH  23  28
HETATM   28  N   UNK N   1      33.496  14.930  11.025  0.00  0.00    -0.418 N 
HETATM   29  H   UNK N   1      32.887  15.656  11.402  0.00  0.00     0.150 HD
HETATM   30  H   UNK N   1      33.319  13.980  11.355  0.00  0.00     0.150 HD
ENDBRANCH  23  28
ENDBRANCH  22  23
ENDBRANCH  21  22
ENDBRANCH  18  21
ENDBRANCH  16  17
BRANCH  16  31
HETATM   31  C   UNK N   1      35.371  13.874   4.397  0.00  0.00     0.105 C 
BRANCH  31  32
HETATM   32  S   UNK N   1      34.311  12.409   4.604  0.00  0.00    -0.180 SA
HETATM   33  H   UNK N   1      33.785  11.686   3.578  0.00  0.00     0.101 HD
ENDBRANCH  31  32
ENDBRANCH  16  31
ENDBRANCH  13  16
ENDBRANCH  11  12
ENDBRANCH   8  11
ENDBRANCH   6   7
ENDBRANCH   5   6
ENDBRANCH   4   5
ENDBRANCH   3   4
ENDBRANCH   1   3
BRANCH   1  34
HETATM   34  C   UNK N   1      26.488  17.768   5.144  0.00  0.00     0.115 C 
BRANCH  34  35
HETATM   35  C   UNK N   1      26.935  18.618   3.978  0.00  0.00     0.039 C 
BRANCH  35  36
HETATM   36  C   UNK N   1      26.508  20.050   4.189  0.00  0.00     0.124 C 
BRANCH  36  37
HETATM   37  N   UNK N   1      25.783  20.496   3.027  0.00  0.00    -0.360 N 
HETATM   38  C   UNK N   1      24.440  20.359   2.905  0.00  0.00     0.235 C 
HETATM   39  O   UNK N   1      23.887  20.757   1.894  0.00  0.00    -0.272 OA
HETATM   40  H   UNK N   1      26.283  20.917   2.291  0.00  0.00     0.162 HD
BRANCH  38  41
HETATM   41  C   UNK N   1      23.614  19.738   3.989  0.00  0.00     0.225 C 
BRANCH  41  42
HETATM   42  N   UNK N   1      22.600  18.878   3.426  0.00  0.00    -0.351 N 
HETATM   43  C   UNK N   1      21.277  19.026   3.674  0.00  0.00     0.241 C 
HETATM   44  O   UNK N   1      20.866  19.942   4.373  0.00  0.00    -0.271 OA
HETATM   45  H   UNK N   1      22.885  18.147   2.832  0.00  0.00     0.163 HD
BRANCH  43  46
HETATM   46  C   UNK N   1      20.322  18.122   2.971  0.00  0.00     0.185 C 
BRANCH  46  47
HETATM   47  C   UNK N   1      20.176  18.344   1.465  0.00  0.00     0.105 C 
BRANCH  47  48
HETATM   48  S   UNK N   1      19.966  16.763   0.591  0.00  0.00    -0.180 SA
HETATM   49  H   UNK N   1      19.581  16.685  -0.712  0.00  0.00     0.101 HD
ENDBRANCH  47  48
ENDBRANCH  46  47
BRANCH  46  50
HETATM   50  N   UNK N   1      20.601  16.761   3.365  0.00  0.00    -0.347 N 
HETATM   51  C   UNK N   1      19.794  16.000   4.138  0.00  0.00     0.218 C 
HETATM   52  O   UNK N   1      18.839  16.481   4.728  0.00  0.00    -0.274 OA
HETATM   53  H   UNK N   1      21.441  16.359   3.049  0.00  0.00     0.163 HD
BRANCH  51  54
HETATM   54  C   UNK N   1      20.007  14.530   4.162  0.00  0.00     0.105 C 
BRANCH  54  55
HETATM   55  C   UNK N   1      21.506  14.246   4.175  0.00  0.00     0.044 C 
BRANCH  55  56
HETATM   56  C   UNK N   1      22.089  14.515   5.560  0.00  0.00     0.173 C 
BRANCH  56  57
HETATM   57  C   UNK N   1      23.203  15.527   5.500  0.00  0.00     0.163 C 
HETATM   58  O   UNK N   1      23.429  16.141   4.471  0.00  0.00    -0.648 OA
BRANCH  57  59
HETATM   59  O   UNK N   1      23.968  15.747   6.586  0.00  0.00    -0.775 OA
HETATM   60  H   UNK N   1      24.302  16.575   6.872  0.00  0.00     0.167 HD
ENDBRANCH  57  59
ENDBRANCH  56  57
BRANCH  56  61
HETATM   61  N   UNK N   1      22.539  13.265   6.153  0.00  0.00    -0.418 N 
HETATM   62  H   UNK N   1      22.849  13.165   7.119  0.00  0.00     0.150 HD
HETATM   63  H   UNK N   1      22.542  12.433   5.564  0.00  0.00     0.150 HD
ENDBRANCH  56  61
ENDBRANCH  55  56
ENDBRANCH  54  55
ENDBRANCH  51  54
ENDBRANCH  46  50
ENDBRANCH  43  46
ENDBRANCH  41  42
ENDBRANCH  38  41
ENDBRANCH  36  37
ENDBRANCH  35  36
ENDBRANCH  34  35
ENDBRANCH   1  34
TORSDOF 33
ENDMDL
