MODEL 1
REMARK VINA RESULT:      -7.4      0.000      0.000
REMARK  9 active torsions:
REMARK  status: ('A' for Active; 'I' for Inactive)
REMARK    1  A    between atoms: C_4  and  C_2 
REMARK    2  A    between atoms: O_25  and  C_2 
REMARK    3  A    between atoms: C_6  and  O_19 
REMARK    4  A    between atoms: C_7  and  O_20 
REMARK    5  A    between atoms: O_21  and  C_9 
REMARK    6  A    between atoms: C_10  and  N_18 
REMARK       I    between atoms: N_12  and  C_11 
REMARK    7  A    between atoms: P_27  and  O_22 
REMARK    8  A    between atoms: P_27  and  O_23 
REMARK    9  A    between atoms: P_27  and  O_25 
ROOT
HETATM    1  C   UNK N   1      33.536  17.210   9.084  0.00  0.00     0.180 C 
HETATM    2  C   UNK N   1      34.436  17.790   8.006  0.00  0.00     0.182 C 
HETATM    3  C   UNK N   1      33.574  17.776   6.783  0.00  0.00     0.198 C 
HETATM    4  C   UNK N   1      32.512  16.779   7.176  0.00  0.00     0.262 C 
HETATM    5  O   UNK N   1      32.251  17.021   8.530  0.00  0.00    -0.353 OA
ENDROOT
BRANCH   4   6
HETATM    6  N   UNK N   1      31.293  16.842   6.360  0.00  0.00    -0.296 N 
HETATM    7  C   UNK N   1      31.228  16.553   5.032  0.00  0.00     0.190 A 
HETATM    8  N   UNK N   1      29.977  16.766   4.552  0.00  0.00    -0.341 N 
HETATM    9  C   UNK N   1      29.540  16.576   3.180  0.00  0.00     0.157 C 
HETATM   10  C   UNK N   1      29.255  17.213   5.596  0.00  0.00     0.132 A 
HETATM   11  C   UNK N   1      30.048  17.248   6.688  0.00  0.00     0.158 A 
HETATM   12  C   UNK N   1      27.932  17.626   5.681  0.00  0.00     0.186 A 
HETATM   13  N   UNK N   1      29.600  17.683   7.893  0.00  0.00    -0.174 N 
HETATM   14  C   UNK N   1      28.300  18.092   7.991  0.00  0.00     0.679 A 
HETATM   15  H   UNK N   1      30.196  17.703   8.676  0.00  0.00     0.186 HD
HETATM   16  N   UNK N   1      27.852  18.516   9.112  0.00  0.00    -0.234 N 
HETATM   17  N   UNK N   1      27.476  18.065   6.893  0.00  0.00    -0.168 N 
HETATM   18  H   UNK N   1      28.425  18.494   9.912  0.00  0.00     0.174 HD
ATOM     19  HN  UNK N   1      26.900  18.877   9.177  1.00  0.00     0.174 HD
ATOM     20  HN  UNK N   1      26.508  18.375   6.983  1.00  0.00     0.186 HD
BRANCH  12  21
HETATM   21  O   UNK N   1      27.121  17.619   4.610  0.00  0.00    -0.344 OA
HETATM   22  H   UNK N   1      27.379  18.061   3.824  0.00  0.00     0.219 HD
ENDBRANCH  12  21
ENDBRANCH   4   6
BRANCH   3  23
HETATM   23  O   UNK N   1      34.302  17.327   5.681  0.00  0.00    -0.388 OA
HETATM   24  H   UNK N   1      34.402  17.414   4.721  0.00  0.00     0.210 HD
ENDBRANCH   3  23
BRANCH   2  25
HETATM   25  O   UNK N   1      34.791  19.100   8.320  0.00  0.00    -0.390 OA
HETATM   26  H   UNK N   1      34.585  20.035   8.163  0.00  0.00     0.210 HD
ENDBRANCH   2  25
BRANCH   1  27
HETATM   27  C   UNK N   1      34.146  15.874   9.506  0.00  0.00     0.215 C 
BRANCH  27  28
HETATM   28  O   UNK N   1      35.542  15.932   9.621  0.00  0.00    -0.294 OA
BRANCH  28  29
HETATM   29  P   UNK N   1      36.010  14.684  10.755  0.00  0.00     0.390 P 
HETATM   30  O   UNK N   1      34.666  15.051  11.446  0.00  0.00    -0.632 OA
BRANCH  29  31
HETATM   31  O   UNK N   1      36.569  14.976  12.370  0.00  0.00    -0.307 OA
HETATM   32  H   UNK N   1      36.275  15.766  12.851  0.00  0.00     0.222 HD
ENDBRANCH  29  31
BRANCH  29  33
HETATM   33  O   UNK N   1      36.996  16.107  10.894  0.00  0.00    -0.307 OA
HETATM   34  H   UNK N   1      37.956  16.058  10.767  0.00  0.00     0.222 HD
ENDBRANCH  29  33
ENDBRANCH  28  29
ENDBRANCH  27  28
ENDBRANCH   1  27
TORSDOF 9
ENDMDL
MODEL 2
REMARK VINA RESULT:      -7.0      4.553      7.521
REMARK  9 active torsions:
REMARK  status: ('A' for Active; 'I' for Inactive)
REMARK    1  A    between atoms: C_4  and  C_2 
REMARK    2  A    between atoms: O_25  and  C_2 
REMARK    3  A    between atoms: C_6  and  O_19 
REMARK    4  A    between atoms: C_7  and  O_20 
REMARK    5  A    between atoms: O_21  and  C_9 
REMARK    6  A    between atoms: C_10  and  N_18 
REMARK       I    between atoms: N_12  and  C_11 
REMARK    7  A    between atoms: P_27  and  O_22 
REMARK    8  A    between atoms: P_27  and  O_23 
REMARK    9  A    between atoms: P_27  and  O_25 
ROOT
HETATM    1  C   UNK N   1      32.600  17.223   7.877  0.00  0.00     0.180 C 
HETATM    2  C   UNK N   1      33.909  17.915   8.215  0.00  0.00     0.182 C 
HETATM    3  C   UNK N   1      34.686  16.862   8.941  0.00  0.00     0.198 C 
HETATM    4  C   UNK N   1      33.590  15.908   9.347  0.00  0.00     0.262 C 
HETATM    5  O   UNK N   1      32.704  15.869   8.263  0.00  0.00    -0.353 OA
ENDROOT
BRANCH   4   6
HETATM    6  N   UNK N   1      34.064  14.569   9.719  0.00  0.00    -0.296 N 
HETATM    7  C   UNK N   1      33.727  13.417   9.078  0.00  0.00     0.190 A 
HETATM    8  N   UNK N   1      34.275  12.341   9.698  0.00  0.00    -0.341 N 
HETATM    9  C   UNK N   1      34.121  10.952   9.302  0.00  0.00     0.157 C 
HETATM   10  C   UNK N   1      34.949  12.831  10.754  0.00  0.00     0.132 A 
HETATM   11  C   UNK N   1      34.830  14.176  10.759  0.00  0.00     0.158 A 
HETATM   12  C   UNK N   1      35.664  12.190  11.758  0.00  0.00     0.186 A 
HETATM   13  N   UNK N   1      35.387  14.947  11.726  0.00  0.00    -0.174 N 
HETATM   14  C   UNK N   1      36.094  14.331  12.720  0.00  0.00     0.679 A 
HETATM   15  H   UNK N   1      35.285  15.926  11.712  0.00  0.00     0.186 HD
HETATM   16  N   UNK N   1      36.624  15.031  13.650  0.00  0.00    -0.234 N 
HETATM   17  N   UNK N   1      36.229  12.964  12.734  0.00  0.00    -0.168 N 
HETATM   18  H   UNK N   1      36.569  16.014  13.618  0.00  0.00     0.174 HD
ATOM     19  HN  UNK N   1      37.103  14.571  14.425  1.00  0.00     0.174 HD
ATOM     20  HN  UNK N   1      36.759  12.519  13.483  1.00  0.00     0.186 HD
BRANCH  12  21
HETATM   21  O   UNK N   1      35.789  10.853  11.791  0.00  0.00    -0.344 OA
HETATM   22  H   UNK N   1      35.737  10.398  12.609  0.00  0.00     0.219 HD
ENDBRANCH  12  21
ENDBRANCH   4   6
BRANCH   3  23
HETATM   23  O   UNK N   1      35.316  17.409  10.059  0.00  0.00    -0.388 OA
HETATM   24  H   UNK N   1      36.073  17.309  10.658  0.00  0.00     0.210 HD
ENDBRANCH   3  23
BRANCH   2  25
HETATM   25  O   UNK N   1      34.582  18.283   7.052  0.00  0.00    -0.390 OA
HETATM   26  H   UNK N   1      35.438  18.268   6.594  0.00  0.00     0.210 HD
ENDBRANCH   2  25
BRANCH   1  27
HETATM   27  C   UNK N   1      31.501  17.931   8.668  0.00  0.00     0.215 C 
BRANCH  27  28
HETATM   28  O   UNK N   1      30.255  17.298   8.543  0.00  0.00    -0.294 OA
BRANCH  28  29
HETATM   29  P   UNK N   1      29.040  18.555   8.618  0.00  0.00     0.390 P 
HETATM   30  O   UNK N   1      29.450  18.621  10.117  0.00  0.00    -0.632 OA
BRANCH  29  31
HETATM   31  O   UNK N   1      27.485  18.381   9.367  0.00  0.00    -0.307 OA
HETATM   32  H   UNK N   1      27.174  17.505   9.642  0.00  0.00     0.222 HD
ENDBRANCH  29  31
BRANCH  29  33
HETATM   33  O   UNK N   1      28.347  16.977   8.405  0.00  0.00    -0.307 OA
HETATM   34  H   UNK N   1      27.418  16.875   8.145  0.00  0.00     0.222 HD
ENDBRANCH  29  33
ENDBRANCH  28  29
ENDBRANCH  27  28
ENDBRANCH   1  27
TORSDOF 9
ENDMDL
MODEL 3
REMARK VINA RESULT:      -6.9      5.611      8.811
REMARK  9 active torsions:
REMARK  status: ('A' for Active; 'I' for Inactive)
REMARK    1  A    between atoms: C_4  and  C_2 
REMARK    2  A    between atoms: O_25  and  C_2 
REMARK    3  A    between atoms: C_6  and  O_19 
REMARK    4  A    between atoms: C_7  and  O_20 
REMARK    5  A    between atoms: O_21  and  C_9 
REMARK    6  A    between atoms: C_10  and  N_18 
REMARK       I    between atoms: N_12  and  C_11 
REMARK    7  A    between atoms: P_27  and  O_22 
REMARK    8  A    between atoms: P_27  and  O_23 
REMARK    9  A    between atoms: P_27  and  O_25 
ROOT
HETATM    1  C   UNK N   1      34.613  14.082   9.061  0.00  0.00     0.180 C 
HETATM    2  C   UNK N   1      36.098  14.245   8.788  0.00  0.00     0.182 C 
HETATM    3  C   UNK N   1      36.710  14.235  10.154  0.00  0.00     0.198 C 
HETATM    4  C   UNK N   1      35.516  14.554  11.020  0.00  0.00     0.262 C 
HETATM    5  O   UNK N   1      34.439  13.865  10.445  0.00  0.00    -0.353 OA
ENDROOT
BRANCH   4   6
HETATM    6  N   UNK N   1      35.691  14.218  12.438  0.00  0.00    -0.296 N 
HETATM    7  C   UNK N   1      36.411  14.951  13.329  0.00  0.00     0.190 A 
HETATM    8  N   UNK N   1      36.434  14.346  14.544  0.00  0.00    -0.341 N 
HETATM    9  C   UNK N   1      37.115  14.832  15.732  0.00  0.00     0.157 C 
HETATM   10  C   UNK N   1      35.732  13.208  14.401  0.00  0.00     0.132 A 
HETATM   11  C   UNK N   1      35.275  13.137  13.132  0.00  0.00     0.158 A 
HETATM   12  C   UNK N   1      35.463  12.182  15.298  0.00  0.00     0.186 A 
HETATM   13  N   UNK N   1      34.551  12.082  12.683  0.00  0.00    -0.174 N 
HETATM   14  C   UNK N   1      34.277  11.065  13.555  0.00  0.00     0.679 A 
HETATM   15  H   UNK N   1      34.229  12.049  11.753  0.00  0.00     0.186 HD
HETATM   16  N   UNK N   1      33.604  10.053  13.157  0.00  0.00    -0.234 N 
HETATM   17  N   UNK N   1      34.732  11.117  14.849  0.00  0.00    -0.168 N 
HETATM   18  H   UNK N   1      33.236  10.033  12.244  0.00  0.00     0.174 HD
ATOM     19  HN  UNK N   1      33.447   9.266  13.787  1.00  0.00     0.174 HD
ATOM     20  HN  UNK N   1      34.520  10.349  15.488  1.00  0.00     0.186 HD
BRANCH  12  21
HETATM   21  O   UNK N   1      35.916  12.214  16.562  0.00  0.00    -0.344 OA
HETATM   22  H   UNK N   1      35.841  11.454  17.105  0.00  0.00     0.219 HD
ENDBRANCH  12  21
ENDBRANCH   4   6
BRANCH   3  23
HETATM   23  O   UNK N   1      37.684  15.228  10.257  0.00  0.00    -0.388 OA
HETATM   24  H   UNK N   1      38.472  15.598   9.830  0.00  0.00     0.210 HD
ENDBRANCH   3  23
BRANCH   2  25
HETATM   25  O   UNK N   1      36.580  13.168   8.046  0.00  0.00    -0.390 OA
HETATM   26  H   UNK N   1      36.811  12.862   7.155  0.00  0.00     0.210 HD
ENDBRANCH   2  25
BRANCH   1  27
HETATM   27  C   UNK N   1      33.932  15.379   8.625  0.00  0.00     0.215 C 
BRANCH  27  28
HETATM   28  O   UNK N   1      34.846  16.344   8.180  0.00  0.00    -0.294 OA
BRANCH  28  29
HETATM   29  P   UNK N   1      34.017  17.885   8.224  0.00  0.00     0.390 P 
HETATM   30  O   UNK N   1      34.640  18.064   6.810  0.00  0.00    -0.632 OA
BRANCH  29  31
HETATM   31  O   UNK N   1      34.798  19.420   8.428  0.00  0.00    -0.307 OA
HETATM   32  H   UNK N   1      35.689  19.563   8.073  0.00  0.00     0.222 HD
ENDBRANCH  29  31
BRANCH  29  33
HETATM   33  O   UNK N   1      35.369  17.829   9.313  0.00  0.00    -0.307 OA
HETATM   34  H   UNK N   1      35.349  17.262  10.099  0.00  0.00     0.222 HD
ENDBRANCH  29  33
ENDBRANCH  28  29
ENDBRANCH  27  28
ENDBRANCH   1  27
TORSDOF 9
ENDMDL
MODEL 4
REMARK VINA RESULT:      -6.9      7.025     11.494
REMARK  9 active torsions:
REMARK  status: ('A' for Active; 'I' for Inactive)
REMARK    1  A    between atoms: C_4  and  C_2 
REMARK    2  A    between atoms: O_25  and  C_2 
REMARK    3  A    between atoms: C_6  and  O_19 
REMARK    4  A    between atoms: C_7  and  O_20 
REMARK    5  A    between atoms: O_21  and  C_9 
REMARK    6  A    between atoms: C_10  and  N_18 
REMARK       I    between atoms: N_12  and  C_11 
REMARK    7  A    between atoms: P_27  and  O_22 
REMARK    8  A    between atoms: P_27  and  O_23 
REMARK    9  A    between atoms: P_27  and  O_25 
ROOT
HETATM    1  C   UNK N   1      21.318  18.837   4.455  0.00  0.00     0.180 C 
HETATM    2  C   UNK N   1      21.350  18.013   5.731  0.00  0.00     0.182 C 
HETATM    3  C   UNK N   1      22.755  17.500   5.782  0.00  0.00     0.198 C 
HETATM    4  C   UNK N   1      23.189  17.672   4.347  0.00  0.00     0.262 C 
HETATM    5  O   UNK N   1      22.626  18.883   3.926  0.00  0.00    -0.353 OA
ENDROOT
BRANCH   4   6
HETATM    6  N   UNK N   1      24.644  17.642   4.150  0.00  0.00    -0.296 N 
HETATM    7  C   UNK N   1      25.324  16.650   3.513  0.00  0.00     0.190 A 
HETATM    8  N   UNK N   1      26.661  16.883   3.549  0.00  0.00    -0.341 N 
HETATM    9  C   UNK N   1      27.694  16.034   2.983  0.00  0.00     0.157 C 
HETATM   10  C   UNK N   1      26.815  18.030   4.235  0.00  0.00     0.132 A 
HETATM   11  C   UNK N   1      25.597  18.492   4.587  0.00  0.00     0.158 A 
HETATM   12  C   UNK N   1      27.960  18.720   4.612  0.00  0.00     0.186 A 
HETATM   13  N   UNK N   1      25.437  19.626   5.314  0.00  0.00    -0.174 N 
HETATM   14  C   UNK N   1      26.555  20.317   5.692  0.00  0.00     0.679 A 
HETATM   15  H   UNK N   1      24.540  19.944   5.563  0.00  0.00     0.186 HD
HETATM   16  N   UNK N   1      26.436  21.385   6.386  0.00  0.00    -0.234 N 
HETATM   17  N   UNK N   1      27.804  19.865   5.344  0.00  0.00    -0.168 N 
HETATM   18  H   UNK N   1      25.541  21.738   6.598  0.00  0.00     0.174 HD
ATOM     19  HN  UNK N   1      27.268  21.872   6.720  1.00  0.00     0.174 HD
ATOM     20  HN  UNK N   1      28.628  20.391   5.635  1.00  0.00     0.186 HD
BRANCH  12  21
HETATM   21  O   UNK N   1      29.188  18.279   4.291  0.00  0.00    -0.344 OA
HETATM   22  H   UNK N   1      29.460  18.263   3.395  0.00  0.00     0.219 HD
ENDBRANCH  12  21
ENDBRANCH   4   6
BRANCH   3  23
HETATM   23  O   UNK N   1      22.766  16.155   6.153  0.00  0.00    -0.388 OA
HETATM   24  H   UNK N   1      22.576  15.256   5.844  0.00  0.00     0.210 HD
ENDBRANCH   3  23
BRANCH   2  25
HETATM   25  O   UNK N   1      21.100  18.820   6.840  0.00  0.00    -0.390 OA
HETATM   26  H   UNK N   1      21.425  19.084   7.716  0.00  0.00     0.210 HD
ENDBRANCH   2  25
BRANCH   1  27
HETATM   27  C   UNK N   1      20.366  18.133   3.490  0.00  0.00     0.215 C 
BRANCH  27  28
HETATM   28  O   UNK N   1      20.713  18.336   2.147  0.00  0.00    -0.294 OA
BRANCH  28  29
HETATM   29  P   UNK N   1      20.039  16.999   1.242  0.00  0.00     0.390 P 
HETATM   30  O   UNK N   1      20.534  17.808   0.009  0.00  0.00    -0.632 OA
BRANCH  29  31
HETATM   31  O   UNK N   1      18.573  17.072   0.316  0.00  0.00    -0.307 OA
HETATM   32  H   UNK N   1      18.612  17.134  -0.651  0.00  0.00     0.222 HD
ENDBRANCH  29  31
BRANCH  29  33
HETATM   33  O   UNK N   1      18.813  17.988   1.973  0.00  0.00    -0.307 OA
HETATM   34  H   UNK N   1      17.951  18.106   1.544  0.00  0.00     0.222 HD
ENDBRANCH  29  33
ENDBRANCH  28  29
ENDBRANCH  27  28
ENDBRANCH   1  27
TORSDOF 9
ENDMDL
MODEL 5
REMARK VINA RESULT:      -6.9      4.303      7.944
REMARK  9 active torsions:
REMARK  status: ('A' for Active; 'I' for Inactive)
REMARK    1  A    between atoms: C_4  and  C_2 
REMARK    2  A    between atoms: O_25  and  C_2 
REMARK    3  A    between atoms: C_6  and  O_19 
REMARK    4  A    between atoms: C_7  and  O_20 
REMARK    5  A    between atoms: O_21  and  C_9 
REMARK    6  A    between atoms: C_10  and  N_18 
REMARK       I    between atoms: N_12  and  C_11 
REMARK    7  A    between atoms: P_27  and  O_22 
REMARK    8  A    between atoms: P_27  and  O_23 
REMARK    9  A    between atoms: P_27  and  O_25 
ROOT
HETATM    1  C   UNK N   1      32.548  17.027   7.819  0.00  0.00     0.180 C 
HETATM    2  C   UNK N   1      33.642  18.032   7.500  0.00  0.00     0.182 C 
HETATM    3  C   UNK N   1      34.770  17.620   8.391  0.00  0.00     0.198 C 
HETATM    4  C   UNK N   1      34.050  16.783   9.419  0.00  0.00     0.262 C 
HETATM    5  O   UNK N   1      33.078  16.066   8.708  0.00  0.00    -0.353 OA
ENDROOT
BRANCH   4   6
HETATM    6  N   UNK N   1      34.925  15.898  10.199  0.00  0.00    -0.296 N 
HETATM    7  C   UNK N   1      35.058  15.930  11.553  0.00  0.00     0.190 A 
HETATM    8  N   UNK N   1      35.988  15.032  11.967  0.00  0.00    -0.341 N 
HETATM    9  C   UNK N   1      36.402  14.796  13.339  0.00  0.00     0.157 C 
HETATM   10  C   UNK N   1      36.453  14.444  10.849  0.00  0.00     0.132 A 
HETATM   11  C   UNK N   1      35.803  14.960   9.785  0.00  0.00     0.158 A 
HETATM   12  C   UNK N   1      37.439  13.483  10.667  0.00  0.00     0.186 A 
HETATM   13  N   UNK N   1      36.080  14.577   8.513  0.00  0.00    -0.174 N 
HETATM   14  C   UNK N   1      37.048  13.631   8.318  0.00  0.00     0.679 A 
HETATM   15  H   UNK N   1      35.596  14.968   7.751  0.00  0.00     0.186 HD
HETATM   16  N   UNK N   1      37.337  13.256   7.130  0.00  0.00    -0.234 N 
HETATM   17  N   UNK N   1      37.721  13.092   9.386  0.00  0.00    -0.168 N 
HETATM   18  H   UNK N   1      36.825  13.605   6.365  0.00  0.00     0.174 HD
ATOM     19  HN  UNK N   1      38.098  12.594   6.975  1.00  0.00     0.174 HD
ATOM     20  HN  UNK N   1      38.442  12.389   9.224  1.00  0.00     0.186 HD
BRANCH  12  21
HETATM   21  O   UNK N   1      38.116  12.961  11.703  0.00  0.00    -0.344 OA
HETATM   22  H   UNK N   1      38.157  13.425  12.516  0.00  0.00     0.219 HD
ENDBRANCH  12  21
ENDBRANCH   4   6
BRANCH   3  23
HETATM   23  O   UNK N   1      35.359  18.740   8.978  0.00  0.00    -0.388 OA
HETATM   24  H   UNK N   1      35.664  19.644   8.807  0.00  0.00     0.210 HD
ENDBRANCH   3  23
BRANCH   2  25
HETATM   25  O   UNK N   1      34.029  17.925   6.165  0.00  0.00    -0.390 OA
HETATM   26  H   UNK N   1      33.713  17.914   5.248  0.00  0.00     0.210 HD
ENDBRANCH   2  25
BRANCH   1  27
HETATM   27  C   UNK N   1      31.405  17.801   8.475  0.00  0.00     0.215 C 
BRANCH  27  28
HETATM   28  O   UNK N   1      30.156  17.490   7.918  0.00  0.00    -0.294 OA
BRANCH  28  29
HETATM   29  P   UNK N   1      28.979  18.508   8.719  0.00  0.00     0.390 P 
HETATM   30  O   UNK N   1      29.473  17.776   9.999  0.00  0.00    -0.632 OA
BRANCH  29  31
HETATM   31  O   UNK N   1      27.464  17.952   9.355  0.00  0.00    -0.307 OA
HETATM   32  H   UNK N   1      26.735  17.733   8.753  0.00  0.00     0.222 HD
ENDBRANCH  29  31
BRANCH  29  33
HETATM   33  O   UNK N   1      28.236  17.274   7.747  0.00  0.00    -0.307 OA
HETATM   34  H   UNK N   1      28.396  17.234   6.792  0.00  0.00     0.222 HD
ENDBRANCH  29  33
ENDBRANCH  28  29
ENDBRANCH  27  28
ENDBRANCH   1  27
TORSDOF 9
ENDMDL
MODEL 6
REMARK VINA RESULT:      -6.8     10.861     12.109
REMARK  9 active torsions:
REMARK  status: ('A' for Active; 'I' for Inactive)
REMARK    1  A    between atoms: C_4  and  C_2 
REMARK    2  A    between atoms: O_25  and  C_2 
REMARK    3  A    between atoms: C_6  and  O_19 
REMARK    4  A    between atoms: C_7  and  O_20 
REMARK    5  A    between atoms: O_21  and  C_9 
REMARK    6  A    between atoms: C_10  and  N_18 
REMARK       I    between atoms: N_12  and  C_11 
REMARK    7  A    between atoms: P_27  and  O_22 
REMARK    8  A    between atoms: P_27  and  O_23 
REMARK    9  A    between atoms: P_27  and  O_25 
ROOT
HETATM    1  C   UNK N   1      20.604  15.098   7.412  0.00  0.00     0.180 C 
HETATM    2  C   UNK N   1      20.100  16.324   8.154  0.00  0.00     0.182 C 
HETATM    3  C   UNK N   1      20.169  17.410   7.127  0.00  0.00     0.198 C 
HETATM    4  C   UNK N   1      21.126  16.813   6.124  0.00  0.00     0.262 C 
HETATM    5  O   UNK N   1      20.803  15.452   6.060  0.00  0.00    -0.353 OA
ENDROOT
BRANCH   4   6
HETATM    6  N   UNK N   1      21.090  17.451   4.802  0.00  0.00    -0.296 N 
HETATM    7  C   UNK N   1      21.483  18.727   4.541  0.00  0.00     0.190 A 
HETATM    8  N   UNK N   1      21.270  19.041   3.238  0.00  0.00    -0.341 N 
HETATM    9  C   UNK N   1      21.556  20.316   2.605  0.00  0.00     0.157 C 
HETATM   10  C   UNK N   1      20.718  17.946   2.683  0.00  0.00     0.132 A 
HETATM   11  C   UNK N   1      20.620  16.984   3.626  0.00  0.00     0.158 A 
HETATM   12  C   UNK N   1      20.257  17.710   1.394  0.00  0.00     0.186 A 
HETATM   13  N   UNK N   1      20.075  15.770   3.365  0.00  0.00    -0.174 N 
HETATM   14  C   UNK N   1      19.618  15.523   2.100  0.00  0.00     0.679 A 
HETATM   15  H   UNK N   1      20.011  15.084   4.067  0.00  0.00     0.186 HD
HETATM   16  N   UNK N   1      19.091  14.390   1.826  0.00  0.00    -0.234 N 
HETATM   17  N   UNK N   1      19.708  16.486   1.126  0.00  0.00    -0.168 N 
HETATM   18  H   UNK N   1      19.067  13.680   2.509  0.00  0.00     0.174 HD
ATOM     19  HN  UNK N   1      18.696  14.222   0.901  1.00  0.00     0.174 HD
ATOM     20  HN  UNK N   1      19.361  16.287   0.188  1.00  0.00     0.186 HD
BRANCH  12  21
HETATM   21  O   UNK N   1      20.325  18.651   0.438  0.00  0.00    -0.344 OA
HETATM   22  H   UNK N   1      19.545  18.928  -0.002  0.00  0.00     0.219 HD
ENDBRANCH  12  21
ENDBRANCH   4   6
BRANCH   3  23
HETATM   23  O   UNK N   1      20.691  18.576   7.688  0.00  0.00    -0.388 OA
HETATM   24  H   UNK N   1      21.466  19.159   7.701  0.00  0.00     0.210 HD
ENDBRANCH   3  23
BRANCH   2  25
HETATM   25  O   UNK N   1      18.779  16.141   8.560  0.00  0.00    -0.390 OA
HETATM   26  H   UNK N   1      18.188  16.078   9.327  0.00  0.00     0.210 HD
ENDBRANCH   2  25
BRANCH   1  27
HETATM   27  C   UNK N   1      21.922  14.689   8.067  0.00  0.00     0.215 C 
BRANCH  27  28
HETATM   28  O   UNK N   1      21.778  14.395   9.430  0.00  0.00    -0.294 OA
BRANCH  28  29
HETATM   29  P   UNK N   1      21.571  12.661   9.554  0.00  0.00     0.390 P 
HETATM   30  O   UNK N   1      20.248  13.045  10.277  0.00  0.00    -0.632 OA
BRANCH  29  31
HETATM   31  O   UNK N   1      21.748  11.748  11.019  0.00  0.00    -0.307 OA
HETATM   32  H   UNK N   1      21.726  10.779  10.992  0.00  0.00     0.222 HD
ENDBRANCH  29  31
BRANCH  29  33
HETATM   33  O   UNK N   1      22.840  13.252  10.584  0.00  0.00    -0.307 OA
HETATM   34  H   UNK N   1      23.670  12.760  10.677  0.00  0.00     0.222 HD
ENDBRANCH  29  33
ENDBRANCH  28  29
ENDBRANCH  27  28
ENDBRANCH   1  27
TORSDOF 9
ENDMDL
MODEL 7
REMARK VINA RESULT:      -6.8      5.772      8.899
REMARK  9 active torsions:
REMARK  status: ('A' for Active; 'I' for Inactive)
REMARK    1  A    between atoms: C_4  and  C_2 
REMARK    2  A    between atoms: O_25  and  C_2 
REMARK    3  A    between atoms: C_6  and  O_19 
REMARK    4  A    between atoms: C_7  and  O_20 
REMARK    5  A    between atoms: O_21  and  C_9 
REMARK    6  A    between atoms: C_10  and  N_18 
REMARK       I    between atoms: N_12  and  C_11 
REMARK    7  A    between atoms: P_27  and  O_22 
REMARK    8  A    between atoms: P_27  and  O_23 
REMARK    9  A    between atoms: P_27  and  O_25 
ROOT
HETATM    1  C   UNK N   1      34.893  13.705   8.793  0.00  0.00     0.180 C 
HETATM    2  C   UNK N   1      36.388  13.956   8.879  0.00  0.00     0.182 C 
HETATM    3  C   UNK N   1      36.714  13.654  10.308  0.00  0.00     0.198 C 
HETATM    4  C   UNK N   1      35.352  13.747  10.952  0.00  0.00     0.262 C 
HETATM    5  O   UNK N   1      34.461  13.182  10.031  0.00  0.00    -0.353 OA
ENDROOT
BRANCH   4   6
HETATM    6  N   UNK N   1      35.262  13.107  12.270  0.00  0.00    -0.296 N 
HETATM    7  C   UNK N   1      34.546  11.983  12.543  0.00  0.00     0.190 A 
HETATM    8  N   UNK N   1      34.613  11.677  13.863  0.00  0.00    -0.341 N 
HETATM    9  C   UNK N   1      33.964  10.555  14.518  0.00  0.00     0.157 C 
HETATM   10  C   UNK N   1      35.369  12.638  14.424  0.00  0.00     0.132 A 
HETATM   11  C   UNK N   1      35.769  13.494  13.459  0.00  0.00     0.158 A 
HETATM   12  C   UNK N   1      35.736  12.856  15.746  0.00  0.00     0.186 A 
HETATM   13  N   UNK N   1      36.528  14.585  13.731  0.00  0.00    -0.174 N 
HETATM   14  C   UNK N   1      36.898  14.812  15.027  0.00  0.00     0.679 A 
HETATM   15  H   UNK N   1      36.807  15.197  13.012  0.00  0.00     0.186 HD
HETATM   16  N   UNK N   1      37.606  15.837  15.315  0.00  0.00    -0.234 N 
HETATM   17  N   UNK N   1      36.503  13.954  16.024  0.00  0.00    -0.168 N 
HETATM   18  H   UNK N   1      37.931  16.429  14.597  0.00  0.00     0.174 HD
ATOM     19  HN  UNK N   1      37.835  16.042  16.288  1.00  0.00     0.174 HD
ATOM     20  HN  UNK N   1      36.786  14.138  16.987  1.00  0.00     0.186 HD
BRANCH  12  21
HETATM   21  O   UNK N   1      35.342  12.033  16.732  0.00  0.00    -0.344 OA
HETATM   22  H   UNK N   1      35.120  12.382  17.573  0.00  0.00     0.219 HD
ENDBRANCH  12  21
ENDBRANCH   4   6
BRANCH   3  23
HETATM   23  O   UNK N   1      37.580  14.619  10.823  0.00  0.00    -0.388 OA
HETATM   24  H   UNK N   1      37.723  15.574  10.913  0.00  0.00     0.210 HD
ENDBRANCH   3  23
BRANCH   2  25
HETATM   25  O   UNK N   1      37.079  13.082   8.041  0.00  0.00    -0.390 OA
HETATM   26  H   UNK N   1      37.181  12.155   7.776  0.00  0.00     0.210 HD
ENDBRANCH   2  25
BRANCH   1  27
HETATM   27  C   UNK N   1      34.227  15.052   8.512  0.00  0.00     0.215 C 
BRANCH  27  28
HETATM   28  O   UNK N   1      35.062  16.138   8.813  0.00  0.00    -0.294 OA
BRANCH  28  29
HETATM   29  P   UNK N   1      34.132  17.589   8.510  0.00  0.00     0.390 P 
HETATM   30  O   UNK N   1      34.787  17.508   7.102  0.00  0.00    -0.632 OA
BRANCH  29  31
HETATM   31  O   UNK N   1      34.803  19.185   8.394  0.00  0.00    -0.307 OA
HETATM   32  H   UNK N   1      35.537  19.447   8.971  0.00  0.00     0.222 HD
ENDBRANCH  29  31
BRANCH  29  33
HETATM   33  O   UNK N   1      35.449  17.864   9.609  0.00  0.00    -0.307 OA
HETATM   34  H   UNK N   1      36.277  18.262   9.300  0.00  0.00     0.222 HD
ENDBRANCH  29  33
ENDBRANCH  28  29
ENDBRANCH  27  28
ENDBRANCH   1  27
TORSDOF 9
ENDMDL
MODEL 8
REMARK VINA RESULT:      -6.7      1.490      3.027
REMARK  9 active torsions:
REMARK  status: ('A' for Active; 'I' for Inactive)
REMARK    1  A    between atoms: C_4  and  C_2 
REMARK    2  A    between atoms: O_25  and  C_2 
REMARK    3  A    between atoms: C_6  and  O_19 
REMARK    4  A    between atoms: C_7  and  O_20 
REMARK    5  A    between atoms: O_21  and  C_9 
REMARK    6  A    between atoms: C_10  and  N_18 
REMARK       I    between atoms: N_12  and  C_11 
REMARK    7  A    between atoms: P_27  and  O_22 
REMARK    8  A    between atoms: P_27  and  O_23 
REMARK    9  A    between atoms: P_27  and  O_25 
ROOT
HETATM    1  C   UNK N   1      34.282  15.686   9.771  0.00  0.00     0.180 C 
HETATM    2  C   UNK N   1      35.030  16.850   9.144  0.00  0.00     0.182 C 
HETATM    3  C   UNK N   1      34.001  17.502   8.276  0.00  0.00     0.198 C 
HETATM    4  C   UNK N   1      32.984  16.397   8.132  0.00  0.00     0.262 C 
HETATM    5  O   UNK N   1      32.926  15.774   9.386  0.00  0.00    -0.353 OA
ENDROOT
BRANCH   4   6
HETATM    6  N   UNK N   1      31.663  16.847   7.679  0.00  0.00    -0.296 N 
HETATM    7  C   UNK N   1      30.572  16.992   8.480  0.00  0.00     0.190 A 
HETATM    8  N   UNK N   1      29.487  17.363   7.754  0.00  0.00    -0.341 N 
HETATM    9  C   UNK N   1      28.150  17.598   8.269  0.00  0.00     0.157 C 
HETATM   10  C   UNK N   1      29.906  17.431   6.477  0.00  0.00     0.132 A 
HETATM   11  C   UNK N   1      31.221  17.130   6.435  0.00  0.00     0.158 A 
HETATM   12  C   UNK N   1      29.218  17.720   5.305  0.00  0.00     0.186 A 
HETATM   13  N   UNK N   1      31.917  17.092   5.272  0.00  0.00    -0.174 N 
HETATM   14  C   UNK N   1      31.254  17.375   4.110  0.00  0.00     0.679 A 
HETATM   15  H   UNK N   1      32.875  16.867   5.263  0.00  0.00     0.186 HD
HETATM   16  N   UNK N   1      31.881  17.339   2.996  0.00  0.00    -0.234 N 
HETATM   17  N   UNK N   1      29.916  17.684   4.130  0.00  0.00    -0.168 N 
HETATM   18  H   UNK N   1      32.850  17.163   2.982  0.00  0.00     0.174 HD
ATOM     19  HN  UNK N   1      31.378  17.492   2.122  1.00  0.00     0.174 HD
ATOM     20  HN  UNK N   1      29.435  17.892   3.254  1.00  0.00     0.186 HD
BRANCH  12  21
HETATM   21  O   UNK N   1      27.906  18.008   5.310  0.00  0.00    -0.344 OA
HETATM   22  H   UNK N   1      27.386  17.836   4.549  0.00  0.00     0.219 HD
ENDBRANCH  12  21
ENDBRANCH   4   6
BRANCH   3  23
HETATM   23  O   UNK N   1      34.553  17.841   7.040  0.00  0.00    -0.388 OA
HETATM   24  H   UNK N   1      34.444  18.412   6.265  0.00  0.00     0.210 HD
ENDBRANCH   3  23
BRANCH   2  25
HETATM   25  O   UNK N   1      35.456  17.743  10.126  0.00  0.00    -0.390 OA
HETATM   26  H   UNK N   1      35.688  17.836  11.063  0.00  0.00     0.210 HD
ENDBRANCH   2  25
BRANCH   1  27
HETATM   27  C   UNK N   1      34.916  14.403   9.236  0.00  0.00     0.215 C 
BRANCH  27  28
HETATM   28  O   UNK N   1      35.711  13.756  10.192  0.00  0.00    -0.294 OA
BRANCH  28  29
HETATM   29  P   UNK N   1      35.011  14.112  11.756  0.00  0.00     0.390 P 
HETATM   30  O   UNK N   1      36.406  13.675  12.287  0.00  0.00    -0.632 OA
BRANCH  29  31
HETATM   31  O   UNK N   1      34.533  12.917  12.919  0.00  0.00    -0.307 OA
HETATM   32  H   UNK N   1      34.357  12.007  12.636  0.00  0.00     0.222 HD
ENDBRANCH  29  31
BRANCH  29  33
HETATM   33  O   UNK N   1      34.331  12.685  11.037  0.00  0.00    -0.307 OA
HETATM   34  H   UNK N   1      34.456  11.816  11.448  0.00  0.00     0.222 HD
ENDBRANCH  29  33
ENDBRANCH  28  29
ENDBRANCH  27  28
ENDBRANCH   1  27
TORSDOF 9
ENDMDL
MODEL 9
REMARK VINA RESULT:      -6.7      6.376     10.944
REMARK  9 active torsions:
REMARK  status: ('A' for Active; 'I' for Inactive)
REMARK    1  A    between atoms: C_4  and  C_2 
REMARK    2  A    between atoms: O_25  and  C_2 
REMARK    3  A    between atoms: C_6  and  O_19 
REMARK    4  A    between atoms: C_7  and  O_20 
REMARK    5  A    between atoms: O_21  and  C_9 
REMARK    6  A    between atoms: C_10  and  N_18 
REMARK       I    between atoms: N_12  and  C_11 
REMARK    7  A    between atoms: P_27  and  O_22 
REMARK    8  A    between atoms: P_27  and  O_23 
REMARK    9  A    between atoms: P_27  and  O_25 
ROOT
HETATM    1  C   UNK N   1      22.338  18.985   4.501  0.00  0.00     0.180 C 
HETATM    2  C   UNK N   1      21.979  17.700   5.227  0.00  0.00     0.182 C 
HETATM    3  C   UNK N   1      23.224  16.877   5.121  0.00  0.00     0.198 C 
HETATM    4  C   UNK N   1      23.935  17.554   3.975  0.00  0.00     0.262 C 
HETATM    5  O   UNK N   1      23.703  18.925   4.146  0.00  0.00    -0.353 OA
ENDROOT
BRANCH   4   6
HETATM    6  N   UNK N   1      25.367  17.244   3.885  0.00  0.00    -0.296 N 
HETATM    7  C   UNK N   1      25.917  16.345   3.025  0.00  0.00     0.190 A 
HETATM    8  N   UNK N   1      27.255  16.239   3.229  0.00  0.00    -0.341 N 
HETATM    9  C   UNK N   1      28.166  15.370   2.505  0.00  0.00     0.157 C 
HETATM   10  C   UNK N   1      27.538  17.072   4.246  0.00  0.00     0.132 A 
HETATM   11  C   UNK N   1      26.400  17.686   4.634  0.00  0.00     0.158 A 
HETATM   12  C   UNK N   1      28.733  17.339   4.902  0.00  0.00     0.186 A 
HETATM   13  N   UNK N   1      26.369  18.569   5.663  0.00  0.00    -0.174 N 
HETATM   14  C   UNK N   1      27.538  18.843   6.317  0.00  0.00     0.679 A 
HETATM   15  H   UNK N   1      25.528  19.004   5.931  0.00  0.00     0.186 HD
HETATM   16  N   UNK N   1      27.539  19.665   7.297  0.00  0.00    -0.234 N 
HETATM   17  N   UNK N   1      28.708  18.230   5.939  0.00  0.00    -0.168 N 
HETATM   18  H   UNK N   1      26.713  20.141   7.541  0.00  0.00     0.174 HD
ATOM     19  HN  UNK N   1      28.397  19.827   7.825  1.00  0.00     0.174 HD
ATOM     20  HN  UNK N   1      29.572  18.444   6.438  1.00  0.00     0.186 HD
BRANCH  12  21
HETATM   21  O   UNK N   1      29.880  16.734   4.551  0.00  0.00    -0.344 OA
HETATM   22  H   UNK N   1      30.255  16.082   5.110  0.00  0.00     0.219 HD
ENDBRANCH  12  21
ENDBRANCH   4   6
BRANCH   3  23
HETATM   23  O   UNK N   1      22.906  15.555   4.805  0.00  0.00    -0.388 OA
HETATM   24  H   UNK N   1      22.467  14.756   5.133  0.00  0.00     0.210 HD
ENDBRANCH   3  23
BRANCH   2  25
HETATM   25  O   UNK N   1      21.696  17.959   6.567  0.00  0.00    -0.390 OA
HETATM   26  H   UNK N   1      22.011  17.850   7.478  0.00  0.00     0.210 HD
ENDBRANCH   2  25
BRANCH   1  27
HETATM   27  C   UNK N   1      21.457  19.058   3.255  0.00  0.00     0.215 C 
BRANCH  27  28
HETATM   28  O   UNK N   1      21.980  19.913   2.275  0.00  0.00    -0.294 OA
BRANCH  28  29
HETATM   29  P   UNK N   1      20.615  20.684   1.495  0.00  0.00     0.390 P 
HETATM   30  O   UNK N   1      21.522  20.620   0.233  0.00  0.00    -0.632 OA
BRANCH  29  31
HETATM   31  O   UNK N   1      20.569  22.347   1.004  0.00  0.00    -0.307 OA
HETATM   32  H   UNK N   1      21.127  23.002   1.452  0.00  0.00     0.222 HD
ENDBRANCH  29  31
BRANCH  29  33
HETATM   33  O   UNK N   1      21.439  21.749   2.593  0.00  0.00    -0.307 OA
HETATM   34  H   UNK N   1      20.945  22.249   3.261  0.00  0.00     0.222 HD
ENDBRANCH  29  33
ENDBRANCH  28  29
ENDBRANCH  27  28
ENDBRANCH   1  27
TORSDOF 9
ENDMDL
