MODEL 1
REMARK VINA RESULT:      -7.2      0.000      0.000
REMARK  17 active torsions:
REMARK  status: ('A' for Active; 'I' for Inactive)
REMARK    1  A    between atoms: C_5  and  C_3 
REMARK    2  A    between atoms: O_20  and  C_3 
REMARK    3  A    between atoms: C_6  and  C_4 
REMARK    4  A    between atoms: O_31  and  C_4 
REMARK    5  A    between atoms: O_21  and  C_7 
REMARK    6  A    between atoms: C_9  and  O_22 
REMARK    7  A    between atoms: C_10  and  O_23 
REMARK    8  A    between atoms: C_11  and  O_24 
REMARK    9  A    between atoms: C_12  and  O_25 
REMARK   10  A    between atoms: C_13  and  N_19 
REMARK   11  A    between atoms: C_14  and  O_34 
REMARK   12  A    between atoms: P_36  and  O_27 
REMARK   13  A    between atoms: P_37  and  O_29 
REMARK   14  A    between atoms: P_36  and  O_31 
REMARK   15  A    between atoms: P_37  and  O_34 
REMARK   16  A    between atoms: P_36  and  O_35 
REMARK   17  A    between atoms: P_37  and  O_35 
ROOT
HETATM    1  O   UNK N   1      34.494  13.999   9.169  0.00  0.00    -0.631 OA
HETATM    2  P   UNK N   1      34.089  15.213  10.052  0.00  0.00     0.401 P 
ENDROOT
BRANCH   2   3
HETATM    3  O   UNK N   1      32.396  15.445   9.752  0.00  0.00    -0.307 OA
HETATM    4  H   UNK N   1      31.737  15.106   9.126  0.00  0.00     0.222 HD
ENDBRANCH   2   3
BRANCH   2   5
HETATM    5  O   UNK N   1      34.370  14.754  11.705  0.00  0.00    -0.294 OA
BRANCH   5   6
HETATM    6  C   UNK N   1      35.695  15.110  11.944  0.00  0.00     0.215 C 
BRANCH   6   7
HETATM    7  C   UNK N   1      36.318  14.225  13.000  0.00  0.00     0.180 C 
HETATM    8  C   UNK N   1      36.627  12.817  12.490  0.00  0.00     0.182 C 
HETATM    9  C   UNK N   1      36.727  12.143  13.827  0.00  0.00     0.198 C 
HETATM   10  C   UNK N   1      35.487  12.743  14.505  0.00  0.00     0.263 C 
HETATM   11  O   UNK N   1      35.431  14.097  14.093  0.00  0.00    -0.353 OA
BRANCH   8  12
HETATM   12  O   UNK N   1      35.542  12.302  11.764  0.00  0.00    -0.390 OA
HETATM   13  H   UNK N   1      35.000  11.655  11.288  0.00  0.00     0.210 HD
ENDBRANCH   8  12
BRANCH   9  14
HETATM   14  O   UNK N   1      36.687  10.749  13.741  0.00  0.00    -0.388 OA
HETATM   15  H   UNK N   1      37.264  10.079  14.142  0.00  0.00     0.210 HD
ENDBRANCH   9  14
BRANCH  10  16
HETATM   16  N   UNK N   1      35.383  12.666  15.982  0.00  0.00    -0.280 N 
HETATM   17  C   UNK N   1      35.495  13.858  16.640  0.00  0.00     0.103 A 
HETATM   18  C   UNK N   1      35.427  13.931  18.027  0.00  0.00     0.073 A 
HETATM   19  C   UNK N   1      35.245  12.762  18.747  0.00  0.00     0.144 A 
HETATM   20  N   UNK N   1      35.128  11.579  18.098  0.00  0.00    -0.289 N 
HETATM   21  C   UNK N   1      35.191  11.508  16.730  0.00  0.00     0.330 A 
ATOM     22  HN  UNK N   1      34.991  10.724  18.637  1.00  0.00     0.172 HD
HETATM   23  O   UNK N   1      35.076  10.421  16.199  0.00  0.00    -0.246 OA
BRANCH  19  24
HETATM   24  O   UNK N   1      35.181  12.802  20.088  0.00  0.00    -0.346 OA
HETATM   25  H   UNK N   1      34.639  13.436  20.514  0.00  0.00     0.219 HD
ENDBRANCH  19  24
ENDBRANCH  10  16
ENDBRANCH   6   7
ENDBRANCH   5   6
ENDBRANCH   2   5
BRANCH   2  26
HETATM   26  O   UNK N   1      35.045  16.572   9.504  0.00  0.00    -0.195 OA
BRANCH  26  27
HETATM   27  P   UNK N   1      34.093  17.502   8.368  0.00  0.00     0.404 P 
HETATM   28  O   UNK N   1      34.997  18.682   7.918  0.00  0.00    -0.631 OA
BRANCH  27  29
HETATM   29  O   UNK N   1      32.736  18.279   9.119  0.00  0.00    -0.307 OA
HETATM   30  H   UNK N   1      32.682  19.209   9.391  0.00  0.00     0.222 HD
ENDBRANCH  27  29
BRANCH  27  31
HETATM   31  O   UNK N   1      33.620  16.640   6.911  0.00  0.00    -0.262 OA
BRANCH  31  32
HETATM   32  C   UNK N   1      32.308  17.013   6.559  0.00  0.00     0.308 C 
HETATM   33  C   UNK N   1      32.104  16.846   5.033  0.00  0.00     0.256 C 
HETATM   34  C   UNK N   1      30.593  16.777   4.686  0.00  0.00     0.188 C 
HETATM   35  F   UNK N   1      32.710  17.926   4.409  0.00  0.00    -0.241 F 
HETATM   36  C   UNK N   1      29.793  17.532   5.749  0.00  0.00     0.180 C 
HETATM   37  C   UNK N   1      30.026  16.767   7.092  0.00  0.00     0.179 C 
HETATM   38  O   UNK N   1      31.348  16.250   7.262  0.00  0.00    -0.348 OA
BRANCH  34  39
HETATM   39  O   UNK N   1      30.357  17.271   3.401  0.00  0.00    -0.390 OA
HETATM   40  H   UNK N   1      30.416  16.933   2.493  0.00  0.00     0.210 HD
ENDBRANCH  34  39
BRANCH  36  41
HETATM   41  O   UNK N   1      28.430  17.554   5.442  0.00  0.00    -0.390 OA
HETATM   42  H   UNK N   1      27.987  16.776   5.070  0.00  0.00     0.210 HD
ENDBRANCH  36  41
BRANCH  37  43
HETATM   43  C   UNK N   1      29.586  17.579   8.310  0.00  0.00     0.198 C 
BRANCH  43  44
HETATM   44  O   UNK N   1      30.201  17.114   9.475  0.00  0.00    -0.398 OA
HETATM   45  H   UNK N   1      30.910  17.426  10.059  0.00  0.00     0.209 HD
ENDBRANCH  43  44
ENDBRANCH  37  43
ENDBRANCH  31  32
ENDBRANCH  27  31
ENDBRANCH  26  27
ENDBRANCH   2  26
TORSDOF 17
ENDMDL
MODEL 2
REMARK VINA RESULT:      -7.0      6.493     10.383
REMARK  17 active torsions:
REMARK  status: ('A' for Active; 'I' for Inactive)
REMARK    1  A    between atoms: C_5  and  C_3 
REMARK    2  A    between atoms: O_20  and  C_3 
REMARK    3  A    between atoms: C_6  and  C_4 
REMARK    4  A    between atoms: O_31  and  C_4 
REMARK    5  A    between atoms: O_21  and  C_7 
REMARK    6  A    between atoms: C_9  and  O_22 
REMARK    7  A    between atoms: C_10  and  O_23 
REMARK    8  A    between atoms: C_11  and  O_24 
REMARK    9  A    between atoms: C_12  and  O_25 
REMARK   10  A    between atoms: C_13  and  N_19 
REMARK   11  A    between atoms: C_14  and  O_34 
REMARK   12  A    between atoms: P_36  and  O_27 
REMARK   13  A    between atoms: P_37  and  O_29 
REMARK   14  A    between atoms: P_36  and  O_31 
REMARK   15  A    between atoms: P_37  and  O_34 
REMARK   16  A    between atoms: P_36  and  O_35 
REMARK   17  A    between atoms: P_37  and  O_35 
ROOT
HETATM    1  O   UNK N   1      26.745  15.632   3.754  0.00  0.00    -0.631 OA
HETATM    2  P   UNK N   1      26.468  17.032   4.370  0.00  0.00     0.401 P 
ENDROOT
BRANCH   2   3
HETATM    3  O   UNK N   1      26.018  16.719   6.017  0.00  0.00    -0.307 OA
HETATM    4  H   UNK N   1      26.077  17.186   6.865  0.00  0.00     0.222 HD
ENDBRANCH   2   3
BRANCH   2   5
HETATM    5  O   UNK N   1      27.957  17.926   4.292  0.00  0.00    -0.294 OA
BRANCH   5   6
HETATM    6  C   UNK N   1      28.469  17.862   5.585  0.00  0.00     0.215 C 
BRANCH   6   7
HETATM    7  C   UNK N   1      29.942  17.523   5.574  0.00  0.00     0.180 C 
HETATM    8  C   UNK N   1      30.247  16.211   4.848  0.00  0.00     0.182 C 
HETATM    9  C   UNK N   1      31.600  15.965   5.448  0.00  0.00     0.198 C 
HETATM   10  C   UNK N   1      31.284  16.279   6.918  0.00  0.00     0.263 C 
HETATM   11  O   UNK N   1      30.408  17.391   6.902  0.00  0.00    -0.353 OA
BRANCH   8  12
HETATM   12  O   UNK N   1      29.349  15.207   5.239  0.00  0.00    -0.390 OA
HETATM   13  H   UNK N   1      28.911  14.562   5.815  0.00  0.00     0.210 HD
ENDBRANCH   8  12
BRANCH   9  14
HETATM   14  O   UNK N   1      32.057  14.660   5.250  0.00  0.00    -0.388 OA
HETATM   15  H   UNK N   1      31.983  14.081   4.474  0.00  0.00     0.210 HD
ENDBRANCH   9  14
BRANCH  10  16
HETATM   16  N   UNK N   1      32.413  16.545   7.842  0.00  0.00    -0.280 N 
HETATM   17  C   UNK N   1      33.204  17.608   7.509  0.00  0.00     0.103 A 
HETATM   18  C   UNK N   1      34.304  17.965   8.281  0.00  0.00     0.073 A 
HETATM   19  C   UNK N   1      34.596  17.216   9.409  0.00  0.00     0.144 A 
HETATM   20  N   UNK N   1      33.812  16.164   9.745  0.00  0.00    -0.289 N 
HETATM   21  C   UNK N   1      32.724  15.815   8.986  0.00  0.00     0.330 A 
ATOM     22  HN  UNK N   1      34.034  15.621  10.579  1.00  0.00     0.172 HD
HETATM   23  O   UNK N   1      32.052  14.866   9.335  0.00  0.00    -0.246 OA
BRANCH  19  24
HETATM   24  O   UNK N   1      35.657  17.534  10.170  0.00  0.00    -0.346 OA
HETATM   25  H   UNK N   1      36.242  16.865  10.463  0.00  0.00     0.219 HD
ENDBRANCH  19  24
ENDBRANCH  10  16
ENDBRANCH   6   7
ENDBRANCH   5   6
ENDBRANCH   2   5
BRANCH   2  26
HETATM   26  O   UNK N   1      25.153  17.732   3.452  0.00  0.00    -0.195 OA
BRANCH  26  27
HETATM   27  P   UNK N   1      24.431  19.013   4.400  0.00  0.00     0.404 P 
HETATM   28  O   UNK N   1      24.279  20.223   3.439  0.00  0.00    -0.631 OA
BRANCH  27  29
HETATM   29  O   UNK N   1      25.491  19.598   5.642  0.00  0.00    -0.307 OA
HETATM   30  H   UNK N   1      25.975  19.060   6.288  0.00  0.00     0.222 HD
ENDBRANCH  27  29
BRANCH  27  31
HETATM   31  O   UNK N   1      22.829  18.661   5.031  0.00  0.00    -0.262 OA
BRANCH  31  32
HETATM   32  C   UNK N   1      21.957  18.392   3.957  0.00  0.00     0.308 C 
HETATM   33  C   UNK N   1      21.171  17.086   4.230  0.00  0.00     0.256 C 
HETATM   34  C   UNK N   1      19.900  17.016   3.344  0.00  0.00     0.188 C 
HETATM   35  F   UNK N   1      22.021  16.022   3.968  0.00  0.00    -0.241 F 
HETATM   36  C   UNK N   1      20.126  17.826   2.067  0.00  0.00     0.180 C 
HETATM   37  C   UNK N   1      20.328  19.307   2.522  0.00  0.00     0.179 C 
HETATM   38  O   UNK N   1      21.059  19.462   3.741  0.00  0.00    -0.348 OA
BRANCH  34  39
HETATM   39  O   UNK N   1      19.558  15.689   3.071  0.00  0.00    -0.390 OA
HETATM   40  H   UNK N   1      20.025  14.841   2.998  0.00  0.00     0.210 HD
ENDBRANCH  34  39
BRANCH  36  41
HETATM   41  O   UNK N   1      19.030  17.736   1.204  0.00  0.00    -0.390 OA
HETATM   42  H   UNK N   1      18.606  16.884   1.019  0.00  0.00     0.210 HD
ENDBRANCH  36  41
BRANCH  37  43
HETATM   43  C   UNK N   1      20.907  20.186   1.413  0.00  0.00     0.198 C 
BRANCH  43  44
HETATM   44  O   UNK N   1      20.567  19.694   0.151  0.00  0.00    -0.398 OA
HETATM   45  H   UNK N   1      19.945  19.036  -0.195  0.00  0.00     0.209 HD
ENDBRANCH  43  44
ENDBRANCH  37  43
ENDBRANCH  31  32
ENDBRANCH  27  31
ENDBRANCH  26  27
ENDBRANCH   2  26
TORSDOF 17
ENDMDL
MODEL 3
REMARK VINA RESULT:      -6.9      2.043      3.212
REMARK  17 active torsions:
REMARK  status: ('A' for Active; 'I' for Inactive)
REMARK    1  A    between atoms: C_5  and  C_3 
REMARK    2  A    between atoms: O_20  and  C_3 
REMARK    3  A    between atoms: C_6  and  C_4 
REMARK    4  A    between atoms: O_31  and  C_4 
REMARK    5  A    between atoms: O_21  and  C_7 
REMARK    6  A    between atoms: C_9  and  O_22 
REMARK    7  A    between atoms: C_10  and  O_23 
REMARK    8  A    between atoms: C_11  and  O_24 
REMARK    9  A    between atoms: C_12  and  O_25 
REMARK   10  A    between atoms: C_13  and  N_19 
REMARK   11  A    between atoms: C_14  and  O_34 
REMARK   12  A    between atoms: P_36  and  O_27 
REMARK   13  A    between atoms: P_37  and  O_29 
REMARK   14  A    between atoms: P_36  and  O_31 
REMARK   15  A    between atoms: P_37  and  O_34 
REMARK   16  A    between atoms: P_36  and  O_35 
REMARK   17  A    between atoms: P_37  and  O_35 
ROOT
HETATM    1  O   UNK N   1      34.542  17.848   6.728  0.00  0.00    -0.631 OA
HETATM    2  P   UNK N   1      33.987  16.666   7.572  0.00  0.00     0.401 P 
ENDROOT
BRANCH   2   3
HETATM    3  O   UNK N   1      34.787  15.255   6.955  0.00  0.00    -0.307 OA
HETATM    4  H   UNK N   1      35.430  15.058   6.256  0.00  0.00     0.222 HD
ENDBRANCH   2   3
BRANCH   2   5
HETATM    5  O   UNK N   1      34.440  16.965   9.224  0.00  0.00    -0.294 OA
BRANCH   5   6
HETATM    6  C   UNK N   1      33.944  15.868   9.924  0.00  0.00     0.215 C 
BRANCH   6   7
HETATM    7  C   UNK N   1      34.882  15.459  11.036  0.00  0.00     0.180 C 
HETATM    8  C   UNK N   1      36.256  15.020  10.527  0.00  0.00     0.182 C 
HETATM    9  C   UNK N   1      36.683  14.259  11.748  0.00  0.00     0.198 C 
HETATM   10  C   UNK N   1      35.390  13.479  12.024  0.00  0.00     0.263 C 
HETATM   11  O   UNK N   1      34.326  14.373  11.750  0.00  0.00    -0.353 OA
BRANCH   8  12
HETATM   12  O   UNK N   1      36.126  14.153   9.432  0.00  0.00    -0.390 OA
HETATM   13  H   UNK N   1      36.393  13.561   8.712  0.00  0.00     0.210 HD
ENDBRANCH   8  12
BRANCH   9  14
HETATM   14  O   UNK N   1      37.787  13.433  11.519  0.00  0.00    -0.388 OA
HETATM   15  H   UNK N   1      37.903  12.484  11.685  0.00  0.00     0.210 HD
ENDBRANCH   9  14
BRANCH  10  16
HETATM   16  N   UNK N   1      35.202  12.875  13.365  0.00  0.00    -0.280 N 
HETATM   17  C   UNK N   1      35.678  13.612  14.411  0.00  0.00     0.103 A 
HETATM   18  C   UNK N   1      35.578  13.161  15.723  0.00  0.00     0.073 A 
HETATM   19  C   UNK N   1      34.983  11.933  15.961  0.00  0.00     0.144 A 
HETATM   20  N   UNK N   1      34.504  11.202  14.926  0.00  0.00    -0.289 N 
HETATM   21  C   UNK N   1      34.599  11.649  13.633  0.00  0.00     0.330 A 
ATOM     22  HN  UNK N   1      34.064  10.300  15.112  1.00  0.00     0.172 HD
HETATM   23  O   UNK N   1      34.149  10.955  12.743  0.00  0.00    -0.246 OA
BRANCH  19  24
HETATM   24  O   UNK N   1      34.878  11.470  17.217  0.00  0.00    -0.346 OA
HETATM   25  H   UNK N   1      35.178  11.989  17.936  0.00  0.00     0.219 HD
ENDBRANCH  19  24
ENDBRANCH  10  16
ENDBRANCH   6   7
ENDBRANCH   5   6
ENDBRANCH   2   5
BRANCH   2  26
HETATM   26  O   UNK N   1      32.261  16.618   7.291  0.00  0.00    -0.195 OA
BRANCH  26  27
HETATM   27  P   UNK N   1      31.918  15.339   6.147  0.00  0.00     0.404 P 
HETATM   28  O   UNK N   1      32.131  14.008   6.917  0.00  0.00    -0.631 OA
BRANCH  27  29
HETATM   29  O   UNK N   1      33.082  15.267   4.862  0.00  0.00    -0.307 OA
HETATM   30  H   UNK N   1      33.781  15.915   4.680  0.00  0.00     0.222 HD
ENDBRANCH  27  29
BRANCH  27  31
HETATM   31  O   UNK N   1      30.273  15.312   5.529  0.00  0.00    -0.262 OA
BRANCH  31  32
HETATM   32  C   UNK N   1      29.598  16.472   5.959  0.00  0.00     0.308 C 
HETATM   33  C   UNK N   1      29.389  17.434   4.764  0.00  0.00     0.256 C 
HETATM   34  C   UNK N   1      28.266  18.458   5.074  0.00  0.00     0.188 C 
HETATM   35  F   UNK N   1      30.596  18.075   4.527  0.00  0.00    -0.241 F 
HETATM   36  C   UNK N   1      28.174  18.669   6.586  0.00  0.00     0.180 C 
HETATM   37  C   UNK N   1      27.764  17.288   7.193  0.00  0.00     0.179 C 
HETATM   38  O   UNK N   1      28.353  16.155   6.549  0.00  0.00    -0.348 OA
BRANCH  34  39
HETATM   39  O   UNK N   1      28.483  19.655   4.388  0.00  0.00    -0.390 OA
HETATM   40  H   UNK N   1      28.961  20.484   4.550  0.00  0.00     0.210 HD
ENDBRANCH  34  39
BRANCH  36  41
HETATM   41  O   UNK N   1      27.218  19.636   6.909  0.00  0.00    -0.390 OA
HETATM   42  H   UNK N   1      26.715  19.585   7.737  0.00  0.00     0.210 HD
ENDBRANCH  36  41
BRANCH  37  43
HETATM   43  C   UNK N   1      27.967  17.233   8.707  0.00  0.00     0.198 C 
BRANCH  43  44
HETATM   44  O   UNK N   1      27.440  18.367   9.329  0.00  0.00    -0.398 OA
HETATM   45  H   UNK N   1      26.680  18.951   9.181  0.00  0.00     0.209 HD
ENDBRANCH  43  44
ENDBRANCH  37  43
ENDBRANCH  31  32
ENDBRANCH  27  31
ENDBRANCH  26  27
ENDBRANCH   2  26
TORSDOF 17
ENDMDL
MODEL 4
REMARK VINA RESULT:      -6.8      4.146     11.059
REMARK  17 active torsions:
REMARK  status: ('A' for Active; 'I' for Inactive)
REMARK    1  A    between atoms: C_5  and  C_3 
REMARK    2  A    between atoms: O_20  and  C_3 
REMARK    3  A    between atoms: C_6  and  C_4 
REMARK    4  A    between atoms: O_31  and  C_4 
REMARK    5  A    between atoms: O_21  and  C_7 
REMARK    6  A    between atoms: C_9  and  O_22 
REMARK    7  A    between atoms: C_10  and  O_23 
REMARK    8  A    between atoms: C_11  and  O_24 
REMARK    9  A    between atoms: C_12  and  O_25 
REMARK   10  A    between atoms: C_13  and  N_19 
REMARK   11  A    between atoms: C_14  and  O_34 
REMARK   12  A    between atoms: P_36  and  O_27 
REMARK   13  A    between atoms: P_37  and  O_29 
REMARK   14  A    between atoms: P_36  and  O_31 
REMARK   15  A    between atoms: P_37  and  O_34 
REMARK   16  A    between atoms: P_36  and  O_35 
REMARK   17  A    between atoms: P_37  and  O_35 
ROOT
HETATM    1  O   UNK N   1      35.510  12.089  10.986  0.00  0.00    -0.631 OA
HETATM    2  P   UNK N   1      35.873  13.545  11.389  0.00  0.00     0.401 P 
ENDROOT
BRANCH   2   3
HETATM    3  O   UNK N   1      37.558  13.493  11.801  0.00  0.00    -0.307 OA
HETATM    4  H   UNK N   1      38.332  14.065  11.679  0.00  0.00     0.222 HD
ENDBRANCH   2   3
BRANCH   2   5
HETATM    5  O   UNK N   1      35.607  14.541   9.989  0.00  0.00    -0.294 OA
BRANCH   5   6
HETATM    6  C   UNK N   1      34.238  14.447   9.751  0.00  0.00     0.215 C 
BRANCH   6   7
HETATM    7  C   UNK N   1      33.782  15.490   8.756  0.00  0.00     0.180 C 
HETATM    8  C   UNK N   1      34.580  16.791   8.848  0.00  0.00     0.182 C 
HETATM    9  C   UNK N   1      33.592  17.677   8.149  0.00  0.00     0.198 C 
HETATM   10  C   UNK N   1      32.302  17.209   8.839  0.00  0.00     0.263 C 
HETATM   11  O   UNK N   1      32.425  15.806   8.990  0.00  0.00    -0.353 OA
BRANCH   8  12
HETATM   12  O   UNK N   1      34.731  17.188  10.185  0.00  0.00    -0.390 OA
HETATM   13  H   UNK N   1      35.072  17.679  10.948  0.00  0.00     0.210 HD
ENDBRANCH   8  12
BRANCH   9  14
HETATM   14  O   UNK N   1      33.852  19.038   8.331  0.00  0.00    -0.388 OA
HETATM   15  H   UNK N   1      33.553  19.645   9.027  0.00  0.00     0.210 HD
ENDBRANCH   9  14
BRANCH  10  16
HETATM   16  N   UNK N   1      31.003  17.532   8.202  0.00  0.00    -0.280 N 
HETATM   17  C   UNK N   1      30.147  18.277   8.961  0.00  0.00     0.103 A 
HETATM   18  C   UNK N   1      28.890  18.643   8.492  0.00  0.00     0.073 A 
HETATM   19  C   UNK N   1      28.507  18.233   7.225  0.00  0.00     0.144 A 
HETATM   20  N   UNK N   1      29.355  17.498   6.467  0.00  0.00    -0.289 N 
HETATM   21  C   UNK N   1      30.597  17.141   6.929  0.00  0.00     0.330 A 
ATOM     22  HN  UNK N   1      29.065  17.204   5.535  1.00  0.00     0.172 HD
HETATM   23  O   UNK N   1      31.319  16.485   6.205  0.00  0.00    -0.246 OA
BRANCH  19  24
HETATM   24  O   UNK N   1      27.297  18.567   6.749  0.00  0.00    -0.346 OA
HETATM   25  H   UNK N   1      27.089  18.419   5.848  0.00  0.00     0.219 HD
ENDBRANCH  19  24
ENDBRANCH  10  16
ENDBRANCH   6   7
ENDBRANCH   5   6
ENDBRANCH   2   5
BRANCH   2  26
HETATM   26  O   UNK N   1      34.873  13.949  12.766  0.00  0.00    -0.195 OA
BRANCH  26  27
HETATM   27  P   UNK N   1      35.635  13.323  14.211  0.00  0.00     0.404 P 
HETATM   28  O   UNK N   1      36.774  14.319  14.560  0.00  0.00    -0.631 OA
BRANCH  27  29
HETATM   29  O   UNK N   1      36.465  11.825  13.930  0.00  0.00    -0.307 OA
HETATM   30  H   UNK N   1      36.389  11.263  13.142  0.00  0.00     0.222 HD
ENDBRANCH  27  29
BRANCH  27  31
HETATM   31  O   UNK N   1      34.593  13.229  15.623  0.00  0.00    -0.262 OA
BRANCH  31  32
HETATM   32  C   UNK N   1      35.243  12.487  16.630  0.00  0.00     0.308 C 
HETATM   33  C   UNK N   1      34.963  13.120  18.015  0.00  0.00     0.256 C 
HETATM   34  C   UNK N   1      35.239  12.100  19.150  0.00  0.00     0.188 C 
HETATM   35  F   UNK N   1      35.778  14.236  18.138  0.00  0.00    -0.241 F 
HETATM   36  C   UNK N   1      36.285  11.088  18.680  0.00  0.00     0.180 C 
HETATM   37  C   UNK N   1      35.642  10.325  17.477  0.00  0.00     0.179 C 
HETATM   38  O   UNK N   1      34.830  11.135  16.623  0.00  0.00    -0.348 OA
BRANCH  34  39
HETATM   39  O   UNK N   1      35.630  12.754  20.321  0.00  0.00    -0.390 OA
HETATM   40  H   UNK N   1      35.711  13.674  20.622  0.00  0.00     0.210 HD
ENDBRANCH  34  39
BRANCH  36  41
HETATM   41  O   UNK N   1      36.617  10.186  19.695  0.00  0.00    -0.390 OA
HETATM   42  H   UNK N   1      36.830   9.262  19.494  0.00  0.00     0.210 HD
ENDBRANCH  36  41
BRANCH  37  43
HETATM   43  C   UNK N   1      36.669   9.528  16.674  0.00  0.00     0.198 C 
BRANCH  43  44
HETATM   44  O   UNK N   1      36.217   9.285  15.375  0.00  0.00    -0.398 OA
HETATM   45  H   UNK N   1      36.055   9.822  14.584  0.00  0.00     0.209 HD
ENDBRANCH  43  44
ENDBRANCH  37  43
ENDBRANCH  31  32
ENDBRANCH  27  31
ENDBRANCH  26  27
ENDBRANCH   2  26
TORSDOF 17
ENDMDL
MODEL 5
REMARK VINA RESULT:      -6.7      7.460     11.405
REMARK  17 active torsions:
REMARK  status: ('A' for Active; 'I' for Inactive)
REMARK    1  A    between atoms: C_5  and  C_3 
REMARK    2  A    between atoms: O_20  and  C_3 
REMARK    3  A    between atoms: C_6  and  C_4 
REMARK    4  A    between atoms: O_31  and  C_4 
REMARK    5  A    between atoms: O_21  and  C_7 
REMARK    6  A    between atoms: C_9  and  O_22 
REMARK    7  A    between atoms: C_10  and  O_23 
REMARK    8  A    between atoms: C_11  and  O_24 
REMARK    9  A    between atoms: C_12  and  O_25 
REMARK   10  A    between atoms: C_13  and  N_19 
REMARK   11  A    between atoms: C_14  and  O_34 
REMARK   12  A    between atoms: P_36  and  O_27 
REMARK   13  A    between atoms: P_37  and  O_29 
REMARK   14  A    between atoms: P_36  and  O_31 
REMARK   15  A    between atoms: P_37  and  O_34 
REMARK   16  A    between atoms: P_36  and  O_35 
REMARK   17  A    between atoms: P_37  and  O_35 
ROOT
HETATM    1  O   UNK N   1      27.926  21.025   6.129  0.00  0.00    -0.631 OA
HETATM    2  P   UNK N   1      27.142  20.058   5.197  0.00  0.00     0.401 P 
ENDROOT
BRANCH   2   3
HETATM    3  O   UNK N   1      28.187  19.798   3.836  0.00  0.00    -0.307 OA
HETATM    4  H   UNK N   1      29.078  20.073   3.568  0.00  0.00     0.222 HD
ENDBRANCH   2   3
BRANCH   2   5
HETATM    5  O   UNK N   1      26.898  18.583   6.084  0.00  0.00    -0.294 OA
BRANCH   5   6
HETATM    6  C   UNK N   1      27.765  18.683   7.169  0.00  0.00     0.215 C 
BRANCH   6   7
HETATM    7  C   UNK N   1      28.803  17.584   7.143  0.00  0.00     0.180 C 
HETATM    8  C   UNK N   1      29.642  17.524   8.421  0.00  0.00     0.182 C 
HETATM    9  C   UNK N   1      30.794  16.743   7.863  0.00  0.00     0.198 C 
HETATM   10  C   UNK N   1      30.989  17.494   6.537  0.00  0.00     0.263 C 
HETATM   11  O   UNK N   1      29.689  17.796   6.062  0.00  0.00    -0.353 OA
BRANCH   8  12
HETATM   12  O   UNK N   1      30.060  18.809   8.800  0.00  0.00    -0.390 OA
HETATM   13  H   UNK N   1      30.581  19.626   8.797  0.00  0.00     0.210 HD
ENDBRANCH   8  12
BRANCH   9  14
HETATM   14  O   UNK N   1      31.924  16.773   8.684  0.00  0.00    -0.388 OA
HETATM   15  H   UNK N   1      32.812  17.129   8.516  0.00  0.00     0.210 HD
ENDBRANCH   9  14
BRANCH  10  16
HETATM   16  N   UNK N   1      31.774  16.839   5.463  0.00  0.00    -0.280 N 
HETATM   17  C   UNK N   1      31.038  16.288   4.453  0.00  0.00     0.103 A 
HETATM   18  C   UNK N   1      31.644  15.632   3.387  0.00  0.00     0.073 A 
HETATM   19  C   UNK N   1      33.026  15.541   3.361  0.00  0.00     0.144 A 
HETATM   20  N   UNK N   1      33.759  16.091   4.357  0.00  0.00    -0.289 N 
HETATM   21  C   UNK N   1      33.161  16.741   5.407  0.00  0.00     0.330 A 
ATOM     22  HN  UNK N   1      34.776  16.020   4.327  1.00  0.00     0.172 HD
HETATM   23  O   UNK N   1      33.867  17.219   6.272  0.00  0.00    -0.246 OA
BRANCH  19  24
HETATM   24  O   UNK N   1      33.638  14.908   2.346  0.00  0.00    -0.346 OA
HETATM   25  H   UNK N   1      33.872  15.380   1.572  0.00  0.00     0.219 HD
ENDBRANCH  19  24
ENDBRANCH  10  16
ENDBRANCH   6   7
ENDBRANCH   5   6
ENDBRANCH   2   5
BRANCH   2  26
HETATM   26  O   UNK N   1      25.668  20.885   4.744  0.00  0.00    -0.195 OA
BRANCH  26  27
HETATM   27  P   UNK N   1      24.723  19.822   3.726  0.00  0.00     0.404 P 
HETATM   28  O   UNK N   1      25.738  18.851   3.063  0.00  0.00    -0.631 OA
BRANCH  27  29
HETATM   29  O   UNK N   1      24.004  20.653   2.384  0.00  0.00    -0.307 OA
HETATM   30  H   UNK N   1      24.276  21.512   2.025  0.00  0.00     0.222 HD
ENDBRANCH  27  29
BRANCH  27  31
HETATM   31  O   UNK N   1      23.548  18.827   4.574  0.00  0.00    -0.262 OA
BRANCH  31  32
HETATM   32  C   UNK N   1      22.404  18.673   3.767  0.00  0.00     0.308 C 
HETATM   33  C   UNK N   1      21.573  17.461   4.256  0.00  0.00     0.256 C 
HETATM   34  C   UNK N   1      20.116  17.547   3.730  0.00  0.00     0.188 C 
HETATM   35  F   UNK N   1      22.201  16.311   3.799  0.00  0.00    -0.241 F 
HETATM   36  C   UNK N   1      20.094  18.343   2.425  0.00  0.00     0.180 C 
HETATM   37  C   UNK N   1      20.572  19.786   2.788  0.00  0.00     0.179 C 
HETATM   38  O   UNK N   1      21.607  19.841   3.774  0.00  0.00    -0.348 OA
BRANCH  34  39
HETATM   39  O   UNK N   1      19.568  16.271   3.577  0.00  0.00    -0.390 OA
HETATM   40  H   UNK N   1      19.767  15.476   3.057  0.00  0.00     0.210 HD
ENDBRANCH  34  39
BRANCH  36  41
HETATM   41  O   UNK N   1      18.809  18.390   1.877  0.00  0.00    -0.390 OA
HETATM   42  H   UNK N   1      18.334  19.231   1.784  0.00  0.00     0.210 HD
ENDBRANCH  36  41
BRANCH  37  43
HETATM   43  C   UNK N   1      20.940  20.608   1.552  0.00  0.00     0.198 C 
BRANCH  43  44
HETATM   44  O   UNK N   1      20.701  19.890   0.379  0.00  0.00    -0.398 OA
HETATM   45  H   UNK N   1      20.563  20.111  -0.556  0.00  0.00     0.209 HD
ENDBRANCH  43  44
ENDBRANCH  37  43
ENDBRANCH  31  32
ENDBRANCH  27  31
ENDBRANCH  26  27
ENDBRANCH   2  26
TORSDOF 17
ENDMDL
MODEL 6
REMARK VINA RESULT:      -6.6      6.412      9.314
REMARK  17 active torsions:
REMARK  status: ('A' for Active; 'I' for Inactive)
REMARK    1  A    between atoms: C_5  and  C_3 
REMARK    2  A    between atoms: O_20  and  C_3 
REMARK    3  A    between atoms: C_6  and  C_4 
REMARK    4  A    between atoms: O_31  and  C_4 
REMARK    5  A    between atoms: O_21  and  C_7 
REMARK    6  A    between atoms: C_9  and  O_22 
REMARK    7  A    between atoms: C_10  and  O_23 
REMARK    8  A    between atoms: C_11  and  O_24 
REMARK    9  A    between atoms: C_12  and  O_25 
REMARK   10  A    between atoms: C_13  and  N_19 
REMARK   11  A    between atoms: C_14  and  O_34 
REMARK   12  A    between atoms: P_36  and  O_27 
REMARK   13  A    between atoms: P_37  and  O_29 
REMARK   14  A    between atoms: P_36  and  O_31 
REMARK   15  A    between atoms: P_37  and  O_34 
REMARK   16  A    between atoms: P_36  and  O_35 
REMARK   17  A    between atoms: P_37  and  O_35 
ROOT
HETATM    1  O   UNK N   1      34.543  15.651   9.055  0.00  0.00    -0.631 OA
HETATM    2  P   UNK N   1      33.085  15.372   8.593  0.00  0.00     0.401 P 
ENDROOT
BRANCH   2   3
HETATM    3  O   UNK N   1      32.199  15.070  10.054  0.00  0.00    -0.307 OA
HETATM    4  H   UNK N   1      31.266  15.026  10.317  0.00  0.00     0.222 HD
ENDBRANCH   2   3
BRANCH   2   5
HETATM    5  O   UNK N   1      32.516  16.814   7.808  0.00  0.00    -0.294 OA
BRANCH   5   6
HETATM    6  C   UNK N   1      32.195  17.676   8.854  0.00  0.00     0.215 C 
BRANCH   6   7
HETATM    7  C   UNK N   1      30.901  18.408   8.582  0.00  0.00     0.180 C 
HETATM    8  C   UNK N   1      29.844  18.174   9.663  0.00  0.00     0.182 C 
HETATM    9  C   UNK N   1      28.646  18.584   8.859  0.00  0.00     0.198 C 
HETATM   10  C   UNK N   1      28.959  17.848   7.548  0.00  0.00     0.263 C 
HETATM   11  O   UNK N   1      30.357  17.969   7.354  0.00  0.00    -0.353 OA
BRANCH   8  12
HETATM   12  O   UNK N   1      29.767  16.812   9.994  0.00  0.00    -0.390 OA
HETATM   13  H   UNK N   1      29.540  16.018  10.502  0.00  0.00     0.210 HD
ENDBRANCH   8  12
BRANCH   9  14
HETATM   14  O   UNK N   1      27.437  18.189   9.438  0.00  0.00    -0.388 OA
HETATM   15  H   UNK N   1      27.094  17.301   9.627  0.00  0.00     0.210 HD
ENDBRANCH   9  14
BRANCH  10  16
HETATM   16  N   UNK N   1      28.246  18.265   6.317  0.00  0.00    -0.280 N 
HETATM   17  C   UNK N   1      27.845  19.570   6.285  0.00  0.00     0.103 A 
HETATM   18  C   UNK N   1      27.157  20.093   5.196  0.00  0.00     0.073 A 
HETATM   19  C   UNK N   1      26.874  19.260   4.126  0.00  0.00     0.144 A 
HETATM   20  N   UNK N   1      27.274  17.967   4.150  0.00  0.00    -0.289 N 
HETATM   21  C   UNK N   1      27.957  17.453   5.224  0.00  0.00     0.330 A 
ATOM     22  HN  UNK N   1      27.064  17.363   3.356  1.00  0.00     0.172 HD
HETATM   23  O   UNK N   1      28.296  16.287   5.192  0.00  0.00    -0.246 OA
BRANCH  19  24
HETATM   24  O   UNK N   1      26.206  19.737   3.062  0.00  0.00    -0.346 OA
HETATM   25  H   UNK N   1      25.346  19.420   2.867  0.00  0.00     0.219 HD
ENDBRANCH  19  24
ENDBRANCH  10  16
ENDBRANCH   6   7
ENDBRANCH   5   6
ENDBRANCH   2   5
BRANCH   2  26
HETATM   26  O   UNK N   1      33.149  13.961   7.561  0.00  0.00    -0.195 OA
BRANCH  26  27
HETATM   27  P   UNK N   1      34.376  14.218   6.340  0.00  0.00     0.404 P 
HETATM   28  O   UNK N   1      35.631  13.444   6.825  0.00  0.00    -0.631 OA
BRANCH  27  29
HETATM   29  O   UNK N   1      34.906  15.868   6.269  0.00  0.00    -0.307 OA
HETATM   30  H   UNK N   1      35.709  16.234   6.672  0.00  0.00     0.222 HD
ENDBRANCH  27  29
BRANCH  27  31
HETATM   31  O   UNK N   1      33.981  13.597   4.744  0.00  0.00    -0.262 OA
BRANCH  31  32
HETATM   32  C   UNK N   1      33.050  14.457   4.130  0.00  0.00     0.308 C 
HETATM   33  C   UNK N   1      31.881  13.633   3.538  0.00  0.00     0.256 C 
HETATM   34  C   UNK N   1      30.642  14.534   3.295  0.00  0.00     0.188 C 
HETATM   35  F   UNK N   1      32.325  13.066   2.353  0.00  0.00    -0.241 F 
HETATM   36  C   UNK N   1      31.099  15.974   3.061  0.00  0.00     0.180 C 
HETATM   37  C   UNK N   1      31.790  16.432   4.386  0.00  0.00     0.179 C 
HETATM   38  O   UNK N   1      32.553  15.416   5.043  0.00  0.00    -0.348 OA
BRANCH  34  39
HETATM   39  O   UNK N   1      29.874  14.047   2.235  0.00  0.00    -0.390 OA
HETATM   40  H   UNK N   1      29.173  13.386   2.116  0.00  0.00     0.210 HD
ENDBRANCH  34  39
BRANCH  36  41
HETATM   41  O   UNK N   1      30.020  16.812   2.771  0.00  0.00    -0.390 OA
HETATM   42  H   UNK N   1      29.846  17.110   1.864  0.00  0.00     0.210 HD
ENDBRANCH  36  41
BRANCH  37  43
HETATM   43  C   UNK N   1      32.606  17.712   4.208  0.00  0.00     0.198 C 
BRANCH  43  44
HETATM   44  O   UNK N   1      33.437  17.937   5.308  0.00  0.00    -0.398 OA
HETATM   45  H   UNK N   1      33.881  17.384   5.969  0.00  0.00     0.209 HD
ENDBRANCH  43  44
ENDBRANCH  37  43
ENDBRANCH  31  32
ENDBRANCH  27  31
ENDBRANCH  26  27
ENDBRANCH   2  26
TORSDOF 17
ENDMDL
MODEL 7
REMARK VINA RESULT:      -6.6      4.186     10.513
REMARK  17 active torsions:
REMARK  status: ('A' for Active; 'I' for Inactive)
REMARK    1  A    between atoms: C_5  and  C_3 
REMARK    2  A    between atoms: O_20  and  C_3 
REMARK    3  A    between atoms: C_6  and  C_4 
REMARK    4  A    between atoms: O_31  and  C_4 
REMARK    5  A    between atoms: O_21  and  C_7 
REMARK    6  A    between atoms: C_9  and  O_22 
REMARK    7  A    between atoms: C_10  and  O_23 
REMARK    8  A    between atoms: C_11  and  O_24 
REMARK    9  A    between atoms: C_12  and  O_25 
REMARK   10  A    between atoms: C_13  and  N_19 
REMARK   11  A    between atoms: C_14  and  O_34 
REMARK   12  A    between atoms: P_36  and  O_27 
REMARK   13  A    between atoms: P_37  and  O_29 
REMARK   14  A    between atoms: P_36  and  O_31 
REMARK   15  A    between atoms: P_37  and  O_34 
REMARK   16  A    between atoms: P_36  and  O_35 
REMARK   17  A    between atoms: P_37  and  O_35 
ROOT
HETATM    1  O   UNK N   1      34.156  17.984   6.450  0.00  0.00    -0.631 OA
HETATM    2  P   UNK N   1      34.292  17.754   7.981  0.00  0.00     0.401 P 
ENDROOT
BRANCH   2   3
HETATM    3  O   UNK N   1      35.327  19.030   8.539  0.00  0.00    -0.307 OA
HETATM    4  H   UNK N   1      36.282  19.168   8.646  0.00  0.00     0.222 HD
ENDBRANCH   2   3
BRANCH   2   5
HETATM    5  O   UNK N   1      32.699  17.905   8.661  0.00  0.00    -0.294 OA
BRANCH   5   6
HETATM    6  C   UNK N   1      31.892  17.133   7.829  0.00  0.00     0.215 C 
BRANCH   6   7
HETATM    7  C   UNK N   1      30.539  17.778   7.627  0.00  0.00     0.180 C 
HETATM    8  C   UNK N   1      29.864  18.170   8.942  0.00  0.00     0.182 C 
HETATM    9  C   UNK N   1      28.462  18.277   8.418  0.00  0.00     0.198 C 
HETATM   10  C   UNK N   1      28.410  16.993   7.577  0.00  0.00     0.263 C 
HETATM   11  O   UNK N   1      29.680  16.876   6.960  0.00  0.00    -0.353 OA
BRANCH   8  12
HETATM   12  O   UNK N   1      29.958  17.130   9.878  0.00  0.00    -0.390 OA
HETATM   13  H   UNK N   1      30.370  16.481  10.469  0.00  0.00     0.210 HD
ENDBRANCH   8  12
BRANCH   9  14
HETATM   14  O   UNK N   1      27.500  18.310   9.431  0.00  0.00    -0.388 OA
HETATM   15  H   UNK N   1      27.548  18.003  10.351  0.00  0.00     0.210 HD
ENDBRANCH   9  14
BRANCH  10  16
HETATM   16  N   UNK N   1      27.344  16.861   6.555  0.00  0.00    -0.280 N 
HETATM   17  C   UNK N   1      26.545  15.760   6.679  0.00  0.00     0.103 A 
HETATM   18  C   UNK N   1      25.514  15.506   5.783  0.00  0.00     0.073 A 
HETATM   19  C   UNK N   1      25.302  16.395   4.742  0.00  0.00     0.144 A 
HETATM   20  N   UNK N   1      26.089  17.491   4.617  0.00  0.00    -0.289 N 
HETATM   21  C   UNK N   1      27.104  17.743   5.505  0.00  0.00     0.330 A 
ATOM     22  HN  UNK N   1      25.923  18.141   3.849  1.00  0.00     0.172 HD
HETATM   23  O   UNK N   1      27.777  18.743   5.349  0.00  0.00    -0.246 OA
BRANCH  19  24
HETATM   24  O   UNK N   1      24.316  16.172   3.857  0.00  0.00    -0.346 OA
HETATM   25  H   UNK N   1      24.253  16.694   3.082  0.00  0.00     0.219 HD
ENDBRANCH  19  24
ENDBRANCH  10  16
ENDBRANCH   6   7
ENDBRANCH   5   6
ENDBRANCH   2   5
BRANCH   2  26
HETATM   26  O   UNK N   1      35.023  16.178   8.188  0.00  0.00    -0.195 OA
BRANCH  26  27
HETATM   27  P   UNK N   1      35.167  15.851   9.901  0.00  0.00     0.404 P 
HETATM   28  O   UNK N   1      33.920  15.007  10.281  0.00  0.00    -0.631 OA
BRANCH  27  29
HETATM   29  O   UNK N   1      35.011  17.284  10.866  0.00  0.00    -0.307 OA
HETATM   30  H   UNK N   1      34.411  17.410  11.618  0.00  0.00     0.222 HD
ENDBRANCH  27  29
BRANCH  27  31
HETATM   31  O   UNK N   1      36.577  14.910  10.364  0.00  0.00    -0.262 OA
BRANCH  31  32
HETATM   32  C   UNK N   1      36.164  13.802  11.129  0.00  0.00     0.308 C 
HETATM   33  C   UNK N   1      36.445  12.491  10.354  0.00  0.00     0.256 C 
HETATM   34  C   UNK N   1      36.459  11.276  11.318  0.00  0.00     0.188 C 
HETATM   35  F   UNK N   1      35.455  12.353   9.392  0.00  0.00    -0.241 F 
HETATM   36  C   UNK N   1      35.577  11.579  12.530  0.00  0.00     0.180 C 
HETATM   37  C   UNK N   1      36.240  12.793  13.257  0.00  0.00     0.179 C 
HETATM   38  O   UNK N   1      36.813  13.771  12.385  0.00  0.00    -0.348 OA
BRANCH  34  39
HETATM   39  O   UNK N   1      36.061  10.113  10.655  0.00  0.00    -0.390 OA
HETATM   40  H   UNK N   1      36.499   9.358  10.231  0.00  0.00     0.210 HD
ENDBRANCH  34  39
BRANCH  36  41
HETATM   41  O   UNK N   1      35.506  10.485  13.396  0.00  0.00    -0.390 OA
HETATM   42  H   UNK N   1      34.977  10.522  14.208  0.00  0.00     0.210 HD
ENDBRANCH  36  41
BRANCH  37  43
HETATM   43  C   UNK N   1      35.308  13.442  14.280  0.00  0.00     0.198 C 
BRANCH  43  44
HETATM   44  O   UNK N   1      34.352  12.534  14.739  0.00  0.00    -0.398 OA
HETATM   45  H   UNK N   1      34.272  11.929  15.493  0.00  0.00     0.209 HD
ENDBRANCH  43  44
ENDBRANCH  37  43
ENDBRANCH  31  32
ENDBRANCH  27  31
ENDBRANCH  26  27
ENDBRANCH   2  26
TORSDOF 17
ENDMDL
MODEL 8
REMARK VINA RESULT:      -6.5     10.619     13.099
REMARK  17 active torsions:
REMARK  status: ('A' for Active; 'I' for Inactive)
REMARK    1  A    between atoms: C_5  and  C_3 
REMARK    2  A    between atoms: O_20  and  C_3 
REMARK    3  A    between atoms: C_6  and  C_4 
REMARK    4  A    between atoms: O_31  and  C_4 
REMARK    5  A    between atoms: O_21  and  C_7 
REMARK    6  A    between atoms: C_9  and  O_22 
REMARK    7  A    between atoms: C_10  and  O_23 
REMARK    8  A    between atoms: C_11  and  O_24 
REMARK    9  A    between atoms: C_12  and  O_25 
REMARK   10  A    between atoms: C_13  and  N_19 
REMARK   11  A    between atoms: C_14  and  O_34 
REMARK   12  A    between atoms: P_36  and  O_27 
REMARK   13  A    between atoms: P_37  and  O_29 
REMARK   14  A    between atoms: P_36  and  O_31 
REMARK   15  A    between atoms: P_37  and  O_34 
REMARK   16  A    between atoms: P_36  and  O_35 
REMARK   17  A    between atoms: P_37  and  O_35 
ROOT
HETATM    1  O   UNK N   1      19.537  14.903   3.825  0.00  0.00    -0.631 OA
HETATM    2  P   UNK N   1      19.494  16.154   4.747  0.00  0.00     0.401 P 
ENDROOT
BRANCH   2   3
HETATM    3  O   UNK N   1      18.141  15.893   5.801  0.00  0.00    -0.307 OA
HETATM    4  H   UNK N   1      17.188  15.744   5.702  0.00  0.00     0.222 HD
ENDBRANCH   2   3
BRANCH   2   5
HETATM    5  O   UNK N   1      20.985  16.176   5.642  0.00  0.00    -0.294 OA
BRANCH   5   6
HETATM    6  C   UNK N   1      20.634  15.721   6.911  0.00  0.00     0.215 C 
BRANCH   6   7
HETATM    7  C   UNK N   1      21.645  14.727   7.435  0.00  0.00     0.180 C 
HETATM    8  C   UNK N   1      21.755  13.474   6.565  0.00  0.00     0.182 C 
HETATM    9  C   UNK N   1      22.396  12.581   7.587  0.00  0.00     0.198 C 
HETATM   10  C   UNK N   1      21.517  12.919   8.801  0.00  0.00     0.263 C 
HETATM   11  O   UNK N   1      21.272  14.312   8.733  0.00  0.00    -0.353 OA
BRANCH   8  12
HETATM   12  O   UNK N   1      20.482  12.992   6.226  0.00  0.00    -0.390 OA
HETATM   13  H   UNK N   1      19.609  12.586   6.343  0.00  0.00     0.210 HD
ENDBRANCH   8  12
BRANCH   9  14
HETATM   14  O   UNK N   1      22.354  11.230   7.236  0.00  0.00    -0.388 OA
HETATM   15  H   UNK N   1      21.787  10.514   7.566  0.00  0.00     0.210 HD
ENDBRANCH   9  14
BRANCH  10  16
HETATM   16  N   UNK N   1      22.014  12.564  10.153  0.00  0.00    -0.280 N 
HETATM   17  C   UNK N   1      23.371  12.593  10.304  0.00  0.00     0.103 A 
HETATM   18  C   UNK N   1      23.973  12.272  11.515  0.00  0.00     0.073 A 
HETATM   19  C   UNK N   1      23.169  11.914  12.585  0.00  0.00     0.144 A 
HETATM   20  N   UNK N   1      21.823  11.890  12.440  0.00  0.00    -0.289 N 
HETATM   21  C   UNK N   1      21.228  12.210  11.246  0.00  0.00     0.330 A 
ATOM     22  HN  UNK N   1      21.239  11.628  13.235  1.00  0.00     0.172 HD
HETATM   23  O   UNK N   1      20.016  12.176  11.173  0.00  0.00    -0.246 OA
BRANCH  19  24
HETATM   24  O   UNK N   1      23.724  11.593  13.765  0.00  0.00    -0.346 OA
HETATM   25  H   UNK N   1      23.536  10.768  14.164  0.00  0.00     0.219 HD
ENDBRANCH  19  24
ENDBRANCH  10  16
ENDBRANCH   6   7
ENDBRANCH   5   6
ENDBRANCH   2   5
BRANCH   2  26
HETATM   26  O   UNK N   1      19.256  17.538   3.702  0.00  0.00    -0.195 OA
BRANCH  26  27
HETATM   27  P   UNK N   1      20.764  17.888   2.888  0.00  0.00     0.404 P 
HETATM   28  O   UNK N   1      20.379  18.342   1.453  0.00  0.00    -0.631 OA
BRANCH  27  29
HETATM   29  O   UNK N   1      21.726  16.468   2.631  0.00  0.00    -0.307 OA
HETATM   30  H   UNK N   1      22.240  15.990   3.301  0.00  0.00     0.222 HD
ENDBRANCH  27  29
BRANCH  27  31
HETATM   31  O   UNK N   1      21.709  19.190   3.596  0.00  0.00    -0.262 OA
BRANCH  31  32
HETATM   32  C   UNK N   1      23.077  18.863   3.519  0.00  0.00     0.308 C 
HETATM   33  C   UNK N   1      23.923  20.156   3.411  0.00  0.00     0.256 C 
HETATM   34  C   UNK N   1      25.398  19.880   3.803  0.00  0.00     0.188 C 
HETATM   35  F   UNK N   1      23.831  20.608   2.103  0.00  0.00    -0.241 F 
HETATM   36  C   UNK N   1      25.731  18.414   3.528  0.00  0.00     0.180 C 
HETATM   37  C   UNK N   1      24.807  17.574   4.468  0.00  0.00     0.179 C 
HETATM   38  O   UNK N   1      23.490  18.106   4.640  0.00  0.00    -0.348 OA
BRANCH  34  39
HETATM   39  O   UNK N   1      26.260  20.750   3.132  0.00  0.00    -0.390 OA
HETATM   40  H   UNK N   1      26.174  21.473   2.489  0.00  0.00     0.210 HD
ENDBRANCH  34  39
BRANCH  36  41
HETATM   41  O   UNK N   1      27.072  18.134   3.804  0.00  0.00    -0.390 OA
HETATM   42  H   UNK N   1      27.610  18.737   4.341  0.00  0.00     0.210 HD
ENDBRANCH  36  41
BRANCH  37  43
HETATM   43  C   UNK N   1      24.761  16.097   4.075  0.00  0.00     0.198 C 
BRANCH  43  44
HETATM   44  O   UNK N   1      23.605  15.482   4.560  0.00  0.00    -0.398 OA
HETATM   45  H   UNK N   1      22.730  15.265   4.201  0.00  0.00     0.209 HD
ENDBRANCH  43  44
ENDBRANCH  37  43
ENDBRANCH  31  32
ENDBRANCH  27  31
ENDBRANCH  26  27
ENDBRANCH   2  26
TORSDOF 17
ENDMDL
MODEL 9
REMARK VINA RESULT:      -6.5      4.165      9.518
REMARK  17 active torsions:
REMARK  status: ('A' for Active; 'I' for Inactive)
REMARK    1  A    between atoms: C_5  and  C_3 
REMARK    2  A    between atoms: O_20  and  C_3 
REMARK    3  A    between atoms: C_6  and  C_4 
REMARK    4  A    between atoms: O_31  and  C_4 
REMARK    5  A    between atoms: O_21  and  C_7 
REMARK    6  A    between atoms: C_9  and  O_22 
REMARK    7  A    between atoms: C_10  and  O_23 
REMARK    8  A    between atoms: C_11  and  O_24 
REMARK    9  A    between atoms: C_12  and  O_25 
REMARK   10  A    between atoms: C_13  and  N_19 
REMARK   11  A    between atoms: C_14  and  O_34 
REMARK   12  A    between atoms: P_36  and  O_27 
REMARK   13  A    between atoms: P_37  and  O_29 
REMARK   14  A    between atoms: P_36  and  O_31 
REMARK   15  A    between atoms: P_37  and  O_34 
REMARK   16  A    between atoms: P_36  and  O_35 
REMARK   17  A    between atoms: P_37  and  O_35 
ROOT
HETATM    1  O   UNK N   1      35.423  11.554   5.764  0.00  0.00    -0.631 OA
HETATM    2  P   UNK N   1      34.801  12.143   7.061  0.00  0.00     0.401 P 
ENDROOT
BRANCH   2   3
HETATM    3  O   UNK N   1      36.000  13.231   7.684  0.00  0.00    -0.307 OA
HETATM    4  H   UNK N   1      36.245  14.161   7.553  0.00  0.00     0.222 HD
ENDBRANCH   2   3
BRANCH   2   5
HETATM    5  O   UNK N   1      33.365  13.003   6.590  0.00  0.00    -0.294 OA
BRANCH   5   6
HETATM    6  C   UNK N   1      33.725  13.665   5.419  0.00  0.00     0.215 C 
BRANCH   6   7
HETATM    7  C   UNK N   1      33.220  15.090   5.418  0.00  0.00     0.180 C 
HETATM    8  C   UNK N   1      34.329  16.116   5.662  0.00  0.00     0.182 C 
HETATM    9  C   UNK N   1      33.451  17.258   6.082  0.00  0.00     0.198 C 
HETATM   10  C   UNK N   1      32.509  16.512   7.039  0.00  0.00     0.263 C 
HETATM   11  O   UNK N   1      32.259  15.252   6.442  0.00  0.00    -0.353 OA
BRANCH   8  12
HETATM   12  O   UNK N   1      35.151  15.715   6.726  0.00  0.00    -0.390 OA
HETATM   13  H   UNK N   1      35.437  15.222   7.510  0.00  0.00     0.210 HD
ENDBRANCH   8  12
BRANCH   9  14
HETATM   14  O   UNK N   1      34.157  18.293   6.699  0.00  0.00    -0.388 OA
HETATM   15  H   UNK N   1      33.919  18.848   7.459  0.00  0.00     0.210 HD
ENDBRANCH   9  14
BRANCH  10  16
HETATM   16  N   UNK N   1      31.225  17.153   7.409  0.00  0.00    -0.280 N 
HETATM   17  C   UNK N   1      31.181  17.700   8.659  0.00  0.00     0.103 A 
HETATM   18  C   UNK N   1      30.035  18.324   9.140  0.00  0.00     0.073 A 
HETATM   19  C   UNK N   1      28.917  18.383   8.324  0.00  0.00     0.144 A 
HETATM   20  N   UNK N   1      28.958  17.846   7.081  0.00  0.00    -0.289 N 
HETATM   21  C   UNK N   1      30.090  17.235   6.606  0.00  0.00     0.330 A 
ATOM     22  HN  UNK N   1      28.131  17.898   6.487  1.00  0.00     0.172 HD
HETATM   23  O   UNK N   1      30.073  16.774   5.482  0.00  0.00    -0.246 OA
BRANCH  19  24
HETATM   24  O   UNK N   1      27.795  18.974   8.765  0.00  0.00    -0.346 OA
HETATM   25  H   UNK N   1      27.103  19.174   8.166  0.00  0.00     0.219 HD
ENDBRANCH  19  24
ENDBRANCH  10  16
ENDBRANCH   6   7
ENDBRANCH   5   6
ENDBRANCH   2   5
BRANCH   2  26
HETATM   26  O   UNK N   1      34.517  10.793   8.138  0.00  0.00    -0.195 OA
BRANCH  26  27
HETATM   27  P   UNK N   1      33.690  11.382   9.563  0.00  0.00     0.404 P 
HETATM   28  O   UNK N   1      32.261  10.779   9.508  0.00  0.00    -0.631 OA
BRANCH  27  29
HETATM   29  O   UNK N   1      33.421  13.095   9.516  0.00  0.00    -0.307 OA
HETATM   30  H   UNK N   1      33.252  13.674  10.276  0.00  0.00     0.222 HD
ENDBRANCH  27  29
BRANCH  27  31
HETATM   31  O   UNK N   1      34.395  10.881  11.094  0.00  0.00    -0.262 OA
BRANCH  31  32
HETATM   32  C   UNK N   1      34.889  12.015  11.769  0.00  0.00     0.308 C 
HETATM   33  C   UNK N   1      35.149  11.671  13.256  0.00  0.00     0.256 C 
HETATM   34  C   UNK N   1      36.115  12.702  13.896  0.00  0.00     0.188 C 
HETATM   35  F   UNK N   1      33.924  11.666  13.905  0.00  0.00    -0.241 F 
HETATM   36  C   UNK N   1      35.992  14.037  13.161  0.00  0.00     0.180 C 
HETATM   37  C   UNK N   1      36.459  13.770  11.693  0.00  0.00     0.179 C 
HETATM   38  O   UNK N   1      36.075  12.497  11.168  0.00  0.00    -0.348 OA
BRANCH  34  39
HETATM   39  O   UNK N   1      35.867  12.831  15.265  0.00  0.00    -0.390 OA
HETATM   40  H   UNK N   1      36.104  12.349  16.073  0.00  0.00     0.210 HD
ENDBRANCH  34  39
BRANCH  36  41
HETATM   41  O   UNK N   1      36.797  15.019  13.746  0.00  0.00    -0.390 OA
HETATM   42  H   UNK N   1      37.720  14.837  13.979  0.00  0.00     0.210 HD
ENDBRANCH  36  41
BRANCH  37  43
HETATM   43  C   UNK N   1      36.073  14.902  10.742  0.00  0.00     0.198 C 
BRANCH  43  44
HETATM   44  O   UNK N   1      36.951  15.981  10.858  0.00  0.00    -0.398 OA
HETATM   45  H   UNK N   1      37.205  16.598  11.562  0.00  0.00     0.209 HD
ENDBRANCH  43  44
ENDBRANCH  37  43
ENDBRANCH  31  32
ENDBRANCH  27  31
ENDBRANCH  26  27
ENDBRANCH   2  26
TORSDOF 17
ENDMDL
