MODEL 1
REMARK VINA RESULT:      -7.7      0.000      0.000
REMARK  16 active torsions:
REMARK  status: ('A' for Active; 'I' for Inactive)
REMARK    1  A    between atoms: C_8  and  C_7 
REMARK    2  A    between atoms: C_14  and  C_7 
REMARK    3  A    between atoms: C_16  and  C_8 
REMARK    4  A    between atoms: C_10  and  C_9 
REMARK    5  A    between atoms: C_17  and  C_9 
REMARK    6  A    between atoms: N_21  and  C_10 
REMARK    7  A    between atoms: C_18  and  C_12 
REMARK    8  A    between atoms: S_35  and  C_13 
REMARK    9  A    between atoms: C_20  and  C_14 
REMARK   10  A    between atoms: C_14  and  N_23 
REMARK   11  A    between atoms: C_15  and  C_19 
REMARK   12  A    between atoms: O_26  and  C_16 
REMARK   13  A    between atoms: O_28  and  C_17 
REMARK       I    between atoms: N_23  and  C_18 
REMARK   14  A    between atoms: O_30  and  C_19 
REMARK   15  A    between atoms: O_32  and  C_20 
REMARK   16  A    between atoms: S_35  and  N_24 
ROOT
HETATM    1  C   UNK N   1      26.043  20.324   3.762  0.00  0.00     0.018 A 
HETATM    2  C   UNK N   1      24.808  18.273   3.394  0.00  0.00     0.018 A 
HETATM    3  C   UNK N   1      27.153  19.585   4.150  0.00  0.00     0.026 A 
HETATM    4  C   UNK N   1      25.936  17.528   3.758  0.00  0.00     0.026 A 
HETATM    5  C   UNK N   1      24.863  19.673   3.381  0.00  0.00     0.032 A 
HETATM    6  C   UNK N   1      27.104  18.190   4.150  0.00  0.00     0.074 A 
ENDROOT
BRANCH   6   7
HETATM    7  S   UNK N   1      28.591  17.286   4.526  0.00  0.00     0.244 S 
HETATM    8  O   UNK N   1      29.745  18.299   4.642  0.00  0.00    -0.206 OA
HETATM    9  O   UNK N   1      29.060  16.475   3.310  0.00  0.00    -0.206 OA
BRANCH   7  10
HETATM   10  N   UNK N   1      28.729  16.238   5.984  0.00  0.00    -0.194 NA
HETATM   11  C   UNK N   1      27.574  16.509   6.838  0.00  0.00     0.108 C 
HETATM   12  C   UNK N   1      27.935  17.696   7.734  0.00  0.00     0.018 C 
HETATM   13  C   UNK N   1      29.431  17.887   7.555  0.00  0.00     0.030 C 
HETATM   14  C   UNK N   1      29.844  16.600   6.869  0.00  0.00     0.148 C 
BRANCH  14  15
HETATM   15  C   UNK N   1      31.198  16.583   6.207  0.00  0.00     0.130 C 
HETATM   16  N   UNK N   1      32.128  17.402   6.570  0.00  0.00    -0.373 N 
ATOM     17  HN  UNK N   1      31.918  18.128   7.256  1.00  0.00     0.161 HD
BRANCH  16  18
HETATM   18  C   UNK N   1      33.460  17.307   6.021  0.00  0.00     0.132 C 
BRANCH  18  19
HETATM   19  C   UNK N   1      34.484  17.026   7.103  0.00  0.00     0.129 C 
BRANCH  19  20
HETATM   20  C   UNK N   1      34.281  17.986   8.232  0.00  0.00     0.140 C 
HETATM   21  O   UNK N   1      34.971  18.990   8.321  0.00  0.00    -0.650 OA
BRANCH  20  22
HETATM   22  O   UNK N   1      33.325  17.746   9.148  0.00  0.00    -0.776 OA
HETATM   23  H   UNK N   1      32.435  18.017   9.034  0.00  0.00     0.167 HD
ENDBRANCH  20  22
ENDBRANCH  19  20
ENDBRANCH  18  19
ENDBRANCH  16  18
BRANCH  15  24
HETATM   24  O   UNK N   1      31.445  15.651   5.261  0.00  0.00    -0.348 OA
HETATM   25  H   UNK N   1      31.206  15.403   4.390  0.00  0.00     0.219 HD
ENDBRANCH  15  24
ENDBRANCH  14  15
ENDBRANCH   7  10
ENDBRANCH   6   7
BRANCH   5  26
HETATM   26  C   UNK N   1      23.685  20.482   3.034  0.00  0.00     0.252 C 
HETATM   27  N   UNK N   1      22.501  19.852   2.780  0.00  0.00    -0.343 N 
HETATM   28  H   UNK N   1      22.539  18.870   2.731  0.00  0.00     0.163 HD
HETATM   29  O   UNK N   1      23.769  21.697   3.053  0.00  0.00    -0.268 OA
BRANCH  27  30
HETATM   30  C   UNK N   1      21.186  20.450   2.573  0.00  0.00     0.183 C 
BRANCH  30  31
HETATM   31  C   UNK N   1      20.108  19.522   3.127  0.00  0.00     0.046 C 
BRANCH  31  32
HETATM   32  C   UNK N   1      20.564  18.080   3.278  0.00  0.00     0.112 C 
BRANCH  32  33
HETATM   33  C   UNK N   1      20.169  17.321   2.057  0.00  0.00     0.139 C 
HETATM   34  O   UNK N   1      20.848  16.382   1.675  0.00  0.00    -0.650 OA
BRANCH  33  35
HETATM   35  O   UNK N   1      19.065  17.673   1.373  0.00  0.00    -0.776 OA
HETATM   36  H   UNK N   1      19.100  17.777   0.442  0.00  0.00     0.167 HD
ENDBRANCH  33  35
ENDBRANCH  32  33
ENDBRANCH  31  32
ENDBRANCH  30  31
BRANCH  30  37
HETATM   37  C   UNK N   1      20.879  20.918   1.162  0.00  0.00     0.163 C 
HETATM   38  O   UNK N   1      21.040  20.158   0.219  0.00  0.00    -0.648 OA
BRANCH  37  39
HETATM   39  O   UNK N   1      20.483  22.185   0.926  0.00  0.00    -0.775 OA
HETATM   40  H   UNK N   1      19.883  22.538   0.298  0.00  0.00     0.167 HD
ENDBRANCH  37  39
ENDBRANCH  30  37
ENDBRANCH  27  30
ENDBRANCH   5  26
TORSDOF 16
ENDMDL
MODEL 2
REMARK VINA RESULT:      -7.3      3.443      9.952
REMARK  16 active torsions:
REMARK  status: ('A' for Active; 'I' for Inactive)
REMARK    1  A    between atoms: C_8  and  C_7 
REMARK    2  A    between atoms: C_14  and  C_7 
REMARK    3  A    between atoms: C_16  and  C_8 
REMARK    4  A    between atoms: C_10  and  C_9 
REMARK    5  A    between atoms: C_17  and  C_9 
REMARK    6  A    between atoms: N_21  and  C_10 
REMARK    7  A    between atoms: C_18  and  C_12 
REMARK    8  A    between atoms: S_35  and  C_13 
REMARK    9  A    between atoms: C_20  and  C_14 
REMARK   10  A    between atoms: C_14  and  N_23 
REMARK   11  A    between atoms: C_15  and  C_19 
REMARK   12  A    between atoms: O_26  and  C_16 
REMARK   13  A    between atoms: O_28  and  C_17 
REMARK       I    between atoms: N_23  and  C_18 
REMARK   14  A    between atoms: O_30  and  C_19 
REMARK   15  A    between atoms: O_32  and  C_20 
REMARK   16  A    between atoms: S_35  and  N_24 
ROOT
HETATM    1  C   UNK N   1      24.639  15.890   3.858  0.00  0.00     0.018 A 
HETATM    2  C   UNK N   1      23.333  17.641   4.904  0.00  0.00     0.018 A 
HETATM    3  C   UNK N   1      23.533  15.050   3.887  0.00  0.00     0.026 A 
HETATM    4  C   UNK N   1      22.211  16.804   4.906  0.00  0.00     0.026 A 
HETATM    5  C   UNK N   1      24.547  17.191   4.366  0.00  0.00     0.032 A 
HETATM    6  C   UNK N   1      22.321  15.502   4.408  0.00  0.00     0.074 A 
ENDROOT
BRANCH   6   7
HETATM    7  S   UNK N   1      20.897  14.437   4.301  0.00  0.00     0.244 S 
HETATM    8  O   UNK N   1      19.969  14.766   5.486  0.00  0.00    -0.206 OA
HETATM    9  O   UNK N   1      21.273  12.988   4.642  0.00  0.00    -0.206 OA
BRANCH   7  10
HETATM   10  N   UNK N   1      19.829  14.412   2.853  0.00  0.00    -0.194 NA
HETATM   11  C   UNK N   1      20.266  13.310   1.996  0.00  0.00     0.108 C 
HETATM   12  C   UNK N   1      21.376  13.847   1.090  0.00  0.00     0.018 C 
HETATM   13  C   UNK N   1      21.337  15.355   1.267  0.00  0.00     0.030 C 
HETATM   14  C   UNK N   1      20.008  15.567   1.965  0.00  0.00     0.148 C 
BRANCH  14  15
HETATM   15  C   UNK N   1      19.789  16.904   2.626  0.00  0.00     0.130 C 
HETATM   16  N   UNK N   1      20.358  17.972   2.176  0.00  0.00    -0.373 N 
ATOM     17  HN  UNK N   1      21.031  17.899   1.412  1.00  0.00     0.161 HD
BRANCH  16  18
HETATM   18  C   UNK N   1      20.055  19.268   2.734  0.00  0.00     0.132 C 
BRANCH  18  19
HETATM   19  C   UNK N   1      21.132  20.280   2.396  0.00  0.00     0.129 C 
BRANCH  19  20
HETATM   20  C   UNK N   1      20.842  20.877   1.056  0.00  0.00     0.140 C 
HETATM   21  O   UNK N   1      20.885  20.187   0.049  0.00  0.00    -0.650 OA
BRANCH  20  22
HETATM   22  O   UNK N   1      20.521  22.180   0.961  0.00  0.00    -0.776 OA
HETATM   23  H   UNK N   1      20.877  22.744   0.303  0.00  0.00     0.167 HD
ENDBRANCH  20  22
ENDBRANCH  19  20
ENDBRANCH  18  19
ENDBRANCH  16  18
BRANCH  15  24
HETATM   24  O   UNK N   1      18.936  16.977   3.670  0.00  0.00    -0.348 OA
HETATM   25  H   UNK N   1      18.798  16.645   4.535  0.00  0.00     0.219 HD
ENDBRANCH  15  24
ENDBRANCH  14  15
ENDBRANCH   7  10
ENDBRANCH   6   7
BRANCH   5  26
HETATM   26  C   UNK N   1      25.750  18.036   4.380  0.00  0.00     0.252 C 
HETATM   27  N   UNK N   1      26.088  18.688   5.530  0.00  0.00    -0.343 N 
HETATM   28  H   UNK N   1      25.428  18.643   6.259  0.00  0.00     0.163 HD
HETATM   29  O   UNK N   1      26.461  18.078   3.392  0.00  0.00    -0.268 OA
BRANCH  27  30
HETATM   30  C   UNK N   1      27.304  19.443   5.817  0.00  0.00     0.183 C 
BRANCH  30  31
HETATM   31  C   UNK N   1      28.394  18.495   6.309  0.00  0.00     0.046 C 
BRANCH  31  32
HETATM   32  C   UNK N   1      27.866  17.347   7.153  0.00  0.00     0.112 C 
BRANCH  32  33
HETATM   33  C   UNK N   1      28.245  17.583   8.575  0.00  0.00     0.139 C 
HETATM   34  O   UNK N   1      29.313  17.170   9.000  0.00  0.00    -0.650 OA
BRANCH  33  35
HETATM   35  O   UNK N   1      27.410  18.248   9.393  0.00  0.00    -0.776 OA
HETATM   36  H   UNK N   1      27.537  18.220  10.322  0.00  0.00     0.167 HD
ENDBRANCH  33  35
ENDBRANCH  32  33
ENDBRANCH  31  32
ENDBRANCH  30  31
BRANCH  30  37
HETATM   37  C   UNK N   1      27.141  20.656   6.717  0.00  0.00     0.163 C 
HETATM   38  O   UNK N   1      27.666  21.716   6.411  0.00  0.00    -0.648 OA
BRANCH  37  39
HETATM   39  O   UNK N   1      26.470  20.565   7.882  0.00  0.00    -0.775 OA
HETATM   40  H   UNK N   1      26.391  21.165   8.598  0.00  0.00     0.167 HD
ENDBRANCH  37  39
ENDBRANCH  30  37
ENDBRANCH  27  30
ENDBRANCH   5  26
TORSDOF 16
ENDMDL
MODEL 3
REMARK VINA RESULT:      -7.2      3.636      6.130
REMARK  16 active torsions:
REMARK  status: ('A' for Active; 'I' for Inactive)
REMARK    1  A    between atoms: C_8  and  C_7 
REMARK    2  A    between atoms: C_14  and  C_7 
REMARK    3  A    between atoms: C_16  and  C_8 
REMARK    4  A    between atoms: C_10  and  C_9 
REMARK    5  A    between atoms: C_17  and  C_9 
REMARK    6  A    between atoms: N_21  and  C_10 
REMARK    7  A    between atoms: C_18  and  C_12 
REMARK    8  A    between atoms: S_35  and  C_13 
REMARK    9  A    between atoms: C_20  and  C_14 
REMARK   10  A    between atoms: C_14  and  N_23 
REMARK   11  A    between atoms: C_15  and  C_19 
REMARK   12  A    between atoms: O_26  and  C_16 
REMARK   13  A    between atoms: O_28  and  C_17 
REMARK       I    between atoms: N_23  and  C_18 
REMARK   14  A    between atoms: O_30  and  C_19 
REMARK   15  A    between atoms: O_32  and  C_20 
REMARK   16  A    between atoms: S_35  and  N_24 
ROOT
HETATM    1  C   UNK N   1      30.123  17.474   4.741  0.00  0.00     0.018 A 
HETATM    2  C   UNK N   1      30.035  15.057   4.875  0.00  0.00     0.018 A 
HETATM    3  C   UNK N   1      31.397  17.457   5.291  0.00  0.00     0.026 A 
HETATM    4  C   UNK N   1      31.331  15.039   5.404  0.00  0.00     0.026 A 
HETATM    5  C   UNK N   1      29.432  16.274   4.528  0.00  0.00     0.032 A 
HETATM    6  C   UNK N   1      32.003  16.245   5.623  0.00  0.00     0.074 A 
ENDROOT
BRANCH   6   7
HETATM    7  S   UNK N   1      33.688  16.265   6.201  0.00  0.00     0.244 S 
HETATM    8  O   UNK N   1      34.295  17.634   5.843  0.00  0.00    -0.206 OA
HETATM    9  O   UNK N   1      34.570  15.343   5.347  0.00  0.00    -0.206 OA
BRANCH   7  10
HETATM   10  N   UNK N   1      34.108  15.997   7.931  0.00  0.00    -0.194 NA
HETATM   11  C   UNK N   1      34.567  14.615   8.069  0.00  0.00     0.108 C 
HETATM   12  C   UNK N   1      33.330  13.744   8.299  0.00  0.00     0.018 C 
HETATM   13  C   UNK N   1      32.202  14.722   8.579  0.00  0.00     0.030 C 
HETATM   14  C   UNK N   1      32.949  16.016   8.832  0.00  0.00     0.148 C 
BRANCH  14  15
HETATM   15  C   UNK N   1      32.144  17.290   8.787  0.00  0.00     0.130 C 
HETATM   16  N   UNK N   1      30.900  17.305   9.134  0.00  0.00    -0.373 N 
ATOM     17  HN  UNK N   1      30.432  16.428   9.363  1.00  0.00     0.161 HD
BRANCH  16  18
HETATM   18  C   UNK N   1      30.163  18.544   9.206  0.00  0.00     0.132 C 
BRANCH  18  19
HETATM   19  C   UNK N   1      29.140  18.643   8.093  0.00  0.00     0.129 C 
BRANCH  19  20
HETATM   20  C   UNK N   1      28.030  17.675   8.358  0.00  0.00     0.140 C 
HETATM   21  O   UNK N   1      27.787  17.310   9.498  0.00  0.00    -0.650 OA
BRANCH  20  22
HETATM   22  O   UNK N   1      27.288  17.214   7.335  0.00  0.00    -0.776 OA
HETATM   23  H   UNK N   1      27.664  16.922   6.527  0.00  0.00     0.167 HD
ENDBRANCH  20  22
ENDBRANCH  19  20
ENDBRANCH  18  19
ENDBRANCH  16  18
BRANCH  15  24
HETATM   24  O   UNK N   1      32.764  18.436   8.431  0.00  0.00    -0.348 OA
HETATM   25  H   UNK N   1      32.937  18.981   7.690  0.00  0.00     0.219 HD
ENDBRANCH  15  24
ENDBRANCH  14  15
ENDBRANCH   7  10
ENDBRANCH   6   7
BRANCH   5  26
HETATM   26  C   UNK N   1      28.061  16.327   4.002  0.00  0.00     0.252 C 
HETATM   27  N   UNK N   1      27.329  17.466   4.172  0.00  0.00    -0.343 N 
HETATM   28  H   UNK N   1      27.733  18.153   4.750  0.00  0.00     0.163 HD
HETATM   29  O   UNK N   1      27.631  15.385   3.360  0.00  0.00    -0.268 OA
BRANCH  27  30
HETATM   30  C   UNK N   1      26.025  17.796   3.606  0.00  0.00     0.183 C 
BRANCH  30  31
HETATM   31  C   UNK N   1      25.856  19.312   3.555  0.00  0.00     0.046 C 
BRANCH  31  32
HETATM   32  C   UNK N   1      27.066  20.077   4.064  0.00  0.00     0.112 C 
BRANCH  32  33
HETATM   33  C   UNK N   1      26.813  20.495   5.473  0.00  0.00     0.139 C 
HETATM   34  O   UNK N   1      27.320  21.516   5.908  0.00  0.00    -0.650 OA
BRANCH  33  35
HETATM   35  O   UNK N   1      26.028  19.744   6.267  0.00  0.00    -0.776 OA
HETATM   36  H   UNK N   1      25.174  19.488   5.979  0.00  0.00     0.167 HD
ENDBRANCH  33  35
ENDBRANCH  32  33
ENDBRANCH  31  32
ENDBRANCH  30  31
BRANCH  30  37
HETATM   37  C   UNK N   1      24.829  17.100   4.232  0.00  0.00     0.163 C 
HETATM   38  O   UNK N   1      24.154  17.683   5.068  0.00  0.00    -0.648 OA
BRANCH  37  39
HETATM   39  O   UNK N   1      24.533  15.823   3.920  0.00  0.00    -0.775 OA
HETATM   40  H   UNK N   1      23.889  15.462   3.344  0.00  0.00     0.167 HD
ENDBRANCH  37  39
ENDBRANCH  30  37
ENDBRANCH  27  30
ENDBRANCH   5  26
TORSDOF 16
ENDMDL
MODEL 4
REMARK VINA RESULT:      -7.0      5.196      9.078
REMARK  16 active torsions:
REMARK  status: ('A' for Active; 'I' for Inactive)
REMARK    1  A    between atoms: C_8  and  C_7 
REMARK    2  A    between atoms: C_14  and  C_7 
REMARK    3  A    between atoms: C_16  and  C_8 
REMARK    4  A    between atoms: C_10  and  C_9 
REMARK    5  A    between atoms: C_17  and  C_9 
REMARK    6  A    between atoms: N_21  and  C_10 
REMARK    7  A    between atoms: C_18  and  C_12 
REMARK    8  A    between atoms: S_35  and  C_13 
REMARK    9  A    between atoms: C_20  and  C_14 
REMARK   10  A    between atoms: C_14  and  N_23 
REMARK   11  A    between atoms: C_15  and  C_19 
REMARK   12  A    between atoms: O_26  and  C_16 
REMARK   13  A    between atoms: O_28  and  C_17 
REMARK       I    between atoms: N_23  and  C_18 
REMARK   14  A    between atoms: O_30  and  C_19 
REMARK   15  A    between atoms: O_32  and  C_20 
REMARK   16  A    between atoms: S_35  and  N_24 
ROOT
HETATM    1  C   UNK N   1      31.838  16.103   7.913  0.00  0.00     0.018 A 
HETATM    2  C   UNK N   1      33.440  17.469   6.715  0.00  0.00     0.018 A 
HETATM    3  C   UNK N   1      32.812  15.783   8.849  0.00  0.00     0.026 A 
HETATM    4  C   UNK N   1      34.414  17.169   7.675  0.00  0.00     0.026 A 
HETATM    5  C   UNK N   1      32.145  16.948   6.840  0.00  0.00     0.032 A 
HETATM    6  C   UNK N   1      34.098  16.313   8.734  0.00  0.00     0.074 A 
ENDROOT
BRANCH   6   7
HETATM    7  S   UNK N   1      35.274  15.982  10.030  0.00  0.00     0.244 S 
HETATM    8  O   UNK N   1      34.488  15.702  11.324  0.00  0.00    -0.206 OA
HETATM    9  O   UNK N   1      36.018  17.263  10.434  0.00  0.00    -0.206 OA
BRANCH   7  10
HETATM   10  N   UNK N   1      36.481  14.650   9.909  0.00  0.00    -0.194 NA
HETATM   11  C   UNK N   1      36.502  14.194   8.520  0.00  0.00     0.108 C 
HETATM   12  C   UNK N   1      35.410  13.133   8.370  0.00  0.00     0.018 C 
HETATM   13  C   UNK N   1      34.979  12.804   9.788  0.00  0.00     0.030 C 
HETATM   14  C   UNK N   1      36.084  13.427  10.617  0.00  0.00     0.148 C 
BRANCH  14  15
HETATM   15  C   UNK N   1      35.812  13.617  12.088  0.00  0.00     0.130 C 
HETATM   16  N   UNK N   1      36.707  14.115  12.873  0.00  0.00    -0.373 N 
ATOM     17  HN  UNK N   1      37.642  14.307  12.511  1.00  0.00     0.161 HD
BRANCH  16  18
HETATM   18  C   UNK N   1      36.406  14.408  14.254  0.00  0.00     0.132 C 
BRANCH  18  19
HETATM   19  C   UNK N   1      36.825  13.269  15.164  0.00  0.00     0.129 C 
BRANCH  19  20
HETATM   20  C   UNK N   1      35.615  12.721  15.852  0.00  0.00     0.140 C 
HETATM   21  O   UNK N   1      34.499  13.107  15.542  0.00  0.00    -0.650 OA
BRANCH  20  22
HETATM   22  O   UNK N   1      35.759  11.787  16.810  0.00  0.00    -0.776 OA
HETATM   23  H   UNK N   1      36.536  11.270  16.901  0.00  0.00     0.167 HD
ENDBRANCH  20  22
ENDBRANCH  19  20
ENDBRANCH  18  19
ENDBRANCH  16  18
BRANCH  15  24
HETATM   24  O   UNK N   1      34.586  13.309  12.564  0.00  0.00    -0.348 OA
HETATM   25  H   UNK N   1      33.756  12.967  12.297  0.00  0.00     0.219 HD
ENDBRANCH  15  24
ENDBRANCH  14  15
ENDBRANCH   7  10
ENDBRANCH   6   7
BRANCH   5  26
HETATM   26  C   UNK N   1      31.111  17.220   5.830  0.00  0.00     0.252 C 
HETATM   27  N   UNK N   1      29.797  17.084   6.175  0.00  0.00    -0.343 N 
HETATM   28  H   UNK N   1      29.624  16.693   7.062  0.00  0.00     0.163 HD
HETATM   29  O   UNK N   1      31.441  17.632   4.733  0.00  0.00    -0.268 OA
BRANCH  27  30
HETATM   30  C   UNK N   1      28.616  17.446   5.397  0.00  0.00     0.183 C 
BRANCH  30  31
HETATM   31  C   UNK N   1      27.563  18.058   6.317  0.00  0.00     0.046 C 
BRANCH  31  32
HETATM   32  C   UNK N   1      28.092  19.193   7.177  0.00  0.00     0.112 C 
BRANCH  32  33
HETATM   33  C   UNK N   1      28.395  18.664   8.537  0.00  0.00     0.139 C 
HETATM   34  O   UNK N   1      29.544  18.659   8.949  0.00  0.00    -0.650 OA
BRANCH  33  35
HETATM   35  O   UNK N   1      27.404  18.187   9.311  0.00  0.00    -0.776 OA
HETATM   36  H   UNK N   1      27.602  17.736  10.109  0.00  0.00     0.167 HD
ENDBRANCH  33  35
ENDBRANCH  32  33
ENDBRANCH  31  32
ENDBRANCH  30  31
BRANCH  30  37
HETATM   37  C   UNK N   1      28.045  16.358   4.505  0.00  0.00     0.163 C 
HETATM   38  O   UNK N   1      28.700  15.352   4.276  0.00  0.00    -0.648 OA
BRANCH  37  39
HETATM   39  O   UNK N   1      26.844  16.510   3.913  0.00  0.00    -0.775 OA
HETATM   40  H   UNK N   1      26.543  17.129   3.277  0.00  0.00     0.167 HD
ENDBRANCH  37  39
ENDBRANCH  30  37
ENDBRANCH  27  30
ENDBRANCH   5  26
TORSDOF 16
ENDMDL
MODEL 5
REMARK VINA RESULT:      -7.0      8.935     13.050
REMARK  16 active torsions:
REMARK  status: ('A' for Active; 'I' for Inactive)
REMARK    1  A    between atoms: C_8  and  C_7 
REMARK    2  A    between atoms: C_14  and  C_7 
REMARK    3  A    between atoms: C_16  and  C_8 
REMARK    4  A    between atoms: C_10  and  C_9 
REMARK    5  A    between atoms: C_17  and  C_9 
REMARK    6  A    between atoms: N_21  and  C_10 
REMARK    7  A    between atoms: C_18  and  C_12 
REMARK    8  A    between atoms: S_35  and  C_13 
REMARK    9  A    between atoms: C_20  and  C_14 
REMARK   10  A    between atoms: C_14  and  N_23 
REMARK   11  A    between atoms: C_15  and  C_19 
REMARK   12  A    between atoms: O_26  and  C_16 
REMARK   13  A    between atoms: O_28  and  C_17 
REMARK       I    between atoms: N_23  and  C_18 
REMARK   14  A    between atoms: O_30  and  C_19 
REMARK   15  A    between atoms: O_32  and  C_20 
REMARK   16  A    between atoms: S_35  and  N_24 
ROOT
HETATM    1  C   UNK N   1      35.899  13.755  10.028  0.00  0.00     0.018 A 
HETATM    2  C   UNK N   1      35.813  14.401  12.361  0.00  0.00     0.018 A 
HETATM    3  C   UNK N   1      36.396  12.511  10.392  0.00  0.00     0.026 A 
HETATM    4  C   UNK N   1      36.287  13.136  12.729  0.00  0.00     0.026 A 
HETATM    5  C   UNK N   1      35.603  14.709  11.009  0.00  0.00     0.032 A 
HETATM    6  C   UNK N   1      36.591  12.198  11.738  0.00  0.00     0.074 A 
ENDROOT
BRANCH   6   7
HETATM    7  S   UNK N   1      37.103  10.546  12.163  0.00  0.00     0.244 S 
HETATM    8  O   UNK N   1      37.874  10.617  13.495  0.00  0.00    -0.206 OA
HETATM    9  O   UNK N   1      38.219  10.062  11.226  0.00  0.00    -0.206 OA
BRANCH   7  10
HETATM   10  N   UNK N   1      35.922   9.202  12.368  0.00  0.00    -0.194 NA
HETATM   11  C   UNK N   1      35.027   9.216  11.212  0.00  0.00     0.108 C 
HETATM   12  C   UNK N   1      33.885  10.184  11.529  0.00  0.00     0.018 C 
HETATM   13  C   UNK N   1      34.018  10.482  13.012  0.00  0.00     0.030 C 
HETATM   14  C   UNK N   1      34.980   9.406  13.476  0.00  0.00     0.148 C 
BRANCH  14  15
HETATM   15  C   UNK N   1      35.631   9.605  14.822  0.00  0.00     0.130 C 
HETATM   16  N   UNK N   1      35.410  10.669  15.518  0.00  0.00    -0.373 N 
ATOM     17  HN  UNK N   1      34.855  11.425  15.117  1.00  0.00     0.161 HD
BRANCH  16  18
HETATM   18  C   UNK N   1      35.936  10.805  16.855  0.00  0.00     0.132 C 
BRANCH  18  19
HETATM   19  C   UNK N   1      35.368  12.027  17.550  0.00  0.00     0.129 C 
BRANCH  19  20
HETATM   20  C   UNK N   1      35.180  13.120  16.547  0.00  0.00     0.140 C 
HETATM   21  O   UNK N   1      36.122  13.822  16.213  0.00  0.00    -0.650 OA
BRANCH  20  22
HETATM   22  O   UNK N   1      33.968  13.322  15.999  0.00  0.00    -0.776 OA
HETATM   23  H   UNK N   1      33.602  12.751  15.352  0.00  0.00     0.167 HD
ENDBRANCH  20  22
ENDBRANCH  19  20
ENDBRANCH  18  19
ENDBRANCH  16  18
BRANCH  15  24
HETATM   24  O   UNK N   1      36.407   8.617  15.317  0.00  0.00    -0.348 OA
HETATM   25  H   UNK N   1      36.883   7.853  15.058  0.00  0.00     0.219 HD
ENDBRANCH  15  24
ENDBRANCH  14  15
ENDBRANCH   7  10
ENDBRANCH   6   7
BRANCH   5  26
HETATM   26  C   UNK N   1      35.137  16.039  10.591  0.00  0.00     0.252 C 
HETATM   27  N   UNK N   1      34.397  16.152   9.450  0.00  0.00    -0.343 N 
HETATM   28  H   UNK N   1      34.318  15.335   8.906  0.00  0.00     0.163 HD
HETATM   29  O   UNK N   1      35.354  17.000  11.306  0.00  0.00    -0.268 OA
BRANCH  27  30
HETATM   30  C   UNK N   1      33.706  17.329   8.933  0.00  0.00     0.183 C 
BRANCH  30  31
HETATM   31  C   UNK N   1      32.366  16.916   8.331  0.00  0.00     0.046 C 
BRANCH  31  32
HETATM   32  C   UNK N   1      32.216  15.414   8.154  0.00  0.00     0.112 C 
BRANCH  32  33
HETATM   33  C   UNK N   1      32.064  15.115   6.701  0.00  0.00     0.139 C 
HETATM   34  O   UNK N   1      32.671  15.776   5.874  0.00  0.00    -0.650 OA
BRANCH  33  35
HETATM   35  O   UNK N   1      31.253  14.119   6.300  0.00  0.00    -0.776 OA
HETATM   36  H   UNK N   1      30.845  14.153   5.456  0.00  0.00     0.167 HD
ENDBRANCH  33  35
ENDBRANCH  32  33
ENDBRANCH  31  32
ENDBRANCH  30  31
BRANCH  30  37
HETATM   37  C   UNK N   1      34.510  18.221   8.003  0.00  0.00     0.163 C 
HETATM   38  O   UNK N   1      35.185  19.130   8.464  0.00  0.00    -0.648 OA
BRANCH  37  39
HETATM   39  O   UNK N   1      34.445  18.062   6.667  0.00  0.00    -0.775 OA
HETATM   40  H   UNK N   1      35.118  18.019   6.017  0.00  0.00     0.167 HD
ENDBRANCH  37  39
ENDBRANCH  30  37
ENDBRANCH  27  30
ENDBRANCH   5  26
TORSDOF 16
ENDMDL
MODEL 6
REMARK VINA RESULT:      -7.0      1.520      2.353
REMARK  16 active torsions:
REMARK  status: ('A' for Active; 'I' for Inactive)
REMARK    1  A    between atoms: C_8  and  C_7 
REMARK    2  A    between atoms: C_14  and  C_7 
REMARK    3  A    between atoms: C_16  and  C_8 
REMARK    4  A    between atoms: C_10  and  C_9 
REMARK    5  A    between atoms: C_17  and  C_9 
REMARK    6  A    between atoms: N_21  and  C_10 
REMARK    7  A    between atoms: C_18  and  C_12 
REMARK    8  A    between atoms: S_35  and  C_13 
REMARK    9  A    between atoms: C_20  and  C_14 
REMARK   10  A    between atoms: C_14  and  N_23 
REMARK   11  A    between atoms: C_15  and  C_19 
REMARK   12  A    between atoms: O_26  and  C_16 
REMARK   13  A    between atoms: O_28  and  C_17 
REMARK       I    between atoms: N_23  and  C_18 
REMARK   14  A    between atoms: O_30  and  C_19 
REMARK   15  A    between atoms: O_32  and  C_20 
REMARK   16  A    between atoms: S_35  and  N_24 
ROOT
HETATM    1  C   UNK N   1      24.869  18.115   3.737  0.00  0.00     0.018 A 
HETATM    2  C   UNK N   1      26.140  20.177   3.685  0.00  0.00     0.018 A 
HETATM    3  C   UNK N   1      26.024  17.413   4.054  0.00  0.00     0.026 A 
HETATM    4  C   UNK N   1      27.298  19.472   4.032  0.00  0.00     0.026 A 
HETATM    5  C   UNK N   1      24.918  19.502   3.551  0.00  0.00     0.032 A 
HETATM    6  C   UNK N   1      27.237  18.085   4.202  0.00  0.00     0.074 A 
ENDROOT
BRANCH   6   7
HETATM    7  S   UNK N   1      28.663  17.162   4.738  0.00  0.00     0.244 S 
HETATM    8  O   UNK N   1      29.865  18.125   4.773  0.00  0.00    -0.206 OA
HETATM    9  O   UNK N   1      29.125  16.187   3.646  0.00  0.00    -0.206 OA
BRANCH   7  10
HETATM   10  N   UNK N   1      28.702  16.295   6.316  0.00  0.00    -0.194 NA
HETATM   11  C   UNK N   1      27.578  16.777   7.117  0.00  0.00     0.108 C 
HETATM   12  C   UNK N   1      28.051  18.026   7.864  0.00  0.00     0.018 C 
HETATM   13  C   UNK N   1      29.559  18.052   7.679  0.00  0.00     0.030 C 
HETATM   14  C   UNK N   1      29.847  16.657   7.161  0.00  0.00     0.148 C 
BRANCH  14  15
HETATM   15  C   UNK N   1      31.193  16.429   6.522  0.00  0.00     0.130 C 
HETATM   16  N   UNK N   1      31.414  15.394   5.783  0.00  0.00    -0.373 N 
ATOM     17  HN  UNK N   1      30.695  14.676   5.697  1.00  0.00     0.161 HD
BRANCH  16  18
HETATM   18  C   UNK N   1      32.662  15.238   5.074  0.00  0.00     0.132 C 
BRANCH  18  19
HETATM   19  C   UNK N   1      32.475  15.416   3.581  0.00  0.00     0.129 C 
BRANCH  19  20
HETATM   20  C   UNK N   1      32.416  16.877   3.264  0.00  0.00     0.140 C 
HETATM   21  O   UNK N   1      33.105  17.672   3.883  0.00  0.00    -0.650 OA
BRANCH  20  22
HETATM   22  O   UNK N   1      31.607  17.314   2.281  0.00  0.00    -0.776 OA
HETATM   23  H   UNK N   1      31.783  17.159   1.374  0.00  0.00     0.167 HD
ENDBRANCH  20  22
ENDBRANCH  19  20
ENDBRANCH  18  19
ENDBRANCH  16  18
BRANCH  15  24
HETATM   24  O   UNK N   1      32.154  17.364   6.687  0.00  0.00    -0.348 OA
HETATM   25  H   UNK N   1      32.299  18.218   7.044  0.00  0.00     0.219 HD
ENDBRANCH  15  24
ENDBRANCH  14  15
ENDBRANCH   7  10
ENDBRANCH   6   7
BRANCH   5  26
HETATM   26  C   UNK N   1      23.692  20.210   3.156  0.00  0.00     0.252 C 
HETATM   27  N   UNK N   1      22.528  19.506   3.041  0.00  0.00    -0.343 N 
HETATM   28  H   UNK N   1      22.609  18.529   3.118  0.00  0.00     0.163 HD
HETATM   29  O   UNK N   1      23.721  21.420   3.014  0.00  0.00    -0.268 OA
BRANCH  27  30
HETATM   30  C   UNK N   1      21.180  20.018   2.818  0.00  0.00     0.183 C 
BRANCH  30  31
HETATM   31  C   UNK N   1      20.158  18.931   3.138  0.00  0.00     0.046 C 
BRANCH  31  32
HETATM   32  C   UNK N   1      20.757  17.537   3.218  0.00  0.00     0.112 C 
BRANCH  32  33
HETATM   33  C   UNK N   1      19.680  16.571   3.577  0.00  0.00     0.139 C 
HETATM   34  O   UNK N   1      19.026  16.736   4.594  0.00  0.00    -0.650 OA
BRANCH  33  35
HETATM   35  O   UNK N   1      19.430  15.514   2.782  0.00  0.00    -0.776 OA
HETATM   36  H   UNK N   1      19.247  14.675   3.157  0.00  0.00     0.167 HD
ENDBRANCH  33  35
ENDBRANCH  32  33
ENDBRANCH  31  32
ENDBRANCH  30  31
BRANCH  30  37
HETATM   37  C   UNK N   1      20.927  20.673   1.472  0.00  0.00     0.163 C 
HETATM   38  O   UNK N   1      20.975  20.003   0.450  0.00  0.00    -0.648 OA
BRANCH  37  39
HETATM   39  O   UNK N   1      20.707  21.999   1.379  0.00  0.00    -0.775 OA
HETATM   40  H   UNK N   1      21.300  22.719   1.290  0.00  0.00     0.167 HD
ENDBRANCH  37  39
ENDBRANCH  30  37
ENDBRANCH  27  30
ENDBRANCH   5  26
TORSDOF 16
ENDMDL
MODEL 7
REMARK VINA RESULT:      -6.9      3.902      6.620
REMARK  16 active torsions:
REMARK  status: ('A' for Active; 'I' for Inactive)
REMARK    1  A    between atoms: C_8  and  C_7 
REMARK    2  A    between atoms: C_14  and  C_7 
REMARK    3  A    between atoms: C_16  and  C_8 
REMARK    4  A    between atoms: C_10  and  C_9 
REMARK    5  A    between atoms: C_17  and  C_9 
REMARK    6  A    between atoms: N_21  and  C_10 
REMARK    7  A    between atoms: C_18  and  C_12 
REMARK    8  A    between atoms: S_35  and  C_13 
REMARK    9  A    between atoms: C_20  and  C_14 
REMARK   10  A    between atoms: C_14  and  N_23 
REMARK   11  A    between atoms: C_15  and  C_19 
REMARK   12  A    between atoms: O_26  and  C_16 
REMARK   13  A    between atoms: O_28  and  C_17 
REMARK       I    between atoms: N_23  and  C_18 
REMARK   14  A    between atoms: O_30  and  C_19 
REMARK   15  A    between atoms: O_32  and  C_20 
REMARK   16  A    between atoms: S_35  and  N_24 
ROOT
HETATM    1  C   UNK N   1      30.160  17.808   8.265  0.00  0.00     0.018 A 
HETATM    2  C   UNK N   1      30.565  17.337   5.923  0.00  0.00     0.018 A 
HETATM    3  C   UNK N   1      31.468  17.452   8.562  0.00  0.00     0.026 A 
HETATM    4  C   UNK N   1      31.893  17.005   6.220  0.00  0.00     0.026 A 
HETATM    5  C   UNK N   1      29.699  17.754   6.944  0.00  0.00     0.032 A 
HETATM    6  C   UNK N   1      32.336  17.051   7.545  0.00  0.00     0.074 A 
ENDROOT
BRANCH   6   7
HETATM    7  S   UNK N   1      34.039  16.732   7.956  0.00  0.00     0.244 S 
HETATM    8  O   UNK N   1      34.279  17.220   9.396  0.00  0.00    -0.206 OA
HETATM    9  O   UNK N   1      34.973  17.678   7.187  0.00  0.00    -0.206 OA
BRANCH   7  10
HETATM   10  N   UNK N   1      34.744  15.076   7.891  0.00  0.00    -0.194 NA
HETATM   11  C   UNK N   1      34.301  14.451   6.646  0.00  0.00     0.108 C 
HETATM   12  C   UNK N   1      32.946  13.795   6.921  0.00  0.00     0.018 C 
HETATM   13  C   UNK N   1      32.790  13.824   8.431  0.00  0.00     0.030 C 
HETATM   14  C   UNK N   1      34.193  14.159   8.897  0.00  0.00     0.148 C 
BRANCH  14  15
HETATM   15  C   UNK N   1      34.347  14.628  10.322  0.00  0.00     0.130 C 
HETATM   16  N   UNK N   1      35.514  14.759  10.858  0.00  0.00    -0.373 N 
ATOM     17  HN  UNK N   1      36.341  14.462  10.339  1.00  0.00     0.161 HD
BRANCH  16  18
HETATM   18  C   UNK N   1      35.667  15.320  12.179  0.00  0.00     0.132 C 
BRANCH  18  19
HETATM   19  C   UNK N   1      36.287  14.321  13.135  0.00  0.00     0.129 C 
BRANCH  19  20
HETATM   20  C   UNK N   1      35.207  13.470  13.724  0.00  0.00     0.140 C 
HETATM   21  O   UNK N   1      35.006  13.472  14.929  0.00  0.00    -0.650 OA
BRANCH  20  22
HETATM   22  O   UNK N   1      34.444  12.708  12.919  0.00  0.00    -0.776 OA
HETATM   23  H   UNK N   1      33.602  12.981  12.611  0.00  0.00     0.167 HD
ENDBRANCH  20  22
ENDBRANCH  19  20
ENDBRANCH  18  19
ENDBRANCH  16  18
BRANCH  15  24
HETATM   24  O   UNK N   1      33.239  14.967  11.015  0.00  0.00    -0.348 OA
HETATM   25  H   UNK N   1      32.412  14.628  11.294  0.00  0.00     0.219 HD
ENDBRANCH  15  24
ENDBRANCH  14  15
ENDBRANCH   7  10
ENDBRANCH   6   7
BRANCH   5  26
HETATM   26  C   UNK N   1      28.292  18.079   6.668  0.00  0.00     0.252 C 
HETATM   27  N   UNK N   1      27.898  19.385   6.683  0.00  0.00    -0.343 N 
HETATM   28  H   UNK N   1      28.569  20.032   6.999  0.00  0.00     0.163 HD
HETATM   29  O   UNK N   1      27.524  17.186   6.357  0.00  0.00    -0.268 OA
BRANCH  27  30
HETATM   30  C   UNK N   1      26.609  19.946   6.291  0.00  0.00     0.183 C 
BRANCH  30  31
HETATM   31  C   UNK N   1      26.540  20.062   4.771  0.00  0.00     0.046 C 
BRANCH  31  32
HETATM   32  C   UNK N   1      25.142  19.872   4.208  0.00  0.00     0.112 C 
BRANCH  32  33
HETATM   33  C   UNK N   1      24.664  18.504   4.560  0.00  0.00     0.139 C 
HETATM   34  O   UNK N   1      25.153  17.527   4.016  0.00  0.00    -0.650 OA
BRANCH  33  35
HETATM   35  O   UNK N   1      23.691  18.346   5.475  0.00  0.00    -0.776 OA
HETATM   36  H   UNK N   1      22.824  18.656   5.301  0.00  0.00     0.167 HD
ENDBRANCH  33  35
ENDBRANCH  32  33
ENDBRANCH  31  32
ENDBRANCH  30  31
BRANCH  30  37
HETATM   37  C   UNK N   1      26.197  21.229   6.990  0.00  0.00     0.163 C 
HETATM   38  O   UNK N   1      26.363  22.305   6.434  0.00  0.00    -0.648 OA
BRANCH  37  39
HETATM   39  O   UNK N   1      25.703  21.205   8.243  0.00  0.00    -0.775 OA
HETATM   40  H   UNK N   1      25.334  20.508   8.748  0.00  0.00     0.167 HD
ENDBRANCH  37  39
ENDBRANCH  30  37
ENDBRANCH  27  30
ENDBRANCH   5  26
TORSDOF 16
ENDMDL
MODEL 8
REMARK VINA RESULT:      -6.9      5.289      8.368
REMARK  16 active torsions:
REMARK  status: ('A' for Active; 'I' for Inactive)
REMARK    1  A    between atoms: C_8  and  C_7 
REMARK    2  A    between atoms: C_14  and  C_7 
REMARK    3  A    between atoms: C_16  and  C_8 
REMARK    4  A    between atoms: C_10  and  C_9 
REMARK    5  A    between atoms: C_17  and  C_9 
REMARK    6  A    between atoms: N_21  and  C_10 
REMARK    7  A    between atoms: C_18  and  C_12 
REMARK    8  A    between atoms: S_35  and  C_13 
REMARK    9  A    between atoms: C_20  and  C_14 
REMARK   10  A    between atoms: C_14  and  N_23 
REMARK   11  A    between atoms: C_15  and  C_19 
REMARK   12  A    between atoms: O_26  and  C_16 
REMARK   13  A    between atoms: O_28  and  C_17 
REMARK       I    between atoms: N_23  and  C_18 
REMARK   14  A    between atoms: O_30  and  C_19 
REMARK   15  A    between atoms: O_32  and  C_20 
REMARK   16  A    between atoms: S_35  and  N_24 
ROOT
HETATM    1  C   UNK N   1      24.906  14.323   7.098  0.00  0.00     0.018 A 
HETATM    2  C   UNK N   1      25.187  12.383   5.674  0.00  0.00     0.018 A 
HETATM    3  C   UNK N   1      25.473  15.125   6.116  0.00  0.00     0.026 A 
HETATM    4  C   UNK N   1      25.732  13.197   4.674  0.00  0.00     0.026 A 
HETATM    5  C   UNK N   1      24.758  12.947   6.884  0.00  0.00     0.032 A 
HETATM    6  C   UNK N   1      25.886  14.567   4.906  0.00  0.00     0.074 A 
ENDROOT
BRANCH   6   7
HETATM    7  S   UNK N   1      26.484  15.653   3.628  0.00  0.00     0.244 S 
HETATM    8  O   UNK N   1      25.625  16.931   3.652  0.00  0.00    -0.206 OA
HETATM    9  O   UNK N   1      26.126  15.110   2.237  0.00  0.00    -0.206 OA
BRANCH   7  10
HETATM   10  N   UNK N   1      28.190  16.228   3.581  0.00  0.00    -0.194 NA
HETATM   11  C   UNK N   1      29.056  15.068   3.788  0.00  0.00     0.108 C 
HETATM   12  C   UNK N   1      29.224  14.886   5.298  0.00  0.00     0.018 C 
HETATM   13  C   UNK N   1      28.664  16.156   5.915  0.00  0.00     0.030 C 
HETATM   14  C   UNK N   1      28.558  17.080   4.718  0.00  0.00     0.148 C 
BRANCH  14  15
HETATM   15  C   UNK N   1      27.703  18.312   4.880  0.00  0.00     0.130 C 
HETATM   16  N   UNK N   1      27.729  19.261   4.005  0.00  0.00    -0.373 N 
ATOM     17  HN  UNK N   1      28.398  19.217   3.236  1.00  0.00     0.161 HD
BRANCH  16  18
HETATM   18  C   UNK N   1      26.824  20.382   4.096  0.00  0.00     0.132 C 
BRANCH  18  19
HETATM   19  C   UNK N   1      25.875  20.423   2.915  0.00  0.00     0.129 C 
BRANCH  19  20
HETATM   20  C   UNK N   1      24.475  20.228   3.403  0.00  0.00     0.140 C 
HETATM   21  O   UNK N   1      23.572  20.941   2.993  0.00  0.00    -0.650 OA
BRANCH  20  22
HETATM   22  O   UNK N   1      24.207  19.253   4.291  0.00  0.00    -0.776 OA
HETATM   23  H   UNK N   1      24.440  19.314   5.197  0.00  0.00     0.167 HD
ENDBRANCH  20  22
ENDBRANCH  19  20
ENDBRANCH  18  19
ENDBRANCH  16  18
BRANCH  15  24
HETATM   24  O   UNK N   1      26.859  18.380   5.932  0.00  0.00    -0.348 OA
HETATM   25  H   UNK N   1      25.996  18.134   6.202  0.00  0.00     0.219 HD
ENDBRANCH  15  24
ENDBRANCH  14  15
ENDBRANCH   7  10
ENDBRANCH   6   7
BRANCH   5  26
HETATM   26  C   UNK N   1      24.211  12.114   7.965  0.00  0.00     0.252 C 
HETATM   27  N   UNK N   1      23.790  12.715   9.116  0.00  0.00    -0.343 N 
HETATM   28  H   UNK N   1      23.991  13.675   9.197  0.00  0.00     0.163 HD
HETATM   29  O   UNK N   1      24.074  10.918   7.785  0.00  0.00    -0.268 OA
BRANCH  27  30
HETATM   30  C   UNK N   1      23.080  12.116  10.241  0.00  0.00     0.183 C 
BRANCH  30  31
HETATM   31  C   UNK N   1      21.711  12.772  10.393  0.00  0.00     0.046 C 
BRANCH  31  32
HETATM   32  C   UNK N   1      21.600  14.119   9.698  0.00  0.00     0.112 C 
BRANCH  32  33
HETATM   33  C   UNK N   1      20.278  14.199   9.014  0.00  0.00     0.139 C 
HETATM   34  O   UNK N   1      20.199  14.003   7.812  0.00  0.00    -0.650 OA
BRANCH  33  35
HETATM   35  O   UNK N   1      19.171  14.493   9.720  0.00  0.00    -0.776 OA
HETATM   36  H   UNK N   1      19.048  15.354  10.069  0.00  0.00     0.167 HD
ENDBRANCH  33  35
ENDBRANCH  32  33
ENDBRANCH  31  32
ENDBRANCH  30  31
BRANCH  30  37
HETATM   37  C   UNK N   1      23.841  12.052  11.554  0.00  0.00     0.163 C 
HETATM   38  O   UNK N   1      23.237  11.859  12.599  0.00  0.00    -0.648 OA
BRANCH  37  39
HETATM   39  O   UNK N   1      25.172  12.262  11.592  0.00  0.00    -0.775 OA
HETATM   40  H   UNK N   1      25.812  12.051  12.243  0.00  0.00     0.167 HD
ENDBRANCH  37  39
ENDBRANCH  30  37
ENDBRANCH  27  30
ENDBRANCH   5  26
TORSDOF 16
ENDMDL
MODEL 9
REMARK VINA RESULT:      -6.9      3.344      6.460
REMARK  16 active torsions:
REMARK  status: ('A' for Active; 'I' for Inactive)
REMARK    1  A    between atoms: C_8  and  C_7 
REMARK    2  A    between atoms: C_14  and  C_7 
REMARK    3  A    between atoms: C_16  and  C_8 
REMARK    4  A    between atoms: C_10  and  C_9 
REMARK    5  A    between atoms: C_17  and  C_9 
REMARK    6  A    between atoms: N_21  and  C_10 
REMARK    7  A    between atoms: C_18  and  C_12 
REMARK    8  A    between atoms: S_35  and  C_13 
REMARK    9  A    between atoms: C_20  and  C_14 
REMARK   10  A    between atoms: C_14  and  N_23 
REMARK   11  A    between atoms: C_15  and  C_19 
REMARK   12  A    between atoms: O_26  and  C_16 
REMARK   13  A    between atoms: O_28  and  C_17 
REMARK       I    between atoms: N_23  and  C_18 
REMARK   14  A    between atoms: O_30  and  C_19 
REMARK   15  A    between atoms: O_32  and  C_20 
REMARK   16  A    between atoms: S_35  and  N_24 
ROOT
HETATM    1  C   UNK N   1      29.746  16.728   6.421  0.00  0.00     0.018 A 
HETATM    2  C   UNK N   1      30.213  17.331   8.721  0.00  0.00     0.018 A 
HETATM    3  C   UNK N   1      30.773  15.794   6.459  0.00  0.00     0.026 A 
HETATM    4  C   UNK N   1      31.230  16.370   8.767  0.00  0.00     0.026 A 
HETATM    5  C   UNK N   1      29.458  17.502   7.552  0.00  0.00     0.032 A 
HETATM    6  C   UNK N   1      31.516  15.613   7.626  0.00  0.00     0.074 A 
ENDROOT
BRANCH   6   7
HETATM    7  S   UNK N   1      32.733  14.313   7.668  0.00  0.00     0.244 S 
HETATM    8  O   UNK N   1      32.464  13.374   6.477  0.00  0.00    -0.206 OA
HETATM    9  O   UNK N   1      32.468  13.354   8.837  0.00  0.00    -0.206 OA
BRANCH   7  10
HETATM   10  N   UNK N   1      34.500  14.655   7.614  0.00  0.00    -0.194 NA
HETATM   11  C   UNK N   1      35.012  14.565   8.980  0.00  0.00     0.108 C 
HETATM   12  C   UNK N   1      34.830  15.939   9.629  0.00  0.00     0.018 C 
HETATM   13  C   UNK N   1      34.471  16.872   8.486  0.00  0.00     0.030 C 
HETATM   14  C   UNK N   1      34.823  16.044   7.266  0.00  0.00     0.148 C 
BRANCH  14  15
HETATM   15  C   UNK N   1      34.264  16.504   5.943  0.00  0.00     0.130 C 
HETATM   16  N   UNK N   1      34.023  15.664   4.993  0.00  0.00    -0.373 N 
ATOM     17  HN  UNK N   1      34.291  14.686   5.108  1.00  0.00     0.161 HD
BRANCH  16  18
HETATM   18  C   UNK N   1      33.377  16.086   3.773  0.00  0.00     0.132 C 
BRANCH  18  19
HETATM   19  C   UNK N   1      33.703  15.151   2.625  0.00  0.00     0.129 C 
BRANCH  19  20
HETATM   20  C   UNK N   1      32.806  13.957   2.695  0.00  0.00     0.140 C 
HETATM   21  O   UNK N   1      32.897  13.065   1.864  0.00  0.00    -0.650 OA
BRANCH  20  22
HETATM   22  O   UNK N   1      31.902  13.858   3.686  0.00  0.00    -0.776 OA
HETATM   23  H   UNK N   1      31.363  13.101   3.808  0.00  0.00     0.167 HD
ENDBRANCH  20  22
ENDBRANCH  19  20
ENDBRANCH  18  19
ENDBRANCH  16  18
BRANCH  15  24
HETATM   24  O   UNK N   1      33.963  17.811   5.788  0.00  0.00    -0.348 OA
HETATM   25  H   UNK N   1      33.974  18.630   6.243  0.00  0.00     0.219 HD
ENDBRANCH  15  24
ENDBRANCH  14  15
ENDBRANCH   7  10
ENDBRANCH   6   7
BRANCH   5  26
HETATM   26  C   UNK N   1      28.406  18.526   7.464  0.00  0.00     0.252 C 
HETATM   27  N   UNK N   1      27.914  18.866   6.237  0.00  0.00    -0.343 N 
HETATM   28  H   UNK N   1      28.386  18.481   5.464  0.00  0.00     0.163 HD
HETATM   29  O   UNK N   1      27.942  18.994   8.488  0.00  0.00    -0.268 OA
BRANCH  27  30
HETATM   30  C   UNK N   1      26.778  19.727   5.926  0.00  0.00     0.183 C 
BRANCH  30  31
HETATM   31  C   UNK N   1      26.714  19.968   4.420  0.00  0.00     0.046 C 
BRANCH  31  32
HETATM   32  C   UNK N   1      25.557  19.258   3.738  0.00  0.00     0.112 C 
BRANCH  32  33
HETATM   33  C   UNK N   1      24.724  20.269   3.027  0.00  0.00     0.139 C 
HETATM   34  O   UNK N   1      23.591  20.509   3.414  0.00  0.00    -0.650 OA
BRANCH  33  35
HETATM   35  O   UNK N   1      25.219  20.917   1.957  0.00  0.00    -0.776 OA
HETATM   36  H   UNK N   1      25.650  21.742   2.062  0.00  0.00     0.167 HD
ENDBRANCH  33  35
ENDBRANCH  32  33
ENDBRANCH  31  32
ENDBRANCH  30  31
BRANCH  30  37
HETATM   37  C   UNK N   1      26.677  21.015   6.724  0.00  0.00     0.163 C 
HETATM   38  O   UNK N   1      27.244  22.023   6.328  0.00  0.00    -0.648 OA
BRANCH  37  39
HETATM   39  O   UNK N   1      26.016  21.049   7.898  0.00  0.00    -0.775 OA
HETATM   40  H   UNK N   1      25.751  20.363   8.478  0.00  0.00     0.167 HD
ENDBRANCH  37  39
ENDBRANCH  30  37
ENDBRANCH  27  30
ENDBRANCH   5  26
TORSDOF 16
ENDMDL
