MODEL 1
REMARK VINA RESULT:      -6.5      0.000      0.000
REMARK  9 active torsions:
REMARK  status: ('A' for Active; 'I' for Inactive)
REMARK    1  A    between atoms: C_3  and  C_2 
REMARK    2  A    between atoms: O_21  and  C_2 
REMARK    3  A    between atoms: O_13  and  C_4 
REMARK    4  A    between atoms: C_6  and  O_15 
REMARK    5  A    between atoms: C_7  and  O_16 
REMARK    6  A    between atoms: C_8  and  N_12 
REMARK    7  A    between atoms: P_23  and  O_18 
REMARK    8  A    between atoms: P_23  and  O_19 
REMARK    9  A    between atoms: P_23  and  O_21 
ROOT
HETATM    1  C   UNK N   1      32.471  17.697   7.468  0.00  0.00     0.180 C 
HETATM    2  C   UNK N   1      33.462  17.124   6.428  0.00  0.00     0.182 C 
HETATM    3  C   UNK N   1      34.584  16.622   7.316  0.00  0.00     0.199 C 
HETATM    4  C   UNK N   1      33.715  16.129   8.465  0.00  0.00     0.267 C 
HETATM    5  O   UNK N   1      32.902  17.247   8.734  0.00  0.00    -0.353 OA
ENDROOT
BRANCH   4   6
HETATM    6  N   UNK N   1      34.293  15.621   9.722  0.00  0.00    -0.239 N 
HETATM    7  C   UNK N   1      35.160  16.338  10.510  0.00  0.00     0.237 A 
HETATM    8  C   UNK N   1      35.733  15.742  11.763  0.00  0.00     0.187 A 
HETATM    9  O   UNK N   1      35.496  17.473  10.218  0.00  0.00    -0.272 OA
HETATM   10  C   UNK N   1      35.256  14.344  12.012  0.00  0.00     0.128 A 
HETATM   11  N   UNK N   1      34.439  13.759  11.213  0.00  0.00    -0.292 N 
HETATM   12  C   UNK N   1      33.944  14.338  10.089  0.00  0.00     0.333 A 
ATOM     13  HN  UNK N   1      34.145  12.809  11.435  1.00  0.00     0.172 HD
HETATM   14  O   UNK N   1      33.177  13.686   9.394  0.00  0.00    -0.246 OA
BRANCH  10  15
HETATM   15  O   UNK N   1      35.697  13.684  13.098  0.00  0.00    -0.349 OA
HETATM   16  H   UNK N   1      36.144  14.148  13.780  0.00  0.00     0.219 HD
ENDBRANCH  10  15
ENDBRANCH   4   6
BRANCH   3  17
HETATM   17  O   UNK N   1      35.322  15.613   6.691  0.00  0.00    -0.388 OA
HETATM   18  H   UNK N   1      35.387  14.896   6.041  0.00  0.00     0.210 HD
ENDBRANCH   3  17
BRANCH   2  19
HETATM   19  O   UNK N   1      33.898  18.074   5.502  0.00  0.00    -0.390 OA
HETATM   20  H   UNK N   1      33.535  18.172   4.607  0.00  0.00     0.210 HD
ENDBRANCH   2  19
BRANCH   1  21
HETATM   21  C   UNK N   1      31.049  17.153   7.338  0.00  0.00     0.215 C 
BRANCH  21  22
HETATM   22  O   UNK N   1      30.353  17.042   8.544  0.00  0.00    -0.294 OA
BRANCH  22  23
HETATM   23  P   UNK N   1      29.150  18.301   8.489  0.00  0.00     0.390 P 
HETATM   24  O   UNK N   1      28.395  17.072   7.920  0.00  0.00    -0.632 OA
BRANCH  23  25
HETATM   25  O   UNK N   1      27.698  18.238   9.434  0.00  0.00    -0.307 OA
HETATM   26  H   UNK N   1      27.067  17.502   9.479  0.00  0.00     0.222 HD
ENDBRANCH  23  25
BRANCH  23  27
HETATM   27  O   UNK N   1      29.474  18.028  10.180  0.00  0.00    -0.307 OA
HETATM   28  H   UNK N   1      29.862  18.398  10.989  0.00  0.00     0.222 HD
ENDBRANCH  23  27
ENDBRANCH  22  23
ENDBRANCH  21  22
ENDBRANCH   1  21
TORSDOF 9
ENDMDL
MODEL 2
REMARK VINA RESULT:      -6.5      0.934      2.009
REMARK  9 active torsions:
REMARK  status: ('A' for Active; 'I' for Inactive)
REMARK    1  A    between atoms: C_3  and  C_2 
REMARK    2  A    between atoms: O_21  and  C_2 
REMARK    3  A    between atoms: O_13  and  C_4 
REMARK    4  A    between atoms: C_6  and  O_15 
REMARK    5  A    between atoms: C_7  and  O_16 
REMARK    6  A    between atoms: C_8  and  N_12 
REMARK    7  A    between atoms: P_23  and  O_18 
REMARK    8  A    between atoms: P_23  and  O_19 
REMARK    9  A    between atoms: P_23  and  O_21 
ROOT
HETATM    1  C   UNK N   1      32.843  17.769   7.900  0.00  0.00     0.180 C 
HETATM    2  C   UNK N   1      33.580  17.057   6.742  0.00  0.00     0.182 C 
HETATM    3  C   UNK N   1      34.743  16.410   7.468  0.00  0.00     0.199 C 
HETATM    4  C   UNK N   1      33.997  16.050   8.745  0.00  0.00     0.267 C 
HETATM    5  O   UNK N   1      33.393  17.271   9.101  0.00  0.00    -0.353 OA
ENDROOT
BRANCH   4   6
HETATM    6  N   UNK N   1      34.681  15.475   9.917  0.00  0.00    -0.239 N 
HETATM    7  C   UNK N   1      34.525  14.173  10.330  0.00  0.00     0.237 A 
HETATM    8  C   UNK N   1      35.231  13.665  11.554  0.00  0.00     0.187 A 
HETATM    9  O   UNK N   1      33.810  13.394   9.724  0.00  0.00    -0.272 OA
HETATM   10  C   UNK N   1      36.071  14.714  12.217  0.00  0.00     0.128 A 
HETATM   11  N   UNK N   1      36.153  15.906  11.748  0.00  0.00    -0.292 N 
HETATM   12  C   UNK N   1      35.497  16.323  10.635  0.00  0.00     0.333 A 
ATOM     13  HN  UNK N   1      36.744  16.578  12.239  1.00  0.00     0.172 HD
HETATM   14  O   UNK N   1      35.640  17.485  10.283  0.00  0.00    -0.246 OA
BRANCH  10  15
HETATM   15  O   UNK N   1      36.755  14.398  13.331  0.00  0.00    -0.349 OA
HETATM   16  H   UNK N   1      36.295  14.165  14.114  0.00  0.00     0.219 HD
ENDBRANCH  10  15
ENDBRANCH   4   6
BRANCH   3  17
HETATM   17  O   UNK N   1      35.236  15.304   6.769  0.00  0.00    -0.388 OA
HETATM   18  H   UNK N   1      35.273  14.765   5.964  0.00  0.00     0.210 HD
ENDBRANCH   3  17
BRANCH   2  19
HETATM   19  O   UNK N   1      33.999  17.931   5.736  0.00  0.00    -0.390 OA
HETATM   20  H   UNK N   1      34.313  18.836   5.893  0.00  0.00     0.210 HD
ENDBRANCH   2  19
BRANCH   1  21
HETATM   21  C   UNK N   1      31.357  17.426   7.994  0.00  0.00     0.215 C 
BRANCH  21  22
HETATM   22  O   UNK N   1      30.566  18.417   8.580  0.00  0.00    -0.294 OA
BRANCH  22  23
HETATM   23  P   UNK N   1      29.183  17.572   9.220  0.00  0.00     0.390 P 
HETATM   24  O   UNK N   1      29.429  18.685  10.271  0.00  0.00    -0.632 OA
BRANCH  23  25
HETATM   25  O   UNK N   1      27.632  18.327   9.389  0.00  0.00    -0.307 OA
HETATM   26  H   UNK N   1      27.097  18.719   8.681  0.00  0.00     0.222 HD
ENDBRANCH  23  25
BRANCH  23  27
HETATM   27  O   UNK N   1      28.643  18.310   7.735  0.00  0.00    -0.307 OA
HETATM   28  H   UNK N   1      28.850  18.469   6.801  0.00  0.00     0.222 HD
ENDBRANCH  23  27
ENDBRANCH  22  23
ENDBRANCH  21  22
ENDBRANCH   1  21
TORSDOF 9
ENDMDL
MODEL 3
REMARK VINA RESULT:      -6.4      3.064      6.168
REMARK  9 active torsions:
REMARK  status: ('A' for Active; 'I' for Inactive)
REMARK    1  A    between atoms: C_3  and  C_2 
REMARK    2  A    between atoms: O_21  and  C_2 
REMARK    3  A    between atoms: O_13  and  C_4 
REMARK    4  A    between atoms: C_6  and  O_15 
REMARK    5  A    between atoms: C_7  and  O_16 
REMARK    6  A    between atoms: C_8  and  N_12 
REMARK    7  A    between atoms: P_23  and  O_18 
REMARK    8  A    between atoms: P_23  and  O_19 
REMARK    9  A    between atoms: P_23  and  O_21 
ROOT
HETATM    1  C   UNK N   1      35.208  15.378   8.747  0.00  0.00     0.180 C 
HETATM    2  C   UNK N   1      34.224  16.089   9.704  0.00  0.00     0.182 C 
HETATM    3  C   UNK N   1      33.402  16.920   8.739  0.00  0.00     0.199 C 
HETATM    4  C   UNK N   1      33.366  15.913   7.599  0.00  0.00     0.267 C 
HETATM    5  O   UNK N   1      34.725  15.586   7.437  0.00  0.00    -0.353 OA
ENDROOT
BRANCH   4   6
HETATM    6  N   UNK N   1      32.773  16.233   6.287  0.00  0.00    -0.239 N 
HETATM    7  C   UNK N   1      33.180  17.284   5.501  0.00  0.00     0.237 A 
HETATM    8  C   UNK N   1      32.507  17.568   4.189  0.00  0.00     0.187 A 
HETATM    9  O   UNK N   1      34.090  18.019   5.842  0.00  0.00    -0.272 OA
HETATM   10  C   UNK N   1      31.400  16.606   3.884  0.00  0.00     0.128 A 
HETATM   11  N   UNK N   1      31.098  15.650   4.686  0.00  0.00    -0.292 N 
HETATM   12  C   UNK N   1      31.735  15.429   5.865  0.00  0.00     0.333 A 
ATOM     13  HN  UNK N   1      30.338  15.023   4.425  1.00  0.00     0.172 HD
HETATM   14  O   UNK N   1      31.359  14.494   6.557  0.00  0.00    -0.246 OA
BRANCH  10  15
HETATM   15  O   UNK N   1      30.704  16.748   2.741  0.00  0.00    -0.349 OA
HETATM   16  H   UNK N   1      30.602  16.020   2.160  0.00  0.00     0.219 HD
ENDBRANCH  10  15
ENDBRANCH   4   6
BRANCH   3  17
HETATM   17  O   UNK N   1      32.143  17.225   9.265  0.00  0.00    -0.388 OA
HETATM   18  H   UNK N   1      31.581  17.474  10.016  0.00  0.00     0.210 HD
ENDBRANCH   3  17
BRANCH   2  19
HETATM   19  O   UNK N   1      34.863  16.870  10.671  0.00  0.00    -0.390 OA
HETATM   20  H   UNK N   1      34.691  16.808  11.624  0.00  0.00     0.210 HD
ENDBRANCH   2  19
BRANCH   1  21
HETATM   21  C   UNK N   1      35.238  13.858   8.902  0.00  0.00     0.215 C 
BRANCH  21  22
HETATM   22  O   UNK N   1      34.289  13.342   9.788  0.00  0.00    -0.294 OA
BRANCH  22  23
HETATM   23  P   UNK N   1      33.561  12.005   8.943  0.00  0.00     0.390 P 
HETATM   24  O   UNK N   1      33.990  11.373  10.293  0.00  0.00    -0.632 OA
BRANCH  23  25
HETATM   25  O   UNK N   1      32.119  11.225   9.508  0.00  0.00    -0.307 OA
HETATM   26  H   UNK N   1      31.674  11.373  10.358  0.00  0.00     0.222 HD
ENDBRANCH  23  25
BRANCH  23  27
HETATM   27  O   UNK N   1      32.269  13.138   9.238  0.00  0.00    -0.307 OA
HETATM   28  H   UNK N   1      32.027  13.983   9.649  0.00  0.00     0.222 HD
ENDBRANCH  23  27
ENDBRANCH  22  23
ENDBRANCH  21  22
ENDBRANCH   1  21
TORSDOF 9
ENDMDL
MODEL 4
REMARK VINA RESULT:      -6.3     10.714     12.267
REMARK  9 active torsions:
REMARK  status: ('A' for Active; 'I' for Inactive)
REMARK    1  A    between atoms: C_3  and  C_2 
REMARK    2  A    between atoms: O_21  and  C_2 
REMARK    3  A    between atoms: O_13  and  C_4 
REMARK    4  A    between atoms: C_6  and  O_15 
REMARK    5  A    between atoms: C_7  and  O_16 
REMARK    6  A    between atoms: C_8  and  N_12 
REMARK    7  A    between atoms: P_23  and  O_18 
REMARK    8  A    between atoms: P_23  and  O_19 
REMARK    9  A    between atoms: P_23  and  O_21 
ROOT
HETATM    1  C   UNK N   1      21.623  15.565   6.933  0.00  0.00     0.180 C 
HETATM    2  C   UNK N   1      20.975  14.382   6.179  0.00  0.00     0.182 C 
HETATM    3  C   UNK N   1      21.468  13.196   6.984  0.00  0.00     0.199 C 
HETATM    4  C   UNK N   1      21.406  13.854   8.355  0.00  0.00     0.267 C 
HETATM    5  O   UNK N   1      22.117  15.052   8.151  0.00  0.00    -0.353 OA
ENDROOT
BRANCH   4   6
HETATM    6  N   UNK N   1      21.902  13.183   9.570  0.00  0.00    -0.239 N 
HETATM    7  C   UNK N   1      23.226  12.890   9.795  0.00  0.00     0.237 A 
HETATM    8  C   UNK N   1      23.653  12.175  11.045  0.00  0.00     0.187 A 
HETATM    9  O   UNK N   1      24.090  13.192   8.991  0.00  0.00    -0.272 OA
HETATM   10  C   UNK N   1      22.504  11.848  11.949  0.00  0.00     0.128 A 
HETATM   11  N   UNK N   1      21.298  12.171  11.649  0.00  0.00    -0.292 N 
HETATM   12  C   UNK N   1      20.956  12.819  10.505  0.00  0.00     0.333 A 
ATOM     13  HN  UNK N   1      20.556  11.927  12.304  1.00  0.00     0.172 HD
HETATM   14  O   UNK N   1      19.774  13.068  10.316  0.00  0.00    -0.246 OA
BRANCH  10  15
HETATM   15  O   UNK N   1      22.742  11.200  13.103  0.00  0.00    -0.349 OA
HETATM   16  H   UNK N   1      22.030  10.849  13.601  0.00  0.00     0.219 HD
ENDBRANCH  10  15
ENDBRANCH   4   6
BRANCH   3  17
HETATM   17  O   UNK N   1      20.622  12.092   6.847  0.00  0.00    -0.388 OA
HETATM   18  H   UNK N   1      20.244  11.272   7.200  0.00  0.00     0.210 HD
ENDBRANCH   3  17
BRANCH   2  19
HETATM   19  O   UNK N   1      21.353  14.310   4.836  0.00  0.00    -0.390 OA
HETATM   20  H   UNK N   1      22.139  13.840   4.514  0.00  0.00     0.210 HD
ENDBRANCH   2  19
BRANCH   1  21
HETATM   21  C   UNK N   1      20.634  16.651   7.353  0.00  0.00     0.215 C 
BRANCH  21  22
HETATM   22  O   UNK N   1      19.309  16.225   7.461  0.00  0.00    -0.294 OA
BRANCH  22  23
HETATM   23  P   UNK N   1      18.803  16.717   9.054  0.00  0.00     0.390 P 
HETATM   24  O   UNK N   1      19.737  17.874   8.611  0.00  0.00    -0.632 OA
BRANCH  23  25
HETATM   25  O   UNK N   1      17.851  18.141   9.326  0.00  0.00    -0.307 OA
HETATM   26  H   UNK N   1      18.139  19.061   9.216  0.00  0.00     0.222 HD
ENDBRANCH  23  25
BRANCH  23  27
HETATM   27  O   UNK N   1      17.364  16.749   8.069  0.00  0.00    -0.307 OA
HETATM   28  H   UNK N   1      16.969  16.483   7.224  0.00  0.00     0.222 HD
ENDBRANCH  23  27
ENDBRANCH  22  23
ENDBRANCH  21  22
ENDBRANCH   1  21
TORSDOF 9
ENDMDL
MODEL 5
REMARK VINA RESULT:      -6.2     15.334     17.797
REMARK  9 active torsions:
REMARK  status: ('A' for Active; 'I' for Inactive)
REMARK    1  A    between atoms: C_3  and  C_2 
REMARK    2  A    between atoms: O_21  and  C_2 
REMARK    3  A    between atoms: O_13  and  C_4 
REMARK    4  A    between atoms: C_6  and  O_15 
REMARK    5  A    between atoms: C_7  and  O_16 
REMARK    6  A    between atoms: C_8  and  N_12 
REMARK    7  A    between atoms: P_23  and  O_18 
REMARK    8  A    between atoms: P_23  and  O_19 
REMARK    9  A    between atoms: P_23  and  O_21 
ROOT
HETATM    1  C   UNK N   1      25.621  24.988  -6.158  0.00  0.00     0.180 C 
HETATM    2  C   UNK N   1      25.933  26.446  -5.751  0.00  0.00     0.182 C 
HETATM    3  C   UNK N   1      26.788  26.245  -4.516  0.00  0.00     0.199 C 
HETATM    4  C   UNK N   1      27.529  25.004  -4.993  0.00  0.00     0.267 C 
HETATM    5  O   UNK N   1      26.479  24.160  -5.402  0.00  0.00    -0.353 OA
ENDROOT
BRANCH   4   6
HETATM    6  N   UNK N   1      28.454  24.258  -4.121  0.00  0.00    -0.239 N 
HETATM    7  C   UNK N   1      28.098  23.732  -2.902  0.00  0.00     0.237 A 
HETATM    8  C   UNK N   1      29.104  23.010  -2.053  0.00  0.00     0.187 A 
HETATM    9  O   UNK N   1      26.963  23.837  -2.470  0.00  0.00    -0.272 OA
HETATM   10  C   UNK N   1      30.462  22.954  -2.683  0.00  0.00     0.128 A 
HETATM   11  N   UNK N   1      30.693  23.475  -3.833  0.00  0.00    -0.292 N 
HETATM   12  C   UNK N   1      29.751  24.120  -4.569  0.00  0.00     0.333 A 
ATOM     13  HN  UNK N   1      31.635  23.403  -4.215  1.00  0.00     0.172 HD
HETATM   14  O   UNK N   1      30.083  24.588  -5.648  0.00  0.00    -0.246 OA
BRANCH  10  15
HETATM   15  O   UNK N   1      31.464  22.342  -2.027  0.00  0.00    -0.349 OA
HETATM   16  H   UNK N   1      31.921  22.791  -1.343  0.00  0.00     0.219 HD
ENDBRANCH  10  15
ENDBRANCH   4   6
BRANCH   3  17
HETATM   17  O   UNK N   1      27.619  27.345  -4.280  0.00  0.00    -0.388 OA
HETATM   18  H   UNK N   1      28.506  27.727  -4.198  0.00  0.00     0.210 HD
ENDBRANCH   3  17
BRANCH   2  19
HETATM   19  O   UNK N   1      24.788  27.203  -5.491  0.00  0.00    -0.390 OA
HETATM   20  H   UNK N   1      23.887  26.844  -5.475  0.00  0.00     0.210 HD
ENDBRANCH   2  19
BRANCH   1  21
HETATM   21  C   UNK N   1      25.962  24.660  -7.610  0.00  0.00     0.215 C 
BRANCH  21  22
HETATM   22  O   UNK N   1      24.972  23.954  -8.298  0.00  0.00    -0.294 OA
BRANCH  22  23
HETATM   23  P   UNK N   1      25.577  22.325  -8.416  0.00  0.00     0.390 P 
HETATM   24  O   UNK N   1      24.083  22.117  -8.055  0.00  0.00    -0.632 OA
BRANCH  23  25
HETATM   25  O   UNK N   1      25.014  21.212  -9.620  0.00  0.00    -0.307 OA
HETATM   26  H   UNK N   1      25.476  20.422  -9.942  0.00  0.00     0.222 HD
ENDBRANCH  23  25
BRANCH  23  27
HETATM   27  O   UNK N   1      25.679  22.986 -10.026  0.00  0.00    -0.307 OA
HETATM   28  H   UNK N   1      26.121  22.925 -10.888  0.00  0.00     0.222 HD
ENDBRANCH  23  27
ENDBRANCH  22  23
ENDBRANCH  21  22
ENDBRANCH   1  21
TORSDOF 9
ENDMDL
MODEL 6
REMARK VINA RESULT:      -6.2     12.072     13.125
REMARK  9 active torsions:
REMARK  status: ('A' for Active; 'I' for Inactive)
REMARK    1  A    between atoms: C_3  and  C_2 
REMARK    2  A    between atoms: O_21  and  C_2 
REMARK    3  A    between atoms: O_13  and  C_4 
REMARK    4  A    between atoms: C_6  and  O_15 
REMARK    5  A    between atoms: C_7  and  O_16 
REMARK    6  A    between atoms: C_8  and  N_12 
REMARK    7  A    between atoms: P_23  and  O_18 
REMARK    8  A    between atoms: P_23  and  O_19 
REMARK    9  A    between atoms: P_23  and  O_21 
ROOT
HETATM    1  C   UNK N   1      21.394  16.738   3.998  0.00  0.00     0.180 C 
HETATM    2  C   UNK N   1      19.849  16.793   3.981  0.00  0.00     0.182 C 
HETATM    3  C   UNK N   1      19.491  15.691   4.958  0.00  0.00     0.199 C 
HETATM    4  C   UNK N   1      20.636  15.920   5.935  0.00  0.00     0.267 C 
HETATM    5  O   UNK N   1      21.762  15.924   5.090  0.00  0.00    -0.353 OA
ENDROOT
BRANCH   4   6
HETATM    6  N   UNK N   1      20.879  15.026   7.082  0.00  0.00    -0.239 N 
HETATM    7  C   UNK N   1      21.078  13.671   6.966  0.00  0.00     0.237 A 
HETATM    8  C   UNK N   1      21.289  12.818   8.184  0.00  0.00     0.187 A 
HETATM    9  O   UNK N   1      21.085  13.119   5.879  0.00  0.00    -0.272 OA
HETATM   10  C   UNK N   1      21.250  13.605   9.458  0.00  0.00     0.128 A 
HETATM   11  N   UNK N   1      21.060  14.875   9.460  0.00  0.00    -0.292 N 
HETATM   12  C   UNK N   1      20.874  15.608   8.332  0.00  0.00     0.333 A 
ATOM     13  HN  UNK N   1      21.048  15.359  10.356  1.00  0.00     0.172 HD
HETATM   14  O   UNK N   1      20.693  16.811   8.450  0.00  0.00    -0.246 OA
BRANCH  10  15
HETATM   15  O   UNK N   1      21.417  12.965  10.629  0.00  0.00    -0.349 OA
HETATM   16  H   UNK N   1      20.739  12.410  10.962  0.00  0.00     0.219 HD
ENDBRANCH  10  15
ENDBRANCH   4   6
BRANCH   3  17
HETATM   17  O   UNK N   1      18.224  15.888   5.515  0.00  0.00    -0.388 OA
HETATM   18  H   UNK N   1      17.472  15.563   6.034  0.00  0.00     0.210 HD
ENDBRANCH   3  17
BRANCH   2  19
HETATM   19  O   UNK N   1      19.304  16.580   2.713  0.00  0.00    -0.390 OA
HETATM   20  H   UNK N   1      19.132  17.282   2.066  0.00  0.00     0.210 HD
ENDBRANCH   2  19
BRANCH   1  21
HETATM   21  C   UNK N   1      22.061  18.082   4.287  0.00  0.00     0.215 C 
BRANCH  21  22
HETATM   22  O   UNK N   1      21.177  19.150   4.451  0.00  0.00    -0.294 OA
BRANCH  22  23
HETATM   23  P   UNK N   1      21.179  19.979   2.919  0.00  0.00     0.390 P 
HETATM   24  O   UNK N   1      20.243  20.857   3.790  0.00  0.00    -0.632 OA
BRANCH  23  25
HETATM   25  O   UNK N   1      21.824  21.578   2.730  0.00  0.00    -0.307 OA
HETATM   26  H   UNK N   1      21.683  22.333   3.322  0.00  0.00     0.222 HD
ENDBRANCH  23  25
BRANCH  23  27
HETATM   27  O   UNK N   1      22.806  20.112   3.532  0.00  0.00    -0.307 OA
HETATM   28  H   UNK N   1      23.442  19.784   4.187  0.00  0.00     0.222 HD
ENDBRANCH  23  27
ENDBRANCH  22  23
ENDBRANCH  21  22
ENDBRANCH   1  21
TORSDOF 9
ENDMDL
MODEL 7
REMARK VINA RESULT:      -6.1      3.734      7.034
REMARK  9 active torsions:
REMARK  status: ('A' for Active; 'I' for Inactive)
REMARK    1  A    between atoms: C_3  and  C_2 
REMARK    2  A    between atoms: O_21  and  C_2 
REMARK    3  A    between atoms: O_13  and  C_4 
REMARK    4  A    between atoms: C_6  and  O_15 
REMARK    5  A    between atoms: C_7  and  O_16 
REMARK    6  A    between atoms: C_8  and  N_12 
REMARK    7  A    between atoms: P_23  and  O_18 
REMARK    8  A    between atoms: P_23  and  O_19 
REMARK    9  A    between atoms: P_23  and  O_21 
ROOT
HETATM    1  C   UNK N   1      35.738  12.787  11.778  0.00  0.00     0.180 C 
HETATM    2  C   UNK N   1      37.248  13.064  11.595  0.00  0.00     0.182 C 
HETATM    3  C   UNK N   1      37.265  13.818  10.280  0.00  0.00     0.199 C 
HETATM    4  C   UNK N   1      35.974  14.597  10.487  0.00  0.00     0.267 C 
HETATM    5  O   UNK N   1      35.058  13.584  10.832  0.00  0.00    -0.353 OA
ENDROOT
BRANCH   4   6
HETATM    6  N   UNK N   1      35.395  15.450   9.433  0.00  0.00    -0.239 N 
HETATM    7  C   UNK N   1      35.188  15.034   8.140  0.00  0.00     0.237 A 
HETATM    8  C   UNK N   1      34.622  15.971   7.112  0.00  0.00     0.187 A 
HETATM    9  O   UNK N   1      35.460  13.900   7.785  0.00  0.00    -0.272 OA
HETATM   10  C   UNK N   1      34.338  17.335   7.663  0.00  0.00     0.128 A 
HETATM   11  N   UNK N   1      34.564  17.624   8.893  0.00  0.00    -0.292 N 
HETATM   12  C   UNK N   1      35.077  16.744   9.791  0.00  0.00     0.333 A 
ATOM     13  HN  UNK N   1      34.348  18.568   9.214  1.00  0.00     0.172 HD
HETATM   14  O   UNK N   1      35.261  17.130  10.936  0.00  0.00    -0.246 OA
BRANCH  10  15
HETATM   15  O   UNK N   1      33.835  18.279   6.848  0.00  0.00    -0.349 OA
HETATM   16  H   UNK N   1      33.990  18.234   5.925  0.00  0.00     0.219 HD
ENDBRANCH  10  15
ENDBRANCH   4   6
BRANCH   3  17
HETATM   17  O   UNK N   1      38.401  14.626  10.165  0.00  0.00    -0.388 OA
HETATM   18  H   UNK N   1      38.814  15.503  10.171  0.00  0.00     0.210 HD
ENDBRANCH   3  17
BRANCH   2  19
HETATM   19  O   UNK N   1      38.020  11.901  11.553  0.00  0.00    -0.390 OA
HETATM   20  H   UNK N   1      37.950  11.222  10.863  0.00  0.00     0.210 HD
ENDBRANCH   2  19
BRANCH   1  21
HETATM   21  C   UNK N   1      35.181  13.243  13.126  0.00  0.00     0.215 C 
BRANCH  21  22
HETATM   22  O   UNK N   1      36.081  13.960  13.918  0.00  0.00    -0.294 OA
BRANCH  22  23
HETATM   23  P   UNK N   1      36.275  13.003  15.361  0.00  0.00     0.390 P 
HETATM   24  O   UNK N   1      36.897  14.367  15.759  0.00  0.00    -0.632 OA
BRANCH  23  25
HETATM   25  O   UNK N   1      35.478  13.399  16.849  0.00  0.00    -0.307 OA
HETATM   26  H   UNK N   1      35.227  14.284  17.155  0.00  0.00     0.222 HD
ENDBRANCH  23  25
BRANCH  23  27
HETATM   27  O   UNK N   1      34.555  13.208  15.156  0.00  0.00    -0.307 OA
HETATM   28  H   UNK N   1      33.751  12.849  14.749  0.00  0.00     0.222 HD
ENDBRANCH  23  27
ENDBRANCH  22  23
ENDBRANCH  21  22
ENDBRANCH   1  21
TORSDOF 9
ENDMDL
MODEL 8
REMARK VINA RESULT:      -5.9      3.094      6.578
REMARK  9 active torsions:
REMARK  status: ('A' for Active; 'I' for Inactive)
REMARK    1  A    between atoms: C_3  and  C_2 
REMARK    2  A    between atoms: O_21  and  C_2 
REMARK    3  A    between atoms: O_13  and  C_4 
REMARK    4  A    between atoms: C_6  and  O_15 
REMARK    5  A    between atoms: C_7  and  O_16 
REMARK    6  A    between atoms: C_8  and  N_12 
REMARK    7  A    between atoms: P_23  and  O_18 
REMARK    8  A    between atoms: P_23  and  O_19 
REMARK    9  A    between atoms: P_23  and  O_21 
ROOT
HETATM    1  C   UNK N   1      35.170  15.433   8.835  0.00  0.00     0.180 C 
HETATM    2  C   UNK N   1      34.206  16.302   9.675  0.00  0.00     0.182 C 
HETATM    3  C   UNK N   1      33.463  17.067   8.598  0.00  0.00     0.199 C 
HETATM    4  C   UNK N   1      33.396  15.942   7.574  0.00  0.00     0.267 C 
HETATM    5  O   UNK N   1      34.737  15.521   7.495  0.00  0.00    -0.353 OA
ENDROOT
BRANCH   4   6
HETATM    6  N   UNK N   1      32.859  16.148   6.217  0.00  0.00    -0.239 N 
HETATM    7  C   UNK N   1      31.930  15.325   5.629  0.00  0.00     0.237 A 
HETATM    8  C   UNK N   1      31.452  15.580   4.228  0.00  0.00     0.187 A 
HETATM    9  O   UNK N   1      31.469  14.362   6.218  0.00  0.00    -0.272 OA
HETATM   10  C   UNK N   1      32.096  16.781   3.605  0.00  0.00     0.128 A 
HETATM   11  N   UNK N   1      32.955  17.491   4.243  0.00  0.00    -0.292 N 
HETATM   12  C   UNK N   1      33.358  17.224   5.511  0.00  0.00     0.333 A 
ATOM     13  HN  UNK N   1      33.357  18.300   3.770  1.00  0.00     0.172 HD
HETATM   14  O   UNK N   1      34.190  17.962   6.020  0.00  0.00    -0.246 OA
BRANCH  10  15
HETATM   15  O   UNK N   1      31.765  17.123   2.347  0.00  0.00    -0.349 OA
HETATM   16  H   UNK N   1      31.488  17.997   2.155  0.00  0.00     0.219 HD
ENDBRANCH  10  15
ENDBRANCH   4   6
BRANCH   3  17
HETATM   17  O   UNK N   1      32.211  17.501   9.045  0.00  0.00    -0.388 OA
HETATM   18  H   UNK N   1      31.540  17.560   9.742  0.00  0.00     0.210 HD
ENDBRANCH   3  17
BRANCH   2  19
HETATM   19  O   UNK N   1      34.865  17.147  10.571  0.00  0.00    -0.390 OA
HETATM   20  H   UNK N   1      34.457  17.528  11.366  0.00  0.00     0.210 HD
ENDBRANCH   2  19
BRANCH   1  21
HETATM   21  C   UNK N   1      35.103  13.941   9.157  0.00  0.00     0.215 C 
BRANCH  21  22
HETATM   22  O   UNK N   1      34.198  13.601  10.165  0.00  0.00    -0.294 OA
BRANCH  22  23
HETATM   23  P   UNK N   1      35.185  13.062  11.496  0.00  0.00     0.390 P 
HETATM   24  O   UNK N   1      34.467  14.308  12.076  0.00  0.00    -0.632 OA
BRANCH  23  25
HETATM   25  O   UNK N   1      34.503  12.488  12.983  0.00  0.00    -0.307 OA
HETATM   26  H   UNK N   1      34.954  11.965  13.665  0.00  0.00     0.222 HD
ENDBRANCH  23  25
BRANCH  23  27
HETATM   27  O   UNK N   1      34.006  11.803  11.240  0.00  0.00    -0.307 OA
HETATM   28  H   UNK N   1      33.769  10.881  11.428  0.00  0.00     0.222 HD
ENDBRANCH  23  27
ENDBRANCH  22  23
ENDBRANCH  21  22
ENDBRANCH   1  21
TORSDOF 9
ENDMDL
MODEL 9
REMARK VINA RESULT:      -5.8      2.999      5.966
REMARK  9 active torsions:
REMARK  status: ('A' for Active; 'I' for Inactive)
REMARK    1  A    between atoms: C_3  and  C_2 
REMARK    2  A    between atoms: O_21  and  C_2 
REMARK    3  A    between atoms: O_13  and  C_4 
REMARK    4  A    between atoms: C_6  and  O_15 
REMARK    5  A    between atoms: C_7  and  O_16 
REMARK    6  A    between atoms: C_8  and  N_12 
REMARK    7  A    between atoms: P_23  and  O_18 
REMARK    8  A    between atoms: P_23  and  O_19 
REMARK    9  A    between atoms: P_23  and  O_21 
ROOT
HETATM    1  C   UNK N   1      33.967  14.431   6.984  0.00  0.00     0.180 C 
HETATM    2  C   UNK N   1      34.815  15.672   6.620  0.00  0.00     0.182 C 
HETATM    3  C   UNK N   1      33.768  16.599   6.036  0.00  0.00     0.199 C 
HETATM    4  C   UNK N   1      32.631  16.223   6.976  0.00  0.00     0.267 C 
HETATM    5  O   UNK N   1      32.614  14.818   6.887  0.00  0.00    -0.353 OA
ENDROOT
BRANCH   4   6
HETATM    6  N   UNK N   1      31.264  16.748   6.804  0.00  0.00    -0.239 N 
HETATM    7  C   UNK N   1      30.533  16.613   5.648  0.00  0.00     0.237 A 
HETATM    8  C   UNK N   1      29.157  17.202   5.535  0.00  0.00     0.187 A 
HETATM    9  O   UNK N   1      30.977  16.019   4.680  0.00  0.00    -0.272 OA
HETATM   10  C   UNK N   1      28.726  17.914   6.780  0.00  0.00     0.128 A 
HETATM   11  N   UNK N   1      29.485  17.982   7.814  0.00  0.00    -0.292 N 
HETATM   12  C   UNK N   1      30.725  17.432   7.873  0.00  0.00     0.333 A 
ATOM     13  HN  UNK N   1      29.138  18.476   8.635  1.00  0.00     0.172 HD
HETATM   14  O   UNK N   1      31.366  17.566   8.905  0.00  0.00    -0.246 OA
BRANCH  10  15
HETATM   15  O   UNK N   1      27.515  18.497   6.816  0.00  0.00    -0.349 OA
HETATM   16  H   UNK N   1      26.942  18.435   6.077  0.00  0.00     0.219 HD
ENDBRANCH  10  15
ENDBRANCH   4   6
BRANCH   3  17
HETATM   17  O   UNK N   1      34.158  17.939   6.127  0.00  0.00    -0.388 OA
HETATM   18  H   UNK N   1      34.850  18.618   6.103  0.00  0.00     0.210 HD
ENDBRANCH   3  17
BRANCH   2  19
HETATM   19  O   UNK N   1      35.842  15.391   5.716  0.00  0.00    -0.390 OA
HETATM   20  H   UNK N   1      35.741  14.831   4.930  0.00  0.00     0.210 HD
ENDBRANCH   2  19
BRANCH   1  21
HETATM   21  C   UNK N   1      34.127  13.972   8.433  0.00  0.00     0.215 C 
BRANCH  21  22
HETATM   22  O   UNK N   1      35.245  14.489   9.090  0.00  0.00    -0.294 OA
BRANCH  22  23
HETATM   23  P   UNK N   1      34.724  14.754  10.731  0.00  0.00     0.390 P 
HETATM   24  O   UNK N   1      34.379  16.096  10.034  0.00  0.00    -0.632 OA
BRANCH  23  25
HETATM   25  O   UNK N   1      33.061  15.015  11.145  0.00  0.00    -0.307 OA
HETATM   26  H   UNK N   1      32.294  14.530  10.801  0.00  0.00     0.222 HD
ENDBRANCH  23  25
BRANCH  23  27
HETATM   27  O   UNK N   1      33.682  13.507  10.098  0.00  0.00    -0.307 OA
HETATM   28  H   UNK N   1      32.958  12.893  10.299  0.00  0.00     0.222 HD
ENDBRANCH  23  27
ENDBRANCH  22  23
ENDBRANCH  21  22
ENDBRANCH   1  21
TORSDOF 9
ENDMDL
