REMARK  6 active torsions:
REMARK  status: ('A' for Active; 'I' for Inactive)
REMARK    1  A    between atoms: C_1  and  C_4 
REMARK    2  A    between atoms: C_2  and  O_6 
REMARK    3  A    between atoms: C_4  and  O_8 
REMARK    4  A    between atoms: C_5  and  O_11 
REMARK    5  A    between atoms: C_7  and  O_12 
REMARK    6  A    between atoms: C_10  and  O_13 
ROOT
HETATM    1  C   UNK N   1      -0.501   0.648   0.292  0.00  0.00     0.253 C 
HETATM    2  C   UNK N   1      -0.605  -0.792  -0.252  0.00  0.00     0.189 C 
HETATM    3  O   UNK N   1       0.636   1.272  -0.267  0.00  0.00    -0.340 OA
HETATM    4  C   UNK N   1       0.655  -1.538   0.187  0.00  0.00     0.183 C 
HETATM    5  C   UNK N   1       1.777   0.657   0.283  0.00  0.00     0.289 C 
HETATM    6  C   UNK N   1       1.896  -0.771  -0.260  0.00  0.00     0.204 C 
ENDROOT
BRANCH   1   7
HETATM    7  C   UNK N   1      -1.724   1.490   0.017  0.00  0.00     0.172 C 
HETATM    8  O   UNK N   1      -1.616   2.699  -0.100  0.00  0.00    -0.648 OA
BRANCH   7   9
HETATM    9  O   UNK N   1      -2.951   0.932  -0.013  0.00  0.00    -0.774 OA
HETATM   10  H   UNK N   1      -3.713   1.476  -0.034  0.00  0.00     0.167 HD
ENDBRANCH   7   9
ENDBRANCH   1   7
BRANCH   2  11
HETATM   11  O   UNK N   1      -1.723  -1.447   0.268  0.00  0.00    -0.390 OA
HETATM   12  H   UNK N   1      -2.506  -1.001   0.629  0.00  0.00     0.210 HD
ENDBRANCH   2  11
BRANCH   4  13
HETATM   13  O   UNK N   1       0.666  -2.834  -0.332  0.00  0.00    -0.390 OA
HETATM   14  H   UNK N   1      -0.110  -3.290  -0.692  0.00  0.00     0.210 HD
ENDBRANCH   4  13
BRANCH   5  15
HETATM   15  O   UNK N   1       2.909   1.393  -0.069  0.00  0.00    -0.368 OA
HETATM   16  H   UNK N   1       3.745   0.967  -0.313  0.00  0.00     0.212 HD
ENDBRANCH   5  15
BRANCH   6  17
HETATM   17  O   UNK N   1       3.041  -1.387   0.246  0.00  0.00    -0.388 OA
HETATM   18  H   UNK N   1       3.068  -2.290   0.598  0.00  0.00     0.210 HD
ENDBRANCH   6  17
TORSDOF 6
