REMARK  1 active torsions:
REMARK  status: ('A' for Active; 'I' for Inactive)
REMARK    1  A    between atoms: N_7  and  C_6 
ROOT
HETATM    1  C   UNK N   1       1.155   1.582   0.020  0.00  0.00     0.049 A 
HETATM    2  C   UNK N   1       0.373   0.422  -0.010  0.00  0.00     0.091 A 
HETATM    3  C   UNK N   1       4.786   1.130   0.030  0.00  0.00     0.182 A 
HETATM    4  C   UNK N   1       2.448   1.125   0.013  0.00  0.00     0.065 A 
HETATM    5  C   UNK N   1       2.424  -0.225  -0.015  0.00  0.00     0.103 A 
HETATM    6  C   UNK N   1       3.609  -0.941  -0.017  0.00  0.00     0.129 A 
HETATM    7  N   UNK N   1       1.163  -0.682  -0.032  0.00  0.00    -0.361 N 
HETATM    8  N   UNK N   1       3.608   1.826   0.037  0.00  0.00    -0.350 N 
ATOM      9  HN  UNK N   1       3.603   2.846   0.059  1.00  0.00     0.166 HD
HETATM   10  N   UNK N   1       4.783  -0.244   0.005  0.00  0.00    -0.337 N 
HETATM   11  H   UNK N   1       0.872  -1.623  -0.054  0.00  0.00     0.165 HD
HETATM   12  H   UNK N   1       5.638  -0.732   0.003  0.00  0.00     0.168 HD
ENDROOT
BRANCH   6  13
HETATM   13  N   UNK N   1       3.610  -2.220  -0.030  0.00  0.00    -0.384 N 
HETATM   14  H   UNK N   1       2.757  -2.713  -0.040  0.00  0.00     0.157 HD
ATOM     15  HN  UNK N   1       4.493  -2.729  -0.030  1.00  0.00     0.157 HD
ENDBRANCH   6  13
TORSDOF 1
