MODEL 1
REMARK VINA RESULT:      -5.1      0.000      0.000
REMARK  3 active torsions:
REMARK  status: ('A' for Active; 'I' for Inactive)
REMARK    1  A    between atoms: C_2  and  O_1 
REMARK    2  A    between atoms: C_2  and  C_5 
REMARK    3  A    between atoms: C_8  and  O_9 
ROOT
HETATM    1  C   UNK N   1      33.206  17.536   8.027  0.00  0.00     0.257 C 
HETATM    2  C   UNK N   1      34.351  18.415   8.282  0.00  0.00     0.096 C 
HETATM    3  N   UNK N   1      35.255  19.118   8.458  0.00  0.00    -0.194 NA
ENDROOT
BRANCH   1   4
HETATM    4  O   UNK N   1      32.703  16.779   9.087  0.00  0.00    -0.377 OA
HETATM    5  H   UNK N   1      33.209  16.704   9.912  0.00  0.00     0.211 HD
ENDBRANCH   1   4
BRANCH   1   6
HETATM    6  C   UNK N   1      32.606  17.401   6.662  0.00  0.00    -0.016 A 
HETATM    7  C   UNK N   1      31.239  17.136   6.500  0.00  0.00     0.013 A 
HETATM    8  C   UNK N   1      30.696  17.021   5.215  0.00  0.00     0.037 A 
HETATM    9  C   UNK N   1      31.516  17.171   4.091  0.00  0.00     0.065 A 
HETATM   10  C   UNK N   1      32.877  17.436   4.251  0.00  0.00     0.037 A 
HETATM   11  C   UNK N   1      33.419  17.550   5.530  0.00  0.00     0.013 A 
BRANCH   9  12
HETATM   12  O   UNK N   1      30.996  17.064   2.858  0.00  0.00    -0.361 OA
HETATM   13  H   UNK N   1      31.031  16.244   2.405  0.00  0.00     0.217 HD
ENDBRANCH   9  12
ENDBRANCH   1   6
TORSDOF 3
ENDMDL
MODEL 2
REMARK VINA RESULT:      -5.1      3.478      5.600
REMARK  3 active torsions:
REMARK  status: ('A' for Active; 'I' for Inactive)
REMARK    1  A    between atoms: C_2  and  O_1 
REMARK    2  A    between atoms: C_2  and  C_5 
REMARK    3  A    between atoms: C_8  and  O_9 
ROOT
HETATM    1  C   UNK N   1      34.599  18.008   8.243  0.00  0.00     0.257 C 
HETATM    2  C   UNK N   1      34.043  17.860   6.895  0.00  0.00     0.096 C 
HETATM    3  N   UNK N   1      33.594  17.719   5.836  0.00  0.00    -0.194 NA
ENDROOT
BRANCH   1   4
HETATM    4  O   UNK N   1      35.268  19.193   8.557  0.00  0.00    -0.377 OA
HETATM    5  H   UNK N   1      34.763  19.997   8.758  0.00  0.00     0.211 HD
ENDBRANCH   1   4
BRANCH   1   6
HETATM    6  C   UNK N   1      34.507  16.911   9.258  0.00  0.00    -0.016 A 
HETATM    7  C   UNK N   1      33.578  15.871   9.110  0.00  0.00     0.013 A 
HETATM    8  C   UNK N   1      33.512  14.851  10.065  0.00  0.00     0.037 A 
HETATM    9  C   UNK N   1      34.372  14.867  11.169  0.00  0.00     0.065 A 
HETATM   10  C   UNK N   1      35.297  15.901  11.318  0.00  0.00     0.037 A 
HETATM   11  C   UNK N   1      35.364  16.918  10.367  0.00  0.00     0.013 A 
BRANCH   9  12
HETATM   12  O   UNK N   1      34.311  13.887  12.085  0.00  0.00    -0.361 OA
HETATM   13  H   UNK N   1      33.746  13.153  11.947  0.00  0.00     0.217 HD
ENDBRANCH   9  12
ENDBRANCH   1   6
TORSDOF 3
ENDMDL
MODEL 3
REMARK VINA RESULT:      -5.0      2.721      3.928
REMARK  3 active torsions:
REMARK  status: ('A' for Active; 'I' for Inactive)
REMARK    1  A    between atoms: C_2  and  O_1 
REMARK    2  A    between atoms: C_2  and  C_5 
REMARK    3  A    between atoms: C_8  and  O_9 
ROOT
HETATM    1  C   UNK N   1      32.730  17.387   7.472  0.00  0.00     0.257 C 
HETATM    2  C   UNK N   1      33.856  18.224   7.897  0.00  0.00     0.096 C 
HETATM    3  N   UNK N   1      34.730  18.899   8.250  0.00  0.00    -0.194 NA
ENDROOT
BRANCH   1   4
HETATM    4  O   UNK N   1      32.974  16.371   6.547  0.00  0.00    -0.377 OA
HETATM    5  H   UNK N   1      32.853  15.443   6.802  0.00  0.00     0.211 HD
ENDBRANCH   1   4
BRANCH   1   6
HETATM    6  C   UNK N   1      31.339  17.630   7.968  0.00  0.00    -0.016 A 
HETATM    7  C   UNK N   1      31.103  18.462   9.072  0.00  0.00     0.013 A 
HETATM    8  C   UNK N   1      29.795  18.682   9.516  0.00  0.00     0.037 A 
HETATM    9  C   UNK N   1      28.720  18.073   8.859  0.00  0.00     0.065 A 
HETATM   10  C   UNK N   1      28.952  17.244   7.760  0.00  0.00     0.037 A 
HETATM   11  C   UNK N   1      30.255  17.024   7.317  0.00  0.00     0.013 A 
BRANCH   9  12
HETATM   12  O   UNK N   1      27.463  18.285   9.282  0.00  0.00    -0.361 OA
HETATM   13  H   UNK N   1      27.029  19.089   9.073  0.00  0.00     0.217 HD
ENDBRANCH   9  12
ENDBRANCH   1   6
TORSDOF 3
ENDMDL
MODEL 4
REMARK VINA RESULT:      -5.0      2.743      3.921
REMARK  3 active torsions:
REMARK  status: ('A' for Active; 'I' for Inactive)
REMARK    1  A    between atoms: C_2  and  O_1 
REMARK    2  A    between atoms: C_2  and  C_5 
REMARK    3  A    between atoms: C_8  and  O_9 
ROOT
HETATM    1  C   UNK N   1      32.489  17.180   6.998  0.00  0.00     0.257 C 
HETATM    2  C   UNK N   1      33.699  17.896   7.414  0.00  0.00     0.096 C 
HETATM    3  N   UNK N   1      34.642  18.473   7.761  0.00  0.00    -0.194 NA
ENDROOT
BRANCH   1   4
HETATM    4  O   UNK N   1      32.596  16.237   5.975  0.00  0.00    -0.377 OA
HETATM    5  H   UNK N   1      31.847  16.082   5.378  0.00  0.00     0.211 HD
ENDBRANCH   1   4
BRANCH   1   6
HETATM    6  C   UNK N   1      31.154  17.473   7.609  0.00  0.00    -0.016 A 
HETATM    7  C   UNK N   1      29.973  17.004   7.016  0.00  0.00     0.013 A 
HETATM    8  C   UNK N   1      28.735  17.282   7.606  0.00  0.00     0.037 A 
HETATM    9  C   UNK N   1      28.674  18.028   8.789  0.00  0.00     0.065 A 
HETATM   10  C   UNK N   1      29.848  18.495   9.381  0.00  0.00     0.037 A 
HETATM   11  C   UNK N   1      31.082  18.219   8.794  0.00  0.00     0.013 A 
BRANCH   9  12
HETATM   12  O   UNK N   1      27.487  18.293   9.358  0.00  0.00    -0.361 OA
HETATM   13  H   UNK N   1      27.072  17.648   9.897  0.00  0.00     0.217 HD
ENDBRANCH   9  12
ENDBRANCH   1   6
TORSDOF 3
ENDMDL
MODEL 5
REMARK VINA RESULT:      -4.8     11.196     13.496
REMARK  3 active torsions:
REMARK  status: ('A' for Active; 'I' for Inactive)
REMARK    1  A    between atoms: C_2  and  O_1 
REMARK    2  A    between atoms: C_2  and  C_5 
REMARK    3  A    between atoms: C_8  and  O_9 
ROOT
HETATM    1  C   UNK N   1      35.502  13.268  16.066  0.00  0.00     0.257 C 
HETATM    2  C   UNK N   1      36.584  14.219  15.793  0.00  0.00     0.096 C 
HETATM    3  N   UNK N   1      37.450  14.965  15.601  0.00  0.00    -0.194 NA
ENDROOT
BRANCH   1   4
HETATM    4  O   UNK N   1      34.549  13.046  15.070  0.00  0.00    -0.377 OA
HETATM    5  H   UNK N   1      34.191  12.155  14.931  0.00  0.00     0.211 HD
ENDBRANCH   1   4
BRANCH   1   6
HETATM    6  C   UNK N   1      35.376  12.579  17.389  0.00  0.00    -0.016 A 
HETATM    7  C   UNK N   1      35.434  11.181  17.481  0.00  0.00     0.013 A 
HETATM    8  C   UNK N   1      35.321  10.556  18.727  0.00  0.00     0.037 A 
HETATM    9  C   UNK N   1      35.152  11.325  19.884  0.00  0.00     0.065 A 
HETATM   10  C   UNK N   1      35.094  12.716  19.796  0.00  0.00     0.037 A 
HETATM   11  C   UNK N   1      35.206  13.340  18.554  0.00  0.00     0.013 A 
BRANCH   9  12
HETATM   12  O   UNK N   1      35.046  10.726  21.082  0.00  0.00    -0.361 OA
HETATM   13  H   UNK N   1      34.200  10.544  21.441  0.00  0.00     0.217 HD
ENDBRANCH   9  12
ENDBRANCH   1   6
TORSDOF 3
ENDMDL
MODEL 6
REMARK VINA RESULT:      -4.7     10.494     12.826
REMARK  3 active torsions:
REMARK  status: ('A' for Active; 'I' for Inactive)
REMARK    1  A    between atoms: C_2  and  O_1 
REMARK    2  A    between atoms: C_2  and  C_5 
REMARK    3  A    between atoms: C_8  and  O_9 
ROOT
HETATM    1  C   UNK N   1      35.314  11.623  15.015  0.00  0.00     0.257 C 
HETATM    2  C   UNK N   1      35.063  12.604  13.955  0.00  0.00     0.096 C 
HETATM    3  N   UNK N   1      34.864  13.398  13.135  0.00  0.00    -0.194 NA
ENDROOT
BRANCH   1   4
HETATM    4  O   UNK N   1      35.521  10.292  14.650  0.00  0.00    -0.377 OA
HETATM    5  H   UNK N   1      36.334   9.835  14.920  0.00  0.00     0.211 HD
ENDBRANCH   1   4
BRANCH   1   6
HETATM    6  C   UNK N   1      35.304  12.009  16.461  0.00  0.00    -0.016 A 
HETATM    7  C   UNK N   1      35.135  13.346  16.848  0.00  0.00     0.013 A 
HETATM    8  C   UNK N   1      35.122  13.686  18.205  0.00  0.00     0.037 A 
HETATM    9  C   UNK N   1      35.276  12.691  19.178  0.00  0.00     0.065 A 
HETATM   10  C   UNK N   1      35.444  11.360  18.796  0.00  0.00     0.037 A 
HETATM   11  C   UNK N   1      35.457  11.021  17.443  0.00  0.00     0.013 A 
BRANCH   9  12
HETATM   12  O   UNK N   1      35.260  13.016  20.481  0.00  0.00    -0.361 OA
HETATM   13  H   UNK N   1      35.995  12.806  21.025  0.00  0.00     0.217 HD
ENDBRANCH   9  12
ENDBRANCH   1   6
TORSDOF 3
ENDMDL
MODEL 7
REMARK VINA RESULT:      -4.7     15.082     16.361
REMARK  3 active torsions:
REMARK  status: ('A' for Active; 'I' for Inactive)
REMARK    1  A    between atoms: C_2  and  O_1 
REMARK    2  A    between atoms: C_2  and  C_5 
REMARK    3  A    between atoms: C_8  and  O_9 
ROOT
HETATM    1  C   UNK N   1      26.393  23.932  -6.561  0.00  0.00     0.257 C 
HETATM    2  C   UNK N   1      25.491  23.585  -7.663  0.00  0.00     0.096 C 
HETATM    3  N   UNK N   1      24.764  23.333  -8.530  0.00  0.00    -0.194 NA
ENDROOT
BRANCH   1   4
HETATM    4  O   UNK N   1      27.493  23.108  -6.322  0.00  0.00    -0.377 OA
HETATM    5  H   UNK N   1      28.359  23.331  -6.701  0.00  0.00     0.211 HD
ENDBRANCH   1   4
BRANCH   1   6
HETATM    6  C   UNK N   1      26.131  25.108  -5.672  0.00  0.00    -0.016 A 
HETATM    7  C   UNK N   1      26.647  25.153  -4.368  0.00  0.00     0.013 A 
HETATM    8  C   UNK N   1      26.398  26.264  -3.555  0.00  0.00     0.037 A 
HETATM    9  C   UNK N   1      25.635  27.331  -4.042  0.00  0.00     0.065 A 
HETATM   10  C   UNK N   1      25.121  27.289  -5.338  0.00  0.00     0.037 A 
HETATM   11  C   UNK N   1      25.369  26.182  -6.150  0.00  0.00     0.013 A 
BRANCH   9  12
HETATM   12  O   UNK N   1      25.397  28.400  -3.263  0.00  0.00    -0.361 OA
HETATM   13  H   UNK N   1      24.713  28.369  -2.623  0.00  0.00     0.217 HD
ENDBRANCH   9  12
ENDBRANCH   1   6
TORSDOF 3
ENDMDL
MODEL 8
REMARK VINA RESULT:      -4.6     10.174     12.475
REMARK  3 active torsions:
REMARK  status: ('A' for Active; 'I' for Inactive)
REMARK    1  A    between atoms: C_2  and  O_1 
REMARK    2  A    between atoms: C_2  and  C_5 
REMARK    3  A    between atoms: C_8  and  O_9 
ROOT
HETATM    1  C   UNK N   1      36.187  13.770  15.066  0.00  0.00     0.257 C 
HETATM    2  C   UNK N   1      35.442  13.551  13.822  0.00  0.00     0.096 C 
HETATM    3  N   UNK N   1      34.838  13.361  12.852  0.00  0.00    -0.194 NA
ENDROOT
BRANCH   1   4
HETATM    4  O   UNK N   1      37.240  14.687  15.054  0.00  0.00    -0.377 OA
HETATM    5  H   UNK N   1      37.075  15.618  15.271  0.00  0.00     0.211 HD
ENDBRANCH   1   4
BRANCH   1   6
HETATM    6  C   UNK N   1      35.874  13.006  16.314  0.00  0.00    -0.016 A 
HETATM    7  C   UNK N   1      35.387  13.660  17.455  0.00  0.00     0.013 A 
HETATM    8  C   UNK N   1      35.093  12.927  18.610  0.00  0.00     0.037 A 
HETATM    9  C   UNK N   1      35.285  11.541  18.628  0.00  0.00     0.065 A 
HETATM   10  C   UNK N   1      35.770  10.888  17.494  0.00  0.00     0.037 A 
HETATM   11  C   UNK N   1      36.063  11.617  16.343  0.00  0.00     0.013 A 
BRANCH   9  12
HETATM   12  O   UNK N   1      35.001  10.836  19.736  0.00  0.00    -0.361 OA
HETATM   13  H   UNK N   1      35.550  10.119  19.987  0.00  0.00     0.217 HD
ENDBRANCH   9  12
ENDBRANCH   1   6
TORSDOF 3
ENDMDL
MODEL 9
REMARK VINA RESULT:      -4.6      3.190      4.402
REMARK  3 active torsions:
REMARK  status: ('A' for Active; 'I' for Inactive)
REMARK    1  A    between atoms: C_2  and  O_1 
REMARK    2  A    between atoms: C_2  and  C_5 
REMARK    3  A    between atoms: C_8  and  O_9 
ROOT
HETATM    1  C   UNK N   1      29.100  17.048   7.288  0.00  0.00     0.257 C 
HETATM    2  C   UNK N   1      28.345  17.347   8.508  0.00  0.00     0.096 C 
HETATM    3  N   UNK N   1      27.769  17.593   9.483  0.00  0.00    -0.194 NA
ENDROOT
BRANCH   1   4
HETATM    4  O   UNK N   1      28.418  16.481   6.209  0.00  0.00    -0.377 OA
HETATM    5  H   UNK N   1      27.475  16.669   6.079  0.00  0.00     0.211 HD
ENDBRANCH   1   4
BRANCH   1   6
HETATM    6  C   UNK N   1      30.574  17.292   7.196  0.00  0.00    -0.016 A 
HETATM    7  C   UNK N   1      31.305  17.711   8.316  0.00  0.00     0.013 A 
HETATM    8  C   UNK N   1      32.684  17.927   8.212  0.00  0.00     0.037 A 
HETATM    9  C   UNK N   1      33.335  17.724   6.990  0.00  0.00     0.065 A 
HETATM   10  C   UNK N   1      32.609  17.307   5.873  0.00  0.00     0.037 A 
HETATM   11  C   UNK N   1      31.235  17.092   5.976  0.00  0.00     0.013 A 
BRANCH   9  12
HETATM   12  O   UNK N   1      34.658  17.927   6.889  0.00  0.00    -0.361 OA
HETATM   13  H   UNK N   1      35.175  18.038   7.663  0.00  0.00     0.217 HD
ENDBRANCH   9  12
ENDBRANCH   1   6
TORSDOF 3
ENDMDL
