MODEL 1
REMARK VINA RESULT:      -6.3      0.000      0.000
REMARK  4 active torsions:
REMARK  status: ('A' for Active; 'I' for Inactive)
REMARK    1  A    between atoms: C_8  and  C_3 
REMARK    2  A    between atoms: O_19  and  C_3 
REMARK    3  A    between atoms: C_7  and  O_20 
REMARK    4  A    between atoms: C_9  and  N_18 
ROOT
HETATM    1  C   UNK N   1      27.508  17.635   5.374  0.00  0.00     0.070 C 
HETATM    2  C   UNK N   1      26.094  20.380   3.245  0.00  0.00     0.182 A 
HETATM    3  C   UNK N   1      23.173  17.588   5.049  0.00  0.00     0.187 A 
HETATM    4  C   UNK N   1      26.539  18.503   4.652  0.00  0.00     0.037 A 
HETATM    5  C   UNK N   1      25.171  18.276   4.709  0.00  0.00     0.100 A 
HETATM    6  C   UNK N   1      24.324  19.099   4.063  0.00  0.00     0.140 A 
HETATM    7  N   UNK N   1      26.979  19.563   3.907  0.00  0.00    -0.354 N 
ATOM      8  HN  UNK N   1      27.979  19.749   3.841  1.00  0.00     0.166 HD
HETATM    9  N   UNK N   1      24.747  20.156   3.328  0.00  0.00    -0.336 N 
ATOM     10  HN  UNK N   1      24.082  20.764   2.851  1.00  0.00     0.168 HD
HETATM   11  N   UNK N   1      24.476  17.313   5.344  0.00  0.00    -0.347 N 
ATOM     12  HN  UNK N   1      24.842  16.551   5.915  1.00  0.00     0.167 HD
HETATM   13  N   UNK N   1      23.066  18.693   4.265  0.00  0.00    -0.300 N 
ENDROOT
BRANCH  13  14
HETATM   14  C   UNK N   1      21.853  19.358   3.785  0.00  0.00     0.233 C 
HETATM   15  C   UNK N   1      20.645  18.432   3.734  0.00  0.00     0.088 C 
HETATM   16  C   UNK N   1      19.783  19.252   2.833  0.00  0.00     0.153 C 
HETATM   17  C   UNK N   1      20.809  19.719   1.813  0.00  0.00     0.176 C 
HETATM   18  O   UNK N   1      22.039  19.881   2.487  0.00  0.00    -0.356 OA
BRANCH  16  19
HETATM   19  O   UNK N   1      18.752  18.513   2.250  0.00  0.00    -0.393 OA
HETATM   20  H   UNK N   1      18.741  17.625   1.858  0.00  0.00     0.210 HD
ENDBRANCH  16  19
BRANCH  17  21
HETATM   21  C   UNK N   1      20.365  21.031   1.175  0.00  0.00     0.198 C 
BRANCH  21  22
HETATM   22  O   UNK N   1      20.743  21.073  -0.167  0.00  0.00    -0.398 OA
HETATM   23  H   UNK N   1      20.199  21.530  -0.828  0.00  0.00     0.209 HD
ENDBRANCH  21  22
ENDBRANCH  17  21
ENDBRANCH  13  14
TORSDOF 4
ENDMDL
MODEL 2
REMARK VINA RESULT:      -5.9     14.020     16.718
REMARK  4 active torsions:
REMARK  status: ('A' for Active; 'I' for Inactive)
REMARK    1  A    between atoms: C_8  and  C_3 
REMARK    2  A    between atoms: O_19  and  C_3 
REMARK    3  A    between atoms: C_7  and  O_20 
REMARK    4  A    between atoms: C_9  and  N_18 
ROOT
HETATM    1  C   UNK N   1      35.538  11.266  17.501  0.00  0.00     0.070 C 
HETATM    2  C   UNK N   1      33.852  10.764  14.189  0.00  0.00     0.182 A 
HETATM    3  C   UNK N   1      36.502  14.292  14.532  0.00  0.00     0.187 A 
HETATM    4  C   UNK N   1      35.111  11.469  16.091  0.00  0.00     0.037 A 
HETATM    5  C   UNK N   1      35.574  12.538  15.335  0.00  0.00     0.100 A 
HETATM    6  C   UNK N   1      35.185  12.674  14.052  0.00  0.00     0.140 A 
HETATM    7  N   UNK N   1      34.245  10.595  15.495  0.00  0.00    -0.354 N 
ATOM      8  HN  UNK N   1      33.883   9.805  16.029  1.00  0.00     0.166 HD
HETATM    9  N   UNK N   1      34.333  11.811  13.450  0.00  0.00    -0.336 N 
ATOM     10  HN  UNK N   1      34.058  11.937  12.476  1.00  0.00     0.168 HD
HETATM   11  N   UNK N   1      36.408  13.541  15.667  0.00  0.00    -0.347 N 
ATOM     12  HN  UNK N   1      36.865  13.703  16.565  1.00  0.00     0.167 HD
HETATM   13  N   UNK N   1      35.757  13.762  13.526  0.00  0.00    -0.300 N 
ENDROOT
BRANCH  13  14
HETATM   14  C   UNK N   1      35.639  14.218  12.140  0.00  0.00     0.233 C 
HETATM   15  C   UNK N   1      36.203  15.615  11.921  0.00  0.00     0.088 C 
HETATM   16  C   UNK N   1      35.544  15.913  10.616  0.00  0.00     0.153 C 
HETATM   17  C   UNK N   1      34.152  15.355  10.872  0.00  0.00     0.176 C 
HETATM   18  O   UNK N   1      34.290  14.238  11.724  0.00  0.00    -0.356 OA
BRANCH  16  19
HETATM   19  O   UNK N   1      35.522  17.276  10.317  0.00  0.00    -0.393 OA
HETATM   20  H   UNK N   1      35.903  18.040  10.778  0.00  0.00     0.210 HD
ENDBRANCH  16  19
BRANCH  17  21
HETATM   21  C   UNK N   1      33.491  14.954   9.558  0.00  0.00     0.198 C 
BRANCH  21  22
HETATM   22  O   UNK N   1      34.404  15.040   8.506  0.00  0.00    -0.398 OA
HETATM   23  H   UNK N   1      35.340  14.817   8.635  0.00  0.00     0.209 HD
ENDBRANCH  21  22
ENDBRANCH  17  21
ENDBRANCH  13  14
TORSDOF 4
ENDMDL
MODEL 3
REMARK VINA RESULT:      -5.8     12.744     15.956
REMARK  4 active torsions:
REMARK  status: ('A' for Active; 'I' for Inactive)
REMARK    1  A    between atoms: C_8  and  C_3 
REMARK    2  A    between atoms: O_19  and  C_3 
REMARK    3  A    between atoms: C_7  and  O_20 
REMARK    4  A    between atoms: C_9  and  N_18 
ROOT
HETATM    1  C   UNK N   1      33.264  18.020   7.981  0.00  0.00     0.070 C 
HETATM    2  C   UNK N   1      32.512  14.421   8.723  0.00  0.00     0.182 A 
HETATM    3  C   UNK N   1      35.535  16.371  11.301  0.00  0.00     0.187 A 
HETATM    4  C   UNK N   1      33.298  16.673   8.611  0.00  0.00     0.037 A 
HETATM    5  C   UNK N   1      34.128  16.391   9.687  0.00  0.00     0.100 A 
HETATM    6  C   UNK N   1      34.112  15.167  10.248  0.00  0.00     0.140 A 
HETATM    7  N   UNK N   1      32.499  15.667   8.142  0.00  0.00    -0.354 N 
ATOM      8  HN  UNK N   1      31.884  15.843   7.347  1.00  0.00     0.166 HD
HETATM    9  N   UNK N   1      33.320  14.165   9.797  0.00  0.00    -0.336 N 
ATOM     10  HN  UNK N   1      33.327  13.248  10.243  1.00  0.00     0.168 HD
HETATM   11  N   UNK N   1      35.013  17.176  10.330  0.00  0.00    -0.347 N 
ATOM     12  HN  UNK N   1      35.242  18.151  10.136  1.00  0.00     0.167 HD
HETATM   13  N   UNK N   1      34.980  15.130  11.264  0.00  0.00    -0.300 N 
ENDROOT
BRANCH  13  14
HETATM   14  C   UNK N   1      35.211  14.001  12.167  0.00  0.00     0.233 C 
HETATM   15  C   UNK N   1      36.128  14.345  13.332  0.00  0.00     0.088 C 
HETATM   16  C   UNK N   1      36.485  12.956  13.744  0.00  0.00     0.153 C 
HETATM   17  C   UNK N   1      36.691  12.306  12.384  0.00  0.00     0.176 C 
HETATM   18  O   UNK N   1      35.791  12.912  11.481  0.00  0.00    -0.356 OA
BRANCH  16  19
HETATM   19  O   UNK N   1      37.633  12.904  14.536  0.00  0.00    -0.393 OA
HETATM   20  H   UNK N   1      37.825  12.424  15.357  0.00  0.00     0.210 HD
ENDBRANCH  16  19
BRANCH  17  21
HETATM   21  C   UNK N   1      36.441  10.804  12.471  0.00  0.00     0.198 C 
BRANCH  21  22
HETATM   22  O   UNK N   1      35.905  10.470  13.715  0.00  0.00    -0.398 OA
HETATM   23  H   UNK N   1      35.133   9.887  13.789  0.00  0.00     0.209 HD
ENDBRANCH  21  22
ENDBRANCH  17  21
ENDBRANCH  13  14
TORSDOF 4
ENDMDL
MODEL 4
REMARK VINA RESULT:      -5.7      6.234      7.735
REMARK  4 active torsions:
REMARK  status: ('A' for Active; 'I' for Inactive)
REMARK    1  A    between atoms: C_8  and  C_3 
REMARK    2  A    between atoms: O_19  and  C_3 
REMARK    3  A    between atoms: C_7  and  O_20 
REMARK    4  A    between atoms: C_9  and  N_18 
ROOT
HETATM    1  C   UNK N   1      23.687  10.536   8.129  0.00  0.00     0.070 C 
HETATM    2  C   UNK N   1      22.173  13.124  10.382  0.00  0.00     0.182 A 
HETATM    3  C   UNK N   1      21.475  13.644   6.043  0.00  0.00     0.187 A 
HETATM    4  C   UNK N   1      22.943  11.735   8.599  0.00  0.00     0.037 A 
HETATM    5  C   UNK N   1      22.304  12.592   7.713  0.00  0.00     0.100 A 
HETATM    6  C   UNK N   1      21.618  13.653   8.178  0.00  0.00     0.140 A 
HETATM    7  N   UNK N   1      22.867  12.026   9.933  0.00  0.00    -0.354 N 
ATOM      8  HN  UNK N   1      23.333  11.418  10.606  1.00  0.00     0.166 HD
HETATM    9  N   UNK N   1      21.530  13.947   9.498  0.00  0.00    -0.336 N 
ATOM     10  HN  UNK N   1      21.002  14.757   9.822  1.00  0.00     0.168 HD
HETATM   11  N   UNK N   1      22.230  12.555   6.369  0.00  0.00    -0.347 N 
ATOM     12  HN  UNK N   1      22.646  11.869   5.738  1.00  0.00     0.167 HD
HETATM   13  N   UNK N   1      21.085  14.325   7.152  0.00  0.00    -0.300 N 
ENDROOT
BRANCH  13  14
HETATM   14  C   UNK N   1      20.217  15.500   7.243  0.00  0.00     0.233 C 
HETATM   15  C   UNK N   1      20.986  16.814   7.232  0.00  0.00     0.088 C 
HETATM   16  C   UNK N   1      19.911  17.699   7.768  0.00  0.00     0.153 C 
HETATM   17  C   UNK N   1      19.337  16.811   8.861  0.00  0.00     0.176 C 
HETATM   18  O   UNK N   1      19.446  15.473   8.426  0.00  0.00    -0.356 OA
BRANCH  16  19
HETATM   19  O   UNK N   1      20.401  18.907   8.267  0.00  0.00    -0.393 OA
HETATM   20  H   UNK N   1      21.251  19.134   8.677  0.00  0.00     0.210 HD
ENDBRANCH  16  19
BRANCH  17  21
HETATM   21  C   UNK N   1      17.881  17.175   9.131  0.00  0.00     0.198 C 
BRANCH  21  22
HETATM   22  O   UNK N   1      17.799  18.408   9.779  0.00  0.00    -0.398 OA
HETATM   23  H   UNK N   1      17.006  18.962   9.705  0.00  0.00     0.209 HD
ENDBRANCH  21  22
ENDBRANCH  17  21
ENDBRANCH  13  14
TORSDOF 4
ENDMDL
MODEL 5
REMARK VINA RESULT:      -5.7     10.903     14.518
REMARK  4 active torsions:
REMARK  status: ('A' for Active; 'I' for Inactive)
REMARK    1  A    between atoms: C_8  and  C_3 
REMARK    2  A    between atoms: O_19  and  C_3 
REMARK    3  A    between atoms: C_7  and  O_20 
REMARK    4  A    between atoms: C_9  and  N_18 
ROOT
HETATM    1  C   UNK N   1      30.570  15.545   6.134  0.00  0.00     0.070 C 
HETATM    2  C   UNK N   1      32.485  17.898   8.338  0.00  0.00     0.182 A 
HETATM    3  C   UNK N   1      33.206  13.579   8.977  0.00  0.00     0.187 A 
HETATM    4  C   UNK N   1      31.493  16.061   7.180  0.00  0.00     0.037 A 
HETATM    5  C   UNK N   1      32.245  15.209   7.976  0.00  0.00     0.100 A 
HETATM    6  C   UNK N   1      33.090  15.715   8.894  0.00  0.00     0.140 A 
HETATM    7  N   UNK N   1      31.627  17.407   7.383  0.00  0.00    -0.354 N 
ATOM      8  HN  UNK N   1      31.081  18.057   6.818  1.00  0.00     0.166 HD
HETATM    9  N   UNK N   1      33.236  17.045   9.100  0.00  0.00    -0.336 N 
ATOM     10  HN  UNK N   1      33.886  17.400   9.802  1.00  0.00     0.168 HD
HETATM   11  N   UNK N   1      32.297  13.863   8.000  0.00  0.00    -0.347 N 
ATOM     12  HN  UNK N   1      31.775  13.207   7.420  1.00  0.00     0.167 HD
HETATM   13  N   UNK N   1      33.707  14.714   9.532  0.00  0.00    -0.300 N 
ENDROOT
BRANCH  13  14
HETATM   14  C   UNK N   1      34.746  14.849  10.555  0.00  0.00     0.233 C 
HETATM   15  C   UNK N   1      36.111  14.366  10.086  0.00  0.00     0.088 C 
HETATM   16  C   UNK N   1      36.761  14.226  11.422  0.00  0.00     0.153 C 
HETATM   17  C   UNK N   1      35.628  13.600  12.220  0.00  0.00     0.176 C 
HETATM   18  O   UNK N   1      34.415  14.116  11.715  0.00  0.00    -0.356 OA
BRANCH  16  19
HETATM   19  O   UNK N   1      37.898  13.416  11.390  0.00  0.00    -0.393 OA
HETATM   20  H   UNK N   1      38.153  12.646  11.923  0.00  0.00     0.210 HD
ENDBRANCH  16  19
BRANCH  17  21
HETATM   21  C   UNK N   1      35.779  13.926  13.702  0.00  0.00     0.198 C 
BRANCH  21  22
HETATM   22  O   UNK N   1      36.753  14.908  13.888  0.00  0.00    -0.398 OA
HETATM   23  H   UNK N   1      37.567  14.914  13.359  0.00  0.00     0.209 HD
ENDBRANCH  21  22
ENDBRANCH  17  21
ENDBRANCH  13  14
TORSDOF 4
ENDMDL
MODEL 6
REMARK VINA RESULT:      -5.7      8.426     11.841
REMARK  4 active torsions:
REMARK  status: ('A' for Active; 'I' for Inactive)
REMARK    1  A    between atoms: C_8  and  C_3 
REMARK    2  A    between atoms: O_19  and  C_3 
REMARK    3  A    between atoms: C_7  and  O_20 
REMARK    4  A    between atoms: C_9  and  N_18 
ROOT
HETATM    1  C   UNK N   1      27.829  18.372   6.248  0.00  0.00     0.070 C 
HETATM    2  C   UNK N   1      29.749  18.498   9.468  0.00  0.00     0.182 A 
HETATM    3  C   UNK N   1      31.336  15.804   6.337  0.00  0.00     0.187 A 
HETATM    4  C   UNK N   1      28.858  18.102   7.288  0.00  0.00     0.037 A 
HETATM    5  C   UNK N   1      29.906  17.220   7.067  0.00  0.00     0.100 A 
HETATM    6  C   UNK N   1      30.833  17.022   8.023  0.00  0.00     0.140 A 
HETATM    7  N   UNK N   1      28.798  18.729   8.502  0.00  0.00    -0.354 N 
ATOM      8  HN  UNK N   1      28.035  19.377   8.696  1.00  0.00     0.166 HD
HETATM    9  N   UNK N   1      30.788  17.641   9.227  0.00  0.00    -0.336 N 
ATOM     10  HN  UNK N   1      31.506  17.473   9.932  1.00  0.00     0.168 HD
HETATM   11  N   UNK N   1      30.196  16.469   5.988  0.00  0.00    -0.347 N 
ATOM     12  HN  UNK N   1      29.681  16.410   5.110  1.00  0.00     0.167 HD
HETATM   13  N   UNK N   1      31.743  16.143   7.588  0.00  0.00    -0.300 N 
ENDROOT
BRANCH  13  14
HETATM   14  C   UNK N   1      32.944  15.712   8.306  0.00  0.00     0.233 C 
HETATM   15  C   UNK N   1      32.670  14.613   9.323  0.00  0.00     0.088 C 
HETATM   16  C   UNK N   1      33.922  14.743  10.124  0.00  0.00     0.153 C 
HETATM   17  C   UNK N   1      34.048  16.257  10.201  0.00  0.00     0.176 C 
HETATM   18  O   UNK N   1      33.537  16.790   8.998  0.00  0.00    -0.356 OA
BRANCH  16  19
HETATM   19  O   UNK N   1      33.822  14.154  11.386  0.00  0.00    -0.393 OA
HETATM   20  H   UNK N   1      34.458  13.638  11.906  0.00  0.00     0.210 HD
ENDBRANCH  16  19
BRANCH  17  21
HETATM   21  C   UNK N   1      35.507  16.659  10.394  0.00  0.00     0.198 C 
BRANCH  21  22
HETATM   22  O   UNK N   1      35.708  17.976   9.982  0.00  0.00    -0.398 OA
HETATM   23  H   UNK N   1      35.730  18.705  10.623  0.00  0.00     0.209 HD
ENDBRANCH  21  22
ENDBRANCH  17  21
ENDBRANCH  13  14
TORSDOF 4
ENDMDL
MODEL 7
REMARK VINA RESULT:      -5.6      7.481     10.297
REMARK  4 active torsions:
REMARK  status: ('A' for Active; 'I' for Inactive)
REMARK    1  A    between atoms: C_8  and  C_3 
REMARK    2  A    between atoms: O_19  and  C_3 
REMARK    3  A    between atoms: C_7  and  O_20 
REMARK    4  A    between atoms: C_9  and  N_18 
ROOT
HETATM    1  C   UNK N   1      36.051  15.096   9.538  0.00  0.00     0.070 C 
HETATM    2  C   UNK N   1      32.462  14.102   9.088  0.00  0.00     0.182 A 
HETATM    3  C   UNK N   1      33.403  18.387   8.510  0.00  0.00     0.187 A 
HETATM    4  C   UNK N   1      34.588  15.172   9.276  0.00  0.00     0.037 A 
HETATM    5  C   UNK N   1      33.965  16.371   8.957  0.00  0.00     0.100 A 
HETATM    6  C   UNK N   1      32.643  16.395   8.700  0.00  0.00     0.140 A 
HETATM    7  N   UNK N   1      33.813  14.048   9.340  0.00  0.00    -0.354 N 
ATOM      8  HN  UNK N   1      34.242  13.154   9.579  1.00  0.00     0.166 HD
HETATM    9  N   UNK N   1      31.866  15.287   8.754  0.00  0.00    -0.336 N 
ATOM     10  HN  UNK N   1      30.868  15.336   8.552  1.00  0.00     0.168 HD
HETATM   11  N   UNK N   1      34.475  17.612   8.841  0.00  0.00    -0.347 N 
ATOM     12  HN  UNK N   1      35.443  17.905   8.973  1.00  0.00     0.167 HD
HETATM   13  N   UNK N   1      32.268  17.646   8.412  0.00  0.00    -0.300 N 
ENDROOT
BRANCH  13  14
HETATM   14  C   UNK N   1      30.926  18.079   8.015  0.00  0.00     0.233 C 
HETATM   15  C   UNK N   1      30.032  18.414   9.200  0.00  0.00     0.088 C 
HETATM   16  C   UNK N   1      28.716  18.366   8.498  0.00  0.00     0.153 C 
HETATM   17  C   UNK N   1      28.910  17.135   7.625  0.00  0.00     0.176 C 
HETATM   18  O   UNK N   1      30.272  17.080   7.262  0.00  0.00    -0.356 OA
BRANCH  16  19
HETATM   19  O   UNK N   1      27.638  18.230   9.375  0.00  0.00    -0.393 OA
HETATM   20  H   UNK N   1      26.748  18.616   9.362  0.00  0.00     0.210 HD
ENDBRANCH  16  19
BRANCH  17  21
HETATM   21  C   UNK N   1      28.022  17.217   6.388  0.00  0.00     0.198 C 
BRANCH  21  22
HETATM   22  O   UNK N   1      27.020  18.170   6.570  0.00  0.00    -0.398 OA
HETATM   23  H   UNK N   1      26.934  18.655   7.406  0.00  0.00     0.209 HD
ENDBRANCH  21  22
ENDBRANCH  17  21
ENDBRANCH  13  14
TORSDOF 4
ENDMDL
MODEL 8
REMARK VINA RESULT:      -5.5      8.912     12.404
REMARK  4 active torsions:
REMARK  status: ('A' for Active; 'I' for Inactive)
REMARK    1  A    between atoms: C_8  and  C_3 
REMARK    2  A    between atoms: O_19  and  C_3 
REMARK    3  A    between atoms: C_7  and  O_20 
REMARK    4  A    between atoms: C_9  and  N_18 
ROOT
HETATM    1  C   UNK N   1      29.003  17.318   4.331  0.00  0.00     0.070 C 
HETATM    2  C   UNK N   1      32.722  17.563   3.908  0.00  0.00     0.182 A 
HETATM    3  C   UNK N   1      31.267  16.540   7.960  0.00  0.00     0.187 A 
HETATM    4  C   UNK N   1      30.460  17.308   4.630  0.00  0.00     0.037 A 
HETATM    5  C   UNK N   1      30.943  17.020   5.899  0.00  0.00     0.100 A 
HETATM    6  C   UNK N   1      32.271  16.995   6.125  0.00  0.00     0.140 A 
HETATM    7  N   UNK N   1      31.372  17.581   3.648  0.00  0.00    -0.354 N 
ATOM      8  HN  UNK N   1      31.046  17.803   2.707  1.00  0.00     0.166 HD
HETATM    9  N   UNK N   1      33.183  17.257   5.159  0.00  0.00    -0.336 N 
ATOM     10  HN  UNK N   1      34.183  17.228   5.359  1.00  0.00     0.168 HD
HETATM   11  N   UNK N   1      30.282  16.734   7.036  0.00  0.00    -0.347 N 
ATOM     12  HN  UNK N   1      29.273  16.676   7.175  1.00  0.00     0.167 HD
HETATM   13  N   UNK N   1      32.499  16.691   7.407  0.00  0.00    -0.300 N 
ENDROOT
BRANCH  13  14
HETATM   14  C   UNK N   1      33.810  16.503   8.033  0.00  0.00     0.233 C 
HETATM   15  C   UNK N   1      34.357  15.093   7.858  0.00  0.00     0.088 C 
HETATM   16  C   UNK N   1      35.395  15.131   8.930  0.00  0.00     0.153 C 
HETATM   17  C   UNK N   1      34.631  15.847  10.034  0.00  0.00     0.176 C 
HETATM   18  O   UNK N   1      33.754  16.766   9.419  0.00  0.00    -0.356 OA
BRANCH  16  19
HETATM   19  O   UNK N   1      35.820  13.859   9.318  0.00  0.00    -0.393 OA
HETATM   20  H   UNK N   1      36.654  13.551   9.706  0.00  0.00     0.210 HD
ENDBRANCH  16  19
BRANCH  17  21
HETATM   21  C   UNK N   1      35.598  16.564  10.969  0.00  0.00     0.198 C 
BRANCH  21  22
HETATM   22  O   UNK N   1      36.901  16.110  10.765  0.00  0.00    -0.398 OA
HETATM   23  H   UNK N   1      37.612  16.326  11.390  0.00  0.00     0.209 HD
ENDBRANCH  21  22
ENDBRANCH  17  21
ENDBRANCH  13  14
TORSDOF 4
ENDMDL
MODEL 9
REMARK VINA RESULT:      -5.5      5.391      8.307
REMARK  4 active torsions:
REMARK  status: ('A' for Active; 'I' for Inactive)
REMARK    1  A    between atoms: C_8  and  C_3 
REMARK    2  A    between atoms: O_19  and  C_3 
REMARK    3  A    between atoms: C_7  and  O_20 
REMARK    4  A    between atoms: C_9  and  N_18 
ROOT
HETATM    1  C   UNK N   1      24.914  19.934   3.368  0.00  0.00     0.070 C 
HETATM    2  C   UNK N   1      27.421  21.088   5.908  0.00  0.00     0.182 A 
HETATM    3  C   UNK N   1      26.664  16.731   5.730  0.00  0.00     0.187 A 
HETATM    4  C   UNK N   1      25.920  19.921   4.464  0.00  0.00     0.037 A 
HETATM    5  C   UNK N   1      26.324  18.739   5.070  0.00  0.00     0.100 A 
HETATM    6  C   UNK N   1      27.257  18.764   6.041  0.00  0.00     0.140 A 
HETATM    7  N   UNK N   1      26.482  21.087   4.905  0.00  0.00    -0.354 N 
ATOM      8  HN  UNK N   1      26.198  21.972   4.483  1.00  0.00     0.166 HD
HETATM    9  N   UNK N   1      27.825  19.912   6.481  0.00  0.00    -0.336 N 
ATOM     10  HN  UNK N   1      28.531  19.901   7.217  1.00  0.00     0.168 HD
HETATM   11  N   UNK N   1      25.932  17.470   4.847  0.00  0.00    -0.347 N 
ATOM     12  HN  UNK N   1      25.243  17.138   4.173  1.00  0.00     0.167 HD
HETATM   13  N   UNK N   1      27.491  17.519   6.467  0.00  0.00    -0.300 N 
ENDROOT
BRANCH  13  14
HETATM   14  C   UNK N   1      28.482  17.117   7.468  0.00  0.00     0.233 C 
HETATM   15  C   UNK N   1      28.144  17.604   8.870  0.00  0.00     0.088 C 
HETATM   16  C   UNK N   1      29.491  17.430   9.489  0.00  0.00     0.153 C 
HETATM   17  C   UNK N   1      30.382  17.945   8.369  0.00  0.00     0.176 C 
HETATM   18  O   UNK N   1      29.762  17.615   7.145  0.00  0.00    -0.356 OA
BRANCH  16  19
HETATM   19  O   UNK N   1      29.645  18.160  10.668  0.00  0.00    -0.393 OA
HETATM   20  H   UNK N   1      30.294  18.834  10.926  0.00  0.00     0.210 HD
ENDBRANCH  16  19
BRANCH  17  21
HETATM   21  C   UNK N   1      31.768  17.315   8.460  0.00  0.00     0.198 C 
BRANCH  21  22
HETATM   22  O   UNK N   1      31.789  16.325   9.443  0.00  0.00    -0.398 OA
HETATM   23  H   UNK N   1      32.094  15.425   9.242  0.00  0.00     0.209 HD
ENDBRANCH  21  22
ENDBRANCH  17  21
ENDBRANCH  13  14
TORSDOF 4
ENDMDL
