MODEL 1
REMARK VINA RESULT:      -7.5      0.000      0.000
REMARK  19 active torsions:
REMARK  status: ('A' for Active; 'I' for Inactive)
REMARK    1  A    between atoms: C_5  and  C_2 
REMARK    2  A    between atoms: C_7  and  C_2 
REMARK    3  A    between atoms: C_6  and  C_3 
REMARK    4  A    between atoms: C_8  and  C_3 
REMARK    5  A    between atoms: N_30  and  C_5 
REMARK    6  A    between atoms: N_31  and  C_6 
REMARK    7  A    between atoms: N_35  and  C_7 
REMARK    8  A    between atoms: N_36  and  C_8 
REMARK    9  A    between atoms: C_22  and  C_17 
REMARK   10  A    between atoms: C_24  and  C_17 
REMARK   11  A    between atoms: C_23  and  C_18 
REMARK   12  A    between atoms: O_37  and  C_18 
REMARK   13  A    between atoms: C_28  and  C_19 
REMARK   14  A    between atoms: N_33  and  C_20 
REMARK   15  A    between atoms: O_43  and  C_21 
REMARK   16  A    between atoms: O_38  and  C_24 
REMARK   17  A    between atoms: C_25  and  O_39 
REMARK   18  A    between atoms: O_42  and  C_28 
REMARK   19  A    between atoms: C_29  and  O_43 
ROOT
HETATM    1  C   UNK N   1      35.496  14.787   8.632  0.00  0.00     0.179 C 
HETATM    2  C   UNK N   1      36.130  14.914  10.048  0.00  0.00     0.180 C 
HETATM    3  C   UNK N   1      35.408  15.998  10.865  0.00  0.00     0.183 C 
HETATM    4  C   UNK N   1      33.907  15.952  10.603  0.00  0.00     0.205 C 
HETATM    5  C   UNK N   1      33.602  16.035   9.050  0.00  0.00     0.298 C 
HETATM    6  O   UNK N   1      35.874  17.263  10.483  0.00  0.00    -0.390 OA
HETATM    7  O   UNK N   1      33.366  14.775  11.127  0.00  0.00    -0.388 OA
HETATM    8  O   UNK N   1      34.804  15.977   8.281  0.00  0.00    -0.348 OA
HETATM    9  H   UNK N   1      36.308  18.059  10.139  0.00  0.00     0.210 HD
HETATM   10  H   UNK N   1      32.998  13.998  11.578  0.00  0.00     0.210 HD
ENDROOT
BRANCH   2  11
HETATM   11  O   UNK N   1      37.491  15.233   9.992  0.00  0.00    -0.390 OA
HETATM   12  H   UNK N   1      38.251  14.722  10.315  0.00  0.00     0.210 HD
ENDBRANCH   2  11
BRANCH   1  13
HETATM   13  C   UNK N   1      36.498  14.411   7.549  0.00  0.00     0.198 C 
BRANCH  13  14
HETATM   14  O   UNK N   1      36.169  15.038   6.346  0.00  0.00    -0.398 OA
HETATM   15  H   UNK N   1      36.585  15.288   5.506  0.00  0.00     0.209 HD
ENDBRANCH  13  14
ENDBRANCH   1  13
BRANCH   5  16
HETATM   16  O   UNK N   1      32.855  17.151   8.686  0.00  0.00    -0.318 OA
BRANCH  16  17
HETATM   17  C   UNK N   1      31.642  16.977   8.116  0.00  0.00     0.075 A 
HETATM   18  C   UNK N   1      30.505  17.617   8.618  0.00  0.00     0.052 A 
HETATM   19  C   UNK N   1      29.312  17.576   7.883  0.00  0.00     0.019 A 
HETATM   20  C   UNK N   1      29.296  16.975   6.605  0.00  0.00     0.045 A 
HETATM   21  C   UNK N   1      30.429  16.309   6.127  0.00  0.00     0.037 A 
HETATM   22  C   UNK N   1      31.572  16.313   6.907  0.00  0.00     0.066 A 
BRANCH  19  23
HETATM   23  C   UNK N   1      28.118  18.291   8.369  0.00  0.00     0.146 C 
HETATM   24  N   UNK N   1      27.651  19.345   7.781  0.00  0.00    -0.370 N 
ATOM     25  HN  UNK N   1      26.869  19.820   8.232  1.00  0.00     0.161 HD
BRANCH  24  26
HETATM   26  C   UNK N   1      28.142  19.910   6.534  0.00  0.00     0.123 C 
BRANCH  26  27
HETATM   27  C   UNK N   1      27.067  20.236   5.504  0.00  0.00     0.050 C 
BRANCH  27  28
HETATM   28  C   UNK N   1      27.222  19.429   4.231  0.00  0.00     0.274 C 
BRANCH  28  29
HETATM   29  N   UNK N   1      25.915  19.052   3.748  0.00  0.00     0.091 N 
HETATM   30  C   UNK N   1      25.418  18.047   4.678  0.00  0.00     0.302 C 
HETATM   31  C   UNK N   1      24.012  17.647   4.270  0.00  0.00     0.302 C 
HETATM   32  N   UNK N   1      23.133  18.817   4.333  0.00  0.00     0.091 N 
HETATM   33  C   UNK N   1      23.632  19.846   3.418  0.00  0.00     0.302 C 
HETATM   34  C   UNK N   1      25.058  20.234   3.810  0.00  0.00     0.302 C 
BRANCH  32  35
HETATM   35  C   UNK N   1      21.824  18.405   3.852  0.00  0.00     0.274 C 
BRANCH  35  36
HETATM   36  C   UNK N   1      20.974  19.625   3.547  0.00  0.00     0.049 C 
BRANCH  36  37
HETATM   37  C   UNK N   1      19.787  19.216   2.706  0.00  0.00     0.112 C 
BRANCH  37  38
HETATM   38  N   UNK N   1      20.194  19.128   1.316  0.00  0.00    -0.430 N 
HETATM   39  H   UNK N   1      20.211  19.943   0.702  0.00  0.00     0.149 HD
HETATM   40  H   UNK N   1      20.474  18.223   0.939  0.00  0.00     0.149 HD
ENDBRANCH  37  38
ENDBRANCH  36  37
ENDBRANCH  35  36
ENDBRANCH  32  35
ENDBRANCH  28  29
ENDBRANCH  27  28
ENDBRANCH  26  27
ENDBRANCH  24  26
BRANCH  23  41
HETATM   41  O   UNK N   1      27.491  17.824   9.465  0.00  0.00    -0.346 OA
HETATM   42  H   UNK N   1      27.184  17.096   9.968  0.00  0.00     0.219 HD
ENDBRANCH  23  41
ENDBRANCH  19  23
BRANCH  21  43
HETATM   43  N   UNK N   1      30.501  15.852   4.776  0.00  0.00    -0.340 N 
HETATM   44  C   UNK N   1      30.512  14.595   4.440  0.00  0.00     0.120 C 
ATOM     45  HN  UNK N   1      30.548  16.549   4.033  1.00  0.00     0.167 HD
BRANCH  44  46
HETATM   46  C   UNK N   1      30.822  14.195   3.034  0.00  0.00     0.130 C 
BRANCH  46  47
HETATM   47  C   UNK N   1      32.295  13.924   2.913  0.00  0.00    -0.010 A 
HETATM   48  C   UNK N   1      32.887  13.063   1.993  0.00  0.00     0.015 A 
HETATM   49  C   UNK N   1      34.297  12.947   2.169  0.00  0.00     0.008 A 
HETATM   50  C   UNK N   1      34.807  13.708   3.231  0.00  0.00     0.050 A 
HETATM   51  S   UNK N   1      33.502  14.489   3.899  0.00  0.00    -0.106 SA
ENDBRANCH  46  47
ENDBRANCH  44  46
BRANCH  44  52
HETATM   52  O   UNK N   1      30.282  13.624   5.351  0.00  0.00    -0.349 OA
HETATM   53  H   UNK N   1      29.933  13.353   6.177  0.00  0.00     0.219 HD
ENDBRANCH  44  52
ENDBRANCH  21  43
ENDBRANCH  16  17
ENDBRANCH   5  16
TORSDOF 19
ENDMDL
MODEL 2
REMARK VINA RESULT:      -7.4      6.083     10.019
REMARK  19 active torsions:
REMARK  status: ('A' for Active; 'I' for Inactive)
REMARK    1  A    between atoms: C_5  and  C_2 
REMARK    2  A    between atoms: C_7  and  C_2 
REMARK    3  A    between atoms: C_6  and  C_3 
REMARK    4  A    between atoms: C_8  and  C_3 
REMARK    5  A    between atoms: N_30  and  C_5 
REMARK    6  A    between atoms: N_31  and  C_6 
REMARK    7  A    between atoms: N_35  and  C_7 
REMARK    8  A    between atoms: N_36  and  C_8 
REMARK    9  A    between atoms: C_22  and  C_17 
REMARK   10  A    between atoms: C_24  and  C_17 
REMARK   11  A    between atoms: C_23  and  C_18 
REMARK   12  A    between atoms: O_37  and  C_18 
REMARK   13  A    between atoms: C_28  and  C_19 
REMARK   14  A    between atoms: N_33  and  C_20 
REMARK   15  A    between atoms: O_43  and  C_21 
REMARK   16  A    between atoms: O_38  and  C_24 
REMARK   17  A    between atoms: C_25  and  O_39 
REMARK   18  A    between atoms: O_42  and  C_28 
REMARK   19  A    between atoms: C_29  and  O_43 
ROOT
HETATM    1  C   UNK N   1      22.390  13.764   9.792  0.00  0.00     0.179 C 
HETATM    2  C   UNK N   1      22.390  12.670  10.900  0.00  0.00     0.180 C 
HETATM    3  C   UNK N   1      23.495  11.635  10.634  0.00  0.00     0.183 C 
HETATM    4  C   UNK N   1      24.752  12.320  10.111  0.00  0.00     0.205 C 
HETATM    5  C   UNK N   1      24.421  13.219   8.848  0.00  0.00     0.298 C 
HETATM    6  O   UNK N   1      23.062  10.726   9.660  0.00  0.00    -0.390 OA
HETATM    7  O   UNK N   1      25.320  13.110  11.114  0.00  0.00    -0.388 OA
HETATM    8  O   UNK N   1      23.015  13.284   8.610  0.00  0.00    -0.348 OA
HETATM    9  H   UNK N   1      22.620  10.163   9.005  0.00  0.00     0.210 HD
HETATM   10  H   UNK N   1      25.746  13.577  11.851  0.00  0.00     0.210 HD
ENDROOT
BRANCH   2  11
HETATM   11  O   UNK N   1      21.164  12.000  10.984  0.00  0.00    -0.390 OA
HETATM   12  H   UNK N   1      20.676  11.717  11.774  0.00  0.00     0.210 HD
ENDBRANCH   2  11
BRANCH   1  13
HETATM   13  C   UNK N   1      21.003  14.312   9.480  0.00  0.00     0.198 C 
BRANCH  13  14
HETATM   14  O   UNK N   1      20.413  13.578   8.449  0.00  0.00    -0.398 OA
HETATM   15  H   UNK N   1      19.650  13.625   7.854  0.00  0.00     0.209 HD
ENDBRANCH  13  14
ENDBRANCH   1  13
BRANCH   5  16
HETATM   16  O   UNK N   1      25.083  12.821   7.690  0.00  0.00    -0.318 OA
BRANCH  16  17
HETATM   17  C   UNK N   1      25.041  13.617   6.598  0.00  0.00     0.075 A 
HETATM   18  C   UNK N   1      25.318  13.114   5.323  0.00  0.00     0.052 A 
HETATM   19  C   UNK N   1      25.065  13.914   4.200  0.00  0.00     0.019 A 
HETATM   20  C   UNK N   1      24.447  15.173   4.360  0.00  0.00     0.045 A 
HETATM   21  C   UNK N   1      24.204  15.680   5.641  0.00  0.00     0.037 A 
HETATM   22  C   UNK N   1      24.526  14.890   6.730  0.00  0.00     0.066 A 
BRANCH  19  23
HETATM   23  C   UNK N   1      25.299  13.381   2.845  0.00  0.00     0.146 C 
HETATM   24  N   UNK N   1      26.060  13.978   1.984  0.00  0.00    -0.370 N 
ATOM     25  HN  UNK N   1      26.101  13.580   1.046  1.00  0.00     0.161 HD
BRANCH  24  26
HETATM   26  C   UNK N   1      26.861  15.165   2.238  0.00  0.00     0.123 C 
BRANCH  26  27
HETATM   27  C   UNK N   1      28.362  14.921   2.346  0.00  0.00     0.050 C 
BRANCH  27  28
HETATM   28  C   UNK N   1      28.859  14.999   3.776  0.00  0.00     0.274 C 
BRANCH  28  29
HETATM   29  N   UNK N   1      28.279  16.157   4.414  0.00  0.00     0.091 N 
HETATM   30  C   UNK N   1      28.119  15.801   5.819  0.00  0.00     0.302 C 
HETATM   31  C   UNK N   1      27.571  17.000   6.572  0.00  0.00     0.302 C 
HETATM   32  N   UNK N   1      28.519  18.112   6.478  0.00  0.00     0.091 N 
HETATM   33  C   UNK N   1      28.708  18.467   5.070  0.00  0.00     0.302 C 
HETATM   34  C   UNK N   1      29.236  17.256   4.301  0.00  0.00     0.302 C 
BRANCH  32  35
HETATM   35  C   UNK N   1      27.914  19.257   7.139  0.00  0.00     0.274 C 
BRANCH  35  36
HETATM   36  C   UNK N   1      27.667  20.367   6.133  0.00  0.00     0.049 C 
BRANCH  36  37
HETATM   37  C   UNK N   1      26.390  21.094   6.487  0.00  0.00     0.112 C 
BRANCH  37  38
HETATM   38  N   UNK N   1      26.085  20.869   7.887  0.00  0.00    -0.430 N 
HETATM   39  H   UNK N   1      26.390  21.511   8.620  0.00  0.00     0.149 HD
HETATM   40  H   UNK N   1      25.547  20.044   8.149  0.00  0.00     0.149 HD
ENDBRANCH  37  38
ENDBRANCH  36  37
ENDBRANCH  35  36
ENDBRANCH  32  35
ENDBRANCH  28  29
ENDBRANCH  27  28
ENDBRANCH  26  27
ENDBRANCH  24  26
BRANCH  23  41
HETATM   41  O   UNK N   1      24.699  12.228   2.495  0.00  0.00    -0.346 OA
HETATM   42  H   UNK N   1      23.993  11.784   2.068  0.00  0.00     0.219 HD
ENDBRANCH  23  41
ENDBRANCH  19  23
BRANCH  21  43
HETATM   43  N   UNK N   1      23.423  16.859   5.832  0.00  0.00    -0.340 N 
HETATM   44  C   UNK N   1      22.150  16.845   6.097  0.00  0.00     0.120 C 
ATOM     45  HN  UNK N   1      23.888  17.764   5.755  1.00  0.00     0.167 HD
BRANCH  44  46
HETATM   46  C   UNK N   1      21.358  18.112   6.053  0.00  0.00     0.130 C 
BRANCH  46  47
HETATM   47  C   UNK N   1      20.905  18.359   4.642  0.00  0.00    -0.010 A 
HETATM   48  C   UNK N   1      21.036  19.560   3.948  0.00  0.00     0.015 A 
HETATM   49  C   UNK N   1      20.442  19.520   2.653  0.00  0.00     0.008 A 
HETATM   50  C   UNK N   1      19.838  18.295   2.336  0.00  0.00     0.050 A 
HETATM   51  S   UNK N   1      20.067  17.318   3.661  0.00  0.00    -0.106 SA
ENDBRANCH  46  47
ENDBRANCH  44  46
BRANCH  44  52
HETATM   52  O   UNK N   1      21.505  15.692   6.381  0.00  0.00    -0.349 OA
HETATM   53  H   UNK N   1      21.295  15.009   6.986  0.00  0.00     0.219 HD
ENDBRANCH  44  52
ENDBRANCH  21  43
ENDBRANCH  16  17
ENDBRANCH   5  16
TORSDOF 19
ENDMDL
MODEL 3
REMARK VINA RESULT:      -7.4      4.519     10.855
REMARK  19 active torsions:
REMARK  status: ('A' for Active; 'I' for Inactive)
REMARK    1  A    between atoms: C_5  and  C_2 
REMARK    2  A    between atoms: C_7  and  C_2 
REMARK    3  A    between atoms: C_6  and  C_3 
REMARK    4  A    between atoms: C_8  and  C_3 
REMARK    5  A    between atoms: N_30  and  C_5 
REMARK    6  A    between atoms: N_31  and  C_6 
REMARK    7  A    between atoms: N_35  and  C_7 
REMARK    8  A    between atoms: N_36  and  C_8 
REMARK    9  A    between atoms: C_22  and  C_17 
REMARK   10  A    between atoms: C_24  and  C_17 
REMARK   11  A    between atoms: C_23  and  C_18 
REMARK   12  A    between atoms: O_37  and  C_18 
REMARK   13  A    between atoms: C_28  and  C_19 
REMARK   14  A    between atoms: N_33  and  C_20 
REMARK   15  A    between atoms: O_43  and  C_21 
REMARK   16  A    between atoms: O_38  and  C_24 
REMARK   17  A    between atoms: C_25  and  O_39 
REMARK   18  A    between atoms: O_42  and  C_28 
REMARK   19  A    between atoms: C_29  and  O_43 
ROOT
HETATM    1  C   UNK N   1      26.874  16.455   5.376  0.00  0.00     0.179 C 
HETATM    2  C   UNK N   1      26.347  17.867   4.983  0.00  0.00     0.180 C 
HETATM    3  C   UNK N   1      27.285  18.960   5.523  0.00  0.00     0.183 C 
HETATM    4  C   UNK N   1      28.740  18.525   5.393  0.00  0.00     0.205 C 
HETATM    5  C   UNK N   1      28.971  17.112   6.075  0.00  0.00     0.298 C 
HETATM    6  O   UNK N   1      27.019  19.178   6.881  0.00  0.00    -0.390 OA
HETATM    7  O   UNK N   1      29.102  18.461   4.045  0.00  0.00    -0.388 OA
HETATM    8  O   UNK N   1      27.737  16.534   6.502  0.00  0.00    -0.348 OA
HETATM    9  H   UNK N   1      26.708  19.238   7.798  0.00  0.00     0.210 HD
HETATM   10  H   UNK N   1      29.358  18.513   3.110  0.00  0.00     0.210 HD
ENDROOT
BRANCH   2  11
HETATM   11  O   UNK N   1      25.058  18.107   5.472  0.00  0.00    -0.390 OA
HETATM   12  H   UNK N   1      24.368  17.467   5.711  0.00  0.00     0.210 HD
ENDBRANCH   2  11
BRANCH   1  13
HETATM   13  C   UNK N   1      25.765  15.440   5.621  0.00  0.00     0.198 C 
BRANCH  13  14
HETATM   14  O   UNK N   1      25.180  15.654   6.870  0.00  0.00    -0.398 OA
HETATM   15  H   UNK N   1      24.315  15.867   7.253  0.00  0.00     0.209 HD
ENDBRANCH  13  14
ENDBRANCH   1  13
BRANCH   5  16
HETATM   16  O   UNK N   1      29.875  17.144   7.132  0.00  0.00    -0.318 OA
BRANCH  16  17
HETATM   17  C   UNK N   1      31.200  17.110   6.869  0.00  0.00     0.075 A 
HETATM   18  C   UNK N   1      32.129  17.682   7.744  0.00  0.00     0.052 A 
HETATM   19  C   UNK N   1      33.497  17.449   7.542  0.00  0.00     0.019 A 
HETATM   20  C   UNK N   1      33.915  16.567   6.523  0.00  0.00     0.045 A 
HETATM   21  C   UNK N   1      32.981  16.026   5.633  0.00  0.00     0.037 A 
HETATM   22  C   UNK N   1      31.644  16.329   5.821  0.00  0.00     0.066 A 
BRANCH  19  23
HETATM   23  C   UNK N   1      34.488  17.997   8.486  0.00  0.00     0.146 C 
HETATM   24  N   UNK N   1      34.932  17.323   9.498  0.00  0.00    -0.370 N 
ATOM     25  HN  UNK N   1      35.555  17.810  10.143  1.00  0.00     0.161 HD
BRANCH  24  26
HETATM   26  C   UNK N   1      34.621  15.935   9.796  0.00  0.00     0.123 C 
BRANCH  26  27
HETATM   27  C   UNK N   1      35.802  15.097  10.274  0.00  0.00     0.050 C 
BRANCH  27  28
HETATM   28  C   UNK N   1      35.395  13.685  10.649  0.00  0.00     0.274 C 
BRANCH  28  29
HETATM   29  N   UNK N   1      35.918  13.375  11.958  0.00  0.00     0.091 N 
HETATM   30  C   UNK N   1      35.901  14.627  12.703  0.00  0.00     0.302 C 
HETATM   31  C   UNK N   1      36.379  14.365  14.120  0.00  0.00     0.302 C 
HETATM   32  N   UNK N   1      35.473  13.420  14.775  0.00  0.00     0.091 N 
HETATM   33  C   UNK N   1      35.462  12.162  14.025  0.00  0.00     0.302 C 
HETATM   34  C   UNK N   1      35.005  12.424  12.590  0.00  0.00     0.302 C 
BRANCH  32  35
HETATM   35  C   UNK N   1      36.018  13.136  16.093  0.00  0.00     0.274 C 
BRANCH  35  36
HETATM   36  C   UNK N   1      34.892  12.899  17.083  0.00  0.00     0.049 C 
BRANCH  36  37
HETATM   37  C   UNK N   1      35.213  13.588  18.388  0.00  0.00     0.112 C 
BRANCH  37  38
HETATM   38  N   UNK N   1      35.828  14.873  18.111  0.00  0.00    -0.430 N 
HETATM   39  H   UNK N   1      36.647  14.965  17.509  0.00  0.00     0.149 HD
HETATM   40  H   UNK N   1      35.428  15.713  18.530  0.00  0.00     0.149 HD
ENDBRANCH  37  38
ENDBRANCH  36  37
ENDBRANCH  35  36
ENDBRANCH  32  35
ENDBRANCH  28  29
ENDBRANCH  27  28
ENDBRANCH  26  27
ENDBRANCH  24  26
BRANCH  23  41
HETATM   41  O   UNK N   1      34.948  19.246   8.282  0.00  0.00    -0.346 OA
HETATM   42  H   UNK N   1      35.432  19.850   7.753  0.00  0.00     0.219 HD
ENDBRANCH  23  41
ENDBRANCH  19  23
BRANCH  21  43
HETATM   43  N   UNK N   1      33.348  14.998   4.712  0.00  0.00    -0.340 N 
HETATM   44  C   UNK N   1      33.383  15.166   3.423  0.00  0.00     0.120 C 
ATOM     45  HN  UNK N   1      33.595  14.082   5.085  1.00  0.00     0.167 HD
BRANCH  44  46
HETATM   46  C   UNK N   1      33.548  13.988   2.515  0.00  0.00     0.130 C 
BRANCH  46  47
HETATM   47  C   UNK N   1      35.004  13.823   2.185  0.00  0.00    -0.010 A 
HETATM   48  C   UNK N   1      35.602  14.153   0.971  0.00  0.00     0.015 A 
HETATM   49  C   UNK N   1      36.985  13.810   0.922  0.00  0.00     0.008 A 
HETATM   50  C   UNK N   1      37.467  13.203   2.091  0.00  0.00     0.050 A 
HETATM   51  S   UNK N   1      36.173  13.123   3.130  0.00  0.00    -0.106 SA
ENDBRANCH  46  47
ENDBRANCH  44  46
BRANCH  44  52
HETATM   52  O   UNK N   1      33.236  16.390   2.869  0.00  0.00    -0.349 OA
HETATM   53  H   UNK N   1      32.873  16.939   2.203  0.00  0.00     0.219 HD
ENDBRANCH  44  52
ENDBRANCH  21  43
ENDBRANCH  16  17
ENDBRANCH   5  16
TORSDOF 19
ENDMDL
MODEL 4
REMARK VINA RESULT:      -7.1      5.925     11.876
REMARK  19 active torsions:
REMARK  status: ('A' for Active; 'I' for Inactive)
REMARK    1  A    between atoms: C_5  and  C_2 
REMARK    2  A    between atoms: C_7  and  C_2 
REMARK    3  A    between atoms: C_6  and  C_3 
REMARK    4  A    between atoms: C_8  and  C_3 
REMARK    5  A    between atoms: N_30  and  C_5 
REMARK    6  A    between atoms: N_31  and  C_6 
REMARK    7  A    between atoms: N_35  and  C_7 
REMARK    8  A    between atoms: N_36  and  C_8 
REMARK    9  A    between atoms: C_22  and  C_17 
REMARK   10  A    between atoms: C_24  and  C_17 
REMARK   11  A    between atoms: C_23  and  C_18 
REMARK   12  A    between atoms: O_37  and  C_18 
REMARK   13  A    between atoms: C_28  and  C_19 
REMARK   14  A    between atoms: N_33  and  C_20 
REMARK   15  A    between atoms: O_43  and  C_21 
REMARK   16  A    between atoms: O_38  and  C_24 
REMARK   17  A    between atoms: C_25  and  O_39 
REMARK   18  A    between atoms: O_42  and  C_28 
REMARK   19  A    between atoms: C_29  and  O_43 
ROOT
HETATM    1  C   UNK N   1      20.573  17.054   1.736  0.00  0.00     0.179 C 
HETATM    2  C   UNK N   1      19.902  17.995   2.780  0.00  0.00     0.180 C 
HETATM    3  C   UNK N   1      19.928  17.353   4.177  0.00  0.00     0.183 C 
HETATM    4  C   UNK N   1      21.250  16.628   4.406  0.00  0.00     0.205 C 
HETATM    5  C   UNK N   1      21.537  15.594   3.239  0.00  0.00     0.298 C 
HETATM    6  O   UNK N   1      18.896  16.411   4.280  0.00  0.00    -0.390 OA
HETATM    7  O   UNK N   1      22.295  17.553   4.483  0.00  0.00    -0.388 OA
HETATM    8  O   UNK N   1      20.570  15.709   2.194  0.00  0.00    -0.348 OA
HETATM    9  H   UNK N   1      18.130  15.819   4.215  0.00  0.00     0.210 HD
HETATM   10  H   UNK N   1      22.990  18.216   4.625  0.00  0.00     0.210 HD
ENDROOT
BRANCH   2  11
HETATM   11  O   UNK N   1      18.574  18.289   2.451  0.00  0.00    -0.390 OA
HETATM   12  H   UNK N   1      18.007  17.878   1.780  0.00  0.00     0.210 HD
ENDBRANCH   2  11
BRANCH   1  13
HETATM   13  C   UNK N   1      19.954  17.148   0.347  0.00  0.00     0.198 C 
BRANCH  13  14
HETATM   14  O   UNK N   1      20.345  18.334  -0.277  0.00  0.00    -0.398 OA
HETATM   15  H   UNK N   1      20.038  19.247  -0.385  0.00  0.00     0.209 HD
ENDBRANCH  13  14
ENDBRANCH   1  13
BRANCH   5  16
HETATM   16  O   UNK N   1      21.619  14.274   3.671  0.00  0.00    -0.318 OA
BRANCH  16  17
HETATM   17  C   UNK N   1      22.832  13.745   3.948  0.00  0.00     0.075 A 
HETATM   18  C   UNK N   1      23.936  13.989   3.125  0.00  0.00     0.052 A 
HETATM   19  C   UNK N   1      25.212  13.596   3.553  0.00  0.00     0.019 A 
HETATM   20  C   UNK N   1      25.382  13.051   4.844  0.00  0.00     0.045 A 
HETATM   21  C   UNK N   1      24.269  12.782   5.646  0.00  0.00     0.037 A 
HETATM   22  C   UNK N   1      23.016  13.122   5.166  0.00  0.00     0.066 A 
BRANCH  19  23
HETATM   23  C   UNK N   1      26.394  13.893   2.723  0.00  0.00     0.146 C 
HETATM   24  N   UNK N   1      26.876  15.088   2.601  0.00  0.00    -0.370 N 
ATOM     25  HN  UNK N   1      27.647  15.213   1.945  1.00  0.00     0.161 HD
BRANCH  24  26
HETATM   26  C   UNK N   1      26.415  16.267   3.317  0.00  0.00     0.123 C 
BRANCH  26  27
HETATM   27  C   UNK N   1      27.195  16.599   4.584  0.00  0.00     0.050 C 
BRANCH  27  28
HETATM   28  C   UNK N   1      27.897  17.939   4.497  0.00  0.00     0.274 C 
BRANCH  28  29
HETATM   29  N   UNK N   1      29.041  17.931   5.377  0.00  0.00     0.091 N 
HETATM   30  C   UNK N   1      28.536  17.545   6.688  0.00  0.00     0.302 C 
HETATM   31  C   UNK N   1      29.699  17.451   7.658  0.00  0.00     0.302 C 
HETATM   32  N   UNK N   1      30.637  16.424   7.199  0.00  0.00     0.091 N 
HETATM   33  C   UNK N   1      31.139  16.787   5.872  0.00  0.00     0.302 C 
HETATM   34  C   UNK N   1      29.968  16.908   4.896  0.00  0.00     0.302 C 
BRANCH  32  35
HETATM   35  C   UNK N   1      31.771  16.431   8.109  0.00  0.00     0.274 C 
BRANCH  35  36
HETATM   36  C   UNK N   1      32.260  17.853   8.321  0.00  0.00     0.049 C 
BRANCH  36  37
HETATM   37  C   UNK N   1      33.771  17.872   8.329  0.00  0.00     0.112 C 
BRANCH  37  38
HETATM   38  N   UNK N   1      34.248  17.299   9.574  0.00  0.00    -0.430 N 
HETATM   39  H   UNK N   1      35.003  17.724  10.114  0.00  0.00     0.149 HD
HETATM   40  H   UNK N   1      33.815  16.444   9.923  0.00  0.00     0.149 HD
ENDBRANCH  37  38
ENDBRANCH  36  37
ENDBRANCH  35  36
ENDBRANCH  32  35
ENDBRANCH  28  29
ENDBRANCH  27  28
ENDBRANCH  26  27
ENDBRANCH  24  26
BRANCH  23  41
HETATM   41  O   UNK N   1      26.994  12.878   2.073  0.00  0.00    -0.346 OA
HETATM   42  H   UNK N   1      27.412  12.551   1.300  0.00  0.00     0.219 HD
ENDBRANCH  23  41
ENDBRANCH  19  23
BRANCH  21  43
HETATM   43  N   UNK N   1      24.419  12.403   7.014  0.00  0.00    -0.340 N 
HETATM   44  C   UNK N   1      24.560  13.256   7.987  0.00  0.00     0.120 C 
ATOM     45  HN  UNK N   1      24.417  11.409   7.243  1.00  0.00     0.167 HD
BRANCH  44  46
HETATM   46  C   UNK N   1      24.944  12.783   9.352  0.00  0.00     0.130 C 
BRANCH  46  47
HETATM   47  C   UNK N   1      23.700  12.582  10.171  0.00  0.00    -0.010 A 
HETATM   48  C   UNK N   1      23.658  12.076  11.468  0.00  0.00     0.015 A 
HETATM   49  C   UNK N   1      22.328  11.924  11.960  0.00  0.00     0.008 A 
HETATM   50  C   UNK N   1      21.332  12.301  11.048  0.00  0.00     0.050 A 
HETATM   51  S   UNK N   1      22.132  12.807   9.683  0.00  0.00    -0.106 SA
ENDBRANCH  46  47
ENDBRANCH  44  46
BRANCH  44  52
HETATM   52  O   UNK N   1      24.402  14.583   7.785  0.00  0.00    -0.349 OA
HETATM   53  H   UNK N   1      24.347  15.312   7.201  0.00  0.00     0.219 HD
ENDBRANCH  44  52
ENDBRANCH  21  43
ENDBRANCH  16  17
ENDBRANCH   5  16
TORSDOF 19
ENDMDL
MODEL 5
REMARK VINA RESULT:      -7.0      5.964      9.803
REMARK  19 active torsions:
REMARK  status: ('A' for Active; 'I' for Inactive)
REMARK    1  A    between atoms: C_5  and  C_2 
REMARK    2  A    between atoms: C_7  and  C_2 
REMARK    3  A    between atoms: C_6  and  C_3 
REMARK    4  A    between atoms: C_8  and  C_3 
REMARK    5  A    between atoms: N_30  and  C_5 
REMARK    6  A    between atoms: N_31  and  C_6 
REMARK    7  A    between atoms: N_35  and  C_7 
REMARK    8  A    between atoms: N_36  and  C_8 
REMARK    9  A    between atoms: C_22  and  C_17 
REMARK   10  A    between atoms: C_24  and  C_17 
REMARK   11  A    between atoms: C_23  and  C_18 
REMARK   12  A    between atoms: O_37  and  C_18 
REMARK   13  A    between atoms: C_28  and  C_19 
REMARK   14  A    between atoms: N_33  and  C_20 
REMARK   15  A    between atoms: O_43  and  C_21 
REMARK   16  A    between atoms: O_38  and  C_24 
REMARK   17  A    between atoms: C_25  and  O_39 
REMARK   18  A    between atoms: O_42  and  C_28 
REMARK   19  A    between atoms: C_29  and  O_43 
ROOT
HETATM    1  C   UNK N   1      26.870  20.359   6.085  0.00  0.00     0.179 C 
HETATM    2  C   UNK N   1      28.063  19.563   6.691  0.00  0.00     0.180 C 
HETATM    3  C   UNK N   1      28.010  18.093   6.245  0.00  0.00     0.183 C 
HETATM    4  C   UNK N   1      27.569  17.993   4.789  0.00  0.00     0.205 C 
HETATM    5  C   UNK N   1      26.204  18.765   4.558  0.00  0.00     0.298 C 
HETATM    6  O   UNK N   1      27.077  17.398   7.026  0.00  0.00    -0.390 OA
HETATM    7  O   UNK N   1      28.556  18.523   3.952  0.00  0.00    -0.388 OA
HETATM    8  O   UNK N   1      25.810  19.485   5.727  0.00  0.00    -0.348 OA
HETATM    9  H   UNK N   1      26.430  17.047   7.657  0.00  0.00     0.210 HD
HETATM   10  H   UNK N   1      29.291  18.809   3.387  0.00  0.00     0.210 HD
ENDROOT
BRANCH   2  11
HETATM   11  O   UNK N   1      28.071  19.603   8.089  0.00  0.00    -0.390 OA
HETATM   12  H   UNK N   1      27.672  20.259   8.683  0.00  0.00     0.210 HD
ENDBRANCH   2  11
BRANCH   1  13
HETATM   13  C   UNK N   1      26.362  21.475   6.989  0.00  0.00     0.198 C 
BRANCH  13  14
HETATM   14  O   UNK N   1      25.730  20.938   8.111  0.00  0.00    -0.398 OA
HETATM   15  H   UNK N   1      25.924  20.347   8.856  0.00  0.00     0.209 HD
ENDBRANCH  13  14
ENDBRANCH   1  13
BRANCH   5  16
HETATM   16  O   UNK N   1      25.165  17.945   4.129  0.00  0.00    -0.318 OA
BRANCH  16  17
HETATM   17  C   UNK N   1      23.888  18.314   4.374  0.00  0.00     0.075 A 
HETATM   18  C   UNK N   1      23.173  19.102   3.466  0.00  0.00     0.052 A 
HETATM   19  C   UNK N   1      21.797  19.292   3.657  0.00  0.00     0.019 A 
HETATM   20  C   UNK N   1      21.133  18.611   4.700  0.00  0.00     0.045 A 
HETATM   21  C   UNK N   1      21.862  17.852   5.621  0.00  0.00     0.037 A 
HETATM   22  C   UNK N   1      23.229  17.738   5.441  0.00  0.00     0.066 A 
BRANCH  19  23
HETATM   23  C   UNK N   1      21.016  20.074   2.680  0.00  0.00     0.146 C 
HETATM   24  N   UNK N   1      20.583  19.568   1.571  0.00  0.00    -0.370 N 
ATOM     25  HN  UNK N   1      20.120  20.203   0.920  1.00  0.00     0.161 HD
BRANCH  24  26
HETATM   26  C   UNK N   1      20.697  18.175   1.171  0.00  0.00     0.123 C 
BRANCH  26  27
HETATM   27  C   UNK N   1      19.505  17.297   1.538  0.00  0.00     0.050 C 
BRANCH  27  28
HETATM   28  C   UNK N   1      19.925  15.992   2.184  0.00  0.00     0.274 C 
BRANCH  28  29
HETATM   29  N   UNK N   1      21.277  15.680   1.784  0.00  0.00     0.091 N 
HETATM   30  C   UNK N   1      21.998  15.376   3.013  0.00  0.00     0.302 C 
HETATM   31  C   UNK N   1      23.420  14.973   2.665  0.00  0.00     0.302 C 
HETATM   32  N   UNK N   1      23.396  13.772   1.828  0.00  0.00     0.091 N 
HETATM   33  C   UNK N   1      22.656  14.055   0.597  0.00  0.00     0.302 C 
HETATM   34  C   UNK N   1      21.230  14.486   0.943  0.00  0.00     0.302 C 
BRANCH  32  35
HETATM   35  C   UNK N   1      24.770  13.477   1.452  0.00  0.00     0.274 C 
BRANCH  35  36
HETATM   36  C   UNK N   1      25.230  12.195   2.123  0.00  0.00     0.049 C 
BRANCH  36  37
HETATM   37  C   UNK N   1      26.431  11.644   1.389  0.00  0.00     0.112 C 
BRANCH  37  38
HETATM   38  N   UNK N   1      27.230  10.854   2.307  0.00  0.00    -0.430 N 
HETATM   39  H   UNK N   1      27.631   9.953   2.042  0.00  0.00     0.149 HD
HETATM   40  H   UNK N   1      27.397  11.209   3.248  0.00  0.00     0.149 HD
ENDBRANCH  37  38
ENDBRANCH  36  37
ENDBRANCH  35  36
ENDBRANCH  32  35
ENDBRANCH  28  29
ENDBRANCH  27  28
ENDBRANCH  26  27
ENDBRANCH  24  26
BRANCH  23  41
HETATM   41  O   UNK N   1      20.743  21.362   2.960  0.00  0.00    -0.346 OA
HETATM   42  H   UNK N   1      20.248  21.995   3.443  0.00  0.00     0.219 HD
ENDBRANCH  23  41
ENDBRANCH  19  23
BRANCH  21  43
HETATM   43  N   UNK N   1      21.204  17.013   6.570  0.00  0.00    -0.340 N 
HETATM   44  C   UNK N   1      20.645  17.456   7.658  0.00  0.00     0.120 C 
ATOM     45  HN  UNK N   1      21.170  16.010   6.387  1.00  0.00     0.167 HD
BRANCH  44  46
HETATM   46  C   UNK N   1      20.184  16.500   8.711  0.00  0.00     0.130 C 
BRANCH  46  47
HETATM   47  C   UNK N   1      20.731  15.134   8.407  0.00  0.00    -0.010 A 
HETATM   48  C   UNK N   1      20.412  14.364   7.291  0.00  0.00     0.015 A 
HETATM   49  C   UNK N   1      21.023  13.076   7.312  0.00  0.00     0.008 A 
HETATM   50  C   UNK N   1      21.812  12.834   8.446  0.00  0.00     0.050 A 
HETATM   51  S   UNK N   1      21.723  14.215   9.366  0.00  0.00    -0.106 SA
ENDBRANCH  46  47
ENDBRANCH  44  46
BRANCH  44  52
HETATM   52  O   UNK N   1      20.501  18.781   7.883  0.00  0.00    -0.349 OA
HETATM   53  H   UNK N   1      20.489  19.505   8.477  0.00  0.00     0.219 HD
ENDBRANCH  44  52
ENDBRANCH  21  43
ENDBRANCH  16  17
ENDBRANCH   5  16
TORSDOF 19
ENDMDL
MODEL 6
REMARK VINA RESULT:      -7.0      6.477      9.440
REMARK  19 active torsions:
REMARK  status: ('A' for Active; 'I' for Inactive)
REMARK    1  A    between atoms: C_5  and  C_2 
REMARK    2  A    between atoms: C_7  and  C_2 
REMARK    3  A    between atoms: C_6  and  C_3 
REMARK    4  A    between atoms: C_8  and  C_3 
REMARK    5  A    between atoms: N_30  and  C_5 
REMARK    6  A    between atoms: N_31  and  C_6 
REMARK    7  A    between atoms: N_35  and  C_7 
REMARK    8  A    between atoms: N_36  and  C_8 
REMARK    9  A    between atoms: C_22  and  C_17 
REMARK   10  A    between atoms: C_24  and  C_17 
REMARK   11  A    between atoms: C_23  and  C_18 
REMARK   12  A    between atoms: O_37  and  C_18 
REMARK   13  A    between atoms: C_28  and  C_19 
REMARK   14  A    between atoms: N_33  and  C_20 
REMARK   15  A    between atoms: O_43  and  C_21 
REMARK   16  A    between atoms: O_38  and  C_24 
REMARK   17  A    between atoms: C_25  and  O_39 
REMARK   18  A    between atoms: O_42  and  C_28 
REMARK   19  A    between atoms: C_29  and  O_43 
ROOT
HETATM    1  C   UNK N   1      24.925   7.049   6.824  0.00  0.00     0.179 C 
HETATM    2  C   UNK N   1      24.949   6.403   5.407  0.00  0.00     0.180 C 
HETATM    3  C   UNK N   1      24.339   7.361   4.370  0.00  0.00     0.183 C 
HETATM    4  C   UNK N   1      24.757   8.798   4.661  0.00  0.00     0.205 C 
HETATM    5  C   UNK N   1      24.412   9.195   6.157  0.00  0.00     0.298 C 
HETATM    6  O   UNK N   1      22.941   7.297   4.437  0.00  0.00    -0.390 OA
HETATM    7  O   UNK N   1      26.129   8.952   4.439  0.00  0.00    -0.388 OA
HETATM    8  O   UNK N   1      23.940   8.069   6.897  0.00  0.00    -0.348 OA
HETATM    9  H   UNK N   1      21.996   7.128   4.576  0.00  0.00     0.210 HD
HETATM   10  H   UNK N   1      27.061   9.058   4.190  0.00  0.00     0.210 HD
ENDROOT
BRANCH   2  11
HETATM   11  O   UNK N   1      24.245   5.195   5.363  0.00  0.00    -0.390 OA
HETATM   12  H   UNK N   1      24.553   4.319   5.080  0.00  0.00     0.210 HD
ENDBRANCH   2  11
BRANCH   1  13
HETATM   13  C   UNK N   1      24.734   6.039   7.948  0.00  0.00     0.198 C 
BRANCH  13  14
HETATM   14  O   UNK N   1      23.375   5.841   8.196  0.00  0.00    -0.398 OA
HETATM   15  H   UNK N   1      22.777   5.151   8.521  0.00  0.00     0.209 HD
ENDBRANCH  13  14
ENDBRANCH   1  13
BRANCH   5  16
HETATM   16  O   UNK N   1      23.508  10.248   6.260  0.00  0.00    -0.318 OA
BRANCH  16  17
HETATM   17  C   UNK N   1      23.846  11.340   6.983  0.00  0.00     0.075 A 
HETATM   18  C   UNK N   1      23.651  11.381   8.367  0.00  0.00     0.052 A 
HETATM   19  C   UNK N   1      24.199  12.441   9.105  0.00  0.00     0.019 A 
HETATM   20  C   UNK N   1      25.017  13.395   8.463  0.00  0.00     0.045 A 
HETATM   21  C   UNK N   1      25.178  13.362   7.074  0.00  0.00     0.037 A 
HETATM   22  C   UNK N   1      24.570  12.340   6.367  0.00  0.00     0.066 A 
BRANCH  19  23
HETATM   23  C   UNK N   1      24.051  12.473  10.572  0.00  0.00     0.146 C 
HETATM   24  N   UNK N   1      22.912  12.670  11.153  0.00  0.00    -0.370 N 
ATOM     25  HN  UNK N   1      22.917  12.756  12.169  1.00  0.00     0.161 HD
BRANCH  24  26
HETATM   26  C   UNK N   1      21.625  12.779  10.484  0.00  0.00     0.123 C 
BRANCH  26  27
HETATM   27  C   UNK N   1      21.397  14.085   9.731  0.00  0.00     0.050 C 
BRANCH  27  28
HETATM   28  C   UNK N   1      20.823  13.861   8.346  0.00  0.00     0.274 C 
BRANCH  28  29
HETATM   29  N   UNK N   1      21.459  14.766   7.419  0.00  0.00     0.091 N 
HETATM   30  C   UNK N   1      21.137  14.268   6.088  0.00  0.00     0.302 C 
HETATM   31  C   UNK N   1      21.722  15.211   5.052  0.00  0.00     0.302 C 
HETATM   32  N   UNK N   1      21.127  16.539   5.209  0.00  0.00     0.091 N 
HETATM   33  C   UNK N   1      21.424  17.046   6.550  0.00  0.00     0.302 C 
HETATM   34  C   UNK N   1      20.859  16.086   7.599  0.00  0.00     0.302 C 
BRANCH  32  35
HETATM   35  C   UNK N   1      21.778  17.424   4.256  0.00  0.00     0.274 C 
BRANCH  35  36
HETATM   36  C   UNK N   1      20.815  18.508   3.809  0.00  0.00     0.049 C 
BRANCH  36  37
HETATM   37  C   UNK N   1      20.229  18.141   2.465  0.00  0.00     0.112 C 
BRANCH  37  38
HETATM   38  N   UNK N   1      18.845  18.573   2.413  0.00  0.00    -0.430 N 
HETATM   39  H   UNK N   1      18.583  19.560   2.424  0.00  0.00     0.149 HD
HETATM   40  H   UNK N   1      18.109  17.870   2.362  0.00  0.00     0.149 HD
ENDBRANCH  37  38
ENDBRANCH  36  37
ENDBRANCH  35  36
ENDBRANCH  32  35
ENDBRANCH  28  29
ENDBRANCH  27  28
ENDBRANCH  26  27
ENDBRANCH  24  26
BRANCH  23  41
HETATM   41  O   UNK N   1      25.147  12.287  11.332  0.00  0.00    -0.346 OA
HETATM   42  H   UNK N   1      25.765  11.702  11.725  0.00  0.00     0.219 HD
ENDBRANCH  23  41
ENDBRANCH  19  23
BRANCH  21  43
HETATM   43  N   UNK N   1      26.136  14.197   6.422  0.00  0.00    -0.340 N 
HETATM   44  C   UNK N   1      25.889  15.417   6.044  0.00  0.00     0.120 C 
ATOM     45  HN  UNK N   1      27.065  13.816   6.242  1.00  0.00     0.167 HD
BRANCH  44  46
HETATM   46  C   UNK N   1      26.857  16.143   5.166  0.00  0.00     0.130 C 
BRANCH  46  47
HETATM   47  C   UNK N   1      28.051  16.550   5.983  0.00  0.00    -0.010 A 
HETATM   48  C   UNK N   1      28.009  17.056   7.280  0.00  0.00     0.015 A 
HETATM   49  C   UNK N   1      29.295  17.430   7.770  0.00  0.00     0.008 A 
HETATM   50  C   UNK N   1      30.339  17.227   6.857  0.00  0.00     0.050 A 
HETATM   51  S   UNK N   1      29.633  16.594   5.492  0.00  0.00    -0.106 SA
ENDBRANCH  46  47
ENDBRANCH  44  46
BRANCH  44  52
HETATM   52  O   UNK N   1      24.746  16.044   6.399  0.00  0.00    -0.349 OA
HETATM   53  H   UNK N   1      24.039  16.620   6.187  0.00  0.00     0.219 HD
ENDBRANCH  44  52
ENDBRANCH  21  43
ENDBRANCH  16  17
ENDBRANCH   5  16
TORSDOF 19
ENDMDL
MODEL 7
REMARK VINA RESULT:      -7.0      6.619     11.251
REMARK  19 active torsions:
REMARK  status: ('A' for Active; 'I' for Inactive)
REMARK    1  A    between atoms: C_5  and  C_2 
REMARK    2  A    between atoms: C_7  and  C_2 
REMARK    3  A    between atoms: C_6  and  C_3 
REMARK    4  A    between atoms: C_8  and  C_3 
REMARK    5  A    between atoms: N_30  and  C_5 
REMARK    6  A    between atoms: N_31  and  C_6 
REMARK    7  A    between atoms: N_35  and  C_7 
REMARK    8  A    between atoms: N_36  and  C_8 
REMARK    9  A    between atoms: C_22  and  C_17 
REMARK   10  A    between atoms: C_24  and  C_17 
REMARK   11  A    between atoms: C_23  and  C_18 
REMARK   12  A    between atoms: O_37  and  C_18 
REMARK   13  A    between atoms: C_28  and  C_19 
REMARK   14  A    between atoms: N_33  and  C_20 
REMARK   15  A    between atoms: O_43  and  C_21 
REMARK   16  A    between atoms: O_38  and  C_24 
REMARK   17  A    between atoms: C_25  and  O_39 
REMARK   18  A    between atoms: O_42  and  C_28 
REMARK   19  A    between atoms: C_29  and  O_43 
ROOT
HETATM    1  C   UNK N   1      19.418  16.503   8.326  0.00  0.00     0.179 C 
HETATM    2  C   UNK N   1      20.575  15.559   8.769  0.00  0.00     0.180 C 
HETATM    3  C   UNK N   1      21.060  14.710   7.583  0.00  0.00     0.183 C 
HETATM    4  C   UNK N   1      21.078  15.541   6.305  0.00  0.00     0.205 C 
HETATM    5  C   UNK N   1      19.667  16.218   6.052  0.00  0.00     0.298 C 
HETATM    6  O   UNK N   1      20.184  13.635   7.386  0.00  0.00    -0.390 OA
HETATM    7  O   UNK N   1      22.065  16.527   6.388  0.00  0.00    -0.388 OA
HETATM    8  O   UNK N   1      18.785  16.009   7.155  0.00  0.00    -0.348 OA
HETATM    9  H   UNK N   1      19.515  12.932   7.389  0.00  0.00     0.210 HD
HETATM   10  H   UNK N   1      22.815  17.142   6.430  0.00  0.00     0.210 HD
ENDROOT
BRANCH   2  11
HETATM   11  O   UNK N   1      20.191  14.699   9.804  0.00  0.00    -0.390 OA
HETATM   12  H   UNK N   1      19.563  13.959   9.780  0.00  0.00     0.210 HD
ENDBRANCH   2  11
BRANCH   1  13
HETATM   13  C   UNK N   1      18.392  16.761   9.422  0.00  0.00     0.198 C 
BRANCH  13  14
HETATM   14  O   UNK N   1      17.490  17.747   9.018  0.00  0.00    -0.398 OA
HETATM   15  H   UNK N   1      17.366  18.706   9.086  0.00  0.00     0.209 HD
ENDBRANCH  13  14
ENDBRANCH   1  13
BRANCH   5  16
HETATM   16  O   UNK N   1      19.057  15.813   4.869  0.00  0.00    -0.318 OA
BRANCH  16  17
HETATM   17  C   UNK N   1      19.549  16.252   3.689  0.00  0.00     0.075 A 
HETATM   18  C   UNK N   1      19.837  17.605   3.481  0.00  0.00     0.052 A 
HETATM   19  C   UNK N   1      20.532  17.990   2.326  0.00  0.00     0.019 A 
HETATM   20  C   UNK N   1      21.017  17.005   1.438  0.00  0.00     0.045 A 
HETATM   21  C   UNK N   1      20.695  15.658   1.638  0.00  0.00     0.037 A 
HETATM   22  C   UNK N   1      19.951  15.320   2.754  0.00  0.00     0.066 A 
BRANCH  19  23
HETATM   23  C   UNK N   1      20.893  19.404   2.116  0.00  0.00     0.146 C 
HETATM   24  N   UNK N   1      21.810  19.998   2.810  0.00  0.00    -0.370 N 
ATOM     25  HN  UNK N   1      21.938  20.997   2.651  1.00  0.00     0.161 HD
BRANCH  24  26
HETATM   26  C   UNK N   1      22.674  19.366   3.794  0.00  0.00     0.123 C 
BRANCH  26  27
HETATM   27  C   UNK N   1      24.097  19.089   3.323  0.00  0.00     0.050 C 
BRANCH  27  28
HETATM   28  C   UNK N   1      25.078  20.145   3.794  0.00  0.00     0.274 C 
BRANCH  28  29
HETATM   29  N   UNK N   1      25.632  19.741   5.064  0.00  0.00     0.091 N 
HETATM   30  C   UNK N   1      26.603  18.696   4.763  0.00  0.00     0.302 C 
HETATM   31  C   UNK N   1      27.279  18.264   6.052  0.00  0.00     0.302 C 
HETATM   32  N   UNK N   1      27.987  19.404   6.639  0.00  0.00     0.091 N 
HETATM   33  C   UNK N   1      27.027  20.471   6.928  0.00  0.00     0.302 C 
HETATM   34  C   UNK N   1      26.325  20.893   5.637  0.00  0.00     0.302 C 
BRANCH  32  35
HETATM   35  C   UNK N   1      28.543  18.964   7.908  0.00  0.00     0.274 C 
BRANCH  35  36
HETATM   36  C   UNK N   1      29.269  17.642   7.729  0.00  0.00     0.049 C 
BRANCH  36  37
HETATM   37  C   UNK N   1      30.327  17.498   8.798  0.00  0.00     0.112 C 
BRANCH  37  38
HETATM   38  N   UNK N   1      30.031  18.409   9.889  0.00  0.00    -0.430 N 
HETATM   39  H   UNK N   1      30.558  18.400  10.763  0.00  0.00     0.149 HD
HETATM   40  H   UNK N   1      29.272  19.081   9.779  0.00  0.00     0.149 HD
ENDBRANCH  37  38
ENDBRANCH  36  37
ENDBRANCH  35  36
ENDBRANCH  32  35
ENDBRANCH  28  29
ENDBRANCH  27  28
ENDBRANCH  26  27
ENDBRANCH  24  26
BRANCH  23  41
HETATM   41  O   UNK N   1      20.244  20.099   1.163  0.00  0.00    -0.346 OA
HETATM   42  H   UNK N   1      20.141  20.889   0.671  0.00  0.00     0.219 HD
ENDBRANCH  23  41
ENDBRANCH  19  23
BRANCH  21  43
HETATM   43  N   UNK N   1      21.315  14.629   0.866  0.00  0.00    -0.340 N 
HETATM   44  C   UNK N   1      22.499  14.154   1.119  0.00  0.00     0.120 C 
ATOM     45  HN  UNK N   1      20.803  14.247   0.072  1.00  0.00     0.167 HD
BRANCH  44  46
HETATM   46  C   UNK N   1      23.173  13.250   0.137  0.00  0.00     0.130 C 
BRANCH  46  47
HETATM   47  C   UNK N   1      23.819  12.113   0.877  0.00  0.00    -0.010 A 
HETATM   48  C   UNK N   1      25.190  11.890   0.980  0.00  0.00     0.015 A 
HETATM   49  C   UNK N   1      25.505  10.688   1.678  0.00  0.00     0.008 A 
HETATM   50  C   UNK N   1      24.384   9.966   2.112  0.00  0.00     0.050 A 
HETATM   51  S   UNK N   1      23.060  10.842   1.621  0.00  0.00    -0.106 SA
ENDBRANCH  46  47
ENDBRANCH  44  46
BRANCH  44  52
HETATM   52  O   UNK N   1      23.163  14.488   2.248  0.00  0.00    -0.349 OA
HETATM   53  H   UNK N   1      23.970  14.653   2.695  0.00  0.00     0.219 HD
ENDBRANCH  44  52
ENDBRANCH  21  43
ENDBRANCH  16  17
ENDBRANCH   5  16
TORSDOF 19
ENDMDL
MODEL 8
REMARK VINA RESULT:      -6.9      2.441      5.868
REMARK  19 active torsions:
REMARK  status: ('A' for Active; 'I' for Inactive)
REMARK    1  A    between atoms: C_5  and  C_2 
REMARK    2  A    between atoms: C_7  and  C_2 
REMARK    3  A    between atoms: C_6  and  C_3 
REMARK    4  A    between atoms: C_8  and  C_3 
REMARK    5  A    between atoms: N_30  and  C_5 
REMARK    6  A    between atoms: N_31  and  C_6 
REMARK    7  A    between atoms: N_35  and  C_7 
REMARK    8  A    between atoms: N_36  and  C_8 
REMARK    9  A    between atoms: C_22  and  C_17 
REMARK   10  A    between atoms: C_24  and  C_17 
REMARK   11  A    between atoms: C_23  and  C_18 
REMARK   12  A    between atoms: O_37  and  C_18 
REMARK   13  A    between atoms: C_28  and  C_19 
REMARK   14  A    between atoms: N_33  and  C_20 
REMARK   15  A    between atoms: O_43  and  C_21 
REMARK   16  A    between atoms: O_38  and  C_24 
REMARK   17  A    between atoms: C_25  and  O_39 
REMARK   18  A    between atoms: O_42  and  C_28 
REMARK   19  A    between atoms: C_29  and  O_43 
ROOT
HETATM    1  C   UNK N   1      29.994  11.802   4.116  0.00  0.00     0.179 C 
HETATM    2  C   UNK N   1      30.084  11.835   2.562  0.00  0.00     0.180 C 
HETATM    3  C   UNK N   1      29.580  13.184   2.023  0.00  0.00     0.183 C 
HETATM    4  C   UNK N   1      30.033  14.323   2.930  0.00  0.00     0.205 C 
HETATM    5  C   UNK N   1      29.608  14.053   4.432  0.00  0.00     0.298 C 
HETATM    6  O   UNK N   1      28.179  13.186   1.997  0.00  0.00    -0.390 OA
HETATM    7  O   UNK N   1      31.421  14.472   2.853  0.00  0.00    -0.388 OA
HETATM    8  O   UNK N   1      29.046  12.749   4.587  0.00  0.00    -0.348 OA
HETATM    9  H   UNK N   1      27.221  13.032   2.010  0.00  0.00     0.210 HD
HETATM   10  H   UNK N   1      32.371  14.617   2.714  0.00  0.00     0.210 HD
ENDROOT
BRANCH   2  11
HETATM   11  O   UNK N   1      29.338  10.812   1.965  0.00  0.00    -0.390 OA
HETATM   12  H   UNK N   1      29.587   9.887   1.809  0.00  0.00     0.210 HD
ENDBRANCH   2  11
BRANCH   1  13
HETATM   13  C   UNK N   1      29.693  10.418   4.677  0.00  0.00     0.198 C 
BRANCH  13  14
HETATM   14  O   UNK N   1      28.342  10.110   4.506  0.00  0.00    -0.398 OA
HETATM   15  H   UNK N   1      27.595   9.760   5.016  0.00  0.00     0.209 HD
ENDBRANCH  13  14
ENDBRANCH   1  13
BRANCH   5  16
HETATM   16  O   UNK N   1      28.741  15.011   4.948  0.00  0.00    -0.318 OA
BRANCH  16  17
HETATM   17  C   UNK N   1      29.216  15.932   5.815  0.00  0.00     0.075 A 
HETATM   18  C   UNK N   1      28.353  16.778   6.520  0.00  0.00     0.052 A 
HETATM   19  C   UNK N   1      28.864  17.574   7.555  0.00  0.00     0.019 A 
HETATM   20  C   UNK N   1      30.217  17.443   7.937  0.00  0.00     0.045 A 
HETATM   21  C   UNK N   1      31.078  16.619   7.206  0.00  0.00     0.037 A 
HETATM   22  C   UNK N   1      30.555  15.896   6.148  0.00  0.00     0.066 A 
BRANCH  19  23
HETATM   23  C   UNK N   1      27.961  18.430   8.345  0.00  0.00     0.146 C 
HETATM   24  N   UNK N   1      27.621  19.620   7.965  0.00  0.00    -0.370 N 
ATOM     25  HN  UNK N   1      27.056  20.170   8.612  1.00  0.00     0.161 HD
BRANCH  24  26
HETATM   26  C   UNK N   1      27.972  20.240   6.697  0.00  0.00     0.123 C 
BRANCH  26  27
HETATM   27  C   UNK N   1      26.827  20.364   5.699  0.00  0.00     0.050 C 
BRANCH  27  28
HETATM   28  C   UNK N   1      27.102  19.621   4.407  0.00  0.00     0.274 C 
BRANCH  28  29
HETATM   29  N   UNK N   1      25.851  19.174   3.843  0.00  0.00     0.091 N 
HETATM   30  C   UNK N   1      25.338  18.162   4.758  0.00  0.00     0.302 C 
HETATM   31  C   UNK N   1      23.984  17.688   4.261  0.00  0.00     0.302 C 
HETATM   32  N   UNK N   1      23.049  18.815   4.242  0.00  0.00     0.091 N 
HETATM   33  C   UNK N   1      23.561  19.851   3.343  0.00  0.00     0.302 C 
HETATM   34  C   UNK N   1      24.937  20.314   3.823  0.00  0.00     0.302 C 
BRANCH  32  35
HETATM   35  C   UNK N   1      21.797  18.333   3.681  0.00  0.00     0.274 C 
BRANCH  35  36
HETATM   36  C   UNK N   1      20.813  19.480   3.539  0.00  0.00     0.049 C 
BRANCH  36  37
HETATM   37  C   UNK N   1      19.914  19.231   2.351  0.00  0.00     0.112 C 
BRANCH  37  38
HETATM   38  N   UNK N   1      20.430  19.951   1.202  0.00  0.00    -0.430 N 
HETATM   39  H   UNK N   1      19.956  19.943   0.298  0.00  0.00     0.149 HD
HETATM   40  H   UNK N   1      21.293  20.484   1.300  0.00  0.00     0.149 HD
ENDBRANCH  37  38
ENDBRANCH  36  37
ENDBRANCH  35  36
ENDBRANCH  32  35
ENDBRANCH  28  29
ENDBRANCH  27  28
ENDBRANCH  26  27
ENDBRANCH  24  26
BRANCH  23  41
HETATM   41  O   UNK N   1      27.471  17.951   9.503  0.00  0.00    -0.346 OA
HETATM   42  H   UNK N   1      27.568  17.393  10.250  0.00  0.00     0.219 HD
ENDBRANCH  23  41
ENDBRANCH  19  23
BRANCH  21  43
HETATM   43  N   UNK N   1      32.396  16.328   7.673  0.00  0.00    -0.340 N 
HETATM   44  C   UNK N   1      33.473  16.844   7.157  0.00  0.00     0.120 C 
ATOM     45  HN  UNK N   1      32.499  15.680   8.454  1.00  0.00     0.167 HD
BRANCH  44  46
HETATM   46  C   UNK N   1      34.818  16.318   7.543  0.00  0.00     0.130 C 
BRANCH  46  47
HETATM   47  C   UNK N   1      34.803  15.950   9.000  0.00  0.00    -0.010 A 
HETATM   48  C   UNK N   1      35.178  16.785  10.049  0.00  0.00     0.015 A 
HETATM   49  C   UNK N   1      35.135  16.135  11.318  0.00  0.00     0.008 A 
HETATM   50  C   UNK N   1      34.737  14.791  11.260  0.00  0.00     0.050 A 
HETATM   51  S   UNK N   1      34.453  14.468   9.655  0.00  0.00    -0.106 SA
ENDBRANCH  46  47
ENDBRANCH  44  46
BRANCH  44  52
HETATM   52  O   UNK N   1      33.407  17.835   6.240  0.00  0.00    -0.349 OA
HETATM   53  H   UNK N   1      32.958  18.258   5.536  0.00  0.00     0.219 HD
ENDBRANCH  44  52
ENDBRANCH  21  43
ENDBRANCH  16  17
ENDBRANCH   5  16
TORSDOF 19
ENDMDL
MODEL 9
REMARK VINA RESULT:      -6.9      2.782      5.058
REMARK  19 active torsions:
REMARK  status: ('A' for Active; 'I' for Inactive)
REMARK    1  A    between atoms: C_5  and  C_2 
REMARK    2  A    between atoms: C_7  and  C_2 
REMARK    3  A    between atoms: C_6  and  C_3 
REMARK    4  A    between atoms: C_8  and  C_3 
REMARK    5  A    between atoms: N_30  and  C_5 
REMARK    6  A    between atoms: N_31  and  C_6 
REMARK    7  A    between atoms: N_35  and  C_7 
REMARK    8  A    between atoms: N_36  and  C_8 
REMARK    9  A    between atoms: C_22  and  C_17 
REMARK   10  A    between atoms: C_24  and  C_17 
REMARK   11  A    between atoms: C_23  and  C_18 
REMARK   12  A    between atoms: O_37  and  C_18 
REMARK   13  A    between atoms: C_28  and  C_19 
REMARK   14  A    between atoms: N_33  and  C_20 
REMARK   15  A    between atoms: O_43  and  C_21 
REMARK   16  A    between atoms: O_38  and  C_24 
REMARK   17  A    between atoms: C_25  and  O_39 
REMARK   18  A    between atoms: O_42  and  C_28 
REMARK   19  A    between atoms: C_29  and  O_43 
ROOT
HETATM    1  C   UNK N   1      37.005  11.669  12.599  0.00  0.00     0.179 C 
HETATM    2  C   UNK N   1      36.461  12.100  13.992  0.00  0.00     0.180 C 
HETATM    3  C   UNK N   1      36.041  13.580  13.970  0.00  0.00     0.183 C 
HETATM    4  C   UNK N   1      35.367  13.923  12.647  0.00  0.00     0.205 C 
HETATM    5  C   UNK N   1      36.289  13.518  11.422  0.00  0.00     0.298 C 
HETATM    6  O   UNK N   1      37.175  14.392  14.100  0.00  0.00    -0.390 OA
HETATM    7  O   UNK N   1      34.139  13.263  12.550  0.00  0.00    -0.388 OA
HETATM    8  O   UNK N   1      37.443  12.798  11.856  0.00  0.00    -0.348 OA
HETATM    9  H   UNK N   1      38.037  14.819  14.225  0.00  0.00     0.210 HD
HETATM   10  H   UNK N   1      33.251  12.871  12.544  0.00  0.00     0.210 HD
ENDROOT
BRANCH   2  11
HETATM   11  O   UNK N   1      37.405  11.922  15.009  0.00  0.00    -0.390 OA
HETATM   12  H   UNK N   1      37.290  11.518  15.884  0.00  0.00     0.210 HD
ENDBRANCH   2  11
BRANCH   1  13
HETATM   13  C   UNK N   1      38.106  10.618  12.676  0.00  0.00     0.198 C 
BRANCH  13  14
HETATM   14  O   UNK N   1      37.663   9.506  13.394  0.00  0.00    -0.398 OA
HETATM   15  H   UNK N   1      37.550   9.218  14.313  0.00  0.00     0.209 HD
ENDBRANCH  13  14
ENDBRANCH   1  13
BRANCH   5  16
HETATM   16  O   UNK N   1      36.668  14.596  10.628  0.00  0.00    -0.318 OA
BRANCH  16  17
HETATM   17  C   UNK N   1      35.869  14.977   9.607  0.00  0.00     0.075 A 
HETATM   18  C   UNK N   1      35.298  16.253   9.570  0.00  0.00     0.052 A 
HETATM   19  C   UNK N   1      34.647  16.681   8.404  0.00  0.00     0.019 A 
HETATM   20  C   UNK N   1      34.661  15.863   7.253  0.00  0.00     0.045 A 
HETATM   21  C   UNK N   1      35.206  14.577   7.311  0.00  0.00     0.037 A 
HETATM   22  C   UNK N   1      35.783  14.161   8.497  0.00  0.00     0.066 A 
BRANCH  19  23
HETATM   23  C   UNK N   1      34.087  18.042   8.327  0.00  0.00     0.146 C 
HETATM   24  N   UNK N   1      32.813  18.270   8.309  0.00  0.00    -0.370 N 
ATOM     25  HN  UNK N   1      32.516  19.237   8.174  1.00  0.00     0.161 HD
BRANCH  24  26
HETATM   26  C   UNK N   1      31.769  17.271   8.463  0.00  0.00     0.123 C 
BRANCH  26  27
HETATM   27  C   UNK N   1      30.701  17.279   7.375  0.00  0.00     0.050 C 
BRANCH  27  28
HETATM   28  C   UNK N   1      29.298  17.360   7.943  0.00  0.00     0.274 C 
BRANCH  28  29
HETATM   29  N   UNK N   1      28.405  17.867   6.928  0.00  0.00     0.091 N 
HETATM   30  C   UNK N   1      28.193  19.273   7.248  0.00  0.00     0.302 C 
HETATM   31  C   UNK N   1      27.310  19.895   6.182  0.00  0.00     0.302 C 
HETATM   32  N   UNK N   1      27.980  19.808   4.882  0.00  0.00     0.091 N 
HETATM   33  C   UNK N   1      28.219  18.401   4.555  0.00  0.00     0.302 C 
HETATM   34  C   UNK N   1      29.087  17.763   5.640  0.00  0.00     0.302 C 
BRANCH  32  35
HETATM   35  C   UNK N   1      27.063  20.336   3.884  0.00  0.00     0.274 C 
BRANCH  35  36
HETATM   36  C   UNK N   1      25.631  20.202   4.370  0.00  0.00     0.049 C 
BRANCH  36  37
HETATM   37  C   UNK N   1      24.774  19.631   3.264  0.00  0.00     0.112 C 
BRANCH  37  38
HETATM   38  N   UNK N   1      23.699  20.559   2.965  0.00  0.00    -0.430 N 
HETATM   39  H   UNK N   1      23.877  21.504   2.624  0.00  0.00     0.149 HD
HETATM   40  H   UNK N   1      22.735  20.256   3.097  0.00  0.00     0.149 HD
ENDBRANCH  37  38
ENDBRANCH  36  37
ENDBRANCH  35  36
ENDBRANCH  32  35
ENDBRANCH  28  29
ENDBRANCH  27  28
ENDBRANCH  26  27
ENDBRANCH  24  26
BRANCH  23  41
HETATM   41  O   UNK N   1      34.937  19.086   8.279  0.00  0.00    -0.346 OA
HETATM   42  H   UNK N   1      35.089  20.006   8.365  0.00  0.00     0.219 HD
ENDBRANCH  23  41
ENDBRANCH  19  23
BRANCH  21  43
HETATM   43  N   UNK N   1      35.395  13.802   6.126  0.00  0.00    -0.340 N 
HETATM   44  C   UNK N   1      36.370  13.995   5.287  0.00  0.00     0.120 C 
ATOM     45  HN  UNK N   1      34.729  13.056   5.926  1.00  0.00     0.167 HD
BRANCH  44  46
HETATM   46  C   UNK N   1      36.369  13.304   3.961  0.00  0.00     0.130 C 
BRANCH  46  47
HETATM   47  C   UNK N   1      34.962  13.248   3.437  0.00  0.00    -0.010 A 
HETATM   48  C   UNK N   1      34.218  14.341   2.998  0.00  0.00     0.015 A 
HETATM   49  C   UNK N   1      32.885  13.993   2.632  0.00  0.00     0.008 A 
HETATM   50  C   UNK N   1      32.582  12.633   2.793  0.00  0.00     0.050 A 
HETATM   51  S   UNK N   1      33.969  11.923   3.372  0.00  0.00    -0.106 SA
ENDBRANCH  46  47
ENDBRANCH  44  46
BRANCH  44  52
HETATM   52  O   UNK N   1      37.382  14.845   5.570  0.00  0.00    -0.349 OA
HETATM   53  H   UNK N   1      38.150  15.308   5.301  0.00  0.00     0.219 HD
ENDBRANCH  44  52
ENDBRANCH  21  43
ENDBRANCH  16  17
ENDBRANCH   5  16
TORSDOF 19
ENDMDL
