MODEL 1
REMARK VINA RESULT:      -5.4      0.000      0.000
REMARK  6 active torsions:
REMARK  status: ('A' for Active; 'I' for Inactive)
REMARK    1  A    between atoms: C_4  and  C_2 
REMARK    2  A    between atoms: O_11  and  C_2 
REMARK    3  A    between atoms: O_12  and  C_3 
REMARK    4  A    between atoms: C_5  and  N_9 
REMARK    5  A    between atoms: C_6  and  O_13 
REMARK    6  A    between atoms: C_8  and  O_15 
ROOT
HETATM    1  C   UNK N   1      34.536  17.073   8.679  0.00  0.00     0.179 C 
HETATM    2  C   UNK N   1      34.429  15.058  10.747  0.00  0.00     0.169 C 
HETATM    3  C   UNK N   1      33.180  16.424   9.036  0.00  0.00     0.180 C 
HETATM    4  C   UNK N   1      33.425  15.008   9.577  0.00  0.00     0.177 C 
HETATM    5  C   UNK N   1      35.695  15.847  10.300  0.00  0.00     0.282 C 
HETATM    6  O   UNK N   1      33.921  14.188   8.558  0.00  0.00    -0.391 OA
HETATM    7  O   UNK N   1      35.343  17.140   9.839  0.00  0.00    -0.349 OA
HETATM    8  H   UNK N   1      34.148  13.547   7.866  0.00  0.00     0.210 HD
ENDROOT
BRANCH   2   9
HETATM    9  N   UNK N   1      34.634  13.698  11.247  0.00  0.00    -0.363 N 
HETATM   10  C   UNK N   1      35.005  13.285  12.425  0.00  0.00     0.107 C 
HETATM   11  C   UNK N   1      35.152  11.825  12.660  0.00  0.00     0.097 C 
ATOM     12  HN  UNK N   1      34.459  12.958  10.566  1.00  0.00     0.162 HD
BRANCH  10  13
HETATM   13  O   UNK N   1      35.261  14.130  13.436  0.00  0.00    -0.350 OA
HETATM   14  H   UNK N   1      34.591  14.674  13.802  0.00  0.00     0.219 HD
ENDBRANCH  10  13
ENDBRANCH   2   9
BRANCH   3  15
HETATM   15  O   UNK N   1      32.339  16.364   7.921  0.00  0.00    -0.390 OA
HETATM   16  H   UNK N   1      32.416  15.823   7.119  0.00  0.00     0.210 HD
ENDBRANCH   3  15
BRANCH   5  17
HETATM   17  O   UNK N   1      36.542  16.018  11.398  0.00  0.00    -0.369 OA
HETATM   18  H   UNK N   1      37.225  16.683  11.572  0.00  0.00     0.212 HD
ENDBRANCH   5  17
BRANCH   1  19
HETATM   19  C   UNK N   1      34.354  18.505   8.176  0.00  0.00     0.198 C 
BRANCH  19  20
HETATM   20  O   UNK N   1      35.393  19.330   8.608  0.00  0.00    -0.398 OA
HETATM   21  H   UNK N   1      36.251  19.563   8.222  0.00  0.00     0.209 HD
ENDBRANCH  19  20
ENDBRANCH   1  19
TORSDOF 6
ENDMDL
MODEL 2
REMARK VINA RESULT:      -5.4      2.263      3.031
REMARK  6 active torsions:
REMARK  status: ('A' for Active; 'I' for Inactive)
REMARK    1  A    between atoms: C_4  and  C_2 
REMARK    2  A    between atoms: O_11  and  C_2 
REMARK    3  A    between atoms: O_12  and  C_3 
REMARK    4  A    between atoms: C_5  and  N_9 
REMARK    5  A    between atoms: C_6  and  O_13 
REMARK    6  A    between atoms: C_8  and  O_15 
ROOT
HETATM    1  C   UNK N   1      35.297  14.900   9.965  0.00  0.00     0.179 C 
HETATM    2  C   UNK N   1      36.546  13.499  12.161  0.00  0.00     0.169 C 
HETATM    3  C   UNK N   1      34.599  14.875  11.342  0.00  0.00     0.180 C 
HETATM    4  C   UNK N   1      35.008  13.599  12.093  0.00  0.00     0.177 C 
HETATM    5  C   UNK N   1      37.134  13.668  10.730  0.00  0.00     0.282 C 
HETATM    6  O   UNK N   1      34.486  12.476  11.442  0.00  0.00    -0.391 OA
HETATM    7  O   UNK N   1      36.701  14.886  10.150  0.00  0.00    -0.349 OA
HETATM    8  H   UNK N   1      34.051  11.677  11.105  0.00  0.00     0.210 HD
ENDROOT
BRANCH   2   9
HETATM    9  N   UNK N   1      36.904  12.280  12.890  0.00  0.00    -0.363 N 
HETATM   10  C   UNK N   1      37.310  12.126  14.117  0.00  0.00     0.107 C 
HETATM   11  C   UNK N   1      37.625  10.757  14.602  0.00  0.00     0.097 C 
ATOM     12  HN  UNK N   1      36.823  11.417  12.351  1.00  0.00     0.162 HD
BRANCH  10  13
HETATM   13  O   UNK N   1      37.457  13.160  14.962  0.00  0.00    -0.350 OA
HETATM   14  H   UNK N   1      38.303  13.496  15.182  0.00  0.00     0.219 HD
ENDBRANCH  10  13
ENDBRANCH   2   9
BRANCH   3  15
HETATM   15  O   UNK N   1      33.208  14.916  11.206  0.00  0.00    -0.390 OA
HETATM   16  H   UNK N   1      32.520  14.615  11.819  0.00  0.00     0.210 HD
ENDBRANCH   3  15
BRANCH   5  17
HETATM   17  O   UNK N   1      38.527  13.721  10.808  0.00  0.00    -0.369 OA
HETATM   18  H   UNK N   1      39.119  13.725  11.576  0.00  0.00     0.212 HD
ENDBRANCH   5  17
BRANCH   1  19
HETATM   19  C   UNK N   1      34.961  16.175   9.192  0.00  0.00     0.198 C 
BRANCH  19  20
HETATM   20  O   UNK N   1      34.570  17.202  10.052  0.00  0.00    -0.398 OA
HETATM   21  H   UNK N   1      33.715  17.625  10.225  0.00  0.00     0.209 HD
ENDBRANCH  19  20
ENDBRANCH   1  19
TORSDOF 6
ENDMDL
MODEL 3
REMARK VINA RESULT:      -5.4      2.178      4.914
REMARK  6 active torsions:
REMARK  status: ('A' for Active; 'I' for Inactive)
REMARK    1  A    between atoms: C_4  and  C_2 
REMARK    2  A    between atoms: O_11  and  C_2 
REMARK    3  A    between atoms: O_12  and  C_3 
REMARK    4  A    between atoms: C_5  and  N_9 
REMARK    5  A    between atoms: C_6  and  O_13 
REMARK    6  A    between atoms: C_8  and  O_15 
ROOT
HETATM    1  C   UNK N   1      35.210  15.351  11.661  0.00  0.00     0.179 C 
HETATM    2  C   UNK N   1      34.292  15.915   8.980  0.00  0.00     0.169 C 
HETATM    3  C   UNK N   1      34.840  14.180  10.725  0.00  0.00     0.180 C 
HETATM    4  C   UNK N   1      33.787  14.655   9.714  0.00  0.00     0.177 C 
HETATM    5  C   UNK N   1      34.754  16.967  10.031  0.00  0.00     0.282 C 
HETATM    6  O   UNK N   1      32.586  14.938  10.373  0.00  0.00    -0.391 OA
HETATM    7  O   UNK N   1      35.735  16.417  10.892  0.00  0.00    -0.349 OA
HETATM    8  H   UNK N   1      31.700  15.030  10.757  0.00  0.00     0.210 HD
ENDROOT
BRANCH   2   9
HETATM    9  N   UNK N   1      33.273  16.337   8.018  0.00  0.00    -0.363 N 
HETATM   10  C   UNK N   1      33.386  17.065   6.944  0.00  0.00     0.107 C 
HETATM   11  C   UNK N   1      32.166  17.359   6.146  0.00  0.00     0.097 C 
ATOM     12  HN  UNK N   1      32.328  16.009   8.220  1.00  0.00     0.162 HD
BRANCH  10  13
HETATM   13  O   UNK N   1      34.562  17.562   6.531  0.00  0.00    -0.350 OA
HETATM   14  H   UNK N   1      35.337  17.485   7.053  0.00  0.00     0.219 HD
ENDBRANCH  10  13
ENDBRANCH   2   9
BRANCH   3  15
HETATM   15  O   UNK N   1      34.341  13.092  11.449  0.00  0.00    -0.390 OA
HETATM   16  H   UNK N   1      34.820  12.367  11.880  0.00  0.00     0.210 HD
ENDBRANCH   3  15
BRANCH   5  17
HETATM   17  O   UNK N   1      35.345  18.047   9.371  0.00  0.00    -0.369 OA
HETATM   18  H   UNK N   1      34.995  18.640   8.688  0.00  0.00     0.212 HD
ENDBRANCH   5  17
BRANCH   1  19
HETATM   19  C   UNK N   1      36.291  14.945  12.662  0.00  0.00     0.198 C 
BRANCH  19  20
HETATM   20  O   UNK N   1      37.152  13.990  12.120  0.00  0.00    -0.398 OA
HETATM   21  H   UNK N   1      37.093  13.027  12.030  0.00  0.00     0.209 HD
ENDBRANCH  19  20
ENDBRANCH   1  19
TORSDOF 6
ENDMDL
MODEL 4
REMARK VINA RESULT:      -5.2      1.805      5.459
REMARK  6 active torsions:
REMARK  status: ('A' for Active; 'I' for Inactive)
REMARK    1  A    between atoms: C_4  and  C_2 
REMARK    2  A    between atoms: O_11  and  C_2 
REMARK    3  A    between atoms: O_12  and  C_3 
REMARK    4  A    between atoms: C_5  and  N_9 
REMARK    5  A    between atoms: C_6  and  O_13 
REMARK    6  A    between atoms: C_8  and  O_15 
ROOT
HETATM    1  C   UNK N   1      36.138  13.436  11.762  0.00  0.00     0.179 C 
HETATM    2  C   UNK N   1      34.552  15.513  10.531  0.00  0.00     0.169 C 
HETATM    3  C   UNK N   1      35.831  14.725  12.555  0.00  0.00     0.180 C 
HETATM    4  C   UNK N   1      35.627  15.887  11.572  0.00  0.00     0.177 C 
HETATM    5  C   UNK N   1      34.909  14.137   9.898  0.00  0.00     0.282 C 
HETATM    6  O   UNK N   1      36.834  16.180  10.926  0.00  0.00    -0.391 OA
HETATM    7  O   UNK N   1      35.053  13.146  10.900  0.00  0.00    -0.349 OA
HETATM    8  H   UNK N   1      37.662  16.506  10.541  0.00  0.00     0.210 HD
ENDROOT
BRANCH   2   9
HETATM    9  N   UNK N   1      34.374  16.642   9.616  0.00  0.00    -0.363 N 
HETATM   10  C   UNK N   1      33.320  17.025   8.953  0.00  0.00     0.107 C 
HETATM   11  C   UNK N   1      33.424  18.215   8.068  0.00  0.00     0.097 C 
ATOM     12  HN  UNK N   1      35.205  17.218   9.475  1.00  0.00     0.162 HD
BRANCH  10  13
HETATM   13  O   UNK N   1      32.144  16.384   9.038  0.00  0.00    -0.350 OA
HETATM   14  H   UNK N   1      31.536  16.566   9.727  0.00  0.00     0.219 HD
ENDBRANCH  10  13
ENDBRANCH   2   9
BRANCH   3  15
HETATM   15  O   UNK N   1      36.867  15.033  13.441  0.00  0.00    -0.390 OA
HETATM   16  H   UNK N   1      37.826  14.946  13.322  0.00  0.00     0.210 HD
ENDBRANCH   3  15
BRANCH   5  17
HETATM   17  O   UNK N   1      33.866  13.729   9.063  0.00  0.00    -0.369 OA
HETATM   18  H   UNK N   1      32.920  13.939   9.084  0.00  0.00     0.212 HD
ENDBRANCH   5  17
BRANCH   1  19
HETATM   19  C   UNK N   1      36.304  12.235  12.692  0.00  0.00     0.198 C 
BRANCH  19  20
HETATM   20  O   UNK N   1      37.561  12.232  13.299  0.00  0.00    -0.398 OA
HETATM   21  H   UNK N   1      38.462  12.201  12.943  0.00  0.00     0.209 HD
ENDBRANCH  19  20
ENDBRANCH   1  19
TORSDOF 6
ENDMDL
MODEL 5
REMARK VINA RESULT:      -5.2      2.187      3.503
REMARK  6 active torsions:
REMARK  status: ('A' for Active; 'I' for Inactive)
REMARK    1  A    between atoms: C_4  and  C_2 
REMARK    2  A    between atoms: O_11  and  C_2 
REMARK    3  A    between atoms: O_12  and  C_3 
REMARK    4  A    between atoms: C_5  and  N_9 
REMARK    5  A    between atoms: C_6  and  O_13 
REMARK    6  A    between atoms: C_8  and  O_15 
ROOT
HETATM    1  C   UNK N   1      33.021  16.927   8.571  0.00  0.00     0.179 C 
HETATM    2  C   UNK N   1      33.171  14.043   8.645  0.00  0.00     0.169 C 
HETATM    3  C   UNK N   1      34.201  16.248   9.301  0.00  0.00     0.180 C 
HETATM    4  C   UNK N   1      33.754  14.870   9.809  0.00  0.00     0.177 C 
HETATM    5  C   UNK N   1      32.086  14.886   7.912  0.00  0.00     0.282 C 
HETATM    6  O   UNK N   1      32.792  15.022  10.814  0.00  0.00    -0.391 OA
HETATM    7  O   UNK N   1      32.622  16.123   7.477  0.00  0.00    -0.349 OA
HETATM    8  H   UNK N   1      32.218  15.069  11.594  0.00  0.00     0.210 HD
ENDROOT
BRANCH   2   9
HETATM    9  N   UNK N   1      32.764  12.734   9.158  0.00  0.00    -0.363 N 
HETATM   10  C   UNK N   1      33.430  11.617   9.226  0.00  0.00     0.107 C 
HETATM   11  C   UNK N   1      32.758  10.415   9.786  0.00  0.00     0.097 C 
ATOM     12  HN  UNK N   1      31.810  12.690   9.517  1.00  0.00     0.162 HD
BRANCH  10  13
HETATM   13  O   UNK N   1      34.701  11.510   8.808  0.00  0.00    -0.350 OA
HETATM   14  H   UNK N   1      35.172  10.703   8.875  0.00  0.00     0.219 HD
ENDBRANCH  10  13
ENDBRANCH   2   9
BRANCH   3  15
HETATM   15  O   UNK N   1      34.646  17.025  10.375  0.00  0.00    -0.390 OA
HETATM   16  H   UNK N   1      35.130  17.865  10.369  0.00  0.00     0.210 HD
ENDBRANCH   3  15
BRANCH   5  17
HETATM   17  O   UNK N   1      31.660  14.198   6.774  0.00  0.00    -0.369 OA
HETATM   18  H   UNK N   1      32.158  13.865   6.012  0.00  0.00     0.212 HD
ENDBRANCH   5  17
BRANCH   1  19
HETATM   19  C   UNK N   1      33.425  18.288   8.003  0.00  0.00     0.198 C 
BRANCH  19  20
HETATM   20  O   UNK N   1      34.754  18.284   7.574  0.00  0.00    -0.398 OA
HETATM   21  H   UNK N   1      35.493  18.894   7.721  0.00  0.00     0.209 HD
ENDBRANCH  19  20
ENDBRANCH   1  19
TORSDOF 6
ENDMDL
MODEL 6
REMARK VINA RESULT:      -5.1      3.929      6.074
REMARK  6 active torsions:
REMARK  status: ('A' for Active; 'I' for Inactive)
REMARK    1  A    between atoms: C_4  and  C_2 
REMARK    2  A    between atoms: O_11  and  C_2 
REMARK    3  A    between atoms: O_12  and  C_3 
REMARK    4  A    between atoms: C_5  and  N_9 
REMARK    5  A    between atoms: C_6  and  O_13 
REMARK    6  A    between atoms: C_8  and  O_15 
ROOT
HETATM    1  C   UNK N   1      28.707  17.477   7.190  0.00  0.00     0.179 C 
HETATM    2  C   UNK N   1      31.412  17.873   8.123  0.00  0.00     0.169 C 
HETATM    3  C   UNK N   1      28.976  18.488   8.325  0.00  0.00     0.180 C 
HETATM    4  C   UNK N   1      30.231  18.058   9.098  0.00  0.00     0.177 C 
HETATM    5  C   UNK N   1      30.972  16.938   6.959  0.00  0.00     0.282 C 
HETATM    6  O   UNK N   1      29.984  16.861   9.779  0.00  0.00    -0.391 OA
HETATM    7  O   UNK N   1      29.819  17.448   6.314  0.00  0.00    -0.349 OA
HETATM    8  H   UNK N   1      29.831  16.104  10.366  0.00  0.00     0.210 HD
ENDROOT
BRANCH   2   9
HETATM    9  N   UNK N   1      32.594  17.473   8.889  0.00  0.00    -0.363 N 
HETATM   10  C   UNK N   1      33.858  17.625   8.618  0.00  0.00     0.107 C 
HETATM   11  C   UNK N   1      34.865  17.101   9.578  0.00  0.00     0.097 C 
ATOM     12  HN  UNK N   1      32.395  17.003   9.773  1.00  0.00     0.162 HD
BRANCH  10  13
HETATM   13  O   UNK N   1      34.288  18.235   7.502  0.00  0.00    -0.350 OA
HETATM   14  H   UNK N   1      34.836  17.795   6.883  0.00  0.00     0.219 HD
ENDBRANCH  10  13
ENDBRANCH   2   9
BRANCH   3  15
HETATM   15  O   UNK N   1      27.888  18.569   9.200  0.00  0.00    -0.390 OA
HETATM   16  H   UNK N   1      27.756  18.139  10.059  0.00  0.00     0.210 HD
ENDBRANCH   3  15
BRANCH   5  17
HETATM   17  O   UNK N   1      31.989  16.885   6.002  0.00  0.00    -0.369 OA
HETATM   18  H   UNK N   1      32.182  16.223   5.321  0.00  0.00     0.212 HD
ENDBRANCH   5  17
BRANCH   1  19
HETATM   19  C   UNK N   1      27.491  17.883   6.357  0.00  0.00     0.198 C 
BRANCH  19  20
HETATM   20  O   UNK N   1      27.130  19.209   6.599  0.00  0.00    -0.398 OA
HETATM   21  H   UNK N   1      27.648  20.020   6.718  0.00  0.00     0.209 HD
ENDBRANCH  19  20
ENDBRANCH   1  19
TORSDOF 6
ENDMDL
MODEL 7
REMARK VINA RESULT:      -5.1      2.921      5.602
REMARK  6 active torsions:
REMARK  status: ('A' for Active; 'I' for Inactive)
REMARK    1  A    between atoms: C_4  and  C_2 
REMARK    2  A    between atoms: O_11  and  C_2 
REMARK    3  A    between atoms: O_12  and  C_3 
REMARK    4  A    between atoms: C_5  and  N_9 
REMARK    5  A    between atoms: C_6  and  O_13 
REMARK    6  A    between atoms: C_8  and  O_15 
ROOT
HETATM    1  C   UNK N   1      34.784  16.739   9.171  0.00  0.00     0.179 C 
HETATM    2  C   UNK N   1      32.563  16.753   7.324  0.00  0.00     0.169 C 
HETATM    3  C   UNK N   1      34.252  18.087   8.637  0.00  0.00     0.180 C 
HETATM    4  C   UNK N   1      33.626  17.869   7.252  0.00  0.00     0.177 C 
HETATM    5  C   UNK N   1      33.187  15.496   7.997  0.00  0.00     0.282 C 
HETATM    6  O   UNK N   1      34.619  17.522   6.329  0.00  0.00    -0.391 OA
HETATM    7  O   UNK N   1      33.714  15.819   9.272  0.00  0.00    -0.349 OA
HETATM    8  H   UNK N   1      35.277  17.399   5.627  0.00  0.00     0.210 HD
ENDROOT
BRANCH   2   9
HETATM    9  N   UNK N   1      31.979  16.576   5.993  0.00  0.00    -0.363 N 
HETATM   10  C   UNK N   1      30.803  16.910   5.543  0.00  0.00     0.107 C 
HETATM   11  C   UNK N   1      30.458  16.592   4.133  0.00  0.00     0.097 C 
ATOM     12  HN  UNK N   1      32.587  16.121   5.313  1.00  0.00     0.162 HD
BRANCH  10  13
HETATM   13  O   UNK N   1      29.889  17.530   6.307  0.00  0.00    -0.350 OA
HETATM   14  H   UNK N   1      30.134  18.000   7.080  0.00  0.00     0.219 HD
ENDBRANCH  10  13
ENDBRANCH   2   9
BRANCH   3  15
HETATM   15  O   UNK N   1      35.275  19.036   8.548  0.00  0.00    -0.390 OA
HETATM   16  H   UNK N   1      35.282  19.894   8.096  0.00  0.00     0.210 HD
ENDBRANCH   3  15
BRANCH   5  17
HETATM   17  O   UNK N   1      32.191  14.537   8.194  0.00  0.00    -0.369 OA
HETATM   18  H   UNK N   1      31.271  14.509   7.890  0.00  0.00     0.212 HD
ENDBRANCH   5  17
BRANCH   1  19
HETATM   19  C   UNK N   1      35.379  16.890  10.571  0.00  0.00     0.198 C 
BRANCH  19  20
HETATM   20  O   UNK N   1      36.645  16.308  10.650  0.00  0.00    -0.398 OA
HETATM   21  H   UNK N   1      37.376  16.408  11.279  0.00  0.00     0.209 HD
ENDBRANCH  19  20
ENDBRANCH   1  19
TORSDOF 6
ENDMDL
MODEL 8
REMARK VINA RESULT:      -5.1     12.153     14.648
REMARK  6 active torsions:
REMARK  status: ('A' for Active; 'I' for Inactive)
REMARK    1  A    between atoms: C_4  and  C_2 
REMARK    2  A    between atoms: O_11  and  C_2 
REMARK    3  A    between atoms: O_12  and  C_3 
REMARK    4  A    between atoms: C_5  and  N_9 
REMARK    5  A    between atoms: C_6  and  O_13 
REMARK    6  A    between atoms: C_8  and  O_15 
ROOT
HETATM    1  C   UNK N   1      42.868  20.923   3.010  0.00  0.00     0.179 C 
HETATM    2  C   UNK N   1      44.379  23.260   2.234  0.00  0.00     0.169 C 
HETATM    3  C   UNK N   1      42.675  21.515   1.596  0.00  0.00     0.180 C 
HETATM    4  C   UNK N   1      42.978  23.020   1.634  0.00  0.00     0.177 C 
HETATM    5  C   UNK N   1      44.489  22.507   3.592  0.00  0.00     0.282 C 
HETATM    6  O   UNK N   1      42.012  23.681   2.400  0.00  0.00    -0.391 OA
HETATM    7  O   UNK N   1      44.205  21.129   3.426  0.00  0.00    -0.349 OA
HETATM    8  H   UNK N   1      41.307  24.204   2.814  0.00  0.00     0.210 HD
ENDROOT
BRANCH   2   9
HETATM    9  N   UNK N   1      44.642  24.700   2.248  0.00  0.00    -0.363 N 
HETATM   10  C   UNK N   1      45.773  25.345   2.276  0.00  0.00     0.107 C 
HETATM   11  C   UNK N   1      45.751  26.831   2.301  0.00  0.00     0.097 C 
ATOM     12  HN  UNK N   1      43.810  25.290   2.232  1.00  0.00     0.162 HD
BRANCH  10  13
HETATM   13  O   UNK N   1      46.960  24.717   2.286  0.00  0.00    -0.350 OA
HETATM   14  H   UNK N   1      47.602  24.893   2.945  0.00  0.00     0.219 HD
ENDBRANCH  10  13
ENDBRANCH   2   9
BRANCH   3  15
HETATM   15  O   UNK N   1      41.372  21.308   1.134  0.00  0.00    -0.390 OA
HETATM   16  H   UNK N   1      40.728  21.951   0.798  0.00  0.00     0.210 HD
ENDBRANCH   3  15
BRANCH   5  17
HETATM   17  O   UNK N   1      45.798  22.603   4.067  0.00  0.00    -0.369 OA
HETATM   18  H   UNK N   1      46.568  22.031   3.923  0.00  0.00     0.212 HD
ENDBRANCH   5  17
BRANCH   1  19
HETATM   19  C   UNK N   1      42.623  19.414   3.020  0.00  0.00     0.198 C 
BRANCH  19  20
HETATM   20  O   UNK N   1      41.312  19.115   3.394  0.00  0.00    -0.398 OA
HETATM   21  H   UNK N   1      40.673  18.457   3.081  0.00  0.00     0.209 HD
ENDBRANCH  19  20
ENDBRANCH   1  19
TORSDOF 6
ENDMDL
MODEL 9
REMARK VINA RESULT:      -5.0      4.241      6.040
REMARK  6 active torsions:
REMARK  status: ('A' for Active; 'I' for Inactive)
REMARK    1  A    between atoms: C_4  and  C_2 
REMARK    2  A    between atoms: O_11  and  C_2 
REMARK    3  A    between atoms: O_12  and  C_3 
REMARK    4  A    between atoms: C_5  and  N_9 
REMARK    5  A    between atoms: C_6  and  O_13 
REMARK    6  A    between atoms: C_8  and  O_15 
ROOT
HETATM    1  C   UNK N   1      29.186  17.427   8.038  0.00  0.00     0.179 C 
HETATM    2  C   UNK N   1      31.821  16.839   7.008  0.00  0.00     0.169 C 
HETATM    3  C   UNK N   1      30.411  18.156   8.631  0.00  0.00     0.180 C 
HETATM    4  C   UNK N   1      31.652  17.263   8.482  0.00  0.00     0.177 C 
HETATM    5  C   UNK N   1      30.480  16.239   6.492  0.00  0.00     0.282 C 
HETATM    6  O   UNK N   1      31.523  16.129   9.291  0.00  0.00    -0.391 OA
HETATM    7  O   UNK N   1      29.418  17.160   6.667  0.00  0.00    -0.349 OA
HETATM    8  H   UNK N   1      31.542  15.391   9.921  0.00  0.00     0.210 HD
ENDROOT
BRANCH   2   9
HETATM    9  N   UNK N   1      33.014  15.999   6.896  0.00  0.00    -0.363 N 
HETATM   10  C   UNK N   1      34.245  16.324   6.623  0.00  0.00     0.107 C 
HETATM   11  C   UNK N   1      35.272  15.252   6.555  0.00  0.00     0.097 C 
ATOM     12  HN  UNK N   1      32.857  15.004   7.057  1.00  0.00     0.162 HD
BRANCH  10  13
HETATM   13  O   UNK N   1      34.622  17.593   6.400  0.00  0.00    -0.350 OA
HETATM   14  H   UNK N   1      34.034  18.310   6.535  0.00  0.00     0.219 HD
ENDBRANCH  10  13
ENDBRANCH   2   9
BRANCH   3  15
HETATM   15  O   UNK N   1      30.213  18.464   9.981  0.00  0.00    -0.390 OA
HETATM   16  H   UNK N   1      30.826  18.859  10.619  0.00  0.00     0.210 HD
ENDBRANCH   3  15
BRANCH   5  17
HETATM   17  O   UNK N   1      30.586  15.988   5.122  0.00  0.00    -0.369 OA
HETATM   18  H   UNK N   1      31.049  15.286   4.641  0.00  0.00     0.212 HD
ENDBRANCH   5  17
BRANCH   1  19
HETATM   19  C   UNK N   1      27.929  18.292   8.119  0.00  0.00     0.198 C 
BRANCH  19  20
HETATM   20  O   UNK N   1      27.369  18.255   9.397  0.00  0.00    -0.398 OA
HETATM   21  H   UNK N   1      27.308  17.558  10.068  0.00  0.00     0.209 HD
ENDBRANCH  19  20
ENDBRANCH   1  19
TORSDOF 6
ENDMDL
