MODEL 1
REMARK VINA RESULT:      -6.5      0.000      0.000
REMARK  4 active torsions:
REMARK  status: ('A' for Active; 'I' for Inactive)
REMARK    1  A    between atoms: O_7  and  C_1 
REMARK    2  A    between atoms: C_6  and  C_4 
REMARK    3  A    between atoms: C_14  and  O_7 
REMARK    4  A    between atoms: O_15  and  C_9 
ROOT
HETATM    1  C   UNK N   1      29.373  16.853   6.353  0.00  0.00     0.103 A 
HETATM    2  C   UNK N   1      31.703  16.226   6.725  0.00  0.00    -0.049 A 
HETATM    3  C   UNK N   1      30.649  17.124   6.866  0.00  0.00     0.047 A 
HETATM    4  C   UNK N   1      29.153  15.625   5.670  0.00  0.00     0.101 A 
HETATM    5  C   UNK N   1      31.492  15.029   6.031  0.00  0.00     0.010 A 
HETATM    6  C   UNK N   1      30.228  14.737   5.508  0.00  0.00     0.040 A 
ENDROOT
BRANCH   2   7
HETATM    7  C   UNK N   1      33.013  16.558   7.386  0.00  0.00     0.045 C 
HETATM    8  C   UNK N   1      33.659  17.900   7.002  0.00  0.00     0.113 C 
HETATM    9  C   UNK N   1      34.371  18.206   8.265  0.00  0.00     0.218 C 
HETATM   10  O   UNK N   1      35.230  19.062   8.367  0.00  0.00    -0.274 OA
HETATM   11  N   UNK N   1      33.971  17.469   9.303  0.00  0.00    -0.360 N 
HETATM   12  C   UNK N   1      32.940  16.554   8.923  0.00  0.00     0.132 C 
HETATM   13  H   UNK N   1      34.340  17.544  10.214  0.00  0.00     0.162 HD
ENDBRANCH   2   7
BRANCH   1  14
HETATM   14  O   UNK N   1      28.370  17.757   6.517  0.00  0.00    -0.343 OA
BRANCH  14  15
HETATM   15  C   UNK N   1      28.287  18.959   5.831  0.00  0.00     0.129 C 
HETATM   16  C   UNK N   1      27.536  20.037   6.581  0.00  0.00     0.032 C 
HETATM   17  C   UNK N   1      27.184  21.034   5.500  0.00  0.00     0.002 C 
HETATM   18  C   UNK N   1      27.065  20.223   4.215  0.00  0.00     0.002 C 
HETATM   19  C   UNK N   1      27.500  18.808   4.556  0.00  0.00     0.032 C 
ENDBRANCH  14  15
ENDBRANCH   1  14
BRANCH   4  20
HETATM   20  O   UNK N   1      27.949  15.259   5.154  0.00  0.00    -0.353 OA
HETATM   21  C   UNK N   1      27.664  15.116   3.816  0.00  0.00     0.210 C 
ENDBRANCH   4  20
TORSDOF 4
ENDMDL
MODEL 2
REMARK VINA RESULT:      -6.4     11.787     14.943
REMARK  4 active torsions:
REMARK  status: ('A' for Active; 'I' for Inactive)
REMARK    1  A    between atoms: O_7  and  C_1 
REMARK    2  A    between atoms: C_6  and  C_4 
REMARK    3  A    between atoms: C_14  and  O_7 
REMARK    4  A    between atoms: O_15  and  C_9 
ROOT
HETATM    1  C   UNK N   1      26.289  25.350  -3.902  0.00  0.00     0.103 A 
HETATM    2  C   UNK N   1      26.096  27.768  -4.175  0.00  0.00    -0.049 A 
HETATM    3  C   UNK N   1      26.522  26.657  -3.453  0.00  0.00     0.047 A 
HETATM    4  C   UNK N   1      25.599  25.157  -5.131  0.00  0.00     0.101 A 
HETATM    5  C   UNK N   1      25.395  27.577  -5.372  0.00  0.00     0.010 A 
HETATM    6  C   UNK N   1      25.149  26.281  -5.840  0.00  0.00     0.040 A 
ENDROOT
BRANCH   2   7
HETATM    7  C   UNK N   1      26.468  29.133  -3.665  0.00  0.00     0.045 C 
HETATM    8  C   UNK N   1      27.435  29.183  -2.471  0.00  0.00     0.113 C 
HETATM    9  C   UNK N   1      28.112  30.471  -2.749  0.00  0.00     0.218 C 
HETATM   10  O   UNK N   1      28.802  31.062  -1.939  0.00  0.00    -0.274 OA
HETATM   11  N   UNK N   1      27.918  30.927  -3.988  0.00  0.00    -0.360 N 
HETATM   12  C   UNK N   1      27.089  30.039  -4.743  0.00  0.00     0.132 C 
HETATM   13  H   UNK N   1      28.296  31.768  -4.337  0.00  0.00     0.162 HD
ENDBRANCH   2   7
BRANCH   1  14
HETATM   14  O   UNK N   1      26.727  24.292  -3.166  0.00  0.00    -0.343 OA
BRANCH  14  15
HETATM   15  C   UNK N   1      27.970  23.699  -3.322  0.00  0.00     0.129 C 
HETATM   16  C   UNK N   1      28.559  23.175  -2.031  0.00  0.00     0.032 C 
HETATM   17  C   UNK N   1      30.028  23.017  -2.356  0.00  0.00     0.002 C 
HETATM   18  C   UNK N   1      30.328  24.065  -3.422  0.00  0.00     0.002 C 
HETATM   19  C   UNK N   1      28.996  24.695  -3.795  0.00  0.00     0.032 C 
ENDBRANCH  14  15
ENDBRANCH   1  14
BRANCH   4  20
HETATM   20  O   UNK N   1      25.342  23.932  -5.663  0.00  0.00    -0.353 OA
HETATM   21  C   UNK N   1      26.151  23.261  -6.550  0.00  0.00     0.210 C 
ENDBRANCH   4  20
TORSDOF 4
ENDMDL
MODEL 3
REMARK VINA RESULT:      -6.4     11.303     13.486
REMARK  4 active torsions:
REMARK  status: ('A' for Active; 'I' for Inactive)
REMARK    1  A    between atoms: O_7  and  C_1 
REMARK    2  A    between atoms: C_6  and  C_4 
REMARK    3  A    between atoms: C_14  and  O_7 
REMARK    4  A    between atoms: O_15  and  C_9 
ROOT
HETATM    1  C   UNK N   1      27.153  23.715  -5.422  0.00  0.00     0.103 A 
HETATM    2  C   UNK N   1      29.289  22.553  -5.639  0.00  0.00    -0.049 A 
HETATM    3  C   UNK N   1      28.427  23.391  -4.937  0.00  0.00     0.047 A 
HETATM    4  C   UNK N   1      26.731  23.169  -6.666  0.00  0.00     0.101 A 
HETATM    5  C   UNK N   1      28.882  22.036  -6.875  0.00  0.00     0.010 A 
HETATM    6  C   UNK N   1      27.615  22.346  -7.381  0.00  0.00     0.040 A 
ENDROOT
BRANCH   2   7
HETATM    7  C   UNK N   1      30.601  22.186  -5.001  0.00  0.00     0.045 C 
HETATM    8  C   UNK N   1      30.816  22.650  -3.551  0.00  0.00     0.113 C 
HETATM    9  C   UNK N   1      31.703  21.565  -3.069  0.00  0.00     0.218 C 
HETATM   10  O   UNK N   1      32.342  21.623  -2.035  0.00  0.00    -0.274 OA
HETATM   11  N   UNK N   1      31.728  20.494  -3.864  0.00  0.00    -0.360 N 
HETATM   12  C   UNK N   1      30.877  20.672  -5.000  0.00  0.00     0.132 C 
HETATM   13  H   UNK N   1      32.264  19.685  -3.692  0.00  0.00     0.162 HD
ENDBRANCH   2   7
BRANCH   1  14
HETATM   14  O   UNK N   1      26.342  24.536  -4.701  0.00  0.00    -0.343 OA
BRANCH  14  15
HETATM   15  C   UNK N   1      26.388  25.921  -4.761  0.00  0.00     0.129 C 
HETATM   16  C   UNK N   1      26.322  26.590  -3.405  0.00  0.00     0.032 C 
HETATM   17  C   UNK N   1      25.926  28.011  -3.736  0.00  0.00     0.002 C 
HETATM   18  C   UNK N   1      25.113  27.923  -5.021  0.00  0.00     0.002 C 
HETATM   19  C   UNK N   1      25.189  26.477  -5.483  0.00  0.00     0.032 C 
ENDBRANCH  14  15
ENDBRANCH   1  14
BRANCH   4  20
HETATM   20  O   UNK N   1      25.508  23.406  -7.212  0.00  0.00    -0.353 OA
HETATM   21  C   UNK N   1      25.271  23.730  -8.528  0.00  0.00     0.210 C 
ENDBRANCH   4  20
TORSDOF 4
ENDMDL
MODEL 4
REMARK VINA RESULT:      -6.2      3.513      6.995
REMARK  4 active torsions:
REMARK  status: ('A' for Active; 'I' for Inactive)
REMARK    1  A    between atoms: O_7  and  C_1 
REMARK    2  A    between atoms: C_6  and  C_4 
REMARK    3  A    between atoms: C_14  and  O_7 
REMARK    4  A    between atoms: O_15  and  C_9 
ROOT
HETATM    1  C   UNK N   1      29.134  17.867   5.974  0.00  0.00     0.103 A 
HETATM    2  C   UNK N   1      27.335  19.511   5.835  0.00  0.00    -0.049 A 
HETATM    3  C   UNK N   1      28.200  18.602   5.232  0.00  0.00     0.047 A 
HETATM    4  C   UNK N   1      29.197  18.057   7.382  0.00  0.00     0.101 A 
HETATM    5  C   UNK N   1      27.414  19.715   7.218  0.00  0.00     0.010 A 
HETATM    6  C   UNK N   1      28.340  18.994   7.980  0.00  0.00     0.040 A 
ENDROOT
BRANCH   2   7
HETATM    7  C   UNK N   1      26.303  20.188   4.975  0.00  0.00     0.045 C 
HETATM    8  C   UNK N   1      26.676  20.418   3.501  0.00  0.00     0.113 C 
HETATM    9  C   UNK N   1      25.330  20.346   2.886  0.00  0.00     0.218 C 
HETATM   10  O   UNK N   1      25.084  20.711   1.751  0.00  0.00    -0.274 OA
HETATM   11  N   UNK N   1      24.399  19.820   3.684  0.00  0.00    -0.360 N 
HETATM   12  C   UNK N   1      24.950  19.456   4.953  0.00  0.00     0.132 C 
HETATM   13  H   UNK N   1      23.454  19.700   3.433  0.00  0.00     0.162 HD
ENDBRANCH   2   7
BRANCH   1  14
HETATM   14  O   UNK N   1      29.959  16.987   5.344  0.00  0.00    -0.343 OA
BRANCH  14  15
HETATM   15  C   UNK N   1      31.047  17.359   4.570  0.00  0.00     0.129 C 
HETATM   16  C   UNK N   1      31.250  16.490   3.348  0.00  0.00     0.032 C 
HETATM   17  C   UNK N   1      32.683  16.771   2.954  0.00  0.00     0.002 C 
HETATM   18  C   UNK N   1      33.403  17.131   4.247  0.00  0.00     0.002 C 
HETATM   19  C   UNK N   1      32.338  17.199   5.330  0.00  0.00     0.032 C 
ENDBRANCH  14  15
ENDBRANCH   1  14
BRANCH   4  20
HETATM   20  O   UNK N   1      30.052  17.379   8.193  0.00  0.00    -0.353 OA
HETATM   21  C   UNK N   1      31.246  17.862   8.677  0.00  0.00     0.210 C 
ENDBRANCH   4  20
TORSDOF 4
ENDMDL
MODEL 5
REMARK VINA RESULT:      -6.1      7.476     11.332
REMARK  4 active torsions:
REMARK  status: ('A' for Active; 'I' for Inactive)
REMARK    1  A    between atoms: O_7  and  C_1 
REMARK    2  A    between atoms: C_6  and  C_4 
REMARK    3  A    between atoms: C_14  and  O_7 
REMARK    4  A    between atoms: O_15  and  C_9 
ROOT
HETATM    1  C   UNK N   1      35.955  12.080  13.889  0.00  0.00     0.103 A 
HETATM    2  C   UNK N   1      35.857  13.842  12.203  0.00  0.00    -0.049 A 
HETATM    3  C   UNK N   1      35.354  13.222  13.343  0.00  0.00     0.047 A 
HETATM    4  C   UNK N   1      37.112  11.544  13.260  0.00  0.00     0.101 A 
HETATM    5  C   UNK N   1      36.982  13.299  11.570  0.00  0.00     0.010 A 
HETATM    6  C   UNK N   1      37.598  12.159  12.096  0.00  0.00     0.040 A 
ENDROOT
BRANCH   2   7
HETATM    7  C   UNK N   1      35.204  15.115  11.738  0.00  0.00     0.045 C 
HETATM    8  C   UNK N   1      36.096  16.112  10.980  0.00  0.00     0.113 C 
HETATM    9  C   UNK N   1      35.082  16.739  10.100  0.00  0.00     0.218 C 
HETATM   10  O   UNK N   1      35.269  17.768   9.478  0.00  0.00    -0.274 OA
HETATM   11  N   UNK N   1      33.936  16.059  10.027  0.00  0.00    -0.360 N 
HETATM   12  C   UNK N   1      33.981  14.879  10.834  0.00  0.00     0.132 C 
HETATM   13  H   UNK N   1      33.159  16.336   9.488  0.00  0.00     0.162 HD
ENDBRANCH   2   7
BRANCH   1  14
HETATM   14  O   UNK N   1      35.431  11.508  15.007  0.00  0.00    -0.343 OA
BRANCH  14  15
HETATM   15  C   UNK N   1      35.779  11.868  16.300  0.00  0.00     0.129 C 
HETATM   16  C   UNK N   1      35.397  10.839  17.341  0.00  0.00     0.032 C 
HETATM   17  C   UNK N   1      35.439  11.620  18.636  0.00  0.00     0.002 C 
HETATM   18  C   UNK N   1      35.110  13.059  18.259  0.00  0.00     0.002 C 
HETATM   19  C   UNK N   1      35.037  13.103  16.741  0.00  0.00     0.032 C 
ENDBRANCH  14  15
ENDBRANCH   1  14
BRANCH   4  20
HETATM   20  O   UNK N   1      37.780  10.453  13.723  0.00  0.00    -0.353 OA
HETATM   21  C   UNK N   1      37.894   9.249  13.067  0.00  0.00     0.210 C 
ENDBRANCH   4  20
TORSDOF 4
ENDMDL
MODEL 6
REMARK VINA RESULT:      -6.0      2.886      3.899
REMARK  4 active torsions:
REMARK  status: ('A' for Active; 'I' for Inactive)
REMARK    1  A    between atoms: O_7  and  C_1 
REMARK    2  A    between atoms: C_6  and  C_4 
REMARK    3  A    between atoms: C_14  and  O_7 
REMARK    4  A    between atoms: O_15  and  C_9 
ROOT
HETATM    1  C   UNK N   1      29.849  17.498   6.328  0.00  0.00     0.103 A 
HETATM    2  C   UNK N   1      32.117  16.776   5.788  0.00  0.00    -0.049 A 
HETATM    3  C   UNK N   1      30.831  17.137   5.396  0.00  0.00     0.047 A 
HETATM    4  C   UNK N   1      30.179  17.496   7.711  0.00  0.00     0.101 A 
HETATM    5  C   UNK N   1      32.434  16.751   7.152  0.00  0.00     0.010 A 
HETATM    6  C   UNK N   1      31.469  17.106   8.101  0.00  0.00     0.040 A 
ENDROOT
BRANCH   2   7
HETATM    7  C   UNK N   1      33.134  16.491   4.716  0.00  0.00     0.045 C 
HETATM    8  C   UNK N   1      33.584  15.028   4.564  0.00  0.00     0.113 C 
HETATM    9  C   UNK N   1      33.888  15.008   3.114  0.00  0.00     0.218 C 
HETATM   10  O   UNK N   1      34.515  14.120   2.567  0.00  0.00    -0.274 OA
HETATM   11  N   UNK N   1      33.393  16.050   2.444  0.00  0.00    -0.360 N 
HETATM   12  C   UNK N   1      32.683  16.937   3.314  0.00  0.00     0.132 C 
HETATM   13  H   UNK N   1      33.503  16.191   1.475  0.00  0.00     0.162 HD
ENDBRANCH   2   7
BRANCH   1  14
HETATM   14  O   UNK N   1      28.605  17.847   5.900  0.00  0.00    -0.343 OA
BRANCH  14  15
HETATM   15  C   UNK N   1      28.295  19.072   5.329  0.00  0.00     0.129 C 
HETATM   16  C   UNK N   1      27.487  19.977   6.232  0.00  0.00     0.032 C 
HETATM   17  C   UNK N   1      26.900  20.991   5.275  0.00  0.00     0.002 C 
HETATM   18  C   UNK N   1      26.760  20.265   3.942  0.00  0.00     0.002 C 
HETATM   19  C   UNK N   1      27.410  18.903   4.122  0.00  0.00     0.032 C 
ENDBRANCH  14  15
ENDBRANCH   1  14
BRANCH   4  20
HETATM   20  O   UNK N   1      29.305  17.850   8.691  0.00  0.00    -0.353 OA
HETATM   21  C   UNK N   1      29.608  18.611   9.796  0.00  0.00     0.210 C 
ENDBRANCH   4  20
TORSDOF 4
ENDMDL
MODEL 7
REMARK VINA RESULT:      -5.9      8.106     10.791
REMARK  4 active torsions:
REMARK  status: ('A' for Active; 'I' for Inactive)
REMARK    1  A    between atoms: O_7  and  C_1 
REMARK    2  A    between atoms: C_6  and  C_4 
REMARK    3  A    between atoms: C_14  and  O_7 
REMARK    4  A    between atoms: O_15  and  C_9 
ROOT
HETATM    1  C   UNK N   1      35.228  12.223  13.129  0.00  0.00     0.103 A 
HETATM    2  C   UNK N   1      35.261  11.717  15.516  0.00  0.00    -0.049 A 
HETATM    3  C   UNK N   1      35.660  12.496  14.434  0.00  0.00     0.047 A 
HETATM    4  C   UNK N   1      34.357  11.120  12.909  0.00  0.00     0.101 A 
HETATM    5  C   UNK N   1      34.424  10.617  15.295  0.00  0.00     0.010 A 
HETATM    6  C   UNK N   1      33.981  10.323  14.001  0.00  0.00     0.040 A 
ENDROOT
BRANCH   2   7
HETATM    7  C   UNK N   1      35.699  12.136  16.893  0.00  0.00     0.045 C 
HETATM    8  C   UNK N   1      34.989  13.357  17.501  0.00  0.00     0.113 C 
HETATM    9  C   UNK N   1      35.073  13.007  18.939  0.00  0.00     0.218 C 
HETATM   10  O   UNK N   1      34.856  13.795  19.841  0.00  0.00    -0.274 OA
HETATM   11  N   UNK N   1      35.392  11.731  19.167  0.00  0.00    -0.360 N 
HETATM   12  C   UNK N   1      35.575  11.016  17.941  0.00  0.00     0.132 C 
HETATM   13  H   UNK N   1      35.489  11.334  20.063  0.00  0.00     0.162 HD
ENDBRANCH   2   7
BRANCH   1  14
HETATM   14  O   UNK N   1      35.639  13.012  12.100  0.00  0.00    -0.343 OA
BRANCH  14  15
HETATM   15  C   UNK N   1      34.997  14.177  11.710  0.00  0.00     0.129 C 
HETATM   16  C   UNK N   1      34.647  14.215  10.238  0.00  0.00     0.032 C 
HETATM   17  C   UNK N   1      34.407  15.685   9.974  0.00  0.00     0.002 C 
HETATM   18  C   UNK N   1      35.284  16.431  10.972  0.00  0.00     0.002 C 
HETATM   19  C   UNK N   1      35.889  15.378  11.886  0.00  0.00     0.032 C 
ENDBRANCH  14  15
ENDBRANCH   1  14
BRANCH   4  20
HETATM   20  O   UNK N   1      33.866  10.784  11.686  0.00  0.00    -0.353 OA
HETATM   21  C   UNK N   1      33.789   9.508  11.179  0.00  0.00     0.210 C 
ENDBRANCH   4  20
TORSDOF 4
ENDMDL
MODEL 8
REMARK VINA RESULT:      -5.8      3.288      5.061
REMARK  4 active torsions:
REMARK  status: ('A' for Active; 'I' for Inactive)
REMARK    1  A    between atoms: O_7  and  C_1 
REMARK    2  A    between atoms: C_6  and  C_4 
REMARK    3  A    between atoms: C_14  and  O_7 
REMARK    4  A    between atoms: O_15  and  C_9 
ROOT
HETATM    1  C   UNK N   1      27.829  18.493   4.901  0.00  0.00     0.103 A 
HETATM    2  C   UNK N   1      28.026  19.145   7.245  0.00  0.00    -0.049 A 
HETATM    3  C   UNK N   1      28.179  18.207   6.228  0.00  0.00     0.047 A 
HETATM    4  C   UNK N   1      27.306  19.778   4.589  0.00  0.00     0.101 A 
HETATM    5  C   UNK N   1      27.488  20.401   6.941  0.00  0.00     0.010 A 
HETATM    6  C   UNK N   1      27.130  20.709   5.624  0.00  0.00     0.040 A 
ENDROOT
BRANCH   2   7
HETATM    7  C   UNK N   1      28.512  18.786   8.623  0.00  0.00     0.045 C 
HETATM    8  C   UNK N   1      28.036  17.439   9.192  0.00  0.00     0.113 C 
HETATM    9  C   UNK N   1      29.195  17.106  10.053  0.00  0.00     0.218 C 
HETATM   10  O   UNK N   1      29.178  16.236  10.904  0.00  0.00    -0.274 OA
HETATM   11  N   UNK N   1      30.283  17.836   9.801  0.00  0.00    -0.360 N 
HETATM   12  C   UNK N   1      30.046  18.771   8.744  0.00  0.00     0.132 C 
HETATM   13  H   UNK N   1      31.139  17.744  10.281  0.00  0.00     0.162 HD
ENDBRANCH   2   7
BRANCH   1  14
HETATM   14  O   UNK N   1      27.998  17.547   3.937  0.00  0.00    -0.343 OA
BRANCH  14  15
HETATM   15  C   UNK N   1      26.955  16.904   3.288  0.00  0.00     0.129 C 
HETATM   16  C   UNK N   1      25.871  16.409   4.222  0.00  0.00     0.032 C 
HETATM   17  C   UNK N   1      25.132  15.387   3.387  0.00  0.00     0.002 C 
HETATM   18  C   UNK N   1      26.162  14.828   2.413  0.00  0.00     0.002 C 
HETATM   19  C   UNK N   1      27.427  15.647   2.606  0.00  0.00     0.032 C 
ENDBRANCH  14  15
ENDBRANCH   1  14
BRANCH   4  20
HETATM   20  O   UNK N   1      26.956  20.159   3.331  0.00  0.00    -0.353 OA
HETATM   21  C   UNK N   1      25.672  20.395   2.896  0.00  0.00     0.210 C 
ENDBRANCH   4  20
TORSDOF 4
ENDMDL
MODEL 9
REMARK VINA RESULT:      -5.7      5.457      9.256
REMARK  4 active torsions:
REMARK  status: ('A' for Active; 'I' for Inactive)
REMARK    1  A    between atoms: O_7  and  C_1 
REMARK    2  A    between atoms: C_6  and  C_4 
REMARK    3  A    between atoms: C_14  and  O_7 
REMARK    4  A    between atoms: O_15  and  C_9 
ROOT
HETATM    1  C   UNK N   1      35.445  13.326  11.621  0.00  0.00     0.103 A 
HETATM    2  C   UNK N   1      34.267  14.597   9.902  0.00  0.00    -0.049 A 
HETATM    3  C   UNK N   1      34.991  14.541  11.090  0.00  0.00     0.047 A 
HETATM    4  C   UNK N   1      35.158  12.120  10.924  0.00  0.00     0.101 A 
HETATM    5  C   UNK N   1      33.964  13.407   9.229  0.00  0.00     0.010 A 
HETATM    6  C   UNK N   1      34.405  12.182   9.741  0.00  0.00     0.040 A 
ENDROOT
BRANCH   2   7
HETATM    7  C   UNK N   1      33.899  15.951   9.357  0.00  0.00     0.045 C 
HETATM    8  C   UNK N   1      34.869  17.104   9.662  0.00  0.00     0.113 C 
HETATM    9  C   UNK N   1      34.649  17.942   8.460  0.00  0.00     0.218 C 
HETATM   10  O   UNK N   1      35.023  19.096   8.361  0.00  0.00    -0.274 OA
HETATM   11  N   UNK N   1      34.015  17.311   7.469  0.00  0.00    -0.360 N 
HETATM   12  C   UNK N   1      33.704  15.962   7.831  0.00  0.00     0.132 C 
HETATM   13  H   UNK N   1      33.790  17.721   6.603  0.00  0.00     0.162 HD
ENDBRANCH   2   7
BRANCH   1  14
HETATM   14  O   UNK N   1      36.151  13.318  12.784  0.00  0.00    -0.343 OA
BRANCH  14  15
HETATM   15  C   UNK N   1      35.601  13.576  14.030  0.00  0.00     0.129 C 
HETATM   16  C   UNK N   1      36.631  13.783  15.119  0.00  0.00     0.032 C 
HETATM   17  C   UNK N   1      35.839  13.581  16.391  0.00  0.00     0.002 C 
HETATM   18  C   UNK N   1      34.719  12.613  16.030  0.00  0.00     0.002 C 
HETATM   19  C   UNK N   1      34.800  12.401  14.527  0.00  0.00     0.032 C 
ENDBRANCH  14  15
ENDBRANCH   1  14
BRANCH   4  20
HETATM   20  O   UNK N   1      35.570  10.895  11.345  0.00  0.00    -0.353 OA
HETATM   21  C   UNK N   1      34.751   9.815  11.585  0.00  0.00     0.210 C 
ENDBRANCH   4  20
TORSDOF 4
ENDMDL
