REMARK  10 active torsions:
REMARK  status: ('A' for Active; 'I' for Inactive)
REMARK    1  A    between atoms: C_10  and  C_7 
REMARK    2  A    between atoms: C_11  and  C_8 
REMARK    3  A    between atoms: O_22  and  C_9 
REMARK    4  A    between atoms: C_14  and  C_10 
REMARK    5  A    between atoms: C_10  and  N_18 
REMARK    6  A    between atoms: C_13  and  C_11 
REMARK    7  A    between atoms: C_11  and  N_17 
REMARK    8  A    between atoms: C_12  and  C_15 
REMARK    9  A    between atoms: C_13  and  O_23 
REMARK   10  A    between atoms: O_25  and  C_15 
ROOT
HETATM    1  C   UNK N   1      -5.708  -1.792  -0.253  0.00  0.00     0.139 C 
HETATM    2  N   UNK N   1      -4.611  -2.238   0.276  0.00  0.00    -0.359 N 
ATOM      3  HN  UNK N   1      -4.616  -2.516   1.258  1.00  0.00     0.162 HD
ENDROOT
BRANCH   2   4
HETATM    4  C   UNK N   1      -3.373  -2.356  -0.479  0.00  0.00     0.177 C 
BRANCH   4   5
HETATM    5  C   UNK N   1      -3.061  -3.799  -0.751  0.00  0.00     0.259 C 
HETATM    6  O   UNK N   1      -2.894  -4.587   0.168  0.00  0.00    -0.305 OA
ENDBRANCH   4   5
BRANCH   4   7
HETATM    7  C   UNK N   1      -2.204  -1.656   0.254  0.00  0.00     0.170 C 
HETATM    8  N   UNK N   1      -1.179  -1.301  -0.743  0.00  0.00    -0.392 N 
HETATM    9  C   UNK N   1      -0.869   0.130  -0.649  0.00  0.00     0.194 C 
HETATM   10  H   UNK N   1      -0.748  -1.952  -1.400  0.00  0.00     0.155 HD
HETATM   11  C   UNK N   1      -2.135   0.854  -0.159  0.00  0.00     0.033 C 
HETATM   12  C   UNK N   1      -3.207   0.907  -1.237  0.00  0.00     0.029 C 
HETATM   13  C   UNK N   1      -1.888   2.276   0.318  0.00  0.00     0.029 C 
HETATM   14  S   UNK N   1      -2.745  -0.158   1.177  0.00  0.00    -0.130 SA
BRANCH   9  15
HETATM   15  C   UNK N   1       0.344   0.314   0.244  0.00  0.00     0.164 C 
HETATM   16  O   UNK N   1       0.815   1.427   0.417  0.00  0.00    -0.648 OA
BRANCH  15  17
HETATM   17  O   UNK N   1       0.947  -0.752   0.807  0.00  0.00    -0.775 OA
HETATM   18  H   UNK N   1       0.515  -1.486   1.198  0.00  0.00     0.167 HD
ENDBRANCH  15  17
ENDBRANCH   9  15
ENDBRANCH   4   7
ENDBRANCH   2   4
BRANCH   1  19
HETATM   19  C   UNK N   1      -6.918  -1.543   0.599  0.00  0.00     0.183 C 
BRANCH  19  20
HETATM   20  C   UNK N   1      -7.324  -0.091   0.441  0.00  0.00    -0.028 A 
HETATM   21  C   UNK N   1      -6.433   0.928   0.817  0.00  0.00     0.012 A 
HETATM   22  C   UNK N   1      -6.775   2.272   0.631  0.00  0.00     0.037 A 
HETATM   23  C   UNK N   1      -8.009   2.608   0.066  0.00  0.00     0.065 A 
HETATM   24  C   UNK N   1      -8.905   1.603  -0.304  0.00  0.00     0.037 A 
HETATM   25  C   UNK N   1      -8.565   0.260  -0.118  0.00  0.00     0.012 A 
BRANCH  23  26
HETATM   26  O   UNK N   1      -8.333   3.898  -0.121  0.00  0.00    -0.361 OA
HETATM   27  H   UNK N   1      -7.666   4.544  -0.251  0.00  0.00     0.217 HD
ENDBRANCH  23  26
ENDBRANCH  19  20
BRANCH  19  28
HETATM   28  N   UNK N   1      -7.984  -2.438   0.170  0.00  0.00    -0.416 N 
HETATM   29  H   UNK N   1      -8.900  -2.104  -0.130  0.00  0.00     0.151 HD
HETATM   30  H   UNK N   1      -7.807  -3.442   0.170  0.00  0.00     0.151 HD
ENDBRANCH  19  28
ENDBRANCH   1  19
BRANCH   1  31
HETATM   31  O   UNK N   1      -5.779  -1.516  -1.574  0.00  0.00    -0.348 OA
HETATM   32  H   UNK N   1      -5.638  -1.378  -2.490  0.00  0.00     0.219 HD
ENDBRANCH   1  31
TORSDOF 10
