REMARK  8 active torsions:
REMARK  status: ('A' for Active; 'I' for Inactive)
REMARK    1  A    between atoms: C_3  and  C_2 
REMARK    2  A    between atoms: O_11  and  C_2 
REMARK    3  A    between atoms: C_4  and  O_12 
REMARK    4  A    between atoms: C_5  and  O_13 
REMARK    5  A    between atoms: C_6  and  O_14 
REMARK    6  A    between atoms: C_7  and  N_9 
REMARK    7  A    between atoms: C_8  and  O_15 
REMARK    8  A    between atoms: O_16  and  C_8 
ROOT
HETATM    1  C   UNK N   1       1.990   1.256  -0.025  0.00  0.00     0.179 C 
HETATM    2  C   UNK N   1       0.825   2.288   0.017  0.00  0.00     0.180 C 
HETATM    3  C   UNK N   1      -0.429   1.653   0.644  0.00  0.00     0.182 C 
HETATM    4  C   UNK N   1      -0.725   0.237   0.117  0.00  0.00     0.198 C 
HETATM    5  C   UNK N   1       0.599  -0.587   0.016  0.00  0.00     0.256 C 
HETATM    6  O   UNK N   1       1.658   0.076   0.698  0.00  0.00    -0.354 OA
ENDROOT
BRANCH   5   7
HETATM    7  N   UNK N   1       0.481  -1.940   0.534  0.00  0.00    -0.322 N 
HETATM    8  C   UNK N   1      -0.289  -2.842   0.021  0.00  0.00     0.259 C 
ATOM      9  HN  UNK N   1       1.038  -2.191   1.350  1.00  0.00     0.166 HD
BRANCH   8  10
HETATM   10  O   UNK N   1      -1.058  -2.562  -1.053  0.00  0.00    -0.327 OA
HETATM   11  H   UNK N   1      -1.156  -2.002  -1.799  0.00  0.00     0.221 HD
ENDBRANCH   8  10
BRANCH   8  12
HETATM   12  O   UNK N   1      -0.299  -4.081   0.566  0.00  0.00    -0.322 OA
HETATM   13  C   UNK N   1      -1.060  -5.099   0.041  0.00  0.00     0.213 C 
ENDBRANCH   8  12
ENDBRANCH   5   7
BRANCH   4  14
HETATM   14  O   UNK N   1      -1.639  -0.363   0.991  0.00  0.00    -0.389 OA
HETATM   15  H   UNK N   1      -2.316  -0.022   1.597  0.00  0.00     0.210 HD
ENDBRANCH   4  14
BRANCH   3  16
HETATM   16  O   UNK N   1      -1.543   2.486   0.508  0.00  0.00    -0.390 OA
HETATM   17  H   UNK N   1      -1.429   3.445   0.414  0.00  0.00     0.210 HD
ENDBRANCH   3  16
BRANCH   1  18
HETATM   18  C   UNK N   1       3.288   1.838   0.524  0.00  0.00     0.198 C 
BRANCH  18  19
HETATM   19  O   UNK N   1       3.733   2.887  -0.282  0.00  0.00    -0.398 OA
HETATM   20  H   UNK N   1       4.519   2.984  -0.843  0.00  0.00     0.209 HD
ENDBRANCH  18  19
ENDBRANCH   1  18
BRANCH   2  21
HETATM   21  O   UNK N   1       0.562   2.752  -1.275  0.00  0.00    -0.390 OA
HETATM   22  H   UNK N   1       0.749   3.071  -2.172  0.00  0.00     0.210 HD
ENDBRANCH   2  21
TORSDOF 8
