REMARK  6 active torsions:
REMARK  status: ('A' for Active; 'I' for Inactive)
REMARK    1  A    between atoms: C_3  and  C_2 
REMARK    2  A    between atoms: C_4  and  C_2 
REMARK    3  A    between atoms: C_5  and  C_3 
REMARK    4  A    between atoms: C_6  and  C_4 
REMARK    5  A    between atoms: C_4  and  N_7 
REMARK    6  A    between atoms: O_11  and  C_6 
ROOT
HETATM    1  C   UNK N   1       4.858   1.976  -0.390  0.00  0.00     0.174 C 
ENDROOT
BRANCH   1   2
HETATM    2  C   UNK N   1       3.791   1.776   0.694  0.00  0.00     0.050 C 
BRANCH   2   3
HETATM    3  C   UNK N   1       2.373   2.325   0.416  0.00  0.00     0.085 C 
HETATM    4  C   UNK N   1       2.338   3.419  -0.646  0.00  0.00     0.021 C 
BRANCH   3   5
HETATM    5  C   UNK N   1       1.402   1.232   0.049  0.00  0.00     0.176 C 
HETATM    6  O   UNK N   1       0.219   1.497  -0.102  0.00  0.00    -0.648 OA
HETATM    7  O   UNK N   1       1.815  -0.044  -0.087  0.00  0.00    -0.648 OA
ENDBRANCH   3   5
ENDBRANCH   2   3
ENDBRANCH   1   2
BRANCH   1   8
HETATM    8  C   UNK N   1       6.024   1.067  -0.113  0.00  0.00     0.163 C 
HETATM    9  O   UNK N   1       7.147   1.528   0.071  0.00  0.00    -0.648 OA
BRANCH   8  10
HETATM   10  O   UNK N   1       5.845  -0.264  -0.081  0.00  0.00    -0.775 OA
HETATM   11  H   UNK N   1       4.979  -0.621  -0.059  0.00  0.00     0.167 HD
ENDBRANCH   8  10
ENDBRANCH   1   8
BRANCH   1  12
HETATM   12  N   UNK N   1       5.287   3.367  -0.391  0.00  0.00    -0.418 N 
HETATM   13  H   UNK N   1       6.281   3.594  -0.392  0.00  0.00     0.150 HD
HETATM   14  H   UNK N   1       4.593   4.114  -0.391  0.00  0.00     0.150 HD
ENDBRANCH   1  12
TORSDOF 6
