MODEL 1
REMARK VINA RESULT:      -5.6      0.000      0.000
REMARK  8 active torsions:
REMARK  status: ('A' for Active; 'I' for Inactive)
REMARK    1  A    between atoms: C_3  and  C_2 
REMARK    2  A    between atoms: O_11  and  C_2 
REMARK    3  A    between atoms: C_4  and  O_12 
REMARK    4  A    between atoms: C_5  and  O_13 
REMARK    5  A    between atoms: C_6  and  O_14 
REMARK    6  A    between atoms: C_7  and  N_9 
REMARK    7  A    between atoms: C_8  and  O_15 
REMARK    8  A    between atoms: O_16  and  C_8 
ROOT
HETATM    1  C   UNK N   1      37.103  14.710  10.357  0.00  0.00     0.179 C 
HETATM    2  C   UNK N   1      36.449  13.933  11.536  0.00  0.00     0.180 C 
HETATM    3  C   UNK N   1      34.918  13.916  11.382  0.00  0.00     0.182 C 
HETATM    4  C   UNK N   1      34.328  15.284  10.991  0.00  0.00     0.198 C 
HETATM    5  C   UNK N   1      35.216  15.959   9.896  0.00  0.00     0.256 C 
HETATM    6  O   UNK N   1      36.143  15.026   9.354  0.00  0.00    -0.354 OA
ENDROOT
BRANCH   5   7
HETATM    7  N   UNK N   1      34.449  16.545   8.809  0.00  0.00    -0.322 N 
HETATM    8  C   UNK N   1      34.548  17.781   8.444  0.00  0.00     0.259 C 
ATOM      9  HN  UNK N   1      33.795  15.946   8.306  1.00  0.00     0.166 HD
BRANCH   8  10
HETATM   10  O   UNK N   1      35.389  18.623   9.081  0.00  0.00    -0.327 OA
HETATM   11  H   UNK N   1      36.283  18.777   9.318  0.00  0.00     0.221 HD
ENDBRANCH   8  10
BRANCH   8  12
HETATM   12  O   UNK N   1      33.808  18.215   7.397  0.00  0.00    -0.322 OA
HETATM   13  C   UNK N   1      33.679  17.478   6.243  0.00  0.00     0.213 C 
ENDBRANCH   8  12
ENDBRANCH   5   7
BRANCH   4  14
HETATM   14  O   UNK N   1      33.021  15.073  10.537  0.00  0.00    -0.389 OA
HETATM   15  H   UNK N   1      32.481  15.466   9.833  0.00  0.00     0.210 HD
ENDBRANCH   4  14
BRANCH   3  16
HETATM   16  O   UNK N   1      34.297  13.406  12.525  0.00  0.00    -0.390 OA
HETATM   17  H   UNK N   1      34.021  12.476  12.559  0.00  0.00     0.210 HD
ENDBRANCH   3  16
BRANCH   1  18
HETATM   18  C   UNK N   1      38.254  13.933   9.729  0.00  0.00     0.198 C 
BRANCH  18  19
HETATM   19  O   UNK N   1      39.066  13.377  10.719  0.00  0.00    -0.398 OA
HETATM   20  H   UNK N   1      39.013  13.399  11.688  0.00  0.00     0.209 HD
ENDBRANCH  18  19
ENDBRANCH   1  18
BRANCH   2  21
HETATM   21  O   UNK N   1      36.826  14.516  12.749  0.00  0.00    -0.390 OA
HETATM   22  H   UNK N   1      37.373  14.694  13.531  0.00  0.00     0.210 HD
ENDBRANCH   2  21
TORSDOF 8
ENDMDL
MODEL 2
REMARK VINA RESULT:      -5.2     11.271     12.961
REMARK  8 active torsions:
REMARK  status: ('A' for Active; 'I' for Inactive)
REMARK    1  A    between atoms: C_3  and  C_2 
REMARK    2  A    between atoms: O_11  and  C_2 
REMARK    3  A    between atoms: C_4  and  O_12 
REMARK    4  A    between atoms: C_5  and  O_13 
REMARK    5  A    between atoms: C_6  and  O_14 
REMARK    6  A    between atoms: C_7  and  N_9 
REMARK    7  A    between atoms: C_8  and  O_15 
REMARK    8  A    between atoms: O_16  and  C_8 
ROOT
HETATM    1  C   UNK N   1      42.986  20.560   2.527  0.00  0.00     0.179 C 
HETATM    2  C   UNK N   1      44.344  20.603   3.287  0.00  0.00     0.180 C 
HETATM    3  C   UNK N   1      44.615  22.023   3.817  0.00  0.00     0.182 C 
HETATM    4  C   UNK N   1      44.319  23.126   2.785  0.00  0.00     0.198 C 
HETATM    5  C   UNK N   1      42.985  22.816   2.033  0.00  0.00     0.256 C 
HETATM    6  O   UNK N   1      42.267  21.777   2.690  0.00  0.00    -0.354 OA
ENDROOT
BRANCH   5   7
HETATM    7  N   UNK N   1      42.115  23.972   1.893  0.00  0.00    -0.322 N 
HETATM    8  C   UNK N   1      41.089  24.010   1.109  0.00  0.00     0.259 C 
ATOM      9  HN  UNK N   1      42.328  24.802   2.447  1.00  0.00     0.166 HD
BRANCH   8  10
HETATM   10  O   UNK N   1      40.766  22.945   0.344  0.00  0.00    -0.327 OA
HETATM   11  H   UNK N   1      40.472  22.055   0.357  0.00  0.00     0.221 HD
ENDBRANCH   8  10
BRANCH   8  12
HETATM   12  O   UNK N   1      40.329  25.130   1.079  0.00  0.00    -0.322 OA
HETATM   13  C   UNK N   1      40.207  25.894  -0.057  0.00  0.00     0.213 C 
ENDBRANCH   8  12
ENDBRANCH   5   7
BRANCH   4  14
HETATM   14  O   UNK N   1      44.253  24.346   3.469  0.00  0.00    -0.389 OA
HETATM   15  H   UNK N   1      44.879  25.073   3.612  0.00  0.00     0.210 HD
ENDBRANCH   4  14
BRANCH   3  16
HETATM   16  O   UNK N   1      45.913  22.138   4.321  0.00  0.00    -0.390 OA
HETATM   17  H   UNK N   1      46.475  21.352   4.413  0.00  0.00     0.210 HD
ENDBRANCH   3  16
BRANCH   1  18
HETATM   18  C   UNK N   1      42.116  19.393   2.980  0.00  0.00     0.198 C 
BRANCH  18  19
HETATM   19  O   UNK N   1      41.080  19.844   3.799  0.00  0.00    -0.398 OA
HETATM   20  H   UNK N   1      40.508  20.627   3.747  0.00  0.00     0.209 HD
ENDBRANCH  18  19
ENDBRANCH   1  18
BRANCH   2  21
HETATM   21  O   UNK N   1      45.371  20.178   2.439  0.00  0.00    -0.390 OA
HETATM   22  H   UNK N   1      46.063  20.241   1.762  0.00  0.00     0.210 HD
ENDBRANCH   2  21
TORSDOF 8
ENDMDL
MODEL 3
REMARK VINA RESULT:      -5.1     14.644     16.783
REMARK  8 active torsions:
REMARK  status: ('A' for Active; 'I' for Inactive)
REMARK    1  A    between atoms: C_3  and  C_2 
REMARK    2  A    between atoms: O_11  and  C_2 
REMARK    3  A    between atoms: C_4  and  O_12 
REMARK    4  A    between atoms: C_5  and  O_13 
REMARK    5  A    between atoms: C_6  and  O_14 
REMARK    6  A    between atoms: C_7  and  N_9 
REMARK    7  A    between atoms: C_8  and  O_15 
REMARK    8  A    between atoms: O_16  and  C_8 
ROOT
HETATM    1  C   UNK N   1      21.885  19.282   2.658  0.00  0.00     0.179 C 
HETATM    2  C   UNK N   1      20.469  19.488   2.044  0.00  0.00     0.180 C 
HETATM    3  C   UNK N   1      19.414  18.727   2.867  0.00  0.00     0.182 C 
HETATM    4  C   UNK N   1      19.847  17.299   3.244  0.00  0.00     0.198 C 
HETATM    5  C   UNK N   1      21.343  17.292   3.697  0.00  0.00     0.256 C 
HETATM    6  O   UNK N   1      21.809  18.619   3.915  0.00  0.00    -0.354 OA
ENDROOT
BRANCH   5   7
HETATM    7  N   UNK N   1      21.582  16.507   4.897  0.00  0.00    -0.322 N 
HETATM    8  C   UNK N   1      21.462  16.971   6.096  0.00  0.00     0.259 C 
ATOM      9  HN  UNK N   1      21.861  15.533   4.784  1.00  0.00     0.166 HD
BRANCH   8  10
HETATM   10  O   UNK N   1      21.107  18.257   6.305  0.00  0.00    -0.327 OA
HETATM   11  H   UNK N   1      20.566  18.828   6.816  0.00  0.00     0.221 HD
ENDBRANCH   8  10
BRANCH   8  12
HETATM   12  O   UNK N   1      21.680  16.143   7.144  0.00  0.00    -0.322 OA
HETATM   13  C   UNK N   1      20.811  16.072   8.207  0.00  0.00     0.213 C 
ENDBRANCH   8  12
ENDBRANCH   5   7
BRANCH   4  14
HETATM   14  O   UNK N   1      18.999  16.849   4.262  0.00  0.00    -0.389 OA
HETATM   15  H   UNK N   1      18.934  16.024   4.771  0.00  0.00     0.210 HD
ENDBRANCH   4  14
BRANCH   3  16
HETATM   16  O   UNK N   1      18.173  18.726   2.225  0.00  0.00    -0.390 OA
HETATM   17  H   UNK N   1      17.610  19.516   2.245  0.00  0.00     0.210 HD
ENDBRANCH   3  16
BRANCH   1  18
HETATM   18  C   UNK N   1      22.632  20.601   2.826  0.00  0.00     0.198 C 
BRANCH  18  19
HETATM   19  O   UNK N   1      21.748  21.678   2.735  0.00  0.00    -0.398 OA
HETATM   20  H   UNK N   1      21.011  21.960   3.300  0.00  0.00     0.209 HD
ENDBRANCH  18  19
ENDBRANCH   1  18
BRANCH   2  21
HETATM   21  O   UNK N   1      20.470  19.065   0.712  0.00  0.00    -0.390 OA
HETATM   22  H   UNK N   1      20.110  18.833  -0.159  0.00  0.00     0.210 HD
ENDBRANCH   2  21
TORSDOF 8
ENDMDL
MODEL 4
REMARK VINA RESULT:      -5.1     11.900     15.514
REMARK  8 active torsions:
REMARK  status: ('A' for Active; 'I' for Inactive)
REMARK    1  A    between atoms: C_3  and  C_2 
REMARK    2  A    between atoms: O_11  and  C_2 
REMARK    3  A    between atoms: C_4  and  O_12 
REMARK    4  A    between atoms: C_5  and  O_13 
REMARK    5  A    between atoms: C_6  and  O_14 
REMARK    6  A    between atoms: C_7  and  N_9 
REMARK    7  A    between atoms: C_8  and  O_15 
REMARK    8  A    between atoms: O_16  and  C_8 
ROOT
HETATM    1  C   UNK N   1      21.158  18.524   3.912  0.00  0.00     0.179 C 
HETATM    2  C   UNK N   1      20.589  19.760   3.155  0.00  0.00     0.180 C 
HETATM    3  C   UNK N   1      21.676  20.391   2.267  0.00  0.00     0.182 C 
HETATM    4  C   UNK N   1      23.037  20.530   2.975  0.00  0.00     0.198 C 
HETATM    5  C   UNK N   1      23.352  19.237   3.794  0.00  0.00     0.256 C 
HETATM    6  O   UNK N   1      22.458  18.187   3.441  0.00  0.00    -0.354 OA
ENDROOT
BRANCH   5   7
HETATM    7  N   UNK N   1      24.717  18.766   3.633  0.00  0.00    -0.322 N 
HETATM    8  C   UNK N   1      25.287  17.925   4.430  0.00  0.00     0.259 C 
ATOM      9  HN  UNK N   1      25.257  19.122   2.844  1.00  0.00     0.166 HD
BRANCH   8  10
HETATM   10  O   UNK N   1      24.625  17.430   5.498  0.00  0.00    -0.327 OA
HETATM   11  H   UNK N   1      24.571  16.713   6.100  0.00  0.00     0.221 HD
ENDBRANCH   8  10
BRANCH   8  12
HETATM   12  O   UNK N   1      26.555  17.530   4.169  0.00  0.00    -0.322 OA
HETATM   13  C   UNK N   1      27.627  18.378   4.328  0.00  0.00     0.213 C 
ENDBRANCH   8  12
ENDBRANCH   5   7
BRANCH   4  14
HETATM   14  O   UNK N   1      24.007  20.767   1.994  0.00  0.00    -0.389 OA
HETATM   15  H   UNK N   1      24.273  21.548   1.483  0.00  0.00     0.210 HD
ENDBRANCH   4  14
BRANCH   3  16
HETATM   16  O   UNK N   1      21.255  21.613   1.738  0.00  0.00    -0.390 OA
HETATM   17  H   UNK N   1      21.897  22.319   1.562  0.00  0.00     0.210 HD
ENDBRANCH   3  16
BRANCH   1  18
HETATM   18  C   UNK N   1      20.245  17.310   3.791  0.00  0.00     0.198 C 
BRANCH  18  19
HETATM   19  O   UNK N   1      19.011  17.677   3.253  0.00  0.00    -0.398 OA
HETATM   20  H   UNK N   1      18.754  17.972   2.365  0.00  0.00     0.209 HD
ENDBRANCH  18  19
ENDBRANCH   1  18
BRANCH   2  21
HETATM   21  O   UNK N   1      20.090  20.686   4.075  0.00  0.00    -0.390 OA
HETATM   22  H   UNK N   1      19.619  21.012   4.858  0.00  0.00     0.210 HD
ENDBRANCH   2  21
TORSDOF 8
ENDMDL
MODEL 5
REMARK VINA RESULT:      -5.1      2.083      5.140
REMARK  8 active torsions:
REMARK  status: ('A' for Active; 'I' for Inactive)
REMARK    1  A    between atoms: C_3  and  C_2 
REMARK    2  A    between atoms: O_11  and  C_2 
REMARK    3  A    between atoms: C_4  and  O_12 
REMARK    4  A    between atoms: C_5  and  O_13 
REMARK    5  A    between atoms: C_6  and  O_14 
REMARK    6  A    between atoms: C_7  and  N_9 
REMARK    7  A    between atoms: C_8  and  O_15 
REMARK    8  A    between atoms: O_16  and  C_8 
ROOT
HETATM    1  C   UNK N   1      34.347  16.964   8.083  0.00  0.00     0.179 C 
HETATM    2  C   UNK N   1      33.322  16.194   7.200  0.00  0.00     0.180 C 
HETATM    3  C   UNK N   1      32.680  15.048   8.001  0.00  0.00     0.182 C 
HETATM    4  C   UNK N   1      33.696  14.233   8.822  0.00  0.00     0.198 C 
HETATM    5  C   UNK N   1      34.721  15.189   9.513  0.00  0.00     0.256 C 
HETATM    6  O   UNK N   1      34.277  16.539   9.440  0.00  0.00    -0.354 OA
ENDROOT
BRANCH   5   7
HETATM    7  N   UNK N   1      34.980  14.854  10.903  0.00  0.00    -0.322 N 
HETATM    8  C   UNK N   1      35.988  15.304  11.576  0.00  0.00     0.259 C 
ATOM      9  HN  UNK N   1      34.329  14.227  11.375  1.00  0.00     0.166 HD
BRANCH   8  10
HETATM   10  O   UNK N   1      36.888  16.129  10.999  0.00  0.00    -0.327 OA
HETATM   11  H   UNK N   1      37.513  16.214  10.305  0.00  0.00     0.221 HD
ENDBRANCH   8  10
BRANCH   8  12
HETATM   12  O   UNK N   1      36.117  14.951  12.876  0.00  0.00    -0.322 OA
HETATM   13  C   UNK N   1      36.399  13.659  13.253  0.00  0.00     0.213 C 
ENDBRANCH   8  12
ENDBRANCH   5   7
BRANCH   4  14
HETATM   14  O   UNK N   1      32.981  13.479   9.761  0.00  0.00    -0.389 OA
HETATM   15  H   UNK N   1      33.062  13.343  10.718  0.00  0.00     0.210 HD
ENDBRANCH   4  14
BRANCH   3  16
HETATM   16  O   UNK N   1      31.913  14.219   7.178  0.00  0.00    -0.390 OA
HETATM   17  H   UNK N   1      31.013  13.966   7.439  0.00  0.00     0.210 HD
ENDBRANCH   3  16
BRANCH   1  18
HETATM   18  C   UNK N   1      34.141  18.473   8.013  0.00  0.00     0.198 C 
BRANCH  18  19
HETATM   19  O   UNK N   1      35.268  19.143   8.493  0.00  0.00    -0.398 OA
HETATM   20  H   UNK N   1      35.438  19.609   9.327  0.00  0.00     0.209 HD
ENDBRANCH  18  19
ENDBRANCH   1  18
BRANCH   2  21
HETATM   21  O   UNK N   1      33.960  15.711   6.054  0.00  0.00    -0.390 OA
HETATM   22  H   UNK N   1      34.173  15.624   5.111  0.00  0.00     0.210 HD
ENDBRANCH   2  21
TORSDOF 8
ENDMDL
MODEL 6
REMARK VINA RESULT:      -5.1      4.778      7.823
REMARK  8 active torsions:
REMARK  status: ('A' for Active; 'I' for Inactive)
REMARK    1  A    between atoms: C_3  and  C_2 
REMARK    2  A    between atoms: O_11  and  C_2 
REMARK    3  A    between atoms: C_4  and  O_12 
REMARK    4  A    between atoms: C_5  and  O_13 
REMARK    5  A    between atoms: C_6  and  O_14 
REMARK    6  A    between atoms: C_7  and  N_9 
REMARK    7  A    between atoms: C_8  and  O_15 
REMARK    8  A    between atoms: O_16  and  C_8 
ROOT
HETATM    1  C   UNK N   1      28.858  17.315   5.915  0.00  0.00     0.179 C 
HETATM    2  C   UNK N   1      27.781  17.596   7.004  0.00  0.00     0.180 C 
HETATM    3  C   UNK N   1      28.430  18.238   8.243  0.00  0.00     0.182 C 
HETATM    4  C   UNK N   1      29.742  17.554   8.670  0.00  0.00     0.198 C 
HETATM    5  C   UNK N   1      30.612  17.229   7.414  0.00  0.00     0.256 C 
HETATM    6  O   UNK N   1      30.107  17.899   6.264  0.00  0.00    -0.354 OA
ENDROOT
BRANCH   5   7
HETATM    7  N   UNK N   1      32.016  17.569   7.577  0.00  0.00    -0.322 N 
HETATM    8  C   UNK N   1      32.890  17.491   6.629  0.00  0.00     0.259 C 
ATOM      9  HN  UNK N   1      32.328  17.887   8.494  1.00  0.00     0.166 HD
BRANCH   8  10
HETATM   10  O   UNK N   1      32.535  17.065   5.398  0.00  0.00    -0.327 OA
HETATM   11  H   UNK N   1      31.922  17.177   4.697  0.00  0.00     0.221 HD
ENDBRANCH   8  10
BRANCH   8  12
HETATM   12  O   UNK N   1      34.167  17.863   6.883  0.00  0.00    -0.322 OA
HETATM   13  C   UNK N   1      34.560  18.306   8.124  0.00  0.00     0.213 C 
ENDBRANCH   8  12
ENDBRANCH   5   7
BRANCH   4  14
HETATM   14  O   UNK N   1      30.408  18.416   9.549  0.00  0.00    -0.389 OA
HETATM   15  H   UNK N   1      30.700  18.344  10.472  0.00  0.00     0.210 HD
ENDBRANCH   4  14
BRANCH   3  16
HETATM   16  O   UNK N   1      27.529  18.312   9.309  0.00  0.00    -0.390 OA
HETATM   17  H   UNK N   1      27.832  18.165  10.218  0.00  0.00     0.210 HD
ENDBRANCH   3  16
BRANCH   1  18
HETATM   18  C   UNK N   1      28.427  17.822   4.543  0.00  0.00     0.198 C 
BRANCH  18  19
HETATM   19  O   UNK N   1      28.680  19.190   4.425  0.00  0.00    -0.398 OA
HETATM   20  H   UNK N   1      28.161  19.914   4.041  0.00  0.00     0.209 HD
ENDBRANCH  18  19
ENDBRANCH   1  18
BRANCH   2  21
HETATM   21  O   UNK N   1      27.129  16.405   7.338  0.00  0.00    -0.390 OA
HETATM   22  H   UNK N   1      26.492  15.677   7.265  0.00  0.00     0.210 HD
ENDBRANCH   2  21
TORSDOF 8
ENDMDL
MODEL 7
REMARK VINA RESULT:      -5.1      5.711      8.031
REMARK  8 active torsions:
REMARK  status: ('A' for Active; 'I' for Inactive)
REMARK    1  A    between atoms: C_3  and  C_2 
REMARK    2  A    between atoms: O_11  and  C_2 
REMARK    3  A    between atoms: C_4  and  O_12 
REMARK    4  A    between atoms: C_5  and  O_13 
REMARK    5  A    between atoms: C_6  and  O_14 
REMARK    6  A    between atoms: C_7  and  N_9 
REMARK    7  A    between atoms: C_8  and  O_15 
REMARK    8  A    between atoms: O_16  and  C_8 
ROOT
HETATM    1  C   UNK N   1      28.252  18.285   7.118  0.00  0.00     0.179 C 
HETATM    2  C   UNK N   1      28.314  18.728   8.609  0.00  0.00     0.180 C 
HETATM    3  C   UNK N   1      29.748  18.581   9.151  0.00  0.00     0.182 C 
HETATM    4  C   UNK N   1      30.417  17.253   8.753  0.00  0.00     0.198 C 
HETATM    5  C   UNK N   1      30.112  16.923   7.257  0.00  0.00     0.256 C 
HETATM    6  O   UNK N   1      29.556  18.053   6.595  0.00  0.00    -0.354 OA
ENDROOT
BRANCH   5   7
HETATM    7  N   UNK N   1      31.275  16.468   6.514  0.00  0.00    -0.322 N 
HETATM    8  C   UNK N   1      31.272  16.241   5.242  0.00  0.00     0.259 C 
ATOM      9  HN  UNK N   1      32.144  16.320   7.026  1.00  0.00     0.166 HD
BRANCH   8  10
HETATM   10  O   UNK N   1      30.147  16.409   4.514  0.00  0.00    -0.327 OA
HETATM   11  H   UNK N   1      29.791  16.416   3.646  0.00  0.00     0.221 HD
ENDBRANCH   8  10
BRANCH   8  12
HETATM   12  O   UNK N   1      32.422  15.849   4.644  0.00  0.00    -0.322 OA
HETATM   13  C   UNK N   1      32.621  15.988   3.291  0.00  0.00     0.213 C 
ENDBRANCH   8  12
ENDBRANCH   5   7
BRANCH   4  14
HETATM   14  O   UNK N   1      31.793  17.382   8.981  0.00  0.00    -0.389 OA
HETATM   15  H   UNK N   1      32.333  17.979   9.522  0.00  0.00     0.210 HD
ENDBRANCH   4  14
BRANCH   3  16
HETATM   16  O   UNK N   1      29.791  18.775  10.534  0.00  0.00    -0.390 OA
HETATM   17  H   UNK N   1      30.548  18.455  11.050  0.00  0.00     0.210 HD
ENDBRANCH   3  16
BRANCH   1  18
HETATM   18  C   UNK N   1      27.533  19.310   6.248  0.00  0.00     0.198 C 
BRANCH  18  19
HETATM   19  O   UNK N   1      26.738  20.147   7.033  0.00  0.00    -0.398 OA
HETATM   20  H   UNK N   1      25.897  20.596   6.854  0.00  0.00     0.209 HD
ENDBRANCH  18  19
ENDBRANCH   1  18
BRANCH   2  21
HETATM   21  O   UNK N   1      27.412  17.971   9.361  0.00  0.00    -0.390 OA
HETATM   22  H   UNK N   1      26.621  17.443   9.553  0.00  0.00     0.210 HD
ENDBRANCH   2  21
TORSDOF 8
ENDMDL
MODEL 8
REMARK VINA RESULT:      -5.0     12.129     15.518
REMARK  8 active torsions:
REMARK  status: ('A' for Active; 'I' for Inactive)
REMARK    1  A    between atoms: C_3  and  C_2 
REMARK    2  A    between atoms: O_11  and  C_2 
REMARK    3  A    between atoms: C_4  and  O_12 
REMARK    4  A    between atoms: C_5  and  O_13 
REMARK    5  A    between atoms: C_6  and  O_14 
REMARK    6  A    between atoms: C_7  and  N_9 
REMARK    7  A    between atoms: C_8  and  O_15 
REMARK    8  A    between atoms: O_16  and  C_8 
ROOT
HETATM    1  C   UNK N   1      21.445  19.703   2.182  0.00  0.00     0.179 C 
HETATM    2  C   UNK N   1      20.492  18.764   2.979  0.00  0.00     0.180 C 
HETATM    3  C   UNK N   1      21.062  18.490   4.382  0.00  0.00     0.182 C 
HETATM    4  C   UNK N   1      22.568  18.171   4.378  0.00  0.00     0.198 C 
HETATM    5  C   UNK N   1      23.320  19.136   3.405  0.00  0.00     0.256 C 
HETATM    6  O   UNK N   1      22.477  20.216   3.017  0.00  0.00    -0.354 OA
ENDROOT
BRANCH   5   7
HETATM    7  N   UNK N   1      24.550  19.677   3.960  0.00  0.00    -0.322 N 
HETATM    8  C   UNK N   1      25.372  20.421   3.297  0.00  0.00     0.259 C 
ATOM      9  HN  UNK N   1      24.777  19.454   4.929  1.00  0.00     0.166 HD
BRANCH   8  10
HETATM   10  O   UNK N   1      25.128  20.738   2.007  0.00  0.00    -0.327 OA
HETATM   11  H   UNK N   1      24.456  20.900   1.373  0.00  0.00     0.221 HD
ENDBRANCH   8  10
BRANCH   8  12
HETATM   12  O   UNK N   1      26.475  20.896   3.922  0.00  0.00    -0.322 OA
HETATM   13  C   UNK N   1      26.678  20.719   5.270  0.00  0.00     0.213 C 
ENDBRANCH   8  12
ENDBRANCH   5   7
BRANCH   4  14
HETATM   14  O   UNK N   1      23.037  18.296   5.691  0.00  0.00    -0.389 OA
HETATM   15  H   UNK N   1      23.670  18.889   6.127  0.00  0.00     0.210 HD
ENDBRANCH   4  14
BRANCH   3  16
HETATM   16  O   UNK N   1      20.337  17.493   5.041  0.00  0.00    -0.390 OA
HETATM   17  H   UNK N   1      19.371  17.555   5.110  0.00  0.00     0.210 HD
ENDBRANCH   3  16
BRANCH   1  18
HETATM   18  C   UNK N   1      20.694  20.862   1.536  0.00  0.00     0.198 C 
BRANCH  18  19
HETATM   19  O   UNK N   1      20.602  20.675   0.155  0.00  0.00    -0.398 OA
HETATM   20  H   UNK N   1      21.214  20.281  -0.487  0.00  0.00     0.209 HD
ENDBRANCH  18  19
ENDBRANCH   1  18
BRANCH   2  21
HETATM   21  O   UNK N   1      20.305  17.574   2.271  0.00  0.00    -0.390 OA
HETATM   22  H   UNK N   1      20.094  16.638   2.122  0.00  0.00     0.210 HD
ENDBRANCH   2  21
TORSDOF 8
ENDMDL
MODEL 9
REMARK VINA RESULT:      -4.8      2.793      6.149
REMARK  8 active torsions:
REMARK  status: ('A' for Active; 'I' for Inactive)
REMARK    1  A    between atoms: C_3  and  C_2 
REMARK    2  A    between atoms: O_11  and  C_2 
REMARK    3  A    between atoms: C_4  and  O_12 
REMARK    4  A    between atoms: C_5  and  O_13 
REMARK    5  A    between atoms: C_6  and  O_14 
REMARK    6  A    between atoms: C_7  and  N_9 
REMARK    7  A    between atoms: C_8  and  O_15 
REMARK    8  A    between atoms: O_16  and  C_8 
ROOT
HETATM    1  C   UNK N   1      34.833  14.838  10.936  0.00  0.00     0.179 C 
HETATM    2  C   UNK N   1      36.292  15.002  10.417  0.00  0.00     0.180 C 
HETATM    3  C   UNK N   1      37.113  13.736  10.720  0.00  0.00     0.182 C 
HETATM    4  C   UNK N   1      36.900  13.198  12.146  0.00  0.00     0.198 C 
HETATM    5  C   UNK N   1      35.384  13.253  12.522  0.00  0.00     0.256 C 
HETATM    6  O   UNK N   1      34.589  13.504  11.369  0.00  0.00    -0.354 OA
ENDROOT
BRANCH   5   7
HETATM    7  N   UNK N   1      34.903  12.044  13.170  0.00  0.00    -0.322 N 
HETATM    8  C   UNK N   1      34.454  12.006  14.381  0.00  0.00     0.259 C 
ATOM      9  HN  UNK N   1      34.922  11.175  12.637  1.00  0.00     0.166 HD
BRANCH   8  10
HETATM   10  O   UNK N   1      34.417  13.125  15.137  0.00  0.00    -0.327 OA
HETATM   11  H   UNK N   1      33.855  13.737  15.571  0.00  0.00     0.221 HD
ENDBRANCH   8  10
BRANCH   8  12
HETATM   12  O   UNK N   1      34.002  10.830  14.876  0.00  0.00    -0.322 OA
HETATM   13  C   UNK N   1      34.855   9.888  15.400  0.00  0.00     0.213 C 
ENDBRANCH   8  12
ENDBRANCH   5   7
BRANCH   4  14
HETATM   14  O   UNK N   1      37.393  11.888  12.188  0.00  0.00    -0.389 OA
HETATM   15  H   UNK N   1      37.772  11.332  12.887  0.00  0.00     0.210 HD
ENDBRANCH   4  14
BRANCH   3  16
HETATM   16  O   UNK N   1      38.470  13.934  10.451  0.00  0.00    -0.390 OA
HETATM   17  H   UNK N   1      38.789  14.799  10.150  0.00  0.00     0.210 HD
ENDBRANCH   3  16
BRANCH   1  18
HETATM   18  C   UNK N   1      33.804  15.223   9.878  0.00  0.00     0.198 C 
BRANCH  18  19
HETATM   19  O   UNK N   1      32.510  15.100  10.387  0.00  0.00    -0.398 OA
HETATM   20  H   UNK N   1      31.854  15.763  10.655  0.00  0.00     0.209 HD
ENDBRANCH  18  19
ENDBRANCH   1  18
BRANCH   2  21
HETATM   21  O   UNK N   1      36.873  16.131  11.001  0.00  0.00    -0.390 OA
HETATM   22  H   UNK N   1      37.576  16.737  11.285  0.00  0.00     0.210 HD
ENDBRANCH   2  21
TORSDOF 8
ENDMDL
