MODEL 1
REMARK VINA RESULT:      -6.7      0.000      0.000
REMARK WARNING: 32 MAX_TORS EXCEEDED!!!
REMARK  37 active torsions:
REMARK  status: ('A' for Active; 'I' for Inactive)
REMARK    1  A    between atoms: C_5  and  C_4 
REMARK    2  A    between atoms: C_6  and  C_5 
REMARK    3  A    between atoms: C_10  and  C_6 
REMARK    4  A    between atoms: C_8  and  C_7 
REMARK    5  A    between atoms: C_18  and  C_7 
REMARK    6  A    between atoms: N_32  and  C_8 
REMARK    7  A    between atoms: C_11  and  C_9 
REMARK    8  A    between atoms: N_30  and  C_9 
REMARK    9  A    between atoms: S_61  and  C_10 
REMARK   10  A    between atoms: S_62  and  C_11 
REMARK   11  A    between atoms: C_17  and  C_12 
REMARK   12  A    between atoms: O_53  and  C_12 
REMARK   13  A    between atoms: C_19  and  C_13 
REMARK   14  A    between atoms: S_61  and  C_13 
REMARK   15  A    between atoms: C_28  and  C_14 
REMARK   16  A    between atoms: O_54  and  C_14 
REMARK   17  A    between atoms: N_30  and  C_18 
REMARK   18  A    between atoms: O_41  and  C_18 
REMARK   19  A    between atoms: S_62  and  C_19 
REMARK   20  A    between atoms: C_21  and  O_43 
REMARK   21  A    between atoms: C_22  and  O_56 
REMARK   22  A    between atoms: C_26  and  C_23 
REMARK   23  A    between atoms: C_28  and  C_23 
REMARK   24  A    between atoms: C_23  and  O_44 
REMARK   25  A    between atoms: N_29  and  C_24 
REMARK   26  A    between atoms: N_32  and  C_26 
REMARK   27  A    between atoms: O_45  and  C_26 
REMARK   28  A    between atoms: C_27  and  N_40 
REMARK   29  A    between atoms: P_58  and  O_46 
REMARK   30  A    between atoms: P_58  and  O_47 
REMARK   31  A    between atoms: P_59  and  O_49 
REMARK   32  A    between atoms: P_60  and  O_51 
REMARK   33  A    between atoms: P_59  and  O_53 
REMARK   34  A    between atoms: P_60  and  O_54 
REMARK   35  A    between atoms: P_58  and  O_56 
REMARK   36  A    between atoms: P_59  and  O_57 
REMARK   37  A    between atoms: P_60  and  O_57 
ROOT
HETATM    1  O   UNK N   1      28.694  17.375   5.557  0.00  0.00    -0.195 OA
ENDROOT
BRANCH   1   2
HETATM    2  P   UNK N   1      27.611  16.013   5.697  0.00  0.00     0.401 P 
HETATM    3  O   UNK N   1      27.563  16.835   7.007  0.00  0.00    -0.631 OA
BRANCH   2   4
HETATM    4  O   UNK N   1      27.264  16.895   4.231  0.00  0.00    -0.307 OA
HETATM    5  H   UNK N   1      27.006  17.702   3.762  0.00  0.00     0.222 HD
ENDBRANCH   2   4
BRANCH   2   6
HETATM    6  O   UNK N   1      25.862  16.226   6.027  0.00  0.00    -0.294 OA
BRANCH   6   7
HETATM    7  C   UNK N   1      25.010  16.485   4.916  0.00  0.00     0.215 C 
BRANCH   7   8
HETATM    8  C   UNK N   1      23.928  17.512   5.263  0.00  0.00     0.180 C 
HETATM    9  C   UNK N   1      24.230  18.927   4.705  0.00  0.00     0.197 C 
HETATM   10  C   UNK N   1      23.261  18.997   3.542  0.00  0.00     0.199 C 
HETATM   11  C   UNK N   1      22.104  18.254   4.178  0.00  0.00     0.262 C 
HETATM   12  O   UNK N   1      22.679  17.091   4.727  0.00  0.00    -0.353 OA
BRANCH   9  13
HETATM   13  O   UNK N   1      25.591  19.100   4.298  0.00  0.00    -0.286 OA
BRANCH  13  14
HETATM   14  P   UNK N   1      26.505  20.476   4.982  0.00  0.00     0.391 P 
HETATM   15  O   UNK N   1      27.417  20.297   3.737  0.00  0.00    -0.632 OA
BRANCH  14  16
HETATM   16  O   UNK N   1      28.088  20.050   5.553  0.00  0.00    -0.307 OA
HETATM   17  H   UNK N   1      29.012  20.314   5.423  0.00  0.00     0.222 HD
ENDBRANCH  14  16
BRANCH  14  18
HETATM   18  O   UNK N   1      26.547  19.340   6.288  0.00  0.00    -0.307 OA
HETATM   19  H   UNK N   1      26.093  18.484   6.252  0.00  0.00     0.222 HD
ENDBRANCH  14  18
ENDBRANCH  13  14
ENDBRANCH   9  13
BRANCH  10  20
HETATM   20  O   UNK N   1      22.928  20.314   3.225  0.00  0.00    -0.388 OA
HETATM   21  H   UNK N   1      22.924  20.628   2.307  0.00  0.00     0.210 HD
ENDBRANCH  10  20
BRANCH  11  22
HETATM   22  N   UNK N   1      20.964  17.950   3.302  0.00  0.00    -0.297 N 
HETATM   23  C   UNK N   1      19.915  18.771   3.028  0.00  0.00     0.188 A 
HETATM   24  N   UNK N   1      19.144  18.276   2.019  0.00  0.00    -0.346 N 
HETATM   25  C   UNK N   1      19.743  17.122   1.677  0.00  0.00     0.122 A 
ATOM     26  HN  UNK N   1      18.302  18.687   1.614  1.00  0.00     0.167 HD
HETATM   27  C   UNK N   1      19.436  16.222   0.665  0.00  0.00     0.131 A 
HETATM   28  C   UNK N   1      20.822  16.915   2.457  0.00  0.00     0.142 A 
HETATM   29  N   UNK N   1      20.230  15.119   0.525  0.00  0.00    -0.337 N 
HETATM   30  C   UNK N   1      21.307  14.915   1.352  0.00  0.00     0.183 A 
ATOM     31  HN  UNK N   1      20.019  14.438  -0.205  1.00  0.00     0.168 HD
HETATM   32  N   UNK N   1      21.623  15.834   2.314  0.00  0.00    -0.336 N 
ATOM     33  HN  UNK N   1      22.441  15.708   2.910  1.00  0.00     0.168 HD
BRANCH  27  34
HETATM   34  N   UNK N   1      18.366  16.454  -0.222  0.00  0.00    -0.383 N 
HETATM   35  H   UNK N   1      18.514  16.481  -1.196  0.00  0.00     0.157 HD
HETATM   36  H   UNK N   1      17.459  16.592   0.135  0.00  0.00     0.157 HD
ENDBRANCH  27  34
ENDBRANCH  11  22
ENDBRANCH   7   8
ENDBRANCH   6   7
ENDBRANCH   2   6
ENDBRANCH   1   2
BRANCH   1  37
HETATM   37  P   UNK N   1      30.270  16.745   5.109  0.00  0.00     0.401 P 
HETATM   38  O   UNK N   1      30.063  15.573   4.109  0.00  0.00    -0.631 OA
BRANCH  37  39
HETATM   39  O   UNK N   1      31.179  17.938   4.240  0.00  0.00    -0.307 OA
HETATM   40  H   UNK N   1      31.062  18.822   3.857  0.00  0.00     0.222 HD
ENDBRANCH  37  39
BRANCH  37  41
HETATM   41  O   UNK N   1      31.183  16.116   6.454  0.00  0.00    -0.296 OA
BRANCH  41  42
HETATM   42  C   UNK N   1      32.313  16.934   6.564  0.00  0.00     0.192 C 
BRANCH  42  43
HETATM   43  C   UNK N   1      32.605  17.329   8.015  0.00  0.00     0.008 C 
HETATM   44  C   UNK N   1      33.531  18.534   7.966  0.00  0.00     0.020 C 
HETATM   45  C   UNK N   1      31.324  17.812   8.674  0.00  0.00     0.020 C 
BRANCH  43  46
HETATM   46  C   UNK N   1      33.332  16.195   8.797  0.00  0.00     0.202 C 
BRANCH  46  47
HETATM   47  C   UNK N   1      32.511  14.975   9.192  0.00  0.00     0.141 C 
BRANCH  47  48
HETATM   48  N   UNK N   1      32.366  13.928   8.453  0.00  0.00    -0.372 N 
ATOM     49  HN  UNK N   1      31.487  13.837   7.942  1.00  0.00     0.161 HD
BRANCH  48  50
HETATM   50  C   UNK N   1      33.336  12.874   8.283  0.00  0.00     0.129 C 
BRANCH  50  51
HETATM   51  C   UNK N   1      34.325  13.182   7.154  0.00  0.00     0.103 C 
BRANCH  51  52
HETATM   52  C   UNK N   1      35.671  13.635   7.634  0.00  0.00     0.112 C 
BRANCH  52  53
HETATM   53  N   UNK N   1      35.931  13.604   8.896  0.00  0.00    -0.374 N 
ATOM     54  HN  UNK N   1      35.153  13.478   9.544  1.00  0.00     0.161 HD
BRANCH  53  55
HETATM   55  C   UNK N   1      37.265  13.739   9.444  0.00  0.00     0.132 C 
BRANCH  55  56
HETATM   56  C   UNK N   1      37.409  13.200  10.874  0.00  0.00     0.102 C 
BRANCH  56  57
HETATM   57  S   UNK N   1      35.965  12.248  11.467  0.00  0.00    -0.090 SA
BRANCH  57  58
HETATM   58  C   UNK N   1      35.252  13.628  12.361  0.00  0.00     0.195 C 
HETATM   59  O   UNK N   1      34.448  14.355  11.804  0.00  0.00    -0.285 OA
BRANCH  58  60
HETATM   60  C   UNK N   1      35.694  13.941  13.751  0.00  0.00     0.164 C 
BRANCH  60  61
HETATM   61  S   UNK N   1      35.031  12.739  14.946  0.00  0.00    -0.161 SA
BRANCH  61  62
HETATM   62  C   UNK N   1      35.951  13.455  16.344  0.00  0.00     0.074 C 
BRANCH  62  63
HETATM   63  C   UNK N   1      35.190  13.260  17.642  0.00  0.00     0.010 C 
BRANCH  63  64
HETATM   64  C   UNK N   1      35.314  11.821  18.112  0.00  0.00     0.000 C 
BRANCH  64  65
HETATM   65  C   UNK N   1      35.318  11.753  19.628  0.00  0.00    -0.005 C 
HETATM   66  C   UNK N   1      36.335  10.736  20.109  0.00  0.00     0.005 C 
ENDBRANCH  64  65
ENDBRANCH  63  64
ENDBRANCH  62  63
ENDBRANCH  61  62
ENDBRANCH  60  61
ENDBRANCH  58  60
ENDBRANCH  57  58
ENDBRANCH  56  57
ENDBRANCH  55  56
ENDBRANCH  53  55
ENDBRANCH  52  53
BRANCH  52  67
HETATM   67  O   UNK N   1      36.591  14.071   6.746  0.00  0.00    -0.350 OA
HETATM   68  H   UNK N   1      36.688  14.839   6.219  0.00  0.00     0.219 HD
ENDBRANCH  52  67
ENDBRANCH  51  52
ENDBRANCH  50  51
ENDBRANCH  48  50
ENDBRANCH  47  48
BRANCH  47  69
HETATM   69  O   UNK N   1      31.850  15.017  10.363  0.00  0.00    -0.348 OA
HETATM   70  H   UNK N   1      31.590  15.033  11.264  0.00  0.00     0.219 HD
ENDBRANCH  47  69
ENDBRANCH  46  47
BRANCH  46  71
HETATM   71  O   UNK N   1      33.988  16.705   9.922  0.00  0.00    -0.387 OA
HETATM   72  H   UNK N   1      34.873  17.086  10.036  0.00  0.00     0.210 HD
ENDBRANCH  46  71
ENDBRANCH  43  46
ENDBRANCH  42  43
ENDBRANCH  41  42
ENDBRANCH  37  41
ENDBRANCH   1  37
TORSDOF 37
ENDMDL
MODEL 2
REMARK VINA RESULT:      -6.6      2.914      4.483
REMARK WARNING: 32 MAX_TORS EXCEEDED!!!
REMARK  37 active torsions:
REMARK  status: ('A' for Active; 'I' for Inactive)
REMARK    1  A    between atoms: C_5  and  C_4 
REMARK    2  A    between atoms: C_6  and  C_5 
REMARK    3  A    between atoms: C_10  and  C_6 
REMARK    4  A    between atoms: C_8  and  C_7 
REMARK    5  A    between atoms: C_18  and  C_7 
REMARK    6  A    between atoms: N_32  and  C_8 
REMARK    7  A    between atoms: C_11  and  C_9 
REMARK    8  A    between atoms: N_30  and  C_9 
REMARK    9  A    between atoms: S_61  and  C_10 
REMARK   10  A    between atoms: S_62  and  C_11 
REMARK   11  A    between atoms: C_17  and  C_12 
REMARK   12  A    between atoms: O_53  and  C_12 
REMARK   13  A    between atoms: C_19  and  C_13 
REMARK   14  A    between atoms: S_61  and  C_13 
REMARK   15  A    between atoms: C_28  and  C_14 
REMARK   16  A    between atoms: O_54  and  C_14 
REMARK   17  A    between atoms: N_30  and  C_18 
REMARK   18  A    between atoms: O_41  and  C_18 
REMARK   19  A    between atoms: S_62  and  C_19 
REMARK   20  A    between atoms: C_21  and  O_43 
REMARK   21  A    between atoms: C_22  and  O_56 
REMARK   22  A    between atoms: C_26  and  C_23 
REMARK   23  A    between atoms: C_28  and  C_23 
REMARK   24  A    between atoms: C_23  and  O_44 
REMARK   25  A    between atoms: N_29  and  C_24 
REMARK   26  A    between atoms: N_32  and  C_26 
REMARK   27  A    between atoms: O_45  and  C_26 
REMARK   28  A    between atoms: C_27  and  N_40 
REMARK   29  A    between atoms: P_58  and  O_46 
REMARK   30  A    between atoms: P_58  and  O_47 
REMARK   31  A    between atoms: P_59  and  O_49 
REMARK   32  A    between atoms: P_60  and  O_51 
REMARK   33  A    between atoms: P_59  and  O_53 
REMARK   34  A    between atoms: P_60  and  O_54 
REMARK   35  A    between atoms: P_58  and  O_56 
REMARK   36  A    between atoms: P_59  and  O_57 
REMARK   37  A    between atoms: P_60  and  O_57 
ROOT
HETATM    1  O   UNK N   1      27.047  16.519   6.725  0.00  0.00    -0.195 OA
ENDROOT
BRANCH   1   2
HETATM    2  P   UNK N   1      26.698  15.928   5.119  0.00  0.00     0.401 P 
HETATM    3  O   UNK N   1      26.854  14.725   6.080  0.00  0.00    -0.631 OA
BRANCH   2   4
HETATM    4  O   UNK N   1      25.511  17.121   5.580  0.00  0.00    -0.307 OA
HETATM    5  H   UNK N   1      24.684  17.379   6.016  0.00  0.00     0.222 HD
ENDBRANCH   2   4
BRANCH   2   6
HETATM    6  O   UNK N   1      25.270  14.898   4.781  0.00  0.00    -0.294 OA
BRANCH   6   7
HETATM    7  C   UNK N   1      24.380  14.634   5.861  0.00  0.00     0.215 C 
BRANCH   7   8
HETATM    8  C   UNK N   1      22.944  14.431   5.369  0.00  0.00     0.180 C 
HETATM    9  C   UNK N   1      21.884  14.622   6.485  0.00  0.00     0.197 C 
HETATM   10  C   UNK N   1      21.317  15.979   6.123  0.00  0.00     0.199 C 
HETATM   11  C   UNK N   1      21.359  15.838   4.615  0.00  0.00     0.262 C 
HETATM   12  O   UNK N   1      22.655  15.363   4.332  0.00  0.00    -0.353 OA
BRANCH   9  13
HETATM   13  O   UNK N   1      22.437  14.591   7.805  0.00  0.00    -0.286 OA
BRANCH  13  14
HETATM   14  P   UNK N   1      21.479  13.814   9.100  0.00  0.00     0.391 P 
HETATM   15  O   UNK N   1      20.847  12.998   7.940  0.00  0.00    -0.632 OA
BRANCH  14  16
HETATM   16  O   UNK N   1      19.790  14.203   9.050  0.00  0.00    -0.307 OA
HETATM   17  H   UNK N   1      19.193  14.923   9.309  0.00  0.00     0.222 HD
ENDBRANCH  14  16
BRANCH  14  18
HETATM   18  O   UNK N   1      21.092  15.486   9.329  0.00  0.00    -0.307 OA
HETATM   19  H   UNK N   1      21.435  16.005  10.072  0.00  0.00     0.222 HD
ENDBRANCH  14  18
ENDBRANCH  13  14
ENDBRANCH   9  13
BRANCH  10  20
HETATM   20  O   UNK N   1      20.015  16.140   6.598  0.00  0.00    -0.388 OA
HETATM   21  H   UNK N   1      19.549  16.987   6.519  0.00  0.00     0.210 HD
ENDBRANCH  10  20
BRANCH  11  22
HETATM   22  N   UNK N   1      21.026  17.039   3.837  0.00  0.00    -0.297 N 
HETATM   23  C   UNK N   1      19.789  17.400   3.401  0.00  0.00     0.188 A 
HETATM   24  N   UNK N   1      19.789  18.667   2.898  0.00  0.00    -0.346 N 
HETATM   25  C   UNK N   1      21.061  19.081   3.031  0.00  0.00     0.122 A 
ATOM     26  HN  UNK N   1      19.001  19.185   2.507  1.00  0.00     0.167 HD
HETATM   27  C   UNK N   1      21.634  20.313   2.748  0.00  0.00     0.131 A 
HETATM   28  C   UNK N   1      21.807  18.100   3.576  0.00  0.00     0.142 A 
HETATM   29  N   UNK N   1      22.968  20.472   2.996  0.00  0.00    -0.337 N 
HETATM   30  C   UNK N   1      23.715  19.448   3.524  0.00  0.00     0.183 A 
ATOM     31  HN  UNK N   1      23.415  21.365   2.787  1.00  0.00     0.168 HD
HETATM   32  N   UNK N   1      23.125  18.255   3.841  0.00  0.00    -0.336 N 
ATOM     33  HN  UNK N   1      23.665  17.501   4.266  1.00  0.00     0.168 HD
BRANCH  27  34
HETATM   34  N   UNK N   1      20.862  21.385   2.259  0.00  0.00    -0.383 N 
HETATM   35  H   UNK N   1      21.292  22.194   1.897  0.00  0.00     0.157 HD
HETATM   36  H   UNK N   1      19.880  21.326   2.279  0.00  0.00     0.157 HD
ENDBRANCH  27  34
ENDBRANCH  11  22
ENDBRANCH   7   8
ENDBRANCH   6   7
ENDBRANCH   2   6
ENDBRANCH   1   2
BRANCH   1  37
HETATM   37  P   UNK N   1      28.023  17.967   6.547  0.00  0.00     0.401 P 
HETATM   38  O   UNK N   1      28.320  18.175   5.035  0.00  0.00    -0.631 OA
BRANCH  37  39
HETATM   39  O   UNK N   1      27.131  19.369   7.040  0.00  0.00    -0.307 OA
HETATM   40  H   UNK N   1      27.287  20.293   7.291  0.00  0.00     0.222 HD
ENDBRANCH  37  39
BRANCH  37  41
HETATM   41  O   UNK N   1      29.561  17.882   7.364  0.00  0.00    -0.296 OA
BRANCH  41  42
HETATM   42  C   UNK N   1      30.182  16.723   6.887  0.00  0.00     0.192 C 
BRANCH  42  43
HETATM   43  C   UNK N   1      31.711  16.814   6.954  0.00  0.00     0.008 C 
HETATM   44  C   UNK N   1      32.226  15.405   7.199  0.00  0.00     0.020 C 
HETATM   45  C   UNK N   1      32.251  17.228   5.596  0.00  0.00     0.020 C 
BRANCH  43  46
HETATM   46  C   UNK N   1      32.193  17.715   8.131  0.00  0.00     0.202 C 
BRANCH  46  47
HETATM   47  C   UNK N   1      33.680  17.705   8.459  0.00  0.00     0.141 C 
BRANCH  47  48
HETATM   48  N   UNK N   1      34.162  17.457   9.630  0.00  0.00    -0.372 N 
ATOM     49  HN  UNK N   1      33.698  17.893  10.426  1.00  0.00     0.161 HD
BRANCH  48  50
HETATM   50  C   UNK N   1      35.300  16.616   9.912  0.00  0.00     0.129 C 
BRANCH  50  51
HETATM   51  C   UNK N   1      35.020  15.145   9.586  0.00  0.00     0.103 C 
BRANCH  51  52
HETATM   52  C   UNK N   1      34.056  14.489  10.527  0.00  0.00     0.112 C 
BRANCH  52  53
HETATM   53  N   UNK N   1      34.305  13.298  10.952  0.00  0.00    -0.374 N 
ATOM     54  HN  UNK N   1      33.613  12.569  10.776  1.00  0.00     0.161 HD
BRANCH  53  55
HETATM   55  C   UNK N   1      35.513  12.937  11.665  0.00  0.00     0.132 C 
BRANCH  55  56
HETATM   56  C   UNK N   1      35.443  13.187  13.177  0.00  0.00     0.102 C 
BRANCH  56  57
HETATM   57  S   UNK N   1      34.629  11.850  14.123  0.00  0.00    -0.090 SA
BRANCH  57  58
HETATM   58  C   UNK N   1      35.969  11.686  15.302  0.00  0.00     0.195 C 
HETATM   59  O   UNK N   1      37.109  11.534  14.900  0.00  0.00    -0.285 OA
BRANCH  58  60
HETATM   60  C   UNK N   1      35.691  11.656  16.768  0.00  0.00     0.164 C 
BRANCH  60  61
HETATM   61  S   UNK N   1      36.088  10.031  17.485  0.00  0.00    -0.161 SA
BRANCH  61  62
HETATM   62  C   UNK N   1      34.837  10.182  18.799  0.00  0.00     0.074 C 
BRANCH  62  63
HETATM   63  C   UNK N   1      34.353   8.813  19.239  0.00  0.00     0.010 C 
BRANCH  63  64
HETATM   64  C   UNK N   1      32.844   8.822  19.414  0.00  0.00     0.000 C 
BRANCH  64  65
HETATM   65  C   UNK N   1      32.418   7.774  20.426  0.00  0.00    -0.005 C 
HETATM   66  C   UNK N   1      30.991   7.335  20.165  0.00  0.00     0.005 C 
ENDBRANCH  64  65
ENDBRANCH  63  64
ENDBRANCH  62  63
ENDBRANCH  61  62
ENDBRANCH  60  61
ENDBRANCH  58  60
ENDBRANCH  57  58
ENDBRANCH  56  57
ENDBRANCH  55  56
ENDBRANCH  53  55
ENDBRANCH  52  53
BRANCH  52  67
HETATM   67  O   UNK N   1      32.941  15.146  10.915  0.00  0.00    -0.350 OA
HETATM   68  H   UNK N   1      32.483  15.246  11.726  0.00  0.00     0.219 HD
ENDBRANCH  52  67
ENDBRANCH  51  52
ENDBRANCH  50  51
ENDBRANCH  48  50
ENDBRANCH  47  48
BRANCH  47  69
HETATM   69  O   UNK N   1      34.541  18.029   7.478  0.00  0.00    -0.348 OA
HETATM   70  H   UNK N   1      35.265  18.324   6.960  0.00  0.00     0.219 HD
ENDBRANCH  47  69
ENDBRANCH  46  47
BRANCH  46  71
HETATM   71  O   UNK N   1      31.453  17.461   9.290  0.00  0.00    -0.387 OA
HETATM   72  H   UNK N   1      30.797  17.994   9.767  0.00  0.00     0.210 HD
ENDBRANCH  46  71
ENDBRANCH  43  46
ENDBRANCH  42  43
ENDBRANCH  41  42
ENDBRANCH  37  41
ENDBRANCH   1  37
TORSDOF 37
ENDMDL
MODEL 3
REMARK VINA RESULT:      -6.3      5.688      9.883
REMARK WARNING: 32 MAX_TORS EXCEEDED!!!
REMARK  37 active torsions:
REMARK  status: ('A' for Active; 'I' for Inactive)
REMARK    1  A    between atoms: C_5  and  C_4 
REMARK    2  A    between atoms: C_6  and  C_5 
REMARK    3  A    between atoms: C_10  and  C_6 
REMARK    4  A    between atoms: C_8  and  C_7 
REMARK    5  A    between atoms: C_18  and  C_7 
REMARK    6  A    between atoms: N_32  and  C_8 
REMARK    7  A    between atoms: C_11  and  C_9 
REMARK    8  A    between atoms: N_30  and  C_9 
REMARK    9  A    between atoms: S_61  and  C_10 
REMARK   10  A    between atoms: S_62  and  C_11 
REMARK   11  A    between atoms: C_17  and  C_12 
REMARK   12  A    between atoms: O_53  and  C_12 
REMARK   13  A    between atoms: C_19  and  C_13 
REMARK   14  A    between atoms: S_61  and  C_13 
REMARK   15  A    between atoms: C_28  and  C_14 
REMARK   16  A    between atoms: O_54  and  C_14 
REMARK   17  A    between atoms: N_30  and  C_18 
REMARK   18  A    between atoms: O_41  and  C_18 
REMARK   19  A    between atoms: S_62  and  C_19 
REMARK   20  A    between atoms: C_21  and  O_43 
REMARK   21  A    between atoms: C_22  and  O_56 
REMARK   22  A    between atoms: C_26  and  C_23 
REMARK   23  A    between atoms: C_28  and  C_23 
REMARK   24  A    between atoms: C_23  and  O_44 
REMARK   25  A    between atoms: N_29  and  C_24 
REMARK   26  A    between atoms: N_32  and  C_26 
REMARK   27  A    between atoms: O_45  and  C_26 
REMARK   28  A    between atoms: C_27  and  N_40 
REMARK   29  A    between atoms: P_58  and  O_46 
REMARK   30  A    between atoms: P_58  and  O_47 
REMARK   31  A    between atoms: P_59  and  O_49 
REMARK   32  A    between atoms: P_60  and  O_51 
REMARK   33  A    between atoms: P_59  and  O_53 
REMARK   34  A    between atoms: P_60  and  O_54 
REMARK   35  A    between atoms: P_58  and  O_56 
REMARK   36  A    between atoms: P_59  and  O_57 
REMARK   37  A    between atoms: P_60  and  O_57 
ROOT
HETATM    1  O   UNK N   1      35.142  13.873  11.364  0.00  0.00    -0.195 OA
ENDROOT
BRANCH   1   2
HETATM    2  P   UNK N   1      35.068  15.600  11.116  0.00  0.00     0.401 P 
HETATM    3  O   UNK N   1      36.197  15.009  10.238  0.00  0.00    -0.631 OA
BRANCH   2   4
HETATM    4  O   UNK N   1      33.484  14.902  10.891  0.00  0.00    -0.307 OA
HETATM    5  H   UNK N   1      32.838  14.401  10.369  0.00  0.00     0.222 HD
ENDBRANCH   2   4
BRANCH   2   6
HETATM    6  O   UNK N   1      34.790  16.309   9.493  0.00  0.00    -0.294 OA
BRANCH   6   7
HETATM    7  C   UNK N   1      33.442  16.437   9.054  0.00  0.00     0.215 C 
BRANCH   7   8
HETATM    8  C   UNK N   1      33.313  16.183   7.549  0.00  0.00     0.180 C 
HETATM    9  C   UNK N   1      32.757  14.774   7.215  0.00  0.00     0.197 C 
HETATM   10  C   UNK N   1      31.338  15.109   6.804  0.00  0.00     0.199 C 
HETATM   11  C   UNK N   1      31.620  16.413   6.087  0.00  0.00     0.262 C 
HETATM   12  O   UNK N   1      32.435  17.144   6.974  0.00  0.00    -0.353 OA
BRANCH   9  13
HETATM   13  O   UNK N   1      32.809  13.865   8.319  0.00  0.00    -0.286 OA
BRANCH  13  14
HETATM   14  P   UNK N   1      33.643  12.301   8.082  0.00  0.00     0.391 P 
HETATM   15  O   UNK N   1      32.657  11.780   9.164  0.00  0.00    -0.632 OA
BRANCH  14  16
HETATM   16  O   UNK N   1      34.587  11.798   9.448  0.00  0.00    -0.307 OA
HETATM   17  H   UNK N   1      34.492  11.684  10.406  0.00  0.00     0.222 HD
ENDBRANCH  14  16
BRANCH  14  18
HETATM   18  O   UNK N   1      34.960  13.343   8.504  0.00  0.00    -0.307 OA
HETATM   19  H   UNK N   1      34.879  14.047   9.166  0.00  0.00     0.222 HD
ENDBRANCH  14  18
ENDBRANCH  13  14
ENDBRANCH   9  13
BRANCH  10  20
HETATM   20  O   UNK N   1      30.806  14.144   5.947  0.00  0.00    -0.388 OA
HETATM   21  H   UNK N   1      30.311  13.383   6.288  0.00  0.00     0.210 HD
ENDBRANCH  10  20
BRANCH  11  22
HETATM   22  N   UNK N   1      30.449  17.184   5.647  0.00  0.00    -0.297 N 
HETATM   23  C   UNK N   1      29.943  17.230   4.385  0.00  0.00     0.188 A 
HETATM   24  N   UNK N   1      28.734  17.861   4.357  0.00  0.00    -0.346 N 
HETATM   25  C   UNK N   1      28.507  18.207   5.636  0.00  0.00     0.122 A 
ATOM     26  HN  UNK N   1      28.136  18.034   3.548  1.00  0.00     0.167 HD
HETATM   27  C   UNK N   1      27.403  18.818   6.215  0.00  0.00     0.131 A 
HETATM   28  C   UNK N   1      29.542  17.819   6.407  0.00  0.00     0.142 A 
HETATM   29  N   UNK N   1      27.427  19.045   7.561  0.00  0.00    -0.337 N 
HETATM   30  C   UNK N   1      28.506  18.667   8.322  0.00  0.00     0.183 A 
ATOM     31  HN  UNK N   1      26.631  19.501   8.008  1.00  0.00     0.168 HD
HETATM   32  N   UNK N   1      29.567  18.025   7.744  0.00  0.00    -0.336 N 
ATOM     33  HN  UNK N   1      30.358  17.710   8.307  1.00  0.00     0.168 HD
BRANCH  27  34
HETATM   34  N   UNK N   1      26.269  19.157   5.449  0.00  0.00    -0.383 N 
HETATM   35  H   UNK N   1      25.407  19.352   5.883  0.00  0.00     0.157 HD
HETATM   36  H   UNK N   1      26.339  19.198   4.468  0.00  0.00     0.157 HD
ENDBRANCH  27  34
ENDBRANCH  11  22
ENDBRANCH   7   8
ENDBRANCH   6   7
ENDBRANCH   2   6
ENDBRANCH   1   2
BRANCH   1  37
HETATM   37  P   UNK N   1      36.046  13.597  12.844  0.00  0.00     0.401 P 
HETATM   38  O   UNK N   1      37.220  12.629  12.527  0.00  0.00    -0.631 OA
BRANCH  37  39
HETATM   39  O   UNK N   1      36.791  15.065  13.387  0.00  0.00    -0.307 OA
HETATM   40  H   UNK N   1      37.532  15.356  13.943  0.00  0.00     0.222 HD
ENDBRANCH  37  39
BRANCH  37  41
HETATM   41  O   UNK N   1      35.105  12.864  14.115  0.00  0.00    -0.296 OA
BRANCH  41  42
HETATM   42  C   UNK N   1      35.672  11.603  14.331  0.00  0.00     0.192 C 
BRANCH  42  43
HETATM   43  C   UNK N   1      34.636  10.477  14.247  0.00  0.00     0.008 C 
HETATM   44  C   UNK N   1      35.180   9.316  15.063  0.00  0.00     0.020 C 
HETATM   45  C   UNK N   1      33.358  10.915  14.941  0.00  0.00     0.020 C 
BRANCH  43  46
HETATM   46  C   UNK N   1      34.427   9.982  12.784  0.00  0.00     0.202 C 
BRANCH  46  47
HETATM   47  C   UNK N   1      35.639   9.425  12.051  0.00  0.00     0.141 C 
BRANCH  47  48
HETATM   48  N   UNK N   1      36.324  10.083  11.177  0.00  0.00    -0.372 N 
ATOM     49  HN  UNK N   1      36.229  11.098  11.181  1.00  0.00     0.161 HD
BRANCH  48  50
HETATM   50  C   UNK N   1      37.212   9.509  10.195  0.00  0.00     0.129 C 
BRANCH  50  51
HETATM   51  C   UNK N   1      38.474  10.358  10.000  0.00  0.00     0.103 C 
BRANCH  51  52
HETATM   52  C   UNK N   1      38.253  11.590   9.177  0.00  0.00     0.112 C 
BRANCH  52  53
HETATM   53  N   UNK N   1      38.941  11.758   8.100  0.00  0.00    -0.374 N 
ATOM     54  HN  UNK N   1      38.569  11.380   7.228  1.00  0.00     0.161 HD
BRANCH  53  55
HETATM   55  C   UNK N   1      40.211  12.454   8.060  0.00  0.00     0.132 C 
BRANCH  55  56
HETATM   56  C   UNK N   1      41.162  11.952   6.965  0.00  0.00     0.102 C 
BRANCH  56  57
HETATM   57  S   UNK N   1      40.563  12.239   5.260  0.00  0.00    -0.090 SA
BRANCH  57  58
HETATM   58  C   UNK N   1      40.360  14.005   5.486  0.00  0.00     0.195 C 
HETATM   59  O   UNK N   1      41.277  14.662   5.947  0.00  0.00    -0.285 OA
BRANCH  58  60
HETATM   60  C   UNK N   1      39.054  14.664   5.189  0.00  0.00     0.164 C 
BRANCH  60  61
HETATM   61  S   UNK N   1      37.795  13.448   4.690  0.00  0.00    -0.161 SA
BRANCH  61  62
HETATM   62  C   UNK N   1      36.454  14.314   5.566  0.00  0.00     0.074 C 
BRANCH  62  63
HETATM   63  C   UNK N   1      35.188  14.328   4.730  0.00  0.00     0.010 C 
BRANCH  63  64
HETATM   64  C   UNK N   1      35.368  13.465   3.492  0.00  0.00     0.000 C 
BRANCH  64  65
HETATM   65  C   UNK N   1      34.684  14.100   2.295  0.00  0.00    -0.005 C 
HETATM   66  C   UNK N   1      35.577  14.025   1.073  0.00  0.00     0.005 C 
ENDBRANCH  64  65
ENDBRANCH  63  64
ENDBRANCH  62  63
ENDBRANCH  61  62
ENDBRANCH  60  61
ENDBRANCH  58  60
ENDBRANCH  57  58
ENDBRANCH  56  57
ENDBRANCH  55  56
ENDBRANCH  53  55
ENDBRANCH  52  53
BRANCH  52  67
HETATM   67  O   UNK N   1      37.343  12.509   9.571  0.00  0.00    -0.350 OA
HETATM   68  H   UNK N   1      36.993  13.293   9.197  0.00  0.00     0.219 HD
ENDBRANCH  52  67
ENDBRANCH  51  52
ENDBRANCH  50  51
ENDBRANCH  48  50
ENDBRANCH  47  48
BRANCH  47  69
HETATM   69  O   UNK N   1      35.984   8.147  12.290  0.00  0.00    -0.348 OA
HETATM   70  H   UNK N   1      36.372   7.347  12.588  0.00  0.00     0.219 HD
ENDBRANCH  47  69
ENDBRANCH  46  47
BRANCH  46  71
HETATM   71  O   UNK N   1      33.818  10.971  12.005  0.00  0.00    -0.387 OA
HETATM   72  H   UNK N   1      34.181  11.742  11.541  0.00  0.00     0.210 HD
ENDBRANCH  46  71
ENDBRANCH  43  46
ENDBRANCH  42  43
ENDBRANCH  41  42
ENDBRANCH  37  41
ENDBRANCH   1  37
TORSDOF 37
ENDMDL
MODEL 4
REMARK VINA RESULT:      -6.3      2.682      4.245
REMARK WARNING: 32 MAX_TORS EXCEEDED!!!
REMARK  37 active torsions:
REMARK  status: ('A' for Active; 'I' for Inactive)
REMARK    1  A    between atoms: C_5  and  C_4 
REMARK    2  A    between atoms: C_6  and  C_5 
REMARK    3  A    between atoms: C_10  and  C_6 
REMARK    4  A    between atoms: C_8  and  C_7 
REMARK    5  A    between atoms: C_18  and  C_7 
REMARK    6  A    between atoms: N_32  and  C_8 
REMARK    7  A    between atoms: C_11  and  C_9 
REMARK    8  A    between atoms: N_30  and  C_9 
REMARK    9  A    between atoms: S_61  and  C_10 
REMARK   10  A    between atoms: S_62  and  C_11 
REMARK   11  A    between atoms: C_17  and  C_12 
REMARK   12  A    between atoms: O_53  and  C_12 
REMARK   13  A    between atoms: C_19  and  C_13 
REMARK   14  A    between atoms: S_61  and  C_13 
REMARK   15  A    between atoms: C_28  and  C_14 
REMARK   16  A    between atoms: O_54  and  C_14 
REMARK   17  A    between atoms: N_30  and  C_18 
REMARK   18  A    between atoms: O_41  and  C_18 
REMARK   19  A    between atoms: S_62  and  C_19 
REMARK   20  A    between atoms: C_21  and  O_43 
REMARK   21  A    between atoms: C_22  and  O_56 
REMARK   22  A    between atoms: C_26  and  C_23 
REMARK   23  A    between atoms: C_28  and  C_23 
REMARK   24  A    between atoms: C_23  and  O_44 
REMARK   25  A    between atoms: N_29  and  C_24 
REMARK   26  A    between atoms: N_32  and  C_26 
REMARK   27  A    between atoms: O_45  and  C_26 
REMARK   28  A    between atoms: C_27  and  N_40 
REMARK   29  A    between atoms: P_58  and  O_46 
REMARK   30  A    between atoms: P_58  and  O_47 
REMARK   31  A    between atoms: P_59  and  O_49 
REMARK   32  A    between atoms: P_60  and  O_51 
REMARK   33  A    between atoms: P_59  and  O_53 
REMARK   34  A    between atoms: P_60  and  O_54 
REMARK   35  A    between atoms: P_58  and  O_56 
REMARK   36  A    between atoms: P_59  and  O_57 
REMARK   37  A    between atoms: P_60  and  O_57 
ROOT
HETATM    1  O   UNK N   1      27.205  16.496   6.767  0.00  0.00    -0.195 OA
ENDROOT
BRANCH   1   2
HETATM    2  P   UNK N   1      26.818  15.940   5.158  0.00  0.00     0.401 P 
HETATM    3  O   UNK N   1      26.882  14.725   6.113  0.00  0.00    -0.631 OA
BRANCH   2   4
HETATM    4  O   UNK N   1      25.721  17.216   5.622  0.00  0.00    -0.307 OA
HETATM    5  H   UNK N   1      24.830  17.594   5.689  0.00  0.00     0.222 HD
ENDBRANCH   2   4
BRANCH   2   6
HETATM    6  O   UNK N   1      25.319  15.020   4.812  0.00  0.00    -0.294 OA
BRANCH   6   7
HETATM    7  C   UNK N   1      24.987  13.950   5.690  0.00  0.00     0.215 C 
BRANCH   7   8
HETATM    8  C   UNK N   1      23.538  13.492   5.498  0.00  0.00     0.180 C 
HETATM    9  C   UNK N   1      22.701  13.555   6.802  0.00  0.00     0.197 C 
HETATM   10  C   UNK N   1      21.853  14.784   6.548  0.00  0.00     0.199 C 
HETATM   11  C   UNK N   1      21.622  14.587   5.064  0.00  0.00     0.262 C 
HETATM   12  O   UNK N   1      22.899  14.320   4.532  0.00  0.00    -0.353 OA
BRANCH   9  13
HETATM   13  O   UNK N   1      23.499  13.672   7.984  0.00  0.00    -0.286 OA
BRANCH  13  14
HETATM   14  P   UNK N   1      23.199  12.520   9.319  0.00  0.00     0.391 P 
HETATM   15  O   UNK N   1      22.268  13.633   9.873  0.00  0.00    -0.632 OA
BRANCH  14  16
HETATM   16  O   UNK N   1      23.850  13.030  10.844  0.00  0.00    -0.307 OA
HETATM   17  H   UNK N   1      23.801  12.790  11.782  0.00  0.00     0.222 HD
ENDBRANCH  14  16
BRANCH  14  18
HETATM   18  O   UNK N   1      24.921  12.686   9.377  0.00  0.00    -0.307 OA
HETATM   19  H   UNK N   1      25.422  13.177   8.708  0.00  0.00     0.222 HD
ENDBRANCH  14  18
ENDBRANCH  13  14
ENDBRANCH   9  13
BRANCH  10  20
HETATM   20  O   UNK N   1      20.661  14.749   7.273  0.00  0.00    -0.388 OA
HETATM   21  H   UNK N   1      20.448  14.007   7.862  0.00  0.00     0.210 HD
ENDBRANCH  10  20
BRANCH  11  22
HETATM   22  N   UNK N   1      20.944  15.683   4.357  0.00  0.00    -0.297 N 
HETATM   23  C   UNK N   1      19.620  15.750   4.056  0.00  0.00     0.188 A 
HETATM   24  N   UNK N   1      19.277  16.986   3.592  0.00  0.00    -0.346 N 
HETATM   25  C   UNK N   1      20.428  17.681   3.611  0.00  0.00     0.122 A 
ATOM     26  HN  UNK N   1      18.356  17.311   3.296  1.00  0.00     0.167 HD
HETATM   27  C   UNK N   1      20.672  19.014   3.307  0.00  0.00     0.131 A 
HETATM   28  C   UNK N   1      21.430  16.896   4.051  0.00  0.00     0.142 A 
HETATM   29  N   UNK N   1      21.952  19.475   3.426  0.00  0.00    -0.337 N 
HETATM   30  C   UNK N   1      22.964  18.648   3.848  0.00  0.00     0.183 A 
ATOM     31  HN  UNK N   1      22.159  20.448   3.199  1.00  0.00     0.168 HD
HETATM   32  N   UNK N   1      22.699  17.350   4.188  0.00  0.00    -0.336 N 
ATOM     33  HN  UNK N   1      23.437  16.738   4.535  1.00  0.00     0.168 HD
BRANCH  27  34
HETATM   34  N   UNK N   1      19.628  19.881   2.927  0.00  0.00    -0.383 N 
HETATM   35  H   UNK N   1      19.370  19.977   1.982  0.00  0.00     0.157 HD
HETATM   36  H   UNK N   1      19.151  20.399   3.616  0.00  0.00     0.157 HD
ENDBRANCH  27  34
ENDBRANCH  11  22
ENDBRANCH   7   8
ENDBRANCH   6   7
ENDBRANCH   2   6
ENDBRANCH   1   2
BRANCH   1  37
HETATM   37  P   UNK N   1      28.125  17.983   6.598  0.00  0.00     0.401 P 
HETATM   38  O   UNK N   1      28.261  18.304   5.083  0.00  0.00    -0.631 OA
BRANCH  37  39
HETATM   39  O   UNK N   1      27.255  19.319   7.277  0.00  0.00    -0.307 OA
HETATM   40  H   UNK N   1      26.886  20.174   7.006  0.00  0.00     0.222 HD
ENDBRANCH  37  39
BRANCH  37  41
HETATM   41  O   UNK N   1      29.739  17.887   7.250  0.00  0.00    -0.296 OA
BRANCH  41  42
HETATM   42  C   UNK N   1      30.396  16.906   6.499  0.00  0.00     0.192 C 
BRANCH  42  43
HETATM   43  C   UNK N   1      31.907  16.897   6.751  0.00  0.00     0.008 C 
HETATM   44  C   UNK N   1      32.319  15.442   6.913  0.00  0.00     0.020 C 
HETATM   45  C   UNK N   1      32.628  17.401   5.513  0.00  0.00     0.020 C 
BRANCH  43  46
HETATM   46  C   UNK N   1      32.288  17.653   8.059  0.00  0.00     0.202 C 
BRANCH  46  47
HETATM   47  C   UNK N   1      33.769  17.802   8.379  0.00  0.00     0.141 C 
BRANCH  47  48
HETATM   48  N   UNK N   1      34.289  17.560   9.534  0.00  0.00    -0.372 N 
ATOM     49  HN  UNK N   1      34.014  18.169  10.305  1.00  0.00     0.161 HD
BRANCH  48  50
HETATM   50  C   UNK N   1      35.227  16.504   9.834  0.00  0.00     0.129 C 
BRANCH  50  51
HETATM   51  C   UNK N   1      34.794  15.166   9.225  0.00  0.00     0.103 C 
BRANCH  51  52
HETATM   52  C   UNK N   1      33.876  14.370  10.103  0.00  0.00     0.112 C 
BRANCH  52  53
HETATM   53  N   UNK N   1      33.867  13.085  10.002  0.00  0.00    -0.374 N 
ATOM     54  HN  UNK N   1      33.086  12.646   9.514  1.00  0.00     0.161 HD
BRANCH  53  55
HETATM   55  C   UNK N   1      34.905  12.230  10.542  0.00  0.00     0.132 C 
BRANCH  55  56
HETATM   56  C   UNK N   1      36.329  12.683  10.193  0.00  0.00     0.102 C 
BRANCH  56  57
HETATM   57  S   UNK N   1      37.567  12.341  11.496  0.00  0.00    -0.090 SA
BRANCH  57  58
HETATM   58  C   UNK N   1      36.778  13.397  12.710  0.00  0.00     0.195 C 
HETATM   59  O   UNK N   1      36.487  14.543  12.412  0.00  0.00    -0.285 OA
BRANCH  58  60
HETATM   60  C   UNK N   1      36.547  12.913  14.102  0.00  0.00     0.164 C 
BRANCH  60  61
HETATM   61  S   UNK N   1      36.924  14.206  15.326  0.00  0.00    -0.161 SA
BRANCH  61  62
HETATM   62  C   UNK N   1      35.830  13.484  16.589  0.00  0.00     0.074 C 
BRANCH  62  63
HETATM   63  C   UNK N   1      34.701  12.706  15.939  0.00  0.00     0.010 C 
BRANCH  63  64
HETATM   64  C   UNK N   1      34.579  11.331  16.573  0.00  0.00     0.000 C 
BRANCH  64  65
HETATM   65  C   UNK N   1      34.540  10.253  15.506  0.00  0.00    -0.005 C 
HETATM   66  C   UNK N   1      33.609  10.657  14.380  0.00  0.00     0.005 C 
ENDBRANCH  64  65
ENDBRANCH  63  64
ENDBRANCH  62  63
ENDBRANCH  61  62
ENDBRANCH  60  61
ENDBRANCH  58  60
ENDBRANCH  57  58
ENDBRANCH  56  57
ENDBRANCH  55  56
ENDBRANCH  53  55
ENDBRANCH  52  53
BRANCH  52  67
HETATM   67  O   UNK N   1      33.071  15.002  10.985  0.00  0.00    -0.350 OA
HETATM   68  H   UNK N   1      32.631  15.829  11.001  0.00  0.00     0.219 HD
ENDBRANCH  52  67
ENDBRANCH  51  52
ENDBRANCH  50  51
ENDBRANCH  48  50
ENDBRANCH  47  48
BRANCH  47  69
HETATM   69  O   UNK N   1      34.577  18.267   7.409  0.00  0.00    -0.348 OA
HETATM   70  H   UNK N   1      35.207  18.727   6.889  0.00  0.00     0.219 HD
ENDBRANCH  47  69
ENDBRANCH  46  47
BRANCH  46  71
HETATM   71  O   UNK N   1      31.620  17.111   9.162  0.00  0.00    -0.387 OA
HETATM   72  H   UNK N   1      31.352  17.499  10.010  0.00  0.00     0.210 HD
ENDBRANCH  46  71
ENDBRANCH  43  46
ENDBRANCH  42  43
ENDBRANCH  41  42
ENDBRANCH  37  41
ENDBRANCH   1  37
TORSDOF 37
ENDMDL
MODEL 5
REMARK VINA RESULT:      -6.2      5.167      8.097
REMARK WARNING: 32 MAX_TORS EXCEEDED!!!
REMARK  37 active torsions:
REMARK  status: ('A' for Active; 'I' for Inactive)
REMARK    1  A    between atoms: C_5  and  C_4 
REMARK    2  A    between atoms: C_6  and  C_5 
REMARK    3  A    between atoms: C_10  and  C_6 
REMARK    4  A    between atoms: C_8  and  C_7 
REMARK    5  A    between atoms: C_18  and  C_7 
REMARK    6  A    between atoms: N_32  and  C_8 
REMARK    7  A    between atoms: C_11  and  C_9 
REMARK    8  A    between atoms: N_30  and  C_9 
REMARK    9  A    between atoms: S_61  and  C_10 
REMARK   10  A    between atoms: S_62  and  C_11 
REMARK   11  A    between atoms: C_17  and  C_12 
REMARK   12  A    between atoms: O_53  and  C_12 
REMARK   13  A    between atoms: C_19  and  C_13 
REMARK   14  A    between atoms: S_61  and  C_13 
REMARK   15  A    between atoms: C_28  and  C_14 
REMARK   16  A    between atoms: O_54  and  C_14 
REMARK   17  A    between atoms: N_30  and  C_18 
REMARK   18  A    between atoms: O_41  and  C_18 
REMARK   19  A    between atoms: S_62  and  C_19 
REMARK   20  A    between atoms: C_21  and  O_43 
REMARK   21  A    between atoms: C_22  and  O_56 
REMARK   22  A    between atoms: C_26  and  C_23 
REMARK   23  A    between atoms: C_28  and  C_23 
REMARK   24  A    between atoms: C_23  and  O_44 
REMARK   25  A    between atoms: N_29  and  C_24 
REMARK   26  A    between atoms: N_32  and  C_26 
REMARK   27  A    between atoms: O_45  and  C_26 
REMARK   28  A    between atoms: C_27  and  N_40 
REMARK   29  A    between atoms: P_58  and  O_46 
REMARK   30  A    between atoms: P_58  and  O_47 
REMARK   31  A    between atoms: P_59  and  O_49 
REMARK   32  A    between atoms: P_60  and  O_51 
REMARK   33  A    between atoms: P_59  and  O_53 
REMARK   34  A    between atoms: P_60  and  O_54 
REMARK   35  A    between atoms: P_58  and  O_56 
REMARK   36  A    between atoms: P_59  and  O_57 
REMARK   37  A    between atoms: P_60  and  O_57 
ROOT
HETATM    1  O   UNK N   1      34.021  16.011   8.534  0.00  0.00    -0.195 OA
ENDROOT
BRANCH   1   2
HETATM    2  P   UNK N   1      34.154  17.622   7.873  0.00  0.00     0.401 P 
HETATM    3  O   UNK N   1      34.893  16.630   6.944  0.00  0.00    -0.631 OA
BRANCH   2   4
HETATM    4  O   UNK N   1      32.479  17.254   8.201  0.00  0.00    -0.307 OA
HETATM    5  H   UNK N   1      31.730  17.151   8.809  0.00  0.00     0.222 HD
ENDBRANCH   2   4
BRANCH   2   6
HETATM    6  O   UNK N   1      33.558  18.020   6.230  0.00  0.00    -0.294 OA
BRANCH   6   7
HETATM    7  C   UNK N   1      33.709  17.030   5.218  0.00  0.00     0.215 C 
BRANCH   7   8
HETATM    8  C   UNK N   1      32.391  16.773   4.480  0.00  0.00     0.180 C 
HETATM    9  C   UNK N   1      31.833  15.344   4.711  0.00  0.00     0.197 C 
HETATM   10  C   UNK N   1      30.697  15.624   5.673  0.00  0.00     0.199 C 
HETATM   11  C   UNK N   1      30.231  16.940   5.083  0.00  0.00     0.262 C 
HETATM   12  O   UNK N   1      31.406  17.700   4.923  0.00  0.00    -0.353 OA
BRANCH   9  13
HETATM   13  O   UNK N   1      32.800  14.437   5.250  0.00  0.00    -0.286 OA
BRANCH  13  14
HETATM   14  P   UNK N   1      32.678  12.711   4.796  0.00  0.00     0.391 P 
HETATM   15  O   UNK N   1      31.732  13.225   3.676  0.00  0.00    -0.632 OA
BRANCH  14  16
HETATM   16  O   UNK N   1      31.111  12.022   5.080  0.00  0.00    -0.307 OA
HETATM   17  H   UNK N   1      30.422  11.537   4.599  0.00  0.00     0.222 HD
ENDBRANCH  14  16
BRANCH  14  18
HETATM   18  O   UNK N   1      32.166  12.678   6.449  0.00  0.00    -0.307 OA
HETATM   19  H   UNK N   1      32.164  11.867   6.980  0.00  0.00     0.222 HD
ENDBRANCH  14  18
ENDBRANCH  13  14
ENDBRANCH   9  13
BRANCH  10  20
HETATM   20  O   UNK N   1      29.709  14.641   5.606  0.00  0.00    -0.388 OA
HETATM   21  H   UNK N   1      29.033  14.650   4.911  0.00  0.00     0.210 HD
ENDBRANCH  10  20
BRANCH  11  22
HETATM   22  N   UNK N   1      29.199  17.664   5.838  0.00  0.00    -0.297 N 
HETATM   23  C   UNK N   1      29.029  17.650   7.187  0.00  0.00     0.188 A 
HETATM   24  N   UNK N   1      28.124  18.590   7.585  0.00  0.00    -0.346 N 
HETATM   25  C   UNK N   1      27.736  19.184   6.443  0.00  0.00     0.122 A 
ATOM     26  HN  UNK N   1      27.811  18.796   8.534  1.00  0.00     0.167 HD
HETATM   27  C   UNK N   1      26.878  20.257   6.241  0.00  0.00     0.131 A 
HETATM   28  C   UNK N   1      28.365  18.618   5.395  0.00  0.00     0.142 A 
HETATM   29  N   UNK N   1      26.666  20.675   4.958  0.00  0.00    -0.337 N 
HETATM   30  C   UNK N   1      27.295  20.063   3.903  0.00  0.00     0.183 A 
ATOM     31  HN  UNK N   1      26.031  21.455   4.783  1.00  0.00     0.168 HD
HETATM   32  N   UNK N   1      28.173  19.038   4.122  0.00  0.00    -0.336 N 
ATOM     33  HN  UNK N   1      28.671  18.600   3.347  1.00  0.00     0.168 HD
BRANCH  27  34
HETATM   34  N   UNK N   1      26.273  20.925   7.324  0.00  0.00    -0.383 N 
HETATM   35  H   UNK N   1      26.816  21.280   8.066  0.00  0.00     0.157 HD
HETATM   36  H   UNK N   1      25.295  21.038   7.342  0.00  0.00     0.157 HD
ENDBRANCH  27  34
ENDBRANCH  11  22
ENDBRANCH   7   8
ENDBRANCH   6   7
ENDBRANCH   2   6
ENDBRANCH   1   2
BRANCH   1  37
HETATM   37  P   UNK N   1      35.000  15.963   9.991  0.00  0.00     0.401 P 
HETATM   38  O   UNK N   1      35.332  17.423  10.406  0.00  0.00    -0.631 OA
BRANCH  37  39
HETATM   39  O   UNK N   1      34.095  15.300  11.312  0.00  0.00    -0.307 OA
HETATM   40  H   UNK N   1      33.534  14.534  11.513  0.00  0.00     0.222 HD
ENDBRANCH  37  39
BRANCH  37  41
HETATM   41  O   UNK N   1      36.518  15.129   9.789  0.00  0.00    -0.296 OA
BRANCH  41  42
HETATM   42  C   UNK N   1      36.669  14.330  10.927  0.00  0.00     0.192 C 
BRANCH  42  43
HETATM   43  C   UNK N   1      37.198  12.933  10.590  0.00  0.00     0.008 C 
HETATM   44  C   UNK N   1      36.752  12.623   9.170  0.00  0.00     0.020 C 
HETATM   45  C   UNK N   1      38.716  12.963  10.555  0.00  0.00     0.020 C 
BRANCH  43  46
HETATM   46  C   UNK N   1      36.606  11.839  11.530  0.00  0.00     0.202 C 
BRANCH  46  47
HETATM   47  C   UNK N   1      35.294  12.153  12.234  0.00  0.00     0.141 C 
BRANCH  47  48
HETATM   48  N   UNK N   1      35.172  12.301  13.509  0.00  0.00    -0.372 N 
ATOM     49  HN  UNK N   1      34.753  11.530  14.029  1.00  0.00     0.161 HD
BRANCH  48  50
HETATM   50  C   UNK N   1      35.577  13.461  14.267  0.00  0.00     0.129 C 
BRANCH  50  51
HETATM   51  C   UNK N   1      36.518  13.091  15.419  0.00  0.00     0.103 C 
BRANCH  51  52
HETATM   52  C   UNK N   1      36.351  11.685  15.911  0.00  0.00     0.112 C 
BRANCH  52  53
HETATM   53  N   UNK N   1      35.664  11.471  16.980  0.00  0.00    -0.374 N 
ATOM     54  HN  UNK N   1      35.565  12.234  17.649  1.00  0.00     0.161 HD
BRANCH  53  55
HETATM   55  C   UNK N   1      35.026  10.206  17.284  0.00  0.00     0.132 C 
BRANCH  55  56
HETATM   56  C   UNK N   1      35.907   9.241  18.088  0.00  0.00     0.102 C 
BRANCH  56  57
HETATM   57  S   UNK N   1      36.742  10.005  19.525  0.00  0.00    -0.090 SA
BRANCH  57  58
HETATM   58  C   UNK N   1      35.216  10.530  20.302  0.00  0.00     0.195 C 
HETATM   59  O   UNK N   1      34.852  11.689  20.194  0.00  0.00    -0.285 OA
BRANCH  58  60
HETATM   60  C   UNK N   1      34.428   9.584  21.145  0.00  0.00     0.164 C 
BRANCH  60  61
HETATM   61  S   UNK N   1      33.062  10.433  21.997  0.00  0.00    -0.161 SA
BRANCH  61  62
HETATM   62  C   UNK N   1      31.891   9.068  21.714  0.00  0.00     0.074 C 
BRANCH  62  63
HETATM   63  C   UNK N   1      31.761   8.772  20.231  0.00  0.00     0.010 C 
BRANCH  63  64
HETATM   64  C   UNK N   1      30.693   7.716  19.999  0.00  0.00     0.000 C 
BRANCH  64  65
HETATM   65  C   UNK N   1      31.321   6.340  19.875  0.00  0.00    -0.005 C 
HETATM   66  C   UNK N   1      32.755   6.454  19.394  0.00  0.00     0.005 C 
ENDBRANCH  64  65
ENDBRANCH  63  64
ENDBRANCH  62  63
ENDBRANCH  61  62
ENDBRANCH  60  61
ENDBRANCH  58  60
ENDBRANCH  57  58
ENDBRANCH  56  57
ENDBRANCH  55  56
ENDBRANCH  53  55
ENDBRANCH  52  53
BRANCH  52  67
HETATM   67  O   UNK N   1      36.920  10.663  15.234  0.00  0.00    -0.350 OA
HETATM   68  H   UNK N   1      37.746  10.223  15.276  0.00  0.00     0.219 HD
ENDBRANCH  52  67
ENDBRANCH  51  52
ENDBRANCH  50  51
ENDBRANCH  48  50
ENDBRANCH  47  48
BRANCH  47  69
HETATM   69  O   UNK N   1      34.180  12.227  11.482  0.00  0.00    -0.348 OA
HETATM   70  H   UNK N   1      33.464  12.079  10.895  0.00  0.00     0.219 HD
ENDBRANCH  47  69
ENDBRANCH  46  47
BRANCH  46  71
HETATM   71  O   UNK N   1      37.556  11.421  12.468  0.00  0.00    -0.387 OA
HETATM   72  H   UNK N   1      37.781  11.754  13.351  0.00  0.00     0.210 HD
ENDBRANCH  46  71
ENDBRANCH  43  46
ENDBRANCH  42  43
ENDBRANCH  41  42
ENDBRANCH  37  41
ENDBRANCH   1  37
TORSDOF 37
ENDMDL
MODEL 6
REMARK VINA RESULT:      -6.2      5.684     14.249
REMARK WARNING: 32 MAX_TORS EXCEEDED!!!
REMARK  37 active torsions:
REMARK  status: ('A' for Active; 'I' for Inactive)
REMARK    1  A    between atoms: C_5  and  C_4 
REMARK    2  A    between atoms: C_6  and  C_5 
REMARK    3  A    between atoms: C_10  and  C_6 
REMARK    4  A    between atoms: C_8  and  C_7 
REMARK    5  A    between atoms: C_18  and  C_7 
REMARK    6  A    between atoms: N_32  and  C_8 
REMARK    7  A    between atoms: C_11  and  C_9 
REMARK    8  A    between atoms: N_30  and  C_9 
REMARK    9  A    between atoms: S_61  and  C_10 
REMARK   10  A    between atoms: S_62  and  C_11 
REMARK   11  A    between atoms: C_17  and  C_12 
REMARK   12  A    between atoms: O_53  and  C_12 
REMARK   13  A    between atoms: C_19  and  C_13 
REMARK   14  A    between atoms: S_61  and  C_13 
REMARK   15  A    between atoms: C_28  and  C_14 
REMARK   16  A    between atoms: O_54  and  C_14 
REMARK   17  A    between atoms: N_30  and  C_18 
REMARK   18  A    between atoms: O_41  and  C_18 
REMARK   19  A    between atoms: S_62  and  C_19 
REMARK   20  A    between atoms: C_21  and  O_43 
REMARK   21  A    between atoms: C_22  and  O_56 
REMARK   22  A    between atoms: C_26  and  C_23 
REMARK   23  A    between atoms: C_28  and  C_23 
REMARK   24  A    between atoms: C_23  and  O_44 
REMARK   25  A    between atoms: N_29  and  C_24 
REMARK   26  A    between atoms: N_32  and  C_26 
REMARK   27  A    between atoms: O_45  and  C_26 
REMARK   28  A    between atoms: C_27  and  N_40 
REMARK   29  A    between atoms: P_58  and  O_46 
REMARK   30  A    between atoms: P_58  and  O_47 
REMARK   31  A    between atoms: P_59  and  O_49 
REMARK   32  A    between atoms: P_60  and  O_51 
REMARK   33  A    between atoms: P_59  and  O_53 
REMARK   34  A    between atoms: P_60  and  O_54 
REMARK   35  A    between atoms: P_58  and  O_56 
REMARK   36  A    between atoms: P_59  and  O_57 
REMARK   37  A    between atoms: P_60  and  O_57 
ROOT
HETATM    1  O   UNK N   1      34.602  17.223  10.075  0.00  0.00    -0.195 OA
ENDROOT
BRANCH   1   2
HETATM    2  P   UNK N   1      34.681  15.483   9.964  0.00  0.00     0.401 P 
HETATM    3  O   UNK N   1      35.439  15.945  11.231  0.00  0.00    -0.631 OA
BRANCH   2   4
HETATM    4  O   UNK N   1      33.021  16.008   9.835  0.00  0.00    -0.307 OA
HETATM    5  H   UNK N   1      32.069  15.828   9.787  0.00  0.00     0.222 HD
ENDBRANCH   2   4
BRANCH   2   6
HETATM    6  O   UNK N   1      34.057  14.424  11.269  0.00  0.00    -0.294 OA
BRANCH   6   7
HETATM    7  C   UNK N   1      34.947  14.094  12.330  0.00  0.00     0.215 C 
BRANCH   7   8
HETATM    8  C   UNK N   1      35.001  12.583  12.571  0.00  0.00     0.180 C 
HETATM    9  C   UNK N   1      36.438  12.004  12.489  0.00  0.00     0.197 C 
HETATM   10  C   UNK N   1      36.746  11.775  13.955  0.00  0.00     0.199 C 
HETATM   11  C   UNK N   1      35.369  11.326  14.400  0.00  0.00     0.262 C 
HETATM   12  O   UNK N   1      34.486  12.285  13.864  0.00  0.00    -0.353 OA
BRANCH   9  13
HETATM   13  O   UNK N   1      37.372  12.888  11.862  0.00  0.00    -0.286 OA
BRANCH  13  14
HETATM   14  P   UNK N   1      37.595  12.759  10.093  0.00  0.00     0.391 P 
HETATM   15  O   UNK N   1      38.445  11.506  10.440  0.00  0.00    -0.632 OA
BRANCH  14  16
HETATM   16  O   UNK N   1      39.220  13.070   9.568  0.00  0.00    -0.307 OA
HETATM   17  H   UNK N   1      40.120  13.078   9.928  0.00  0.00     0.222 HD
ENDBRANCH  14  16
BRANCH  14  18
HETATM   18  O   UNK N   1      38.189  14.355  10.408  0.00  0.00    -0.307 OA
HETATM   19  H   UNK N   1      38.121  14.776  11.279  0.00  0.00     0.222 HD
ENDBRANCH  14  18
ENDBRANCH  13  14
ENDBRANCH   9  13
BRANCH  10  20
HETATM   20  O   UNK N   1      37.704  10.776  14.132  0.00  0.00    -0.388 OA
HETATM   21  H   UNK N   1      38.266  10.748  14.923  0.00  0.00     0.210 HD
ENDBRANCH  10  20
BRANCH  11  22
HETATM   22  N   UNK N   1      35.178  11.142  15.845  0.00  0.00    -0.297 N 
HETATM   23  C   UNK N   1      35.139   9.955  16.508  0.00  0.00     0.188 A 
HETATM   24  N   UNK N   1      35.163  10.138  17.859  0.00  0.00    -0.346 N 
HETATM   25  C   UNK N   1      35.214  11.472  18.014  0.00  0.00     0.122 A 
ATOM     26  HN  UNK N   1      35.145   9.424  18.588  1.00  0.00     0.167 HD
HETATM   27  C   UNK N   1      35.321  12.234  19.170  0.00  0.00     0.131 A 
HETATM   28  C   UNK N   1      35.203  12.075  16.810  0.00  0.00     0.142 A 
HETATM   29  N   UNK N   1      35.368  13.593  19.041  0.00  0.00    -0.337 N 
HETATM   30  C   UNK N   1      35.326  14.186  17.804  0.00  0.00     0.183 A 
ATOM     31  HN  UNK N   1      35.437  14.175  19.877  1.00  0.00     0.168 HD
HETATM   32  N   UNK N   1      35.266  13.420  16.672  0.00  0.00    -0.336 N 
ATOM     33  HN  UNK N   1      35.270  13.852  15.748  1.00  0.00     0.168 HD
BRANCH  27  34
HETATM   34  N   UNK N   1      35.422  11.629  20.439  0.00  0.00    -0.383 N 
HETATM   35  H   UNK N   1      34.986  12.030  21.226  0.00  0.00     0.157 HD
HETATM   36  H   UNK N   1      35.935  10.795  20.541  0.00  0.00     0.157 HD
ENDBRANCH  27  34
ENDBRANCH  11  22
ENDBRANCH   7   8
ENDBRANCH   6   7
ENDBRANCH   2   6
ENDBRANCH   1   2
BRANCH   1  37
HETATM   37  P   UNK N   1      34.219  17.832   8.473  0.00  0.00     0.401 P 
HETATM   38  O   UNK N   1      32.816  18.498   8.525  0.00  0.00    -0.631 OA
BRANCH  37  39
HETATM   39  O   UNK N   1      35.315  19.097   8.023  0.00  0.00    -0.307 OA
HETATM   40  H   UNK N   1      35.765  19.438   7.234  0.00  0.00     0.222 HD
ENDBRANCH  37  39
BRANCH  37  41
HETATM   41  O   UNK N   1      34.154  16.592   7.249  0.00  0.00    -0.296 OA
BRANCH  41  42
HETATM   42  C   UNK N   1      33.905  17.259   6.044  0.00  0.00     0.192 C 
BRANCH  42  43
HETATM   43  C   UNK N   1      32.854  16.543   5.190  0.00  0.00     0.008 C 
HETATM   44  C   UNK N   1      31.538  16.627   5.947  0.00  0.00     0.020 C 
HETATM   45  C   UNK N   1      32.644  17.312   3.897  0.00  0.00     0.020 C 
BRANCH  43  46
HETATM   46  C   UNK N   1      33.195  15.036   4.983  0.00  0.00     0.202 C 
BRANCH  46  47
HETATM   47  C   UNK N   1      32.466  14.025   5.857  0.00  0.00     0.141 C 
BRANCH  47  48
HETATM   48  N   UNK N   1      31.704  13.089   5.402  0.00  0.00    -0.372 N 
ATOM     49  HN  UNK N   1      30.766  13.356   5.103  1.00  0.00     0.161 HD
BRANCH  48  50
HETATM   50  C   UNK N   1      32.062  11.696   5.278  0.00  0.00     0.129 C 
BRANCH  50  51
HETATM   51  C   UNK N   1      31.434  11.053   4.036  0.00  0.00     0.103 C 
BRANCH  51  52
HETATM   52  C   UNK N   1      29.992  11.409   3.833  0.00  0.00     0.112 C 
BRANCH  52  53
HETATM   53  N   UNK N   1      29.567  11.651   2.641  0.00  0.00    -0.374 N 
ATOM     54  HN  UNK N   1      28.958  10.962   2.198  1.00  0.00     0.161 HD
BRANCH  53  55
HETATM   55  C   UNK N   1      29.907  12.846   1.894  0.00  0.00     0.132 C 
BRANCH  55  56
HETATM   56  C   UNK N   1      28.858  13.961   1.994  0.00  0.00     0.102 C 
BRANCH  56  57
HETATM   57  S   UNK N   1      29.410  15.431   2.931  0.00  0.00    -0.090 SA
BRANCH  57  58
HETATM   58  C   UNK N   1      28.453  15.026   4.391  0.00  0.00     0.195 C 
HETATM   59  O   UNK N   1      28.958  14.356   5.275  0.00  0.00    -0.285 OA
BRANCH  58  60
HETATM   60  C   UNK N   1      27.021  15.433   4.498  0.00  0.00     0.164 C 
BRANCH  60  61
HETATM   61  S   UNK N   1      26.795  16.744   5.739  0.00  0.00    -0.161 SA
BRANCH  61  62
HETATM   62  C   UNK N   1      26.394  18.008   4.492  0.00  0.00     0.074 C 
BRANCH  62  63
HETATM   63  C   UNK N   1      27.651  18.716   4.023  0.00  0.00     0.010 C 
BRANCH  63  64
HETATM   64  C   UNK N   1      27.925  19.931   4.893  0.00  0.00     0.000 C 
BRANCH  64  65
HETATM   65  C   UNK N   1      26.630  20.645   5.235  0.00  0.00    -0.005 C 
HETATM   66  C   UNK N   1      26.853  21.636   6.360  0.00  0.00     0.005 C 
ENDBRANCH  64  65
ENDBRANCH  63  64
ENDBRANCH  62  63
ENDBRANCH  61  62
ENDBRANCH  60  61
ENDBRANCH  58  60
ENDBRANCH  57  58
ENDBRANCH  56  57
ENDBRANCH  55  56
ENDBRANCH  53  55
ENDBRANCH  52  53
BRANCH  52  67
HETATM   67  O   UNK N   1      29.159  11.476   4.894  0.00  0.00    -0.350 OA
HETATM   68  H   UNK N   1      28.299  11.820   5.038  0.00  0.00     0.219 HD
ENDBRANCH  52  67
ENDBRANCH  51  52
ENDBRANCH  50  51
ENDBRANCH  48  50
ENDBRANCH  47  48
BRANCH  47  69
HETATM   69  O   UNK N   1      32.580  14.151   7.192  0.00  0.00    -0.348 OA
HETATM   70  H   UNK N   1      32.443  14.231   8.116  0.00  0.00     0.219 HD
ENDBRANCH  47  69
ENDBRANCH  46  47
BRANCH  46  71
HETATM   71  O   UNK N   1      34.574  14.821   5.064  0.00  0.00    -0.387 OA
HETATM   72  H   UNK N   1      35.096  14.148   5.529  0.00  0.00     0.210 HD
ENDBRANCH  46  71
ENDBRANCH  43  46
ENDBRANCH  42  43
ENDBRANCH  41  42
ENDBRANCH  37  41
ENDBRANCH   1  37
TORSDOF 37
ENDMDL
MODEL 7
REMARK VINA RESULT:      -6.2      5.128      7.749
REMARK WARNING: 32 MAX_TORS EXCEEDED!!!
REMARK  37 active torsions:
REMARK  status: ('A' for Active; 'I' for Inactive)
REMARK    1  A    between atoms: C_5  and  C_4 
REMARK    2  A    between atoms: C_6  and  C_5 
REMARK    3  A    between atoms: C_10  and  C_6 
REMARK    4  A    between atoms: C_8  and  C_7 
REMARK    5  A    between atoms: C_18  and  C_7 
REMARK    6  A    between atoms: N_32  and  C_8 
REMARK    7  A    between atoms: C_11  and  C_9 
REMARK    8  A    between atoms: N_30  and  C_9 
REMARK    9  A    between atoms: S_61  and  C_10 
REMARK   10  A    between atoms: S_62  and  C_11 
REMARK   11  A    between atoms: C_17  and  C_12 
REMARK   12  A    between atoms: O_53  and  C_12 
REMARK   13  A    between atoms: C_19  and  C_13 
REMARK   14  A    between atoms: S_61  and  C_13 
REMARK   15  A    between atoms: C_28  and  C_14 
REMARK   16  A    between atoms: O_54  and  C_14 
REMARK   17  A    between atoms: N_30  and  C_18 
REMARK   18  A    between atoms: O_41  and  C_18 
REMARK   19  A    between atoms: S_62  and  C_19 
REMARK   20  A    between atoms: C_21  and  O_43 
REMARK   21  A    between atoms: C_22  and  O_56 
REMARK   22  A    between atoms: C_26  and  C_23 
REMARK   23  A    between atoms: C_28  and  C_23 
REMARK   24  A    between atoms: C_23  and  O_44 
REMARK   25  A    between atoms: N_29  and  C_24 
REMARK   26  A    between atoms: N_32  and  C_26 
REMARK   27  A    between atoms: O_45  and  C_26 
REMARK   28  A    between atoms: C_27  and  N_40 
REMARK   29  A    between atoms: P_58  and  O_46 
REMARK   30  A    between atoms: P_58  and  O_47 
REMARK   31  A    between atoms: P_59  and  O_49 
REMARK   32  A    between atoms: P_60  and  O_51 
REMARK   33  A    between atoms: P_59  and  O_53 
REMARK   34  A    between atoms: P_60  and  O_54 
REMARK   35  A    between atoms: P_58  and  O_56 
REMARK   36  A    between atoms: P_59  and  O_57 
REMARK   37  A    between atoms: P_60  and  O_57 
ROOT
HETATM    1  O   UNK N   1      35.372  17.583   9.321  0.00  0.00    -0.195 OA
ENDROOT
BRANCH   1   2
HETATM    2  P   UNK N   1      33.929  17.765   8.355  0.00  0.00     0.401 P 
HETATM    3  O   UNK N   1      34.767  19.063   8.266  0.00  0.00    -0.631 OA
BRANCH   2   4
HETATM    4  O   UNK N   1      34.756  16.293   7.911  0.00  0.00    -0.307 OA
HETATM    5  H   UNK N   1      34.790  15.436   7.460  0.00  0.00     0.222 HD
ENDBRANCH   2   4
BRANCH   2   6
HETATM    6  O   UNK N   1      34.007  18.127   6.601  0.00  0.00    -0.294 OA
BRANCH   6   7
HETATM    7  C   UNK N   1      34.245  17.038   5.715  0.00  0.00     0.215 C 
BRANCH   7   8
HETATM    8  C   UNK N   1      32.975  16.643   4.955  0.00  0.00     0.180 C 
HETATM    9  C   UNK N   1      32.497  15.203   5.275  0.00  0.00     0.197 C 
HETATM   10  C   UNK N   1      31.309  15.480   6.174  0.00  0.00     0.199 C 
HETATM   11  C   UNK N   1      30.786  16.716   5.469  0.00  0.00     0.262 C 
HETATM   12  O   UNK N   1      31.918  17.536   5.291  0.00  0.00    -0.353 OA
BRANCH   9  13
HETATM   13  O   UNK N   1      33.494  14.401   5.915  0.00  0.00    -0.286 OA
BRANCH  13  14
HETATM   14  P   UNK N   1      34.434  13.263   4.905  0.00  0.00     0.391 P 
HETATM   15  O   UNK N   1      33.445  12.196   5.448  0.00  0.00    -0.632 OA
BRANCH  14  16
HETATM   16  O   UNK N   1      35.359  12.115   5.820  0.00  0.00    -0.307 OA
HETATM   17  H   UNK N   1      35.217  11.341   6.387  0.00  0.00     0.222 HD
ENDBRANCH  14  16
BRANCH  14  18
HETATM   18  O   UNK N   1      35.666  13.935   5.919  0.00  0.00    -0.307 OA
HETATM   19  H   UNK N   1      36.264  14.638   5.621  0.00  0.00     0.222 HD
ENDBRANCH  14  18
ENDBRANCH  13  14
ENDBRANCH   9  13
BRANCH  10  20
HETATM   20  O   UNK N   1      30.386  14.434   6.149  0.00  0.00    -0.388 OA
HETATM   21  H   UNK N   1      29.802  14.292   5.387  0.00  0.00     0.210 HD
ENDBRANCH  10  20
BRANCH  11  22
HETATM   22  N   UNK N   1      29.684  17.427   6.130  0.00  0.00    -0.297 N 
HETATM   23  C   UNK N   1      29.486  17.539   7.471  0.00  0.00     0.188 A 
HETATM   24  N   UNK N   1      28.501  18.438   7.756  0.00  0.00    -0.346 N 
HETATM   25  C   UNK N   1      28.091  18.877   6.554  0.00  0.00     0.122 A 
ATOM     26  HN  UNK N   1      28.152  18.714   8.675  1.00  0.00     0.167 HD
HETATM   27  C   UNK N   1      27.154  19.848   6.229  0.00  0.00     0.131 A 
HETATM   28  C   UNK N   1      28.785  18.259   5.579  0.00  0.00     0.142 A 
HETATM   29  N   UNK N   1      26.937  20.114   4.907  0.00  0.00    -0.337 N 
HETATM   30  C   UNK N   1      27.636  19.450   3.930  0.00  0.00     0.183 A 
ATOM     31  HN  UNK N   1      26.246  20.817   4.643  1.00  0.00     0.168 HD
HETATM   32  N   UNK N   1      28.588  18.528   4.267  0.00  0.00    -0.336 N 
ATOM     33  HN  UNK N   1      29.137  18.055   3.548  1.00  0.00     0.168 HD
BRANCH  27  34
HETATM   34  N   UNK N   1      26.474  20.573   7.229  0.00  0.00    -0.383 N 
HETATM   35  H   UNK N   1      26.601  20.360   8.182  0.00  0.00     0.157 HD
HETATM   36  H   UNK N   1      25.864  21.301   6.971  0.00  0.00     0.157 HD
ENDBRANCH  27  34
ENDBRANCH  11  22
ENDBRANCH   7   8
ENDBRANCH   6   7
ENDBRANCH   2   6
ENDBRANCH   1   2
BRANCH   1  37
HETATM   37  P   UNK N   1      35.207  16.088  10.228  0.00  0.00     0.401 P 
HETATM   38  O   UNK N   1      35.540  16.381  11.718  0.00  0.00    -0.631 OA
BRANCH  37  39
HETATM   39  O   UNK N   1      33.560  15.548  10.220  0.00  0.00    -0.307 OA
HETATM   40  H   UNK N   1      33.049  14.737  10.067  0.00  0.00     0.222 HD
ENDBRANCH  37  39
BRANCH  37  41
HETATM   41  O   UNK N   1      36.285  14.824   9.700  0.00  0.00    -0.296 OA
BRANCH  41  42
HETATM   42  C   UNK N   1      36.676  14.147  10.860  0.00  0.00     0.192 C 
BRANCH  42  43
HETATM   43  C   UNK N   1      36.611  12.625  10.694  0.00  0.00     0.008 C 
HETATM   44  C   UNK N   1      37.357  12.289   9.412  0.00  0.00     0.020 C 
HETATM   45  C   UNK N   1      37.389  11.962  11.817  0.00  0.00     0.020 C 
BRANCH  43  46
HETATM   46  C   UNK N   1      35.147  12.113  10.548  0.00  0.00     0.202 C 
BRANCH  46  47
HETATM   47  C   UNK N   1      34.592  11.965   9.138  0.00  0.00     0.141 C 
BRANCH  47  48
HETATM   48  N   UNK N   1      34.483  10.840   8.516  0.00  0.00    -0.372 N 
ATOM     49  HN  UNK N   1      35.348  10.356   8.275  1.00  0.00     0.161 HD
BRANCH  48  50
HETATM   50  C   UNK N   1      33.246  10.205   8.130  0.00  0.00     0.129 C 
BRANCH  50  51
HETATM   51  C   UNK N   1      32.313   9.996   9.328  0.00  0.00     0.103 C 
BRANCH  51  52
HETATM   52  C   UNK N   1      32.107   8.557   9.691  0.00  0.00     0.112 C 
BRANCH  52  53
HETATM   53  N   UNK N   1      33.122   7.764   9.715  0.00  0.00    -0.374 N 
ATOM     54  HN  UNK N   1      33.479   7.412   8.826  1.00  0.00     0.161 HD
BRANCH  53  55
HETATM   55  C   UNK N   1      33.785   7.344  10.933  0.00  0.00     0.132 C 
BRANCH  55  56
HETATM   56  C   UNK N   1      34.686   8.419  11.554  0.00  0.00     0.102 C 
BRANCH  56  57
HETATM   57  S   UNK N   1      36.416   8.383  10.963  0.00  0.00    -0.090 SA
BRANCH  57  58
HETATM   58  C   UNK N   1      37.110   8.139  12.597  0.00  0.00     0.195 C 
HETATM   59  O   UNK N   1      38.187   8.639  12.874  0.00  0.00    -0.285 OA
BRANCH  58  60
HETATM   60  C   UNK N   1      36.422   7.265  13.592  0.00  0.00     0.164 C 
BRANCH  60  61
HETATM   61  S   UNK N   1      36.697   7.852  15.293  0.00  0.00    -0.161 SA
BRANCH  61  62
HETATM   62  C   UNK N   1      35.528   9.237  15.121  0.00  0.00     0.074 C 
BRANCH  62  63
HETATM   63  C   UNK N   1      36.186  10.547  15.515  0.00  0.00     0.010 C 
BRANCH  63  64
HETATM   64  C   UNK N   1      35.140  11.530  16.012  0.00  0.00     0.000 C 
BRANCH  64  65
HETATM   65  C   UNK N   1      35.387  11.882  17.467  0.00  0.00    -0.005 C 
HETATM   66  C   UNK N   1      35.061  13.340  17.722  0.00  0.00     0.005 C 
ENDBRANCH  64  65
ENDBRANCH  63  64
ENDBRANCH  62  63
ENDBRANCH  61  62
ENDBRANCH  60  61
ENDBRANCH  58  60
ENDBRANCH  57  58
ENDBRANCH  56  57
ENDBRANCH  55  56
ENDBRANCH  53  55
ENDBRANCH  52  53
BRANCH  52  67
HETATM   67  O   UNK N   1      30.867   8.107   9.985  0.00  0.00    -0.350 OA
HETATM   68  H   UNK N   1      30.284   8.208  10.711  0.00  0.00     0.219 HD
ENDBRANCH  52  67
ENDBRANCH  51  52
ENDBRANCH  50  51
ENDBRANCH  48  50
ENDBRANCH  47  48
BRANCH  47  69
HETATM   69  O   UNK N   1      34.244  13.085   8.479  0.00  0.00    -0.348 OA
HETATM   70  H   UNK N   1      33.812  13.761   7.994  0.00  0.00     0.219 HD
ENDBRANCH  47  69
ENDBRANCH  46  47
BRANCH  46  71
HETATM   71  O   UNK N   1      34.270  12.881  11.321  0.00  0.00    -0.387 OA
HETATM   72  H   UNK N   1      33.464  13.368  11.090  0.00  0.00     0.210 HD
ENDBRANCH  46  71
ENDBRANCH  43  46
ENDBRANCH  42  43
ENDBRANCH  41  42
ENDBRANCH  37  41
ENDBRANCH   1  37
TORSDOF 37
ENDMDL
MODEL 8
REMARK VINA RESULT:      -6.2      4.832     13.091
REMARK WARNING: 32 MAX_TORS EXCEEDED!!!
REMARK  37 active torsions:
REMARK  status: ('A' for Active; 'I' for Inactive)
REMARK    1  A    between atoms: C_5  and  C_4 
REMARK    2  A    between atoms: C_6  and  C_5 
REMARK    3  A    between atoms: C_10  and  C_6 
REMARK    4  A    between atoms: C_8  and  C_7 
REMARK    5  A    between atoms: C_18  and  C_7 
REMARK    6  A    between atoms: N_32  and  C_8 
REMARK    7  A    between atoms: C_11  and  C_9 
REMARK    8  A    between atoms: N_30  and  C_9 
REMARK    9  A    between atoms: S_61  and  C_10 
REMARK   10  A    between atoms: S_62  and  C_11 
REMARK   11  A    between atoms: C_17  and  C_12 
REMARK   12  A    between atoms: O_53  and  C_12 
REMARK   13  A    between atoms: C_19  and  C_13 
REMARK   14  A    between atoms: S_61  and  C_13 
REMARK   15  A    between atoms: C_28  and  C_14 
REMARK   16  A    between atoms: O_54  and  C_14 
REMARK   17  A    between atoms: N_30  and  C_18 
REMARK   18  A    between atoms: O_41  and  C_18 
REMARK   19  A    between atoms: S_62  and  C_19 
REMARK   20  A    between atoms: C_21  and  O_43 
REMARK   21  A    between atoms: C_22  and  O_56 
REMARK   22  A    between atoms: C_26  and  C_23 
REMARK   23  A    between atoms: C_28  and  C_23 
REMARK   24  A    between atoms: C_23  and  O_44 
REMARK   25  A    between atoms: N_29  and  C_24 
REMARK   26  A    between atoms: N_32  and  C_26 
REMARK   27  A    between atoms: O_45  and  C_26 
REMARK   28  A    between atoms: C_27  and  N_40 
REMARK   29  A    between atoms: P_58  and  O_46 
REMARK   30  A    between atoms: P_58  and  O_47 
REMARK   31  A    between atoms: P_59  and  O_49 
REMARK   32  A    between atoms: P_60  and  O_51 
REMARK   33  A    between atoms: P_59  and  O_53 
REMARK   34  A    between atoms: P_60  and  O_54 
REMARK   35  A    between atoms: P_58  and  O_56 
REMARK   36  A    between atoms: P_59  and  O_57 
REMARK   37  A    between atoms: P_60  and  O_57 
ROOT
HETATM    1  O   UNK N   1      29.996  18.332   8.099  0.00  0.00    -0.195 OA
ENDROOT
BRANCH   1   2
HETATM    2  P   UNK N   1      30.595  16.711   7.858  0.00  0.00     0.401 P 
HETATM    3  O   UNK N   1      30.951  17.572   6.623  0.00  0.00    -0.631 OA
BRANCH   2   4
HETATM    4  O   UNK N   1      31.149  17.322   9.397  0.00  0.00    -0.307 OA
HETATM    5  H   UNK N   1      30.986  17.711  10.270  0.00  0.00     0.222 HD
ENDBRANCH   2   4
BRANCH   2   6
HETATM    6  O   UNK N   1      32.334  16.380   7.567  0.00  0.00    -0.294 OA
BRANCH   6   7
HETATM    7  C   UNK N   1      33.277  17.025   8.416  0.00  0.00     0.215 C 
BRANCH   7   8
HETATM    8  C   UNK N   1      34.717  16.724   7.990  0.00  0.00     0.180 C 
HETATM    9  C   UNK N   1      35.358  15.560   8.790  0.00  0.00     0.197 C 
HETATM   10  C   UNK N   1      35.319  14.444   7.767  0.00  0.00     0.199 C 
HETATM   11  C   UNK N   1      35.619  15.268   6.532  0.00  0.00     0.262 C 
HETATM   12  O   UNK N   1      34.744  16.370   6.611  0.00  0.00    -0.353 OA
BRANCH   9  13
HETATM   13  O   UNK N   1      34.647  15.234   9.988  0.00  0.00    -0.286 OA
BRANCH  13  14
HETATM   14  P   UNK N   1      35.534  15.309  11.539  0.00  0.00     0.391 P 
HETATM   15  O   UNK N   1      36.586  16.114  10.729  0.00  0.00    -0.632 OA
BRANCH  14  16
HETATM   16  O   UNK N   1      37.008  14.393  11.547  0.00  0.00    -0.307 OA
HETATM   17  H   UNK N   1      37.687  14.088  10.926  0.00  0.00     0.222 HD
ENDBRANCH  14  16
BRANCH  14  18
HETATM   18  O   UNK N   1      35.353  13.601  11.318  0.00  0.00    -0.307 OA
HETATM   19  H   UNK N   1      34.551  13.204  10.946  0.00  0.00     0.222 HD
ENDBRANCH  14  18
ENDBRANCH  13  14
ENDBRANCH   9  13
BRANCH  10  20
HETATM   20  O   UNK N   1      36.304  13.486   8.009  0.00  0.00    -0.388 OA
HETATM   21  H   UNK N   1      36.358  13.019   8.858  0.00  0.00     0.210 HD
ENDBRANCH  10  20
BRANCH  11  22
HETATM   22  N   UNK N   1      35.519  14.572   5.242  0.00  0.00    -0.297 N 
HETATM   23  C   UNK N   1      36.448  13.738   4.702  0.00  0.00     0.188 A 
HETATM   24  N   UNK N   1      35.960  13.093   3.604  0.00  0.00    -0.346 N 
HETATM   25  C   UNK N   1      34.704  13.553   3.477  0.00  0.00     0.122 A 
ATOM     26  HN  UNK N   1      36.440  12.414   3.012  1.00  0.00     0.167 HD
HETATM   27  C   UNK N   1      33.710  13.200   2.574  0.00  0.00     0.131 A 
HETATM   28  C   UNK N   1      34.445  14.453   4.445  0.00  0.00     0.142 A 
HETATM   29  N   UNK N   1      32.499  13.823   2.677  0.00  0.00    -0.337 N 
HETATM   30  C   UNK N   1      32.267  14.759   3.655  0.00  0.00     0.183 A 
ATOM     31  HN  UNK N   1      31.755  13.588   2.019  1.00  0.00     0.168 HD
HETATM   32  N   UNK N   1      33.242  15.063   4.565  0.00  0.00    -0.336 N 
ATOM     33  HN  UNK N   1      33.067  15.731   5.316  1.00  0.00     0.168 HD
BRANCH  27  34
HETATM   34  N   UNK N   1      33.923  12.200   1.605  0.00  0.00    -0.383 N 
HETATM   35  H   UNK N   1      33.202  11.576   1.356  0.00  0.00     0.157 HD
HETATM   36  H   UNK N   1      34.803  12.122   1.171  0.00  0.00     0.157 HD
ENDBRANCH  27  34
ENDBRANCH  11  22
ENDBRANCH   7   8
ENDBRANCH   6   7
ENDBRANCH   2   6
ENDBRANCH   1   2
BRANCH   1  37
HETATM   37  P   UNK N   1      28.254  18.282   7.887  0.00  0.00     0.401 P 
HETATM   38  O   UNK N   1      27.884  16.939   7.196  0.00  0.00    -0.631 OA
BRANCH  37  39
HETATM   39  O   UNK N   1      27.452  18.248   9.423  0.00  0.00    -0.307 OA
HETATM   40  H   UNK N   1      27.563  17.859  10.306  0.00  0.00     0.222 HD
ENDBRANCH  37  39
BRANCH  37  41
HETATM   41  O   UNK N   1      27.632  19.564   6.882  0.00  0.00    -0.296 OA
BRANCH  41  42
HETATM   42  C   UNK N   1      27.648  19.066   5.575  0.00  0.00     0.192 C 
BRANCH  42  43
HETATM   43  C   UNK N   1      26.385  19.443   4.794  0.00  0.00     0.008 C 
HETATM   44  C   UNK N   1      25.697  20.551   5.576  0.00  0.00     0.020 C 
HETATM   45  C   UNK N   1      26.781  20.055   3.461  0.00  0.00     0.020 C 
BRANCH  43  46
HETATM   46  C   UNK N   1      25.391  18.249   4.674  0.00  0.00     0.202 C 
BRANCH  46  47
HETATM   47  C   UNK N   1      23.909  18.578   4.563  0.00  0.00     0.141 C 
BRANCH  47  48
HETATM   48  N   UNK N   1      23.314  18.883   3.460  0.00  0.00    -0.372 N 
ATOM     49  HN  UNK N   1      23.070  18.114   2.835  1.00  0.00     0.161 HD
BRANCH  48  50
HETATM   50  C   UNK N   1      22.961  20.215   3.031  0.00  0.00     0.129 C 
BRANCH  50  51
HETATM   51  C   UNK N   1      21.449  20.370   2.831  0.00  0.00     0.103 C 
BRANCH  51  52
HETATM   52  C   UNK N   1      20.980  20.017   1.453  0.00  0.00     0.112 C 
BRANCH  52  53
HETATM   53  N   UNK N   1      20.228  18.983   1.291  0.00  0.00    -0.374 N 
ATOM     54  HN  UNK N   1      19.902  18.768   0.348  1.00  0.00     0.161 HD
BRANCH  53  55
HETATM   55  C   UNK N   1      19.819  18.111   2.373  0.00  0.00     0.132 C 
BRANCH  55  56
HETATM   56  C   UNK N   1      20.571  16.773   2.413  0.00  0.00     0.102 C 
BRANCH  56  57
HETATM   57  S   UNK N   1      19.696  15.446   3.318  0.00  0.00    -0.090 SA
BRANCH  57  58
HETATM   58  C   UNK N   1      20.559  15.746   4.859  0.00  0.00     0.195 C 
HETATM   59  O   UNK N   1      21.625  16.337   4.848  0.00  0.00    -0.285 OA
BRANCH  58  60
HETATM   60  C   UNK N   1      20.024  15.210   6.146  0.00  0.00     0.164 C 
BRANCH  60  61
HETATM   61  S   UNK N   1      21.228  14.116   6.961  0.00  0.00    -0.161 SA
BRANCH  61  62
HETATM   62  C   UNK N   1      20.866  14.773   8.620  0.00  0.00     0.074 C 
BRANCH  62  63
HETATM   63  C   UNK N   1      20.811  13.651   9.641  0.00  0.00     0.010 C 
BRANCH  63  64
HETATM   64  C   UNK N   1      22.201  13.370  10.187  0.00  0.00     0.000 C 
BRANCH  64  65
HETATM   65  C   UNK N   1      22.300  11.939  10.682  0.00  0.00    -0.005 C 
HETATM   66  C   UNK N   1      23.306  11.838  11.812  0.00  0.00     0.005 C 
ENDBRANCH  64  65
ENDBRANCH  63  64
ENDBRANCH  62  63
ENDBRANCH  61  62
ENDBRANCH  60  61
ENDBRANCH  58  60
ENDBRANCH  57  58
ENDBRANCH  56  57
ENDBRANCH  55  56
ENDBRANCH  53  55
ENDBRANCH  52  53
BRANCH  52  67
HETATM   67  O   UNK N   1      21.351  20.778   0.400  0.00  0.00    -0.350 OA
HETATM   68  H   UNK N   1      21.073  20.852  -0.492  0.00  0.00     0.219 HD
ENDBRANCH  52  67
ENDBRANCH  51  52
ENDBRANCH  50  51
ENDBRANCH  48  50
ENDBRANCH  47  48
BRANCH  47  69
HETATM   69  O   UNK N   1      23.185  18.605   5.697  0.00  0.00    -0.348 OA
HETATM   70  H   UNK N   1      22.618  18.819   6.412  0.00  0.00     0.219 HD
ENDBRANCH  47  69
ENDBRANCH  46  47
BRANCH  46  71
HETATM   71  O   UNK N   1      25.593  17.326   5.704  0.00  0.00    -0.387 OA
HETATM   72  H   UNK N   1      26.395  16.891   6.034  0.00  0.00     0.210 HD
ENDBRANCH  46  71
ENDBRANCH  43  46
ENDBRANCH  42  43
ENDBRANCH  41  42
ENDBRANCH  37  41
ENDBRANCH   1  37
TORSDOF 37
ENDMDL
MODEL 9
REMARK VINA RESULT:      -6.1      5.884     12.815
REMARK WARNING: 32 MAX_TORS EXCEEDED!!!
REMARK  37 active torsions:
REMARK  status: ('A' for Active; 'I' for Inactive)
REMARK    1  A    between atoms: C_5  and  C_4 
REMARK    2  A    between atoms: C_6  and  C_5 
REMARK    3  A    between atoms: C_10  and  C_6 
REMARK    4  A    between atoms: C_8  and  C_7 
REMARK    5  A    between atoms: C_18  and  C_7 
REMARK    6  A    between atoms: N_32  and  C_8 
REMARK    7  A    between atoms: C_11  and  C_9 
REMARK    8  A    between atoms: N_30  and  C_9 
REMARK    9  A    between atoms: S_61  and  C_10 
REMARK   10  A    between atoms: S_62  and  C_11 
REMARK   11  A    between atoms: C_17  and  C_12 
REMARK   12  A    between atoms: O_53  and  C_12 
REMARK   13  A    between atoms: C_19  and  C_13 
REMARK   14  A    between atoms: S_61  and  C_13 
REMARK   15  A    between atoms: C_28  and  C_14 
REMARK   16  A    between atoms: O_54  and  C_14 
REMARK   17  A    between atoms: N_30  and  C_18 
REMARK   18  A    between atoms: O_41  and  C_18 
REMARK   19  A    between atoms: S_62  and  C_19 
REMARK   20  A    between atoms: C_21  and  O_43 
REMARK   21  A    between atoms: C_22  and  O_56 
REMARK   22  A    between atoms: C_26  and  C_23 
REMARK   23  A    between atoms: C_28  and  C_23 
REMARK   24  A    between atoms: C_23  and  O_44 
REMARK   25  A    between atoms: N_29  and  C_24 
REMARK   26  A    between atoms: N_32  and  C_26 
REMARK   27  A    between atoms: O_45  and  C_26 
REMARK   28  A    between atoms: C_27  and  N_40 
REMARK   29  A    between atoms: P_58  and  O_46 
REMARK   30  A    between atoms: P_58  and  O_47 
REMARK   31  A    between atoms: P_59  and  O_49 
REMARK   32  A    between atoms: P_60  and  O_51 
REMARK   33  A    between atoms: P_59  and  O_53 
REMARK   34  A    between atoms: P_60  and  O_54 
REMARK   35  A    between atoms: P_58  and  O_56 
REMARK   36  A    between atoms: P_59  and  O_57 
REMARK   37  A    between atoms: P_60  and  O_57 
ROOT
HETATM    1  O   UNK N   1      25.389  15.384   5.971  0.00  0.00    -0.195 OA
ENDROOT
BRANCH   1   2
HETATM    2  P   UNK N   1      26.565  14.426   5.107  0.00  0.00     0.401 P 
HETATM    3  O   UNK N   1      25.786  15.302   4.098  0.00  0.00    -0.631 OA
BRANCH   2   4
HETATM    4  O   UNK N   1      27.345  15.280   6.415  0.00  0.00    -0.307 OA
HETATM    5  H   UNK N   1      27.677  15.330   7.324  0.00  0.00     0.222 HD
ENDBRANCH   2   4
BRANCH   2   6
HETATM    6  O   UNK N   1      27.838  15.180   4.094  0.00  0.00    -0.294 OA
BRANCH   6   7
HETATM    7  C   UNK N   1      27.511  16.393   3.424  0.00  0.00     0.215 C 
BRANCH   7   8
HETATM    8  C   UNK N   1      28.387  17.555   3.903  0.00  0.00     0.180 C 
HETATM    9  C   UNK N   1      27.569  18.721   4.516  0.00  0.00     0.197 C 
HETATM   10  C   UNK N   1      27.840  18.524   5.994  0.00  0.00     0.199 C 
HETATM   11  C   UNK N   1      29.287  18.086   5.894  0.00  0.00     0.262 C 
HETATM   12  O   UNK N   1      29.295  17.091   4.896  0.00  0.00    -0.353 OA
BRANCH   9  13
HETATM   13  O   UNK N   1      26.175  18.666   4.201  0.00  0.00    -0.286 OA
BRANCH  13  14
HETATM   14  P   UNK N   1      25.302  20.211   3.976  0.00  0.00     0.391 P 
HETATM   15  O   UNK N   1      24.170  19.316   3.400  0.00  0.00    -0.632 OA
BRANCH  14  16
HETATM   16  O   UNK N   1      25.082  20.655   2.313  0.00  0.00    -0.307 OA
HETATM   17  H   UNK N   1      25.606  20.976   1.562  0.00  0.00     0.222 HD
ENDBRANCH  14  16
BRANCH  14  18
HETATM   18  O   UNK N   1      26.756  20.494   3.081  0.00  0.00    -0.307 OA
HETATM   19  H   UNK N   1      27.558  20.859   3.486  0.00  0.00     0.222 HD
ENDBRANCH  14  18
ENDBRANCH  13  14
ENDBRANCH   9  13
BRANCH  10  20
HETATM   20  O   UNK N   1      27.701  19.715   6.708  0.00  0.00    -0.388 OA
HETATM   21  H   UNK N   1      28.252  19.906   7.485  0.00  0.00     0.210 HD
ENDBRANCH  10  20
BRANCH  11  22
HETATM   22  N   UNK N   1      29.917  17.627   7.139  0.00  0.00    -0.297 N 
HETATM   23  C   UNK N   1      29.373  17.678   8.385  0.00  0.00     0.188 A 
HETATM   24  N   UNK N   1      30.123  16.981   9.285  0.00  0.00    -0.346 N 
HETATM   25  C   UNK N   1      31.150  16.500   8.563  0.00  0.00     0.122 A 
ATOM     26  HN  UNK N   1      29.946  16.853  10.282  1.00  0.00     0.167 HD
HETATM   27  C   UNK N   1      32.194  15.665   8.940  0.00  0.00     0.131 A 
HETATM   28  C   UNK N   1      31.039  16.902   7.282  0.00  0.00     0.142 A 
HETATM   29  N   UNK N   1      33.109  15.313   7.989  0.00  0.00    -0.337 N 
HETATM   30  C   UNK N   1      32.991  15.760   6.696  0.00  0.00     0.183 A 
ATOM     31  HN  UNK N   1      33.891  14.709   8.244  1.00  0.00     0.168 HD
HETATM   32  N   UNK N   1      31.932  16.545   6.330  0.00  0.00    -0.336 N 
ATOM     33  HN  UNK N   1      31.817  16.852   5.364  1.00  0.00     0.168 HD
BRANCH  27  34
HETATM   34  N   UNK N   1      32.289  15.158  10.251  0.00  0.00    -0.383 N 
HETATM   35  H   UNK N   1      33.049  15.397  10.831  0.00  0.00     0.157 HD
HETATM   36  H   UNK N   1      31.589  14.557  10.592  0.00  0.00     0.157 HD
ENDBRANCH  27  34
ENDBRANCH  11  22
ENDBRANCH   7   8
ENDBRANCH   6   7
ENDBRANCH   2   6
ENDBRANCH   1   2
BRANCH   1  37
HETATM   37  P   UNK N   1      23.990  14.362   6.254  0.00  0.00     0.401 P 
HETATM   38  O   UNK N   1      22.893  15.215   6.949  0.00  0.00    -0.631 OA
BRANCH  37  39
HETATM   39  O   UNK N   1      23.294  13.849   4.752  0.00  0.00    -0.307 OA
HETATM   40  H   UNK N   1      22.556  14.076   4.165  0.00  0.00     0.222 HD
ENDBRANCH  37  39
BRANCH  37  41
HETATM   41  O   UNK N   1      24.315  12.999   7.293  0.00  0.00    -0.296 OA
BRANCH  41  42
HETATM   42  C   UNK N   1      23.960  13.410   8.582  0.00  0.00     0.192 C 
BRANCH  42  43
HETATM   43  C   UNK N   1      23.424  12.253   9.433  0.00  0.00     0.008 C 
HETATM   44  C   UNK N   1      23.660  10.977   8.641  0.00  0.00     0.020 C 
HETATM   45  C   UNK N   1      24.262  12.125  10.694  0.00  0.00     0.020 C 
BRANCH  43  46
HETATM   46  C   UNK N   1      21.894  12.380   9.698  0.00  0.00     0.202 C 
BRANCH  46  47
HETATM   47  C   UNK N   1      21.144  13.486   8.968  0.00  0.00     0.141 C 
BRANCH  47  48
HETATM   48  N   UNK N   1      20.879  14.641   9.477  0.00  0.00    -0.372 N 
ATOM     49  HN  UNK N   1      21.572  15.040  10.111  1.00  0.00     0.161 HD
BRANCH  48  50
HETATM   50  C   UNK N   1      19.689  15.420   9.230  0.00  0.00     0.129 C 
BRANCH  50  51
HETATM   51  C   UNK N   1      20.023  16.832   8.736  0.00  0.00     0.103 C 
BRANCH  51  52
HETATM   52  C   UNK N   1      20.416  16.892   7.292  0.00  0.00     0.112 C 
BRANCH  52  53
HETATM   53  N   UNK N   1      19.985  15.983   6.486  0.00  0.00    -0.374 N 
ATOM     54  HN  UNK N   1      19.954  15.020   6.819  1.00  0.00     0.161 HD
BRANCH  53  55
HETATM   55  C   UNK N   1      19.542  16.256   5.133  0.00  0.00     0.132 C 
BRANCH  55  56
HETATM   56  C   UNK N   1      20.447  15.656   4.048  0.00  0.00     0.102 C 
BRANCH  56  57
HETATM   57  S   UNK N   1      21.015  16.859   2.793  0.00  0.00    -0.090 SA
BRANCH  57  58
HETATM   58  C   UNK N   1      20.325  15.948   1.413  0.00  0.00     0.195 C 
HETATM   59  O   UNK N   1      20.457  16.379   0.281  0.00  0.00    -0.285 OA
BRANCH  58  60
HETATM   60  C   UNK N   1      19.524  14.710   1.644  0.00  0.00     0.164 C 
BRANCH  60  61
HETATM   61  S   UNK N   1      20.121  13.331   0.618  0.00  0.00    -0.161 SA
BRANCH  61  62
HETATM   62  C   UNK N   1      21.728  13.249   1.468  0.00  0.00     0.074 C 
BRANCH  62  63
HETATM   63  C   UNK N   1      22.868  13.285   0.466  0.00  0.00     0.010 C 
BRANCH  63  64
HETATM   64  C   UNK N   1      24.066  14.005   1.061  0.00  0.00     0.000 C 
BRANCH  64  65
HETATM   65  C   UNK N   1      25.125  13.010   1.496  0.00  0.00    -0.005 C 
HETATM   66  C   UNK N   1      24.909  11.675   0.812  0.00  0.00     0.005 C 
ENDBRANCH  64  65
ENDBRANCH  63  64
ENDBRANCH  62  63
ENDBRANCH  61  62
ENDBRANCH  60  61
ENDBRANCH  58  60
ENDBRANCH  57  58
ENDBRANCH  56  57
ENDBRANCH  55  56
ENDBRANCH  53  55
ENDBRANCH  52  53
BRANCH  52  67
HETATM   67  O   UNK N   1      21.216  17.888   6.852  0.00  0.00    -0.350 OA
HETATM   68  H   UNK N   1      21.100  18.628   6.290  0.00  0.00     0.219 HD
ENDBRANCH  52  67
ENDBRANCH  51  52
ENDBRANCH  50  51
ENDBRANCH  48  50
ENDBRANCH  47  48
BRANCH  47  69
HETATM   69  O   UNK N   1      20.681  13.221   7.733  0.00  0.00    -0.348 OA
HETATM   70  H   UNK N   1      20.169  13.006   6.977  0.00  0.00     0.219 HD
ENDBRANCH  47  69
ENDBRANCH  46  47
BRANCH  46  71
HETATM   71  O   UNK N   1      21.629  12.457  11.069  0.00  0.00    -0.387 OA
HETATM   72  H   UNK N   1      22.170  12.238  11.844  0.00  0.00     0.210 HD
ENDBRANCH  46  71
ENDBRANCH  43  46
ENDBRANCH  42  43
ENDBRANCH  41  42
ENDBRANCH  37  41
ENDBRANCH   1  37
TORSDOF 37
ENDMDL
