MODEL 1
REMARK VINA RESULT:      -6.8      0.000      0.000
REMARK  4 active torsions:
REMARK  status: ('A' for Active; 'I' for Inactive)
REMARK    1  A    between atoms: O_2  and  C_3 
REMARK    2  A    between atoms: C_3  and  C_5 
REMARK    3  A    between atoms: C_5  and  C_7 
REMARK    4  A    between atoms: C_10  and  C_14 
ROOT
HETATM    1  C   UNK N   1      35.839  13.600  12.690  0.00  0.00    -0.042 A 
HETATM    2  C   UNK N   1      34.973  12.579  13.101  0.00  0.00     0.009 A 
HETATM    3  C   UNK N   1      34.873  12.237  14.452  0.00  0.00     0.016 A 
HETATM    4  C   UNK N   1      35.619  12.918  15.429  0.00  0.00     0.013 A 
HETATM    5  C   UNK N   1      36.462  13.978  15.015  0.00  0.00     0.128 A 
HETATM    6  F   UNK N   1      37.191  14.693  15.906  0.00  0.00    -0.205 F 
HETATM    7  C   UNK N   1      36.570  14.301  13.661  0.00  0.00     0.051 A 
ENDROOT
BRANCH   1   8
HETATM    8  C   UNK N   1      35.977  13.915  11.214  0.00  0.00     0.114 C 
HETATM    9  C   UNK N   1      37.371  13.553  10.719  0.00  0.00     0.025 C 
BRANCH   8  10
HETATM   10  C   UNK N   1      35.715  15.358  10.867  0.00  0.00     0.266 C 
HETATM   11  O   UNK N   1      36.653  16.137  10.746  0.00  0.00    -0.265 OA
BRANCH  10  12
HETATM   12  O   UNK N   1      34.442  15.775  10.661  0.00  0.00    -0.326 OA
HETATM   13  C   UNK N   1      33.580  15.105   9.822  0.00  0.00     0.213 C 
ENDBRANCH  10  12
ENDBRANCH   8  10
ENDBRANCH   1   8
BRANCH   4  14
HETATM   14  C   UNK N   1      35.512  12.494  16.857  0.00  0.00    -0.023 A 
HETATM   15  C   UNK N   1      35.797  11.166  17.222  0.00  0.00     0.012 A 
HETATM   16  C   UNK N   1      35.724  10.763  18.560  0.00  0.00     0.001 A 
HETATM   17  C   UNK N   1      35.371  11.684  19.549  0.00  0.00     0.000 A 
HETATM   18  C   UNK N   1      35.088  13.006  19.201  0.00  0.00     0.001 A 
HETATM   19  C   UNK N   1      35.158  13.407  17.865  0.00  0.00     0.012 A 
ENDBRANCH   4  14
TORSDOF 4
ENDMDL
MODEL 2
REMARK VINA RESULT:      -6.7      1.492      1.999
REMARK  4 active torsions:
REMARK  status: ('A' for Active; 'I' for Inactive)
REMARK    1  A    between atoms: O_2  and  C_3 
REMARK    2  A    between atoms: C_3  and  C_5 
REMARK    3  A    between atoms: C_5  and  C_7 
REMARK    4  A    between atoms: C_10  and  C_14 
ROOT
HETATM    1  C   UNK N   1      35.380  13.435  12.633  0.00  0.00    -0.042 A 
HETATM    2  C   UNK N   1      36.165  14.139  13.554  0.00  0.00     0.009 A 
HETATM    3  C   UNK N   1      36.175  13.773  14.902  0.00  0.00     0.016 A 
HETATM    4  C   UNK N   1      35.417  12.682  15.361  0.00  0.00     0.013 A 
HETATM    5  C   UNK N   1      34.657  11.946  14.421  0.00  0.00     0.128 A 
HETATM    6  F   UNK N   1      33.922  10.868  14.790  0.00  0.00    -0.205 F 
HETATM    7  C   UNK N   1      34.639  12.330  13.078  0.00  0.00     0.051 A 
ENDROOT
BRANCH   1   8
HETATM    8  C   UNK N   1      35.338  13.885  11.186  0.00  0.00     0.114 C 
HETATM    9  C   UNK N   1      35.099  12.698  10.264  0.00  0.00     0.025 C 
BRANCH   8  10
HETATM   10  C   UNK N   1      36.587  14.594  10.728  0.00  0.00     0.266 C 
HETATM   11  O   UNK N   1      37.571  13.944  10.397  0.00  0.00    -0.265 OA
BRANCH  10  12
HETATM   12  O   UNK N   1      36.599  15.947  10.655  0.00  0.00    -0.326 OA
HETATM   13  C   UNK N   1      35.439  16.687  10.608  0.00  0.00     0.213 C 
ENDBRANCH  10  12
ENDBRANCH   8  10
ENDBRANCH   1   8
BRANCH   4  14
HETATM   14  C   UNK N   1      35.424  12.349  16.817  0.00  0.00    -0.023 A 
HETATM   15  C   UNK N   1      35.795  11.062  17.245  0.00  0.00     0.012 A 
HETATM   16  C   UNK N   1      35.831  10.745  18.607  0.00  0.00     0.001 A 
HETATM   17  C   UNK N   1      35.502  11.713  19.558  0.00  0.00     0.000 A 
HETATM   18  C   UNK N   1      35.134  12.996  19.149  0.00  0.00     0.001 A 
HETATM   19  C   UNK N   1      35.096  13.311  17.789  0.00  0.00     0.012 A 
ENDBRANCH   4  14
TORSDOF 4
ENDMDL
MODEL 3
REMARK VINA RESULT:      -6.4     20.581     23.368
REMARK  4 active torsions:
REMARK  status: ('A' for Active; 'I' for Inactive)
REMARK    1  A    between atoms: O_2  and  C_3 
REMARK    2  A    between atoms: C_3  and  C_5 
REMARK    3  A    between atoms: C_5  and  C_7 
REMARK    4  A    between atoms: C_10  and  C_14 
ROOT
HETATM    1  C   UNK N   1      26.657  25.493  -4.639  0.00  0.00    -0.042 A 
HETATM    2  C   UNK N   1      27.534  25.215  -5.695  0.00  0.00     0.009 A 
HETATM    3  C   UNK N   1      28.581  24.306  -5.524  0.00  0.00     0.016 A 
HETATM    4  C   UNK N   1      28.768  23.638  -4.301  0.00  0.00     0.013 A 
HETATM    5  C   UNK N   1      27.856  23.890  -3.249  0.00  0.00     0.128 A 
HETATM    6  F   UNK N   1      27.961  23.263  -2.052  0.00  0.00    -0.205 F 
HETATM    7  C   UNK N   1      26.822  24.813  -3.423  0.00  0.00     0.051 A 
ENDROOT
BRANCH   1   8
HETATM    8  C   UNK N   1      25.564  26.527  -4.827  0.00  0.00     0.114 C 
HETATM    9  C   UNK N   1      25.409  26.877  -6.300  0.00  0.00     0.025 C 
BRANCH   8  10
HETATM   10  C   UNK N   1      25.789  27.805  -4.060  0.00  0.00     0.266 C 
HETATM   11  O   UNK N   1      25.448  27.879  -2.886  0.00  0.00    -0.265 OA
BRANCH  10  12
HETATM   12  O   UNK N   1      26.396  28.852  -4.669  0.00  0.00    -0.326 OA
HETATM   13  C   UNK N   1      26.597  30.054  -4.028  0.00  0.00     0.213 C 
ENDBRANCH  10  12
ENDBRANCH   8  10
ENDBRANCH   1   8
BRANCH   4  14
HETATM   14  C   UNK N   1      29.924  22.705  -4.149  0.00  0.00    -0.023 A 
HETATM   15  C   UNK N   1      30.879  22.923  -3.139  0.00  0.00     0.012 A 
HETATM   16  C   UNK N   1      31.953  22.042  -2.971  0.00  0.00     0.001 A 
HETATM   17  C   UNK N   1      32.081  20.929  -3.805  0.00  0.00     0.000 A 
HETATM   18  C   UNK N   1      31.139  20.698  -4.808  0.00  0.00     0.001 A 
HETATM   19  C   UNK N   1      30.069  21.580  -4.979  0.00  0.00     0.012 A 
ENDBRANCH   4  14
TORSDOF 4
ENDMDL
MODEL 4
REMARK VINA RESULT:      -6.3      8.243     12.493
REMARK  4 active torsions:
REMARK  status: ('A' for Active; 'I' for Inactive)
REMARK    1  A    between atoms: O_2  and  C_3 
REMARK    2  A    between atoms: C_3  and  C_5 
REMARK    3  A    between atoms: C_5  and  C_7 
REMARK    4  A    between atoms: C_10  and  C_14 
ROOT
HETATM    1  C   UNK N   1      31.620  16.932   6.520  0.00  0.00    -0.042 A 
HETATM    2  C   UNK N   1      31.574  17.147   5.137  0.00  0.00     0.009 A 
HETATM    3  C   UNK N   1      30.412  17.636   4.536  0.00  0.00     0.016 A 
HETATM    4  C   UNK N   1      29.274  17.942   5.301  0.00  0.00     0.013 A 
HETATM    5  C   UNK N   1      29.338  17.764   6.704  0.00  0.00     0.128 A 
HETATM    6  F   UNK N   1      28.286  18.062   7.506  0.00  0.00    -0.205 F 
HETATM    7  C   UNK N   1      30.498  17.258   7.295  0.00  0.00     0.051 A 
ENDROOT
BRANCH   1   8
HETATM    8  C   UNK N   1      32.871  16.345   7.145  0.00  0.00     0.114 C 
HETATM    9  C   UNK N   1      32.817  16.466   8.661  0.00  0.00     0.025 C 
BRANCH   8  10
HETATM   10  C   UNK N   1      34.152  16.980   6.667  0.00  0.00     0.266 C 
HETATM   11  O   UNK N   1      34.439  18.117   7.022  0.00  0.00    -0.265 OA
BRANCH  10  12
HETATM   12  O   UNK N   1      34.992  16.274   5.872  0.00  0.00    -0.326 OA
HETATM   13  C   UNK N   1      34.789  14.940   5.596  0.00  0.00     0.213 C 
ENDBRANCH  10  12
ENDBRANCH   8  10
ENDBRANCH   1   8
BRANCH   4  14
HETATM   14  C   UNK N   1      28.039  18.425   4.613  0.00  0.00    -0.023 A 
HETATM   15  C   UNK N   1      27.071  17.505   4.172  0.00  0.00     0.012 A 
HETATM   16  C   UNK N   1      25.899  17.946   3.549  0.00  0.00     0.001 A 
HETATM   17  C   UNK N   1      25.678  19.313   3.364  0.00  0.00     0.000 A 
HETATM   18  C   UNK N   1      26.629  20.238   3.799  0.00  0.00     0.001 A 
HETATM   19  C   UNK N   1      27.800  19.796   4.419  0.00  0.00     0.012 A 
ENDBRANCH   4  14
TORSDOF 4
ENDMDL
MODEL 5
REMARK VINA RESULT:      -6.2      6.815     11.763
REMARK  4 active torsions:
REMARK  status: ('A' for Active; 'I' for Inactive)
REMARK    1  A    between atoms: O_2  and  C_3 
REMARK    2  A    between atoms: C_3  and  C_5 
REMARK    3  A    between atoms: C_5  and  C_7 
REMARK    4  A    between atoms: C_10  and  C_14 
ROOT
HETATM    1  C   UNK N   1      32.960  17.300   6.343  0.00  0.00    -0.042 A 
HETATM    2  C   UNK N   1      32.781  17.541   4.975  0.00  0.00     0.009 A 
HETATM    3  C   UNK N   1      31.497  17.601   4.429  0.00  0.00     0.016 A 
HETATM    4  C   UNK N   1      30.358  17.442   5.238  0.00  0.00     0.013 A 
HETATM    5  C   UNK N   1      30.541  17.241   6.627  0.00  0.00     0.128 A 
HETATM    6  F   UNK N   1      29.488  17.104   7.469  0.00  0.00    -0.205 F 
HETATM    7  C   UNK N   1      31.829  17.164   7.161  0.00  0.00     0.051 A 
ENDROOT
BRANCH   1   8
HETATM    8  C   UNK N   1      34.363  17.180   6.904  0.00  0.00     0.114 C 
HETATM    9  C   UNK N   1      34.766  15.717   7.024  0.00  0.00     0.025 C 
BRANCH   8  10
HETATM   10  C   UNK N   1      34.543  17.831   8.252  0.00  0.00     0.266 C 
HETATM   11  O   UNK N   1      34.882  19.006   8.321  0.00  0.00    -0.265 OA
BRANCH  10  12
HETATM   12  O   UNK N   1      34.297  17.117   9.377  0.00  0.00    -0.326 OA
HETATM   13  C   UNK N   1      35.264  16.907  10.334  0.00  0.00     0.213 C 
ENDBRANCH  10  12
ENDBRANCH   8  10
ENDBRANCH   1   8
BRANCH   4  14
HETATM   14  C   UNK N   1      29.004  17.473   4.607  0.00  0.00    -0.023 A 
HETATM   15  C   UNK N   1      28.463  16.306   4.038  0.00  0.00     0.012 A 
HETATM   16  C   UNK N   1      27.187  16.317   3.467  0.00  0.00     0.001 A 
HETATM   17  C   UNK N   1      26.433  17.493   3.463  0.00  0.00     0.000 A 
HETATM   18  C   UNK N   1      26.955  18.658   4.027  0.00  0.00     0.001 A 
HETATM   19  C   UNK N   1      28.232  18.647   4.594  0.00  0.00     0.012 A 
ENDBRANCH   4  14
TORSDOF 4
ENDMDL
MODEL 6
REMARK VINA RESULT:      -6.2     20.544     23.254
REMARK  4 active torsions:
REMARK  status: ('A' for Active; 'I' for Inactive)
REMARK    1  A    between atoms: O_2  and  C_3 
REMARK    2  A    between atoms: C_3  and  C_5 
REMARK    3  A    between atoms: C_5  and  C_7 
REMARK    4  A    between atoms: C_10  and  C_14 
ROOT
HETATM    1  C   UNK N   1      26.953  26.289  -3.782  0.00  0.00    -0.042 A 
HETATM    2  C   UNK N   1      26.589  25.008  -3.351  0.00  0.00     0.009 A 
HETATM    3  C   UNK N   1      27.520  23.965  -3.367  0.00  0.00     0.016 A 
HETATM    4  C   UNK N   1      28.841  24.181  -3.795  0.00  0.00     0.013 A 
HETATM    5  C   UNK N   1      29.217  25.487  -4.190  0.00  0.00     0.128 A 
HETATM    6  F   UNK N   1      30.480  25.771  -4.591  0.00  0.00    -0.205 F 
HETATM    7  C   UNK N   1      28.275  26.519  -4.188  0.00  0.00     0.051 A 
ENDROOT
BRANCH   1   8
HETATM    8  C   UNK N   1      25.912  27.392  -3.812  0.00  0.00     0.114 C 
HETATM    9  C   UNK N   1      25.246  27.459  -5.179  0.00  0.00     0.025 C 
BRANCH   8  10
HETATM   10  C   UNK N   1      26.456  28.759  -3.485  0.00  0.00     0.266 C 
HETATM   11  O   UNK N   1      26.379  29.660  -4.311  0.00  0.00    -0.265 OA
BRANCH  10  12
HETATM   12  O   UNK N   1      27.000  28.988  -2.265  0.00  0.00    -0.326 OA
HETATM   13  C   UNK N   1      28.170  29.695  -2.107  0.00  0.00     0.213 C 
ENDBRANCH  10  12
ENDBRANCH   8  10
ENDBRANCH   1   8
BRANCH   4  14
HETATM   14  C   UNK N   1      29.792  23.030  -3.835  0.00  0.00    -0.023 A 
HETATM   15  C   UNK N   1      29.789  22.149  -4.931  0.00  0.00     0.012 A 
HETATM   16  C   UNK N   1      30.692  21.082  -4.991  0.00  0.00     0.001 A 
HETATM   17  C   UNK N   1      31.613  20.887  -3.959  0.00  0.00     0.000 A 
HETATM   18  C   UNK N   1      31.630  21.756  -2.867  0.00  0.00     0.001 A 
HETATM   19  C   UNK N   1      30.727  22.819  -2.806  0.00  0.00     0.012 A 
ENDBRANCH   4  14
TORSDOF 4
ENDMDL
MODEL 7
REMARK VINA RESULT:      -6.1      2.296      3.769
REMARK  4 active torsions:
REMARK  status: ('A' for Active; 'I' for Inactive)
REMARK    1  A    between atoms: O_2  and  C_3 
REMARK    2  A    between atoms: C_3  and  C_5 
REMARK    3  A    between atoms: C_5  and  C_7 
REMARK    4  A    between atoms: C_10  and  C_14 
ROOT
HETATM    1  C   UNK N   1      36.324  12.894  15.813  0.00  0.00    -0.042 A 
HETATM    2  C   UNK N   1      35.613  13.448  16.885  0.00  0.00     0.009 A 
HETATM    3  C   UNK N   1      35.111  12.629  17.900  0.00  0.00     0.016 A 
HETATM    4  C   UNK N   1      35.323  11.240  17.880  0.00  0.00     0.013 A 
HETATM    5  C   UNK N   1      36.077  10.688  16.818  0.00  0.00     0.128 A 
HETATM    6  F   UNK N   1      36.341   9.360  16.749  0.00  0.00    -0.205 F 
HETATM    7  C   UNK N   1      36.560  11.512  15.798  0.00  0.00     0.051 A 
ENDROOT
BRANCH   1   8
HETATM    8  C   UNK N   1      36.808  13.793  14.693  0.00  0.00     0.114 C 
HETATM    9  C   UNK N   1      37.004  15.216  15.197  0.00  0.00     0.025 C 
BRANCH   8  10
HETATM   10  C   UNK N   1      35.887  13.838  13.500  0.00  0.00     0.266 C 
HETATM   11  O   UNK N   1      34.736  13.433  13.603  0.00  0.00    -0.265 OA
BRANCH  10  12
HETATM   12  O   UNK N   1      36.333  14.358  12.331  0.00  0.00    -0.326 OA
HETATM   13  C   UNK N   1      35.675  15.382  11.688  0.00  0.00     0.213 C 
ENDBRANCH  10  12
ENDBRANCH   8  10
ENDBRANCH   1   8
BRANCH   4  14
HETATM   14  C   UNK N   1      34.735  10.397  18.964  0.00  0.00    -0.023 A 
HETATM   15  C   UNK N   1      34.948  10.731  20.313  0.00  0.00     0.012 A 
HETATM   16  C   UNK N   1      34.382   9.964  21.336  0.00  0.00     0.001 A 
HETATM   17  C   UNK N   1      33.591   8.856  21.024  0.00  0.00     0.000 A 
HETATM   18  C   UNK N   1      33.368   8.514  19.689  0.00  0.00     0.001 A 
HETATM   19  C   UNK N   1      33.936   9.278  18.667  0.00  0.00     0.012 A 
ENDBRANCH   4  14
TORSDOF 4
ENDMDL
MODEL 8
REMARK VINA RESULT:      -6.0     25.152     26.388
REMARK  4 active torsions:
REMARK  status: ('A' for Active; 'I' for Inactive)
REMARK    1  A    between atoms: O_2  and  C_3 
REMARK    2  A    between atoms: C_3  and  C_5 
REMARK    3  A    between atoms: C_5  and  C_7 
REMARK    4  A    between atoms: C_10  and  C_14 
ROOT
HETATM    1  C   UNK N   1      26.349  24.288  -6.371  0.00  0.00    -0.042 A 
HETATM    2  C   UNK N   1      27.599  24.743  -5.931  0.00  0.00     0.009 A 
HETATM    3  C   UNK N   1      27.762  26.065  -5.509  0.00  0.00     0.016 A 
HETATM    4  C   UNK N   1      26.679  26.960  -5.497  0.00  0.00     0.013 A 
HETATM    5  C   UNK N   1      25.409  26.486  -5.902  0.00  0.00     0.128 A 
HETATM    6  F   UNK N   1      24.315  27.288  -5.892  0.00  0.00    -0.205 F 
HETATM    7  C   UNK N   1      25.257  25.168  -6.339  0.00  0.00     0.051 A 
ENDROOT
BRANCH   1   8
HETATM    8  C   UNK N   1      26.207  22.867  -6.880  0.00  0.00     0.114 C 
HETATM    9  C   UNK N   1      27.577  22.237  -7.091  0.00  0.00     0.025 C 
BRANCH   8  10
HETATM   10  C   UNK N   1      25.431  22.751  -8.168  0.00  0.00     0.266 C 
HETATM   11  O   UNK N   1      24.273  22.352  -8.148  0.00  0.00    -0.265 OA
BRANCH  10  12
HETATM   12  O   UNK N   1      26.013  23.121  -9.334  0.00  0.00    -0.326 OA
HETATM   13  C   UNK N   1      25.688  24.297  -9.972  0.00  0.00     0.213 C 
ENDBRANCH  10  12
ENDBRANCH   8  10
ENDBRANCH   1   8
BRANCH   4  14
HETATM   14  C   UNK N   1      26.906  28.375  -5.076  0.00  0.00    -0.023 A 
HETATM   15  C   UNK N   1      27.783  29.197  -5.807  0.00  0.00     0.012 A 
HETATM   16  C   UNK N   1      27.985  30.531  -5.438  0.00  0.00     0.001 A 
HETATM   17  C   UNK N   1      27.309  31.061  -4.337  0.00  0.00     0.000 A 
HETATM   18  C   UNK N   1      26.433  30.259  -3.604  0.00  0.00     0.001 A 
HETATM   19  C   UNK N   1      26.234  28.926  -3.972  0.00  0.00     0.012 A 
ENDBRANCH   4  14
TORSDOF 4
ENDMDL
MODEL 9
REMARK VINA RESULT:      -6.0     23.881     25.155
REMARK  4 active torsions:
REMARK  status: ('A' for Active; 'I' for Inactive)
REMARK    1  A    between atoms: O_2  and  C_3 
REMARK    2  A    between atoms: C_3  and  C_5 
REMARK    3  A    between atoms: C_5  and  C_7 
REMARK    4  A    between atoms: C_10  and  C_14 
ROOT
HETATM    1  C   UNK N   1      26.370  23.516  -6.184  0.00  0.00    -0.042 A 
HETATM    2  C   UNK N   1      27.770  23.535  -6.199  0.00  0.00     0.009 A 
HETATM    3  C   UNK N   1      28.483  22.575  -6.923  0.00  0.00     0.016 A 
HETATM    4  C   UNK N   1      27.816  21.586  -7.666  0.00  0.00     0.013 A 
HETATM    5  C   UNK N   1      26.400  21.596  -7.682  0.00  0.00     0.128 A 
HETATM    6  F   UNK N   1      25.693  20.686  -8.397  0.00  0.00    -0.205 F 
HETATM    7  C   UNK N   1      25.696  22.548  -6.941  0.00  0.00     0.051 A 
ENDROOT
BRANCH   1   8
HETATM    8  C   UNK N   1      25.618  24.530  -5.344  0.00  0.00     0.114 C 
HETATM    9  C   UNK N   1      25.423  25.826  -6.120  0.00  0.00     0.025 C 
BRANCH   8  10
HETATM   10  C   UNK N   1      26.289  24.862  -4.035  0.00  0.00     0.266 C 
HETATM   11  O   UNK N   1      26.315  24.030  -3.136  0.00  0.00    -0.265 OA
BRANCH  10  12
HETATM   12  O   UNK N   1      26.885  26.068  -3.876  0.00  0.00    -0.326 OA
HETATM   13  C   UNK N   1      26.375  27.029  -3.033  0.00  0.00     0.213 C 
ENDBRANCH  10  12
ENDBRANCH   8  10
ENDBRANCH   1   8
BRANCH   4  14
HETATM   14  C   UNK N   1      28.615  20.555  -8.393  0.00  0.00    -0.023 A 
HETATM   15  C   UNK N   1      29.101  19.427  -7.709  0.00  0.00     0.012 A 
HETATM   16  C   UNK N   1      29.830  18.442  -8.385  0.00  0.00     0.001 A 
HETATM   17  C   UNK N   1      30.077  18.571  -9.753  0.00  0.00     0.000 A 
HETATM   18  C   UNK N   1      29.599  19.685 -10.446  0.00  0.00     0.001 A 
HETATM   19  C   UNK N   1      28.873  20.669  -9.770  0.00  0.00     0.012 A 
ENDBRANCH   4  14
TORSDOF 4
ENDMDL
