MODEL 1
REMARK VINA RESULT:      -4.5      0.000      0.000
REMARK  1 active torsions:
REMARK  status: ('A' for Active; 'I' for Inactive)
REMARK    1  A    between atoms: N_7  and  C_6 
ROOT
HETATM    1  C   UNK N   1      41.513  21.472   2.438  0.00  0.00     0.049 A 
HETATM    2  C   UNK N   1      41.111  22.722   1.954  0.00  0.00     0.091 A 
HETATM    3  C   UNK N   1      44.894  21.241   3.818  0.00  0.00     0.182 A 
HETATM    4  C   UNK N   1      42.793  21.673   2.889  0.00  0.00     0.065 A 
HETATM    5  C   UNK N   1      43.122  22.966   2.677  0.00  0.00     0.103 A 
HETATM    6  C   UNK N   1      44.376  23.431   3.036  0.00  0.00     0.129 A 
HETATM    7  N   UNK N   1      42.107  23.632   2.106  0.00  0.00    -0.361 N 
HETATM    8  N   UNK N   1      43.654  20.792   3.453  0.00  0.00    -0.350 N 
ATOM      9  HN  UNK N   1      43.385  19.819   3.603  1.00  0.00     0.166 HD
HETATM   10  N   UNK N   1      45.250  22.552   3.607  0.00  0.00    -0.337 N 
HETATM   11  H   UNK N   1      42.090  24.583   1.850  0.00  0.00     0.165 HD
HETATM   12  H   UNK N   1      46.147  22.860   3.872  0.00  0.00     0.168 HD
ENDROOT
BRANCH   6  13
HETATM   13  N   UNK N   1      44.714  24.648   2.833  0.00  0.00    -0.384 N 
HETATM   14  H   UNK N   1      45.492  24.854   2.265  0.00  0.00     0.157 HD
ATOM     15  HN  UNK N   1      44.179  25.404   3.259  1.00  0.00     0.157 HD
ENDBRANCH   6  13
TORSDOF 1
ENDMDL
MODEL 2
REMARK VINA RESULT:      -4.4     23.154     24.551
REMARK  1 active torsions:
REMARK  status: ('A' for Active; 'I' for Inactive)
REMARK    1  A    between atoms: N_7  and  C_6 
ROOT
HETATM    1  C   UNK N   1      24.056  11.822  11.374  0.00  0.00     0.049 A 
HETATM    2  C   UNK N   1      24.762  12.611  10.460  0.00  0.00     0.091 A 
HETATM    3  C   UNK N   1      20.421  12.237  11.454  0.00  0.00     0.182 A 
HETATM    4  C   UNK N   1      22.743  12.174  11.189  0.00  0.00     0.065 A 
HETATM    5  C   UNK N   1      22.686  13.117  10.224  0.00  0.00     0.103 A 
HETATM    6  C   UNK N   1      21.466  13.655   9.850  0.00  0.00     0.129 A 
HETATM    7  N   UNK N   1      23.911  13.402   9.759  0.00  0.00    -0.361 N 
HETATM    8  N   UNK N   1      21.633  11.717  11.819  0.00  0.00    -0.350 N 
ATOM      9  HN  UNK N   1      21.700  11.004  12.545  1.00  0.00     0.166 HD
HETATM   10  N   UNK N   1      20.342  13.200  10.477  0.00  0.00    -0.337 N 
HETATM   11  H   UNK N   1      24.143  14.052   9.055  0.00  0.00     0.165 HD
HETATM   12  H   UNK N   1      19.463  13.567  10.227  0.00  0.00     0.168 HD
ENDROOT
BRANCH   6  13
HETATM   13  N   UNK N   1      21.389  14.559   8.948  0.00  0.00    -0.384 N 
HETATM   14  H   UNK N   1      21.655  15.485   9.156  0.00  0.00     0.157 HD
ATOM     15  HN  UNK N   1      21.053  14.322   8.016  1.00  0.00     0.157 HD
ENDBRANCH   6  13
TORSDOF 1
ENDMDL
MODEL 3
REMARK VINA RESULT:      -4.4     22.733     24.092
REMARK  1 active torsions:
REMARK  status: ('A' for Active; 'I' for Inactive)
REMARK    1  A    between atoms: N_7  and  C_6 
ROOT
HETATM    1  C   UNK N   1      21.734  13.741   9.030  0.00  0.00     0.049 A 
HETATM    2  C   UNK N   1      20.627  13.381   9.808  0.00  0.00     0.091 A 
HETATM    3  C   UNK N   1      25.026  12.743  10.276  0.00  0.00     0.182 A 
HETATM    4  C   UNK N   1      22.812  13.247   9.718  0.00  0.00     0.065 A 
HETATM    5  C   UNK N   1      22.363  12.637  10.836  0.00  0.00     0.103 A 
HETATM    6  C   UNK N   1      23.259  12.058  11.719  0.00  0.00     0.129 A 
HETATM    7  N   UNK N   1      21.026  12.703  10.914  0.00  0.00    -0.361 N 
HETATM    8  N   UNK N   1      24.131  13.316   9.414  0.00  0.00    -0.350 N 
ATOM      9  HN  UNK N   1      24.449  13.783   8.564  1.00  0.00     0.166 HD
HETATM   10  N   UNK N   1      24.590  12.121  11.421  0.00  0.00    -0.337 N 
HETATM   11  H   UNK N   1      20.453  12.337  11.628  0.00  0.00     0.165 HD
HETATM   12  H   UNK N   1      25.245  11.715  12.034  0.00  0.00     0.168 HD
ENDROOT
BRANCH   6  13
HETATM   13  N   UNK N   1      22.857  11.487  12.791  0.00  0.00    -0.384 N 
HETATM   14  H   UNK N   1      22.218  11.946  13.384  0.00  0.00     0.157 HD
ATOM     15  HN  UNK N   1      23.197  10.556  13.031  1.00  0.00     0.157 HD
ENDBRANCH   6  13
TORSDOF 1
ENDMDL
MODEL 4
REMARK VINA RESULT:      -4.4     22.659     23.281
REMARK  1 active torsions:
REMARK  status: ('A' for Active; 'I' for Inactive)
REMARK    1  A    between atoms: N_7  and  C_6 
ROOT
HETATM    1  C   UNK N   1      20.270  16.529   2.026  0.00  0.00     0.049 A 
HETATM    2  C   UNK N   1      20.010  16.677   0.659  0.00  0.00     0.091 A 
HETATM    3  C   UNK N   1      20.982  19.580   3.916  0.00  0.00     0.182 A 
HETATM    4  C   UNK N   1      20.495  17.806   2.473  0.00  0.00     0.065 A 
HETATM    5  C   UNK N   1      20.377  18.652   1.428  0.00  0.00     0.103 A 
HETATM    6  C   UNK N   1      20.569  20.011   1.609  0.00  0.00     0.129 A 
HETATM    7  N   UNK N   1      20.078  17.986   0.303  0.00  0.00    -0.361 N 
HETATM    8  N   UNK N   1      20.796  18.238   3.722  0.00  0.00    -0.350 N 
ATOM      9  HN  UNK N   1      20.881  17.581   4.498  1.00  0.00     0.166 HD
HETATM   10  N   UNK N   1      20.870  20.458   2.864  0.00  0.00    -0.337 N 
HETATM   11  H   UNK N   1      19.938  18.367  -0.595  0.00  0.00     0.165 HD
HETATM   12  H   UNK N   1      21.010  21.420   3.017  0.00  0.00     0.168 HD
ENDROOT
BRANCH   6  13
HETATM   13  N   UNK N   1      20.475  20.830   0.631  0.00  0.00    -0.384 N 
HETATM   14  H   UNK N   1      19.704  21.440   0.571  0.00  0.00     0.157 HD
ATOM     15  HN  UNK N   1      21.198  20.850  -0.087  1.00  0.00     0.157 HD
ENDBRANCH   6  13
TORSDOF 1
ENDMDL
MODEL 5
REMARK VINA RESULT:      -4.4     22.458     23.745
REMARK  1 active torsions:
REMARK  status: ('A' for Active; 'I' for Inactive)
REMARK    1  A    between atoms: N_7  and  C_6 
ROOT
HETATM    1  C   UNK N   1      20.837  12.924  10.340  0.00  0.00     0.049 A 
HETATM    2  C   UNK N   1      20.999  13.644   9.151  0.00  0.00     0.091 A 
HETATM    3  C   UNK N   1      23.887  11.797  12.019  0.00  0.00     0.182 A 
HETATM    4  C   UNK N   1      22.116  12.638  10.745  0.00  0.00     0.065 A 
HETATM    5  C   UNK N   1      22.976  13.157   9.842  0.00  0.00     0.103 A 
HETATM    6  C   UNK N   1      24.341  12.999  10.012  0.00  0.00     0.129 A 
HETATM    7  N   UNK N   1      22.316  13.782   8.855  0.00  0.00    -0.361 N 
HETATM    8  N   UNK N   1      22.540  11.956  11.837  0.00  0.00    -0.350 N 
ATOM      9  HN  UNK N   1      21.873  11.571  12.506  1.00  0.00     0.166 HD
HETATM   10  N   UNK N   1      24.779  12.314  11.110  0.00  0.00    -0.337 N 
HETATM   11  H   UNK N   1      22.708  14.243   8.077  0.00  0.00     0.165 HD
HETATM   12  H   UNK N   1      25.745  12.190  11.252  0.00  0.00     0.168 HD
ENDROOT
BRANCH   6  13
HETATM   13  N   UNK N   1      25.173  13.471   9.163  0.00  0.00    -0.384 N 
HETATM   14  H   UNK N   1      24.879  14.144   8.507  0.00  0.00     0.157 HD
ATOM     15  HN  UNK N   1      26.141  13.150   9.166  1.00  0.00     0.157 HD
ENDBRANCH   6  13
TORSDOF 1
ENDMDL
MODEL 6
REMARK VINA RESULT:      -4.4     22.714     24.176
REMARK  1 active torsions:
REMARK  status: ('A' for Active; 'I' for Inactive)
REMARK    1  A    between atoms: N_7  and  C_6 
ROOT
HETATM    1  C   UNK N   1      23.908  13.221   8.913  0.00  0.00     0.049 A 
HETATM    2  C   UNK N   1      25.117  13.106   9.609  0.00  0.00     0.091 A 
HETATM    3  C   UNK N   1      20.860  12.323  10.727  0.00  0.00     0.182 A 
HETATM    4  C   UNK N   1      22.953  12.832   9.816  0.00  0.00     0.065 A 
HETATM    5  C   UNK N   1      23.567  12.504  10.974  0.00  0.00     0.103 A 
HETATM    6  C   UNK N   1      22.822  12.065  12.055  0.00  0.00     0.129 A 
HETATM    7  N   UNK N   1      24.895  12.665  10.874  0.00  0.00    -0.361 N 
HETATM    8  N   UNK N   1      21.608  12.751   9.664  0.00  0.00    -0.350 N 
ATOM      9  HN  UNK N   1      21.165  13.003   8.780  1.00  0.00     0.166 HD
HETATM   10  N   UNK N   1      21.466  11.982  11.912  0.00  0.00    -0.337 N 
HETATM   11  H   UNK N   1      25.568  12.497  11.574  0.00  0.00     0.165 HD
HETATM   12  H   UNK N   1      20.916  11.673  12.668  0.00  0.00     0.168 HD
ENDROOT
BRANCH   6  13
HETATM   13  N   UNK N   1      23.383  11.737  13.156  0.00  0.00    -0.384 N 
HETATM   14  H   UNK N   1      23.200  12.253  13.975  0.00  0.00     0.157 HD
ATOM     15  HN  UNK N   1      24.020  10.942  13.186  1.00  0.00     0.157 HD
ENDBRANCH   6  13
TORSDOF 1
ENDMDL
MODEL 7
REMARK VINA RESULT:      -4.3     22.838     23.625
REMARK  1 active torsions:
REMARK  status: ('A' for Active; 'I' for Inactive)
REMARK    1  A    between atoms: N_7  and  C_6 
ROOT
HETATM    1  C   UNK N   1      20.883  19.975   3.441  0.00  0.00     0.049 A 
HETATM    2  C   UNK N   1      20.893  20.584   2.181  0.00  0.00     0.091 A 
HETATM    3  C   UNK N   1      19.977  16.432   3.561  0.00  0.00     0.182 A 
HETATM    4  C   UNK N   1      20.521  18.676   3.193  0.00  0.00     0.065 A 
HETATM    5  C   UNK N   1      20.325  18.534   1.864  0.00  0.00     0.103 A 
HETATM    6  C   UNK N   1      19.938  17.310   1.346  0.00  0.00     0.129 A 
HETATM    7  N   UNK N   1      20.549  19.689   1.220  0.00  0.00    -0.361 N 
HETATM    8  N   UNK N   1      20.354  17.649   4.061  0.00  0.00    -0.350 N 
ATOM      9  HN  UNK N   1      20.506  17.779   5.062  1.00  0.00     0.166 HD
HETATM   10  N   UNK N   1      19.770  16.268   2.213  0.00  0.00    -0.337 N 
HETATM   11  H   UNK N   1      20.477  19.853   0.251  0.00  0.00     0.165 HD
HETATM   12  H   UNK N   1      19.496  15.387   1.867  0.00  0.00     0.168 HD
ENDROOT
BRANCH   6  13
HETATM   13  N   UNK N   1      19.735  17.155   0.093  0.00  0.00    -0.384 N 
HETATM   14  H   UNK N   1      19.529  17.935  -0.472  0.00  0.00     0.157 HD
ATOM     15  HN  UNK N   1      19.786  16.225  -0.321  1.00  0.00     0.157 HD
ENDBRANCH   6  13
TORSDOF 1
ENDMDL
MODEL 8
REMARK VINA RESULT:      -4.2     15.321     16.342
REMARK  1 active torsions:
REMARK  status: ('A' for Active; 'I' for Inactive)
REMARK    1  A    between atoms: N_7  and  C_6 
ROOT
HETATM    1  C   UNK N   1      27.386  20.488   4.998  0.00  0.00     0.049 A 
HETATM    2  C   UNK N   1      26.639  21.125   5.995  0.00  0.00     0.091 A 
HETATM    3  C   UNK N   1      29.337  17.562   6.009  0.00  0.00     0.182 A 
HETATM    4  C   UNK N   1      28.000  19.446   5.643  0.00  0.00     0.065 A 
HETATM    5  C   UNK N   1      27.637  19.474   6.944  0.00  0.00     0.103 A 
HETATM    6  C   UNK N   1      28.132  18.527   7.824  0.00  0.00     0.129 A 
HETATM    7  N   UNK N   1      26.800  20.494   7.186  0.00  0.00    -0.361 N 
HETATM    8  N   UNK N   1      28.845  18.507   5.150  0.00  0.00    -0.350 N 
ATOM      9  HN  UNK N   1      29.107  18.505   4.164  1.00  0.00     0.166 HD
HETATM   10  N   UNK N   1      28.982  17.576   7.337  0.00  0.00    -0.337 N 
HETATM   11  H   UNK N   1      26.390  20.734   8.049  0.00  0.00     0.165 HD
HETATM   12  H   UNK N   1      29.346  16.892   7.944  0.00  0.00     0.168 HD
ENDROOT
BRANCH   6  13
HETATM   13  N   UNK N   1      27.812  18.542   9.063  0.00  0.00    -0.384 N 
HETATM   14  H   UNK N   1      28.448  18.888   9.731  0.00  0.00     0.157 HD
ATOM     15  HN  UNK N   1      26.900  18.198   9.358  1.00  0.00     0.157 HD
ENDBRANCH   6  13
TORSDOF 1
ENDMDL
MODEL 9
REMARK VINA RESULT:      -4.1     22.399     23.793
REMARK  1 active torsions:
REMARK  status: ('A' for Active; 'I' for Inactive)
REMARK    1  A    between atoms: N_7  and  C_6 
ROOT
HETATM    1  C   UNK N   1      20.861  12.980  10.119  0.00  0.00     0.049 A 
HETATM    2  C   UNK N   1      20.985  12.276  11.322  0.00  0.00     0.091 A 
HETATM    3  C   UNK N   1      23.950  13.686   8.289  0.00  0.00     0.182 A 
HETATM    4  C   UNK N   1      22.146  13.098   9.656  0.00  0.00     0.065 A 
HETATM    5  C   UNK N   1      22.976  12.502  10.540  0.00  0.00     0.103 A 
HETATM    6  C   UNK N   1      24.341  12.489  10.312  0.00  0.00     0.129 A 
HETATM    7  N   UNK N   1      22.288  11.987  11.570  0.00  0.00    -0.361 N 
HETATM    8  N   UNK N   1      22.603  13.696   8.528  0.00  0.00    -0.350 N 
ATOM      9  HN  UNK N   1      21.958  14.142   7.875  1.00  0.00     0.166 HD
HETATM   10  N   UNK N   1      24.811  13.087   9.177  0.00  0.00    -0.337 N 
HETATM   11  H   UNK N   1      22.654  11.502  12.346  0.00  0.00     0.165 HD
HETATM   12  H   UNK N   1      25.778  13.090   8.994  0.00  0.00     0.168 HD
ENDROOT
BRANCH   6  13
HETATM   13  N   UNK N   1      25.146  11.941  11.141  0.00  0.00    -0.384 N 
HETATM   14  H   UNK N   1      25.120  10.967  11.282  0.00  0.00     0.157 HD
ATOM     15  HN  UNK N   1      25.814  12.514  11.656  1.00  0.00     0.157 HD
ENDBRANCH   6  13
TORSDOF 1
ENDMDL
