MODEL 1
REMARK VINA RESULT:      -5.7      0.000      0.000
REMARK  6 active torsions:
REMARK  status: ('A' for Active; 'I' for Inactive)
REMARK    1  A    between atoms: C_1  and  C_4 
REMARK    2  A    between atoms: C_2  and  O_6 
REMARK    3  A    between atoms: C_4  and  O_8 
REMARK    4  A    between atoms: C_5  and  O_11 
REMARK    5  A    between atoms: C_7  and  O_12 
REMARK    6  A    between atoms: C_10  and  O_13 
ROOT
HETATM    1  C   UNK N   1      34.377  17.195   9.266  0.00  0.00     0.253 C 
HETATM    2  C   UNK N   1      33.572  16.002   8.711  0.00  0.00     0.189 C 
HETATM    3  O   UNK N   1      35.565  16.714   9.860  0.00  0.00    -0.340 OA
HETATM    4  C   UNK N   1      33.222  15.098   9.893  0.00  0.00     0.183 C 
HETATM    5  C   UNK N   1      35.208  16.018  11.031  0.00  0.00     0.289 C 
HETATM    6  C   UNK N   1      34.491  14.719  10.651  0.00  0.00     0.204 C 
ENDROOT
BRANCH   1   7
HETATM    7  C   UNK N   1      34.720  18.233   8.224  0.00  0.00     0.172 C 
HETATM    8  O   UNK N   1      34.491  18.011   7.047  0.00  0.00    -0.648 OA
BRANCH   7   9
HETATM    9  O   UNK N   1      35.359  19.369   8.568  0.00  0.00    -0.774 OA
HETATM   10  H   UNK N   1      36.295  19.398   8.568  0.00  0.00     0.167 HD
ENDBRANCH   7   9
ENDBRANCH   1   7
BRANCH   2  11
HETATM   11  O   UNK N   1      32.389  16.431   8.105  0.00  0.00    -0.390 OA
HETATM   12  H   UNK N   1      32.286  17.273   7.632  0.00  0.00     0.210 HD
ENDBRANCH   2  11
BRANCH   4  13
HETATM   13  O   UNK N   1      32.551  13.954   9.457  0.00  0.00    -0.390 OA
HETATM   14  H   UNK N   1      31.838  13.950   8.800  0.00  0.00     0.210 HD
ENDBRANCH   4  13
BRANCH   5  15
HETATM   15  O   UNK N   1      36.361  15.727  11.760  0.00  0.00    -0.368 OA
HETATM   16  H   UNK N   1      36.336  15.206  12.577  0.00  0.00     0.212 HD
ENDBRANCH   5  15
BRANCH   6  17
HETATM   17  O   UNK N   1      34.159  13.996  11.798  0.00  0.00    -0.388 OA
HETATM   18  H   UNK N   1      34.663  13.239  12.134  0.00  0.00     0.210 HD
ENDBRANCH   6  17
TORSDOF 6
ENDMDL
MODEL 2
REMARK VINA RESULT:      -5.5     13.436     15.411
REMARK  6 active torsions:
REMARK  status: ('A' for Active; 'I' for Inactive)
REMARK    1  A    between atoms: C_1  and  C_4 
REMARK    2  A    between atoms: C_2  and  O_6 
REMARK    3  A    between atoms: C_4  and  O_8 
REMARK    4  A    between atoms: C_5  and  O_11 
REMARK    5  A    between atoms: C_7  and  O_12 
REMARK    6  A    between atoms: C_10  and  O_13 
ROOT
HETATM    1  C   UNK N   1      21.404  18.401   4.363  0.00  0.00     0.253 C 
HETATM    2  C   UNK N   1      20.218  17.751   3.621  0.00  0.00     0.189 C 
HETATM    3  O   UNK N   1      21.325  19.804   4.222  0.00  0.00    -0.340 OA
HETATM    4  C   UNK N   1      20.344  18.124   2.144  0.00  0.00     0.183 C 
HETATM    5  C   UNK N   1      21.601  20.116   2.877  0.00  0.00     0.289 C 
HETATM    6  C   UNK N   1      20.441  19.640   1.997  0.00  0.00     0.204 C 
ENDROOT
BRANCH   1   7
HETATM    7  C   UNK N   1      21.471  18.046   5.829  0.00  0.00     0.172 C 
HETATM    8  O   UNK N   1      21.858  16.941   6.170  0.00  0.00    -0.648 OA
BRANCH   7   9
HETATM    9  O   UNK N   1      21.023  18.905   6.767  0.00  0.00    -0.774 OA
HETATM   10  H   UNK N   1      21.630  19.344   7.328  0.00  0.00     0.167 HD
ENDBRANCH   7   9
ENDBRANCH   1   7
BRANCH   2  11
HETATM   11  O   UNK N   1      20.250  16.361   3.741  0.00  0.00    -0.390 OA
HETATM   12  H   UNK N   1      19.549  15.764   3.434  0.00  0.00     0.210 HD
ENDBRANCH   2  11
BRANCH   4  13
HETATM   13  O   UNK N   1      19.260  17.629   1.417  0.00  0.00    -0.390 OA
HETATM   14  H   UNK N   1      18.881  16.744   1.527  0.00  0.00     0.210 HD
ENDBRANCH   4  13
BRANCH   5  15
HETATM   15  O   UNK N   1      21.756  21.497   2.749  0.00  0.00    -0.368 OA
HETATM   16  H   UNK N   1      21.191  22.027   2.166  0.00  0.00     0.212 HD
ENDBRANCH   5  15
BRANCH   6  17
HETATM   17  O   UNK N   1      20.679  19.971   0.662  0.00  0.00    -0.388 OA
HETATM   18  H   UNK N   1      20.351  19.463  -0.096  0.00  0.00     0.210 HD
ENDBRANCH   6  17
TORSDOF 6
ENDMDL
MODEL 3
REMARK VINA RESULT:      -5.4     14.760     16.487
REMARK  6 active torsions:
REMARK  status: ('A' for Active; 'I' for Inactive)
REMARK    1  A    between atoms: C_1  and  C_4 
REMARK    2  A    between atoms: C_2  and  O_6 
REMARK    3  A    between atoms: C_4  and  O_8 
REMARK    4  A    between atoms: C_5  and  O_11 
REMARK    5  A    between atoms: C_7  and  O_12 
REMARK    6  A    between atoms: C_10  and  O_13 
ROOT
HETATM    1  C   UNK N   1      20.038  18.142   1.320  0.00  0.00     0.253 C 
HETATM    2  C   UNK N   1      20.837  18.036   2.636  0.00  0.00     0.189 C 
HETATM    3  O   UNK N   1      20.729  18.991   0.427  0.00  0.00    -0.340 OA
HETATM    4  C   UNK N   1      20.924  19.442   3.231  0.00  0.00     0.183 C 
HETATM    5  C   UNK N   1      20.651  20.302   0.935  0.00  0.00     0.289 C 
HETATM    6  C   UNK N   1      21.506  20.407   2.202  0.00  0.00     0.204 C 
ENDROOT
BRANCH   1   7
HETATM    7  C   UNK N   1      19.787  16.810   0.655  0.00  0.00     0.172 C 
HETATM    8  O   UNK N   1      20.677  15.978   0.602  0.00  0.00    -0.648 OA
BRANCH   7   9
HETATM    9  O   UNK N   1      18.614  16.559   0.039  0.00  0.00    -0.774 OA
HETATM   10  H   UNK N   1      18.605  16.153  -0.805  0.00  0.00     0.167 HD
ENDBRANCH   7   9
ENDBRANCH   1   7
BRANCH   2  11
HETATM   11  O   UNK N   1      20.196  17.197   3.548  0.00  0.00    -0.390 OA
HETATM   12  H   UNK N   1      19.235  17.161   3.685  0.00  0.00     0.210 HD
ENDBRANCH   2  11
BRANCH   4  13
HETATM   13  O   UNK N   1      21.699  19.437   4.393  0.00  0.00    -0.390 OA
HETATM   14  H   UNK N   1      22.626  19.159   4.435  0.00  0.00     0.210 HD
ENDBRANCH   4  13
BRANCH   5  15
HETATM   15  O   UNK N   1      21.121  21.195  -0.028  0.00  0.00    -0.368 OA
HETATM   16  H   UNK N   1      20.666  21.327  -0.874  0.00  0.00     0.212 HD
ENDBRANCH   5  15
BRANCH   6  17
HETATM   17  O   UNK N   1      21.470  21.709   2.703  0.00  0.00    -0.388 OA
HETATM   18  H   UNK N   1      20.791  22.364   2.481  0.00  0.00     0.210 HD
ENDBRANCH   6  17
TORSDOF 6
ENDMDL
MODEL 4
REMARK VINA RESULT:      -5.3     14.898     16.289
REMARK  6 active torsions:
REMARK  status: ('A' for Active; 'I' for Inactive)
REMARK    1  A    between atoms: C_1  and  C_4 
REMARK    2  A    between atoms: C_2  and  O_6 
REMARK    3  A    between atoms: C_4  and  O_8 
REMARK    4  A    between atoms: C_5  and  O_11 
REMARK    5  A    between atoms: C_7  and  O_12 
REMARK    6  A    between atoms: C_10  and  O_13 
ROOT
HETATM    1  C   UNK N   1      20.607  17.489   2.297  0.00  0.00     0.253 C 
HETATM    2  C   UNK N   1      20.132  18.351   1.109  0.00  0.00     0.189 C 
HETATM    3  O   UNK N   1      20.286  18.148   3.504  0.00  0.00    -0.340 OA
HETATM    4  C   UNK N   1      20.883  19.680   1.180  0.00  0.00     0.183 C 
HETATM    5  C   UNK N   1      21.111  19.285   3.605  0.00  0.00     0.289 C 
HETATM    6  C   UNK N   1      20.687  20.316   2.554  0.00  0.00     0.204 C 
ENDROOT
BRANCH   1   7
HETATM    7  C   UNK N   1      20.018  16.098   2.311  0.00  0.00     0.172 C 
HETATM    8  O   UNK N   1      20.148  15.373   1.339  0.00  0.00    -0.648 OA
BRANCH   7   9
HETATM    9  O   UNK N   1      19.271  15.677   3.351  0.00  0.00    -0.774 OA
HETATM   10  H   UNK N   1      18.549  15.099   3.207  0.00  0.00     0.167 HD
ENDBRANCH   7   9
ENDBRANCH   1   7
BRANCH   2  11
HETATM   11  O   UNK N   1      20.421  17.733  -0.109  0.00  0.00    -0.390 OA
HETATM   12  H   UNK N   1      20.708  18.199  -0.911  0.00  0.00     0.210 HD
ENDBRANCH   2  11
BRANCH   4  13
HETATM   13  O   UNK N   1      20.451  20.545   0.173  0.00  0.00    -0.390 OA
HETATM   14  H   UNK N   1      19.586  20.496  -0.262  0.00  0.00     0.210 HD
ENDBRANCH   4  13
BRANCH   5  15
HETATM   15  O   UNK N   1      20.984  19.831   4.882  0.00  0.00    -0.368 OA
HETATM   16  H   UNK N   1      20.128  20.116   5.238  0.00  0.00     0.212 HD
ENDBRANCH   5  15
BRANCH   6  17
HETATM   17  O   UNK N   1      21.471  21.465   2.660  0.00  0.00    -0.388 OA
HETATM   18  H   UNK N   1      21.213  22.261   3.150  0.00  0.00     0.210 HD
ENDBRANCH   6  17
TORSDOF 6
ENDMDL
MODEL 5
REMARK VINA RESULT:      -5.2      1.360      3.037
REMARK  6 active torsions:
REMARK  status: ('A' for Active; 'I' for Inactive)
REMARK    1  A    between atoms: C_1  and  C_4 
REMARK    2  A    between atoms: C_2  and  O_6 
REMARK    3  A    between atoms: C_4  and  O_8 
REMARK    4  A    between atoms: C_5  and  O_11 
REMARK    5  A    between atoms: C_7  and  O_12 
REMARK    6  A    between atoms: C_10  and  O_13 
ROOT
HETATM    1  C   UNK N   1      34.011  16.456   7.959  0.00  0.00     0.253 C 
HETATM    2  C   UNK N   1      33.681  16.438   9.466  0.00  0.00     0.189 C 
HETATM    3  O   UNK N   1      32.941  15.873   7.245  0.00  0.00    -0.340 OA
HETATM    4  C   UNK N   1      33.526  14.975   9.882  0.00  0.00     0.183 C 
HETATM    5  C   UNK N   1      32.930  14.496   7.536  0.00  0.00     0.289 C 
HETATM    6  C   UNK N   1      32.495  14.288   8.991  0.00  0.00     0.204 C 
ENDROOT
BRANCH   1   7
HETATM    7  C   UNK N   1      34.287  17.837   7.414  0.00  0.00     0.172 C 
HETATM    8  O   UNK N   1      34.223  18.041   6.214  0.00  0.00    -0.648 OA
BRANCH   7   9
HETATM    9  O   UNK N   1      34.691  18.831   8.231  0.00  0.00    -0.774 OA
HETATM   10  H   UNK N   1      35.603  19.026   8.316  0.00  0.00     0.167 HD
ENDBRANCH   7   9
ENDBRANCH   1   7
BRANCH   2  11
HETATM   11  O   UNK N   1      34.711  17.014  10.213  0.00  0.00    -0.390 OA
HETATM   12  H   UNK N   1      35.651  16.794  10.119  0.00  0.00     0.210 HD
ENDBRANCH   2  11
BRANCH   4  13
HETATM   13  O   UNK N   1      33.154  14.882  11.224  0.00  0.00    -0.390 OA
HETATM   14  H   UNK N   1      33.772  14.911  11.970  0.00  0.00     0.210 HD
ENDBRANCH   4  13
BRANCH   5  15
HETATM   15  O   UNK N   1      32.036  13.853   6.679  0.00  0.00    -0.368 OA
HETATM   16  H   UNK N   1      31.553  14.329   5.987  0.00  0.00     0.212 HD
ENDBRANCH   5  15
BRANCH   6  17
HETATM   17  O   UNK N   1      32.444  12.926   9.290  0.00  0.00    -0.388 OA
HETATM   18  H   UNK N   1      31.638  12.451   9.547  0.00  0.00     0.210 HD
ENDBRANCH   6  17
TORSDOF 6
ENDMDL
MODEL 6
REMARK VINA RESULT:      -5.1      1.649      2.508
REMARK  6 active torsions:
REMARK  status: ('A' for Active; 'I' for Inactive)
REMARK    1  A    between atoms: C_1  and  C_4 
REMARK    2  A    between atoms: C_2  and  O_6 
REMARK    3  A    between atoms: C_4  and  O_8 
REMARK    4  A    between atoms: C_5  and  O_11 
REMARK    5  A    between atoms: C_7  and  O_12 
REMARK    6  A    between atoms: C_10  and  O_13 
ROOT
HETATM    1  C   UNK N   1      34.851  15.917   9.959  0.00  0.00     0.253 C 
HETATM    2  C   UNK N   1      34.124  14.712  10.591  0.00  0.00     0.189 C 
HETATM    3  O   UNK N   1      36.112  15.498   9.482  0.00  0.00    -0.340 OA
HETATM    4  C   UNK N   1      34.978  14.226  11.762  0.00  0.00     0.183 C 
HETATM    5  C   UNK N   1      36.919  15.209  10.599  0.00  0.00     0.289 C 
HETATM    6  C   UNK N   1      36.399  13.942  11.287  0.00  0.00     0.204 C 
ENDROOT
BRANCH   1   7
HETATM    7  C   UNK N   1      34.080  16.570   8.837  0.00  0.00     0.172 C 
HETATM    8  O   UNK N   1      34.511  16.528   7.697  0.00  0.00    -0.648 OA
BRANCH   7   9
HETATM    9  O   UNK N   1      32.961  17.279   9.092  0.00  0.00    -0.774 OA
HETATM   10  H   UNK N   1      32.212  17.189   8.537  0.00  0.00     0.167 HD
ENDBRANCH   7   9
ENDBRANCH   1   7
BRANCH   2  11
HETATM   11  O   UNK N   1      32.865  15.077  11.069  0.00  0.00    -0.390 OA
HETATM   12  H   UNK N   1      32.340  14.556  11.698  0.00  0.00     0.210 HD
ENDBRANCH   2  11
BRANCH   4  13
HETATM   13  O   UNK N   1      34.417  13.087  12.341  0.00  0.00    -0.390 OA
HETATM   14  H   UNK N   1      34.815  12.203  12.316  0.00  0.00     0.210 HD
ENDBRANCH   4  13
BRANCH   5  15
HETATM   15  O   UNK N   1      38.234  15.012  10.177  0.00  0.00    -0.368 OA
HETATM   16  H   UNK N   1      38.769  15.732   9.808  0.00  0.00     0.212 HD
ENDBRANCH   5  15
BRANCH   6  17
HETATM   17  O   UNK N   1      37.207  13.618  12.377  0.00  0.00    -0.388 OA
HETATM   18  H   UNK N   1      37.768  14.250  12.852  0.00  0.00     0.210 HD
ENDBRANCH   6  17
TORSDOF 6
ENDMDL
MODEL 7
REMARK VINA RESULT:      -5.0     13.424     14.916
REMARK  6 active torsions:
REMARK  status: ('A' for Active; 'I' for Inactive)
REMARK    1  A    between atoms: C_1  and  C_4 
REMARK    2  A    between atoms: C_2  and  O_6 
REMARK    3  A    between atoms: C_4  and  O_8 
REMARK    4  A    between atoms: C_5  and  O_11 
REMARK    5  A    between atoms: C_7  and  O_12 
REMARK    6  A    between atoms: C_10  and  O_13 
ROOT
HETATM    1  C   UNK N   1      20.775  19.459   3.397  0.00  0.00     0.253 C 
HETATM    2  C   UNK N   1      20.074  18.212   2.818  0.00  0.00     0.189 C 
HETATM    3  O   UNK N   1      22.008  19.072   3.968  0.00  0.00    -0.340 OA
HETATM    4  C   UNK N   1      19.821  17.250   3.979  0.00  0.00     0.183 C 
HETATM    5  C   UNK N   1      21.729  18.317   5.123  0.00  0.00     0.289 C 
HETATM    6  C   UNK N   1      21.127  16.968   4.715  0.00  0.00     0.204 C 
ENDROOT
BRANCH   1   7
HETATM    7  C   UNK N   1      21.011  20.550   2.380  0.00  0.00     0.172 C 
HETATM    8  O   UNK N   1      20.754  20.351   1.205  0.00  0.00    -0.648 OA
BRANCH   7   9
HETATM    9  O   UNK N   1      21.587  21.714   2.741  0.00  0.00    -0.774 OA
HETATM   10  H   UNK N   1      21.301  22.518   2.355  0.00  0.00     0.167 HD
ENDBRANCH   7   9
ENDBRANCH   1   7
BRANCH   2  11
HETATM   11  O   UNK N   1      18.851  18.549   2.234  0.00  0.00    -0.390 OA
HETATM   12  H   UNK N   1      18.004  18.581   2.707  0.00  0.00     0.210 HD
ENDBRANCH   2  11
BRANCH   4  13
HETATM   13  O   UNK N   1      19.251  16.062   3.519  0.00  0.00    -0.390 OA
HETATM   14  H   UNK N   1      19.057  15.868   2.589  0.00  0.00     0.210 HD
ENDBRANCH   4  13
BRANCH   5  15
HETATM   15  O   UNK N   1      22.912  18.113   5.834  0.00  0.00    -0.368 OA
HETATM   16  H   UNK N   1      23.781  18.139   5.406  0.00  0.00     0.212 HD
ENDBRANCH   5  15
BRANCH   6  17
HETATM   17  O   UNK N   1      20.875  16.190   5.845  0.00  0.00    -0.388 OA
HETATM   18  H   UNK N   1      21.401  15.419   6.109  0.00  0.00     0.210 HD
ENDBRANCH   6  17
TORSDOF 6
ENDMDL
MODEL 8
REMARK VINA RESULT:      -5.0     13.200     15.134
REMARK  6 active torsions:
REMARK  status: ('A' for Active; 'I' for Inactive)
REMARK    1  A    between atoms: C_1  and  C_4 
REMARK    2  A    between atoms: C_2  and  O_6 
REMARK    3  A    between atoms: C_4  and  O_8 
REMARK    4  A    between atoms: C_5  and  O_11 
REMARK    5  A    between atoms: C_7  and  O_12 
REMARK    6  A    between atoms: C_10  and  O_13 
ROOT
HETATM    1  C   UNK N   1      22.026  18.942   3.977  0.00  0.00     0.253 C 
HETATM    2  C   UNK N   1      21.865  19.800   2.704  0.00  0.00     0.189 C 
HETATM    3  O   UNK N   1      21.421  17.684   3.765  0.00  0.00    -0.340 OA
HETATM    4  C   UNK N   1      20.367  19.987   2.465  0.00  0.00     0.183 C 
HETATM    5  C   UNK N   1      20.028  17.882   3.706  0.00  0.00     0.289 C 
HETATM    6  C   UNK N   1      19.675  18.628   2.415  0.00  0.00     0.204 C 
ENDROOT
BRANCH   1   7
HETATM    7  C   UNK N   1      23.462  18.746   4.399  0.00  0.00     0.172 C 
HETATM    8  O   UNK N   1      24.366  19.049   3.638  0.00  0.00    -0.648 OA
BRANCH   7   9
HETATM    9  O   UNK N   1      23.760  18.157   5.574  0.00  0.00    -0.774 OA
HETATM   10  H   UNK N   1      23.423  18.510   6.374  0.00  0.00     0.167 HD
ENDBRANCH   7   9
ENDBRANCH   1   7
BRANCH   2  11
HETATM   11  O   UNK N   1      22.458  21.054   2.864  0.00  0.00    -0.390 OA
HETATM   12  H   UNK N   1      23.193  21.244   3.469  0.00  0.00     0.210 HD
ENDBRANCH   2  11
BRANCH   4  13
HETATM   13  O   UNK N   1      20.141  20.696   1.284  0.00  0.00    -0.390 OA
HETATM   14  H   UNK N   1      20.685  20.623   0.485  0.00  0.00     0.210 HD
ENDBRANCH   4  13
BRANCH   5  15
HETATM   15  O   UNK N   1      19.388  16.642   3.727  0.00  0.00    -0.368 OA
HETATM   16  H   UNK N   1      19.822  15.844   4.065  0.00  0.00     0.212 HD
ENDBRANCH   5  15
BRANCH   6  17
HETATM   17  O   UNK N   1      18.294  18.803   2.320  0.00  0.00    -0.388 OA
HETATM   18  H   UNK N   1      17.796  19.497   2.779  0.00  0.00     0.210 HD
ENDBRANCH   6  17
TORSDOF 6
ENDMDL
MODEL 9
REMARK VINA RESULT:      -4.9      1.155      3.752
REMARK  6 active torsions:
REMARK  status: ('A' for Active; 'I' for Inactive)
REMARK    1  A    between atoms: C_1  and  C_4 
REMARK    2  A    between atoms: C_2  and  O_6 
REMARK    3  A    between atoms: C_4  and  O_8 
REMARK    4  A    between atoms: C_5  and  O_11 
REMARK    5  A    between atoms: C_7  and  O_12 
REMARK    6  A    between atoms: C_10  and  O_13 
ROOT
HETATM    1  C   UNK N   1      35.253  16.055   9.853  0.00  0.00     0.253 C 
HETATM    2  C   UNK N   1      33.800  15.640  10.161  0.00  0.00     0.189 C 
HETATM    3  O   UNK N   1      35.315  17.461   9.726  0.00  0.00    -0.340 OA
HETATM    4  C   UNK N   1      32.938  16.084   8.978  0.00  0.00     0.183 C 
HETATM    5  C   UNK N   1      34.642  17.814   8.541  0.00  0.00     0.289 C 
HETATM    6  C   UNK N   1      33.139  17.575   8.719  0.00  0.00     0.204 C 
ENDROOT
BRANCH   1   7
HETATM    7  C   UNK N   1      36.247  15.600  10.895  0.00  0.00     0.172 C 
HETATM    8  O   UNK N   1      35.875  15.376  12.034  0.00  0.00    -0.648 OA
BRANCH   7   9
HETATM    9  O   UNK N   1      37.562  15.522  10.604  0.00  0.00    -0.774 OA
HETATM   10  H   UNK N   1      37.838  15.318   9.733  0.00  0.00     0.167 HD
ENDBRANCH   7   9
ENDBRANCH   1   7
BRANCH   2  11
HETATM   11  O   UNK N   1      33.691  14.256  10.304  0.00  0.00    -0.390 OA
HETATM   12  H   UNK N   1      33.451  13.803  11.129  0.00  0.00     0.210 HD
ENDBRANCH   2  11
BRANCH   4  13
HETATM   13  O   UNK N   1      31.592  15.805   9.218  0.00  0.00    -0.390 OA
HETATM   14  H   UNK N   1      31.049  15.207   8.681  0.00  0.00     0.210 HD
ENDBRANCH   4  13
BRANCH   5  15
HETATM   15  O   UNK N   1      34.877  19.161   8.264  0.00  0.00    -0.368 OA
HETATM   16  H   UNK N   1      35.431  19.715   8.835  0.00  0.00     0.212 HD
ENDBRANCH   5  15
BRANCH   6  17
HETATM   17  O   UNK N   1      32.449  17.952   7.567  0.00  0.00    -0.388 OA
HETATM   18  H   UNK N   1      32.501  17.486   6.719  0.00  0.00     0.210 HD
ENDBRANCH   6  17
TORSDOF 6
ENDMDL
