REMARK  6 active torsions:
REMARK  status: ('A' for Active; 'I' for Inactive)
REMARK    1  A    between atoms: S_2  and  C_3 
REMARK    2  A    between atoms: C_3  and  C_4 
REMARK    3  A    between atoms: C_4  and  C_5 
REMARK    4  A    between atoms: C_5  and  N_6 
REMARK    5  A    between atoms: C_5  and  C_10 
REMARK       I    between atoms: N_6  and  C_7 
REMARK       I    between atoms: C_7  and  N_8 
REMARK    6  A    between atoms: C_10  and  O_11 
ROOT
HETATM    1  C   UNK N   1       3.880   1.599   0.000  0.00  0.00     0.184 C 
ENDROOT
BRANCH   1   2
HETATM    2  C   UNK N   1       2.608   2.470  -0.000  0.00  0.00     0.046 C 
BRANCH   2   3
HETATM    3  C   UNK N   1       1.302   1.696   0.000  0.00  0.00     0.076 C 
BRANCH   3   4
HETATM    4  S   UNK N   1      -0.127   2.805  -0.000  0.00  0.00    -0.173 SA
HETATM    5  C   UNK N   1      -1.258   1.385  -0.000  0.00  0.00     0.089 C 
ENDBRANCH   3   4
ENDBRANCH   2   3
ENDBRANCH   1   2
BRANCH   1   6
HETATM    6  N   UNK N   1       5.096   2.411   0.000  0.00  0.00    -0.329 N 
HETATM    7  C   UNK N   1       6.413   2.069   0.000  0.00  0.00     0.314 C 
HETATM    8  N   UNK N   1       7.342   3.043  -0.000  0.00  0.00    -0.352 N 
HETATM    9  O   UNK N   1       6.777   0.909   0.000  0.00  0.00    -0.248 OA
HETATM   10  H   UNK N   1       8.299   2.811  -0.000  0.00  0.00     0.160 HD
HETATM   11  H   UNK N   1       7.065   3.988  -0.000  0.00  0.00     0.160 HD
HETATM   12  H   UNK N   1       4.932   3.381  -0.000  0.00  0.00     0.165 HD
ENDBRANCH   1   6
BRANCH   1  13
HETATM   13  C   UNK N   1       3.841   0.063  -0.000  0.00  0.00     0.163 C 
HETATM   14  O   UNK N   1       2.769  -0.518  -0.000  0.00  0.00    -0.648 OA
BRANCH  13  15
HETATM   15  O   UNK N   1       4.956  -0.681   0.000  0.00  0.00    -0.775 OA
HETATM   16  H   UNK N   1       4.895  -1.616   0.000  0.00  0.00     0.167 HD
ENDBRANCH  13  15
ENDBRANCH   1  13
TORSDOF 6
