MODEL 1
REMARK VINA RESULT:      -6.7      0.000      0.000
REMARK  10 active torsions:
REMARK  status: ('A' for Active; 'I' for Inactive)
REMARK    1  A    between atoms: C_6  and  C_4 
REMARK    2  A    between atoms: C_11  and  C_6 
REMARK    3  A    between atoms: C_6  and  N_17 
REMARK    4  A    between atoms: C_8  and  C_7 
REMARK    5  A    between atoms: C_10  and  C_8 
REMARK    6  A    between atoms: C_9  and  C_12 
REMARK    7  A    between atoms: C_10  and  O_24 
REMARK    8  A    between atoms: O_26  and  C_12 
REMARK    9  A    between atoms: N_15  and  C_13 
REMARK   10  A    between atoms: O_27  and  N_21 
ROOT
HETATM    1  C   UNK N   1      31.118  17.041   7.985  0.00  0.00     0.168 C 
HETATM    2  N   UNK N   1      32.405  17.102   7.777  0.00  0.00    -0.355 N 
ATOM      3  HN  UNK N   1      32.709  16.975   6.813  1.00  0.00     0.162 HD
ENDROOT
BRANCH   1   4
HETATM    4  C   UNK N   1      30.223  16.742   6.851  0.00  0.00     0.132 C 
HETATM    5  N   UNK N   1      30.287  15.596   6.247  0.00  0.00    -0.261 N 
ATOM      6  HN  UNK N   1      29.636  15.394   5.488  1.00  0.00     0.194 HD
BRANCH   4   7
HETATM    7  C   UNK N   1      29.243  17.749   6.410  0.00  0.00     0.074 A 
HETATM    8  C   UNK N   1      29.021  18.035   5.040  0.00  0.00     0.085 A 
HETATM    9  S   UNK N   1      27.908  19.257   5.031  0.00  0.00    -0.064 SA
HETATM   10  C   UNK N   1      27.726  19.400   6.657  0.00  0.00     0.142 A 
HETATM   11  N   UNK N   1      28.526  18.519   7.300  0.00  0.00    -0.335 N 
HETATM   12  H   UNK N   1      28.588  18.439   8.279  0.00  0.00     0.168 HD
BRANCH  10  13
HETATM   13  N   UNK N   1      26.937  20.211   7.248  0.00  0.00    -0.380 N 
HETATM   14  H   UNK N   1      26.410  20.908   6.795  0.00  0.00     0.158 HD
ATOM     15  HN  UNK N   1      26.847  20.131   8.261  1.00  0.00     0.158 HD
ENDBRANCH  10  13
ENDBRANCH   4   7
BRANCH   5  16
HETATM   16  O   UNK N   1      31.176  14.688   6.593  0.00  0.00    -0.285 OA
HETATM   17  C   UNK N   1      31.875  13.997   5.637  0.00  0.00     0.237 C 
ENDBRANCH   5  16
ENDBRANCH   1   4
BRANCH   1  18
HETATM   18  O   UNK N   1      30.582  17.175   9.211  0.00  0.00    -0.344 OA
HETATM   19  H   UNK N   1      30.558  16.621   9.966  0.00  0.00     0.219 HD
ENDBRANCH   1  18
BRANCH   2  20
HETATM   20  C   UNK N   1      33.462  17.329   8.759  0.00  0.00     0.177 C 
BRANCH  20  21
HETATM   21  C   UNK N   1      34.598  17.998   8.040  0.00  0.00     0.259 C 
HETATM   22  O   UNK N   1      35.012  19.088   8.402  0.00  0.00    -0.305 OA
ENDBRANCH  20  21
BRANCH  20  23
HETATM   23  C   UNK N   1      33.909  16.010   9.423  0.00  0.00     0.170 C 
HETATM   24  N   UNK N   1      34.434  16.098  10.776  0.00  0.00    -0.392 N 
HETATM   25  C   UNK N   1      34.589  14.677  11.132  0.00  0.00     0.194 C 
HETATM   26  H   UNK N   1      34.642  16.927  11.333  0.00  0.00     0.155 HD
HETATM   27  C   UNK N   1      35.123  13.909   9.869  0.00  0.00     0.033 C 
HETATM   28  C   UNK N   1      36.532  13.360  10.026  0.00  0.00     0.029 C 
HETATM   29  C   UNK N   1      34.192  12.766   9.488  0.00  0.00     0.029 C 
HETATM   30  S   UNK N   1      35.139  15.085   8.483  0.00  0.00    -0.130 SA
BRANCH  25  31
HETATM   31  C   UNK N   1      35.385  14.481  12.395  0.00  0.00     0.164 C 
HETATM   32  O   UNK N   1      35.052  13.620  13.195  0.00  0.00    -0.648 OA
BRANCH  31  33
HETATM   33  O   UNK N   1      36.449  15.261  12.662  0.00  0.00    -0.775 OA
HETATM   34  H   UNK N   1      36.423  15.906  13.340  0.00  0.00     0.167 HD
ENDBRANCH  31  33
ENDBRANCH  25  31
ENDBRANCH  20  23
ENDBRANCH   2  20
TORSDOF 10
ENDMDL
MODEL 2
REMARK VINA RESULT:      -6.5      3.111      4.229
REMARK  10 active torsions:
REMARK  status: ('A' for Active; 'I' for Inactive)
REMARK    1  A    between atoms: C_6  and  C_4 
REMARK    2  A    between atoms: C_11  and  C_6 
REMARK    3  A    between atoms: C_6  and  N_17 
REMARK    4  A    between atoms: C_8  and  C_7 
REMARK    5  A    between atoms: C_10  and  C_8 
REMARK    6  A    between atoms: C_9  and  C_12 
REMARK    7  A    between atoms: C_10  and  O_24 
REMARK    8  A    between atoms: O_26  and  C_12 
REMARK    9  A    between atoms: N_15  and  C_13 
REMARK   10  A    between atoms: O_27  and  N_21 
ROOT
HETATM    1  C   UNK N   1      33.879  14.632  10.058  0.00  0.00     0.168 C 
HETATM    2  N   UNK N   1      35.112  14.463   9.664  0.00  0.00    -0.355 N 
ATOM      3  HN  UNK N   1      35.238  14.201   8.687  1.00  0.00     0.162 HD
ENDROOT
BRANCH   1   4
HETATM    4  C   UNK N   1      32.781  14.379   9.103  0.00  0.00     0.132 C 
HETATM    5  N   UNK N   1      32.493  13.169   8.739  0.00  0.00    -0.261 N 
ATOM      6  HN  UNK N   1      31.709  13.011   8.106  1.00  0.00     0.194 HD
BRANCH   4   7
HETATM    7  C   UNK N   1      32.003  15.511   8.570  0.00  0.00     0.074 A 
HETATM    8  C   UNK N   1      31.664  15.612   7.199  0.00  0.00     0.085 A 
HETATM    9  S   UNK N   1      30.866  17.052   7.059  0.00  0.00    -0.064 SA
HETATM   10  C   UNK N   1      30.948  17.502   8.637  0.00  0.00     0.142 A 
HETATM   11  N   UNK N   1      31.609  16.570   9.359  0.00  0.00    -0.335 N 
HETATM   12  H   UNK N   1      31.787  16.640  10.324  0.00  0.00     0.168 HD
BRANCH  10  13
HETATM   13  N   UNK N   1      30.453  18.570   9.132  0.00  0.00    -0.380 N 
HETATM   14  H   UNK N   1      30.291  19.398   8.625  0.00  0.00     0.158 HD
ATOM     15  HN  UNK N   1      30.209  18.564  10.122  1.00  0.00     0.158 HD
ENDBRANCH  10  13
ENDBRANCH   4   7
BRANCH   5  16
HETATM   16  O   UNK N   1      33.193  12.138   9.169  0.00  0.00    -0.285 OA
HETATM   17  C   UNK N   1      33.627  11.177   8.293  0.00  0.00     0.237 C 
ENDBRANCH   5  16
ENDBRANCH   1   4
BRANCH   1  18
HETATM   18  O   UNK N   1      33.568  14.963  11.323  0.00  0.00    -0.344 OA
HETATM   19  H   UNK N   1      33.200  14.486  12.041  0.00  0.00     0.219 HD
ENDBRANCH   1  18
BRANCH   2  20
HETATM   20  C   UNK N   1      36.331  14.605  10.454  0.00  0.00     0.177 C 
BRANCH  20  21
HETATM   21  C   UNK N   1      37.472  14.142   9.593  0.00  0.00     0.259 C 
HETATM   22  O   UNK N   1      38.527  14.757   9.568  0.00  0.00    -0.305 OA
ENDBRANCH  20  21
BRANCH  20  23
HETATM   23  C   UNK N   1      36.250  13.801  11.768  0.00  0.00     0.170 C 
HETATM   24  N   UNK N   1      36.512  14.524  13.002  0.00  0.00    -0.392 N 
HETATM   25  C   UNK N   1      36.185  13.513  14.020  0.00  0.00     0.194 C 
HETATM   26  H   UNK N   1      36.837  15.483  13.129  0.00  0.00     0.155 HD
HETATM   27  C   UNK N   1      36.707  12.119  13.515  0.00  0.00     0.033 C 
HETATM   28  C   UNK N   1      37.845  11.544  14.344  0.00  0.00     0.029 C 
HETATM   29  C   UNK N   1      35.579  11.098  13.457  0.00  0.00     0.029 C 
HETATM   30  S   UNK N   1      37.321  12.350  11.819  0.00  0.00    -0.130 SA
BRANCH  25  31
HETATM   31  C   UNK N   1      36.637  13.913  15.399  0.00  0.00     0.164 C 
HETATM   32  O   UNK N   1      36.030  13.509  16.378  0.00  0.00    -0.648 OA
BRANCH  31  33
HETATM   33  O   UNK N   1      37.693  14.732  15.563  0.00  0.00    -0.775 OA
HETATM   34  H   UNK N   1      38.498  14.422  15.930  0.00  0.00     0.167 HD
ENDBRANCH  31  33
ENDBRANCH  25  31
ENDBRANCH  20  23
ENDBRANCH   2  20
TORSDOF 10
ENDMDL
MODEL 3
REMARK VINA RESULT:      -6.4      1.840      2.991
REMARK  10 active torsions:
REMARK  status: ('A' for Active; 'I' for Inactive)
REMARK    1  A    between atoms: C_6  and  C_4 
REMARK    2  A    between atoms: C_11  and  C_6 
REMARK    3  A    between atoms: C_6  and  N_17 
REMARK    4  A    between atoms: C_8  and  C_7 
REMARK    5  A    between atoms: C_10  and  C_8 
REMARK    6  A    between atoms: C_9  and  C_12 
REMARK    7  A    between atoms: C_10  and  O_24 
REMARK    8  A    between atoms: O_26  and  C_12 
REMARK    9  A    between atoms: N_15  and  C_13 
REMARK   10  A    between atoms: O_27  and  N_21 
ROOT
HETATM    1  C   UNK N   1      31.134  17.216   7.924  0.00  0.00     0.168 C 
HETATM    2  N   UNK N   1      32.375  17.566   7.721  0.00  0.00    -0.355 N 
ATOM      3  HN  UNK N   1      32.626  17.786   6.758  1.00  0.00     0.162 HD
ENDROOT
BRANCH   1   4
HETATM    4  C   UNK N   1      30.222  17.110   6.768  0.00  0.00     0.132 C 
HETATM    5  N   UNK N   1      28.990  17.501   6.865  0.00  0.00    -0.261 N 
ATOM      6  HN  UNK N   1      28.384  17.452   6.046  1.00  0.00     0.194 HD
BRANCH   4   7
HETATM    7  C   UNK N   1      30.720  16.563   5.494  0.00  0.00     0.074 A 
HETATM    8  C   UNK N   1      30.918  15.174   5.297  0.00  0.00     0.085 A 
HETATM    9  S   UNK N   1      31.541  15.042   3.771  0.00  0.00    -0.064 SA
HETATM   10  C   UNK N   1      31.548  16.642   3.398  0.00  0.00     0.142 A 
HETATM   11  N   UNK N   1      31.082  17.370   4.437  0.00  0.00    -0.335 N 
HETATM   12  H   UNK N   1      31.010  18.352   4.439  0.00  0.00     0.168 HD
BRANCH  10  13
HETATM   13  N   UNK N   1      31.924  17.144   2.286  0.00  0.00    -0.380 N 
HETATM   14  H   UNK N   1      31.430  17.835   1.789  0.00  0.00     0.158 HD
ATOM     15  HN  UNK N   1      32.798  16.804   1.885  1.00  0.00     0.158 HD
ENDBRANCH  10  13
ENDBRANCH   4   7
BRANCH   5  16
HETATM   16  O   UNK N   1      28.503  17.960   8.000  0.00  0.00    -0.285 OA
HETATM   17  C   UNK N   1      28.005  19.235   8.079  0.00  0.00     0.237 C 
ENDBRANCH   5  16
ENDBRANCH   1   4
BRANCH   1  18
HETATM   18  O   UNK N   1      30.672  16.884   9.141  0.00  0.00    -0.344 OA
HETATM   19  H   UNK N   1      31.053  16.885   9.997  0.00  0.00     0.219 HD
ENDBRANCH   1  18
BRANCH   2  20
HETATM   20  C   UNK N   1      33.446  17.678   8.706  0.00  0.00     0.177 C 
BRANCH  20  21
HETATM   21  C   UNK N   1      34.619  18.313   8.014  0.00  0.00     0.259 C 
HETATM   22  O   UNK N   1      35.265  19.193   8.560  0.00  0.00    -0.305 OA
ENDBRANCH  20  21
BRANCH  20  23
HETATM   23  C   UNK N   1      33.815  16.303   9.300  0.00  0.00     0.170 C 
HETATM   24  N   UNK N   1      34.418  16.296  10.623  0.00  0.00    -0.392 N 
HETATM   25  C   UNK N   1      34.470  14.855  10.923  0.00  0.00     0.194 C 
HETATM   26  H   UNK N   1      34.724  17.083  11.195  0.00  0.00     0.155 HD
HETATM   27  C   UNK N   1      34.868  14.093   9.607  0.00  0.00     0.033 C 
HETATM   28  C   UNK N   1      36.232  13.423   9.666  0.00  0.00     0.029 C 
HETATM   29  C   UNK N   1      33.824  13.046   9.242  0.00  0.00     0.029 C 
HETATM   30  S   UNK N   1      34.910  15.315   8.262  0.00  0.00    -0.130 SA
BRANCH  25  31
HETATM   31  C   UNK N   1      35.313  14.546  12.131  0.00  0.00     0.164 C 
HETATM   32  O   UNK N   1      34.971  13.661  12.900  0.00  0.00    -0.648 OA
BRANCH  31  33
HETATM   33  O   UNK N   1      36.431  15.252  12.385  0.00  0.00    -0.775 OA
HETATM   34  H   UNK N   1      36.420  16.188  12.415  0.00  0.00     0.167 HD
ENDBRANCH  31  33
ENDBRANCH  25  31
ENDBRANCH  20  23
ENDBRANCH   2  20
TORSDOF 10
ENDMDL
MODEL 4
REMARK VINA RESULT:      -6.3      3.065      4.842
REMARK  10 active torsions:
REMARK  status: ('A' for Active; 'I' for Inactive)
REMARK    1  A    between atoms: C_6  and  C_4 
REMARK    2  A    between atoms: C_11  and  C_6 
REMARK    3  A    between atoms: C_6  and  N_17 
REMARK    4  A    between atoms: C_8  and  C_7 
REMARK    5  A    between atoms: C_10  and  C_8 
REMARK    6  A    between atoms: C_9  and  C_12 
REMARK    7  A    between atoms: C_10  and  O_24 
REMARK    8  A    between atoms: O_26  and  C_12 
REMARK    9  A    between atoms: N_15  and  C_13 
REMARK   10  A    between atoms: O_27  and  N_21 
ROOT
HETATM    1  C   UNK N   1      28.082  17.631   6.155  0.00  0.00     0.168 C 
HETATM    2  N   UNK N   1      29.238  17.747   6.748  0.00  0.00    -0.355 N 
ATOM      3  HN  UNK N   1      30.006  18.086   6.169  1.00  0.00     0.162 HD
ENDROOT
BRANCH   1   4
HETATM    4  C   UNK N   1      27.982  17.932   4.713  0.00  0.00     0.132 C 
HETATM    5  N   UNK N   1      28.059  19.154   4.290  0.00  0.00    -0.261 N 
ATOM      6  HN  UNK N   1      28.023  19.339   3.288  1.00  0.00     0.194 HD
BRANCH   4   7
HETATM    7  C   UNK N   1      27.804  16.831   3.750  0.00  0.00     0.074 A 
HETATM    8  C   UNK N   1      28.876  15.990   3.361  0.00  0.00     0.085 A 
HETATM    9  S   UNK N   1      28.231  14.967   2.234  0.00  0.00    -0.064 SA
HETATM   10  C   UNK N   1      26.699  15.560   2.251  0.00  0.00     0.142 A 
HETATM   11  N   UNK N   1      26.602  16.590   3.120  0.00  0.00    -0.335 N 
HETATM   12  H   UNK N   1      25.778  17.104   3.282  0.00  0.00     0.168 HD
BRANCH  10  13
HETATM   13  N   UNK N   1      25.723  15.115   1.559  0.00  0.00    -0.380 N 
HETATM   14  H   UNK N   1      25.333  14.216   1.657  0.00  0.00     0.158 HD
ATOM     15  HN  UNK N   1      25.319  15.734   0.856  1.00  0.00     0.158 HD
ENDBRANCH  10  13
ENDBRANCH   4   7
BRANCH   5  16
HETATM   16  O   UNK N   1      28.181  20.164   5.129  0.00  0.00    -0.285 OA
HETATM   17  C   UNK N   1      27.119  20.992   5.381  0.00  0.00     0.237 C 
ENDBRANCH   5  16
ENDBRANCH   1   4
BRANCH   1  18
HETATM   18  O   UNK N   1      26.989  17.181   6.795  0.00  0.00    -0.344 OA
HETATM   19  H   UNK N   1      26.070  17.246   6.623  0.00  0.00     0.219 HD
ENDBRANCH   1  18
BRANCH   2  20
HETATM   20  C   UNK N   1      29.565  17.451   8.140  0.00  0.00     0.177 C 
BRANCH  20  21
HETATM   21  C   UNK N   1      29.396  18.726   8.915  0.00  0.00     0.259 C 
HETATM   22  O   UNK N   1      29.557  18.749  10.125  0.00  0.00    -0.305 OA
ENDBRANCH  20  21
BRANCH  20  23
HETATM   23  C   UNK N   1      30.996  16.891   8.277  0.00  0.00     0.170 C 
HETATM   24  N   UNK N   1      32.059  17.850   8.530  0.00  0.00    -0.392 N 
HETATM   25  C   UNK N   1      33.213  16.967   8.766  0.00  0.00     0.194 C 
HETATM   26  H   UNK N   1      32.016  18.869   8.542  0.00  0.00     0.155 HD
HETATM   27  C   UNK N   1      33.130  15.768   7.752  0.00  0.00     0.033 C 
HETATM   28  C   UNK N   1      34.243  15.753   6.716  0.00  0.00     0.029 C 
HETATM   29  C   UNK N   1      33.122  14.432   8.482  0.00  0.00     0.029 C 
HETATM   30  S   UNK N   1      31.550  15.914   6.865  0.00  0.00    -0.130 SA
BRANCH  25  31
HETATM   31  C   UNK N   1      34.520  17.714   8.780  0.00  0.00     0.164 C 
HETATM   32  O   UNK N   1      35.316  17.528   9.688  0.00  0.00    -0.648 OA
BRANCH  31  33
HETATM   33  O   UNK N   1      34.811  18.603   7.812  0.00  0.00    -0.775 OA
HETATM   34  H   UNK N   1      34.397  18.563   6.973  0.00  0.00     0.167 HD
ENDBRANCH  31  33
ENDBRANCH  25  31
ENDBRANCH  20  23
ENDBRANCH   2  20
TORSDOF 10
ENDMDL
MODEL 5
REMARK VINA RESULT:      -6.2      2.906      4.055
REMARK  10 active torsions:
REMARK  status: ('A' for Active; 'I' for Inactive)
REMARK    1  A    between atoms: C_6  and  C_4 
REMARK    2  A    between atoms: C_11  and  C_6 
REMARK    3  A    between atoms: C_6  and  N_17 
REMARK    4  A    between atoms: C_8  and  C_7 
REMARK    5  A    between atoms: C_10  and  C_8 
REMARK    6  A    between atoms: C_9  and  C_12 
REMARK    7  A    between atoms: C_10  and  O_24 
REMARK    8  A    between atoms: O_26  and  C_12 
REMARK    9  A    between atoms: N_15  and  C_13 
REMARK   10  A    between atoms: O_27  and  N_21 
ROOT
HETATM    1  C   UNK N   1      34.028  16.405   8.968  0.00  0.00     0.168 C 
HETATM    2  N   UNK N   1      34.383  15.184   9.262  0.00  0.00    -0.355 N 
ATOM      3  HN  UNK N   1      34.115  14.466   8.591  1.00  0.00     0.162 HD
ENDROOT
BRANCH   1   4
HETATM    4  C   UNK N   1      33.233  16.646   7.748  0.00  0.00     0.132 C 
HETATM    5  N   UNK N   1      33.763  16.482   6.576  0.00  0.00    -0.261 N 
ATOM      6  HN  UNK N   1      33.188  16.619   5.744  1.00  0.00     0.194 HD
BRANCH   4   7
HETATM    7  C   UNK N   1      31.826  17.065   7.865  0.00  0.00     0.074 A 
HETATM    8  C   UNK N   1      30.894  16.874   6.815  0.00  0.00     0.085 A 
HETATM    9  S   UNK N   1      29.488  17.550   7.362  0.00  0.00    -0.064 SA
HETATM   10  C   UNK N   1      30.037  18.041   8.830  0.00  0.00     0.142 A 
HETATM   11  N   UNK N   1      31.342  17.722   8.976  0.00  0.00    -0.335 N 
HETATM   12  H   UNK N   1      31.880  17.932   9.773  0.00  0.00     0.168 HD
BRANCH  10  13
HETATM   13  N   UNK N   1      29.342  18.629   9.725  0.00  0.00    -0.380 N 
HETATM   14  H   UNK N   1      29.710  19.036  10.541  0.00  0.00     0.158 HD
ATOM     15  HN  UNK N   1      28.333  18.680   9.583  1.00  0.00     0.158 HD
ENDBRANCH  10  13
ENDBRANCH   4   7
BRANCH   5  16
HETATM   16  O   UNK N   1      35.029  16.143   6.436  0.00  0.00    -0.285 OA
HETATM   17  C   UNK N   1      35.374  15.011   5.745  0.00  0.00     0.237 C 
ENDBRANCH   5  16
ENDBRANCH   1   4
BRANCH   1  18
HETATM   18  O   UNK N   1      34.302  17.447   9.772  0.00  0.00    -0.344 OA
HETATM   19  H   UNK N   1      35.036  17.667  10.312  0.00  0.00     0.219 HD
ENDBRANCH   1  18
BRANCH   2  20
HETATM   20  C   UNK N   1      35.117  14.724  10.437  0.00  0.00     0.177 C 
BRANCH  20  21
HETATM   21  C   UNK N   1      36.537  15.190  10.283  0.00  0.00     0.259 C 
HETATM   22  O   UNK N   1      36.909  16.237  10.787  0.00  0.00    -0.305 OA
ENDBRANCH  20  21
BRANCH  20  23
HETATM   23  C   UNK N   1      35.037  13.191  10.588  0.00  0.00     0.170 C 
HETATM   24  N   UNK N   1      33.950  12.516   9.896  0.00  0.00    -0.392 N 
HETATM   25  C   UNK N   1      34.284  11.099  10.118  0.00  0.00     0.194 C 
HETATM   26  H   UNK N   1      33.162  12.918   9.389  0.00  0.00     0.155 HD
HETATM   27  C   UNK N   1      34.822  10.944  11.587  0.00  0.00     0.033 C 
HETATM   28  C   UNK N   1      33.916  10.129  12.497  0.00  0.00     0.029 C 
HETATM   29  C   UNK N   1      36.213  10.327  11.601  0.00  0.00     0.029 C 
HETATM   30  S   UNK N   1      34.959  12.614  12.295  0.00  0.00    -0.130 SA
BRANCH  25  31
HETATM   31  C   UNK N   1      33.160  10.173   9.739  0.00  0.00     0.164 C 
HETATM   32  O   UNK N   1      33.398   9.003   9.479  0.00  0.00    -0.648 OA
BRANCH  31  33
HETATM   33  O   UNK N   1      31.895  10.627   9.660  0.00  0.00    -0.775 OA
HETATM   34  H   UNK N   1      31.336  10.393   8.946  0.00  0.00     0.167 HD
ENDBRANCH  31  33
ENDBRANCH  25  31
ENDBRANCH  20  23
ENDBRANCH   2  20
TORSDOF 10
ENDMDL
MODEL 6
REMARK VINA RESULT:      -6.1     15.615     18.308
REMARK  10 active torsions:
REMARK  status: ('A' for Active; 'I' for Inactive)
REMARK    1  A    between atoms: C_6  and  C_4 
REMARK    2  A    between atoms: C_11  and  C_6 
REMARK    3  A    between atoms: C_6  and  N_17 
REMARK    4  A    between atoms: C_8  and  C_7 
REMARK    5  A    between atoms: C_10  and  C_8 
REMARK    6  A    between atoms: C_9  and  C_12 
REMARK    7  A    between atoms: C_10  and  O_24 
REMARK    8  A    between atoms: O_26  and  C_12 
REMARK    9  A    between atoms: N_15  and  C_13 
REMARK   10  A    between atoms: O_27  and  N_21 
ROOT
HETATM    1  C   UNK N   1      26.903  27.431  -3.478  0.00  0.00     0.168 C 
HETATM    2  N   UNK N   1      27.270  26.405  -4.197  0.00  0.00    -0.355 N 
ATOM      3  HN  UNK N   1      28.035  26.567  -4.851  1.00  0.00     0.162 HD
ENDROOT
BRANCH   1   4
HETATM    4  C   UNK N   1      27.562  28.733  -3.700  0.00  0.00     0.132 C 
HETATM    5  N   UNK N   1      27.614  29.249  -4.889  0.00  0.00    -0.261 N 
ATOM      6  HN  UNK N   1      28.042  30.166  -5.017  1.00  0.00     0.194 HD
BRANCH   4   7
HETATM    7  C   UNK N   1      28.154  29.455  -2.560  0.00  0.00     0.074 A 
HETATM    8  C   UNK N   1      29.184  30.412  -2.729  0.00  0.00     0.085 A 
HETATM    9  S   UNK N   1      29.573  30.897  -1.197  0.00  0.00    -0.064 SA
HETATM   10  C   UNK N   1      28.498  29.954  -0.389  0.00  0.00     0.142 A 
HETATM   11  N   UNK N   1      27.787  29.201  -1.257  0.00  0.00    -0.335 N 
HETATM   12  H   UNK N   1      27.095  28.553  -0.991  0.00  0.00     0.168 HD
BRANCH  10  13
HETATM   13  N   UNK N   1      28.335  29.932   0.877  0.00  0.00    -0.380 N 
HETATM   14  H   UNK N   1      28.956  30.330   1.528  0.00  0.00     0.158 HD
ATOM     15  HN  UNK N   1      27.501  29.469   1.239  1.00  0.00     0.158 HD
ENDBRANCH  10  13
ENDBRANCH   4   7
BRANCH   5  16
HETATM   16  O   UNK N   1      27.127  28.613  -5.935  0.00  0.00    -0.285 OA
HETATM   17  C   UNK N   1      27.882  28.455  -7.068  0.00  0.00     0.237 C 
ENDBRANCH   5  16
ENDBRANCH   1   4
BRANCH   1  18
HETATM   18  O   UNK N   1      25.898  27.362  -2.588  0.00  0.00    -0.344 OA
HETATM   19  H   UNK N   1      25.650  27.890  -1.855  0.00  0.00     0.219 HD
ENDBRANCH   1  18
BRANCH   2  20
HETATM   20  C   UNK N   1      26.718  25.054  -4.176  0.00  0.00     0.177 C 
BRANCH  20  21
HETATM   21  C   UNK N   1      27.541  24.254  -3.207  0.00  0.00     0.259 C 
HETATM   22  O   UNK N   1      27.037  23.777  -2.203  0.00  0.00    -0.305 OA
ENDBRANCH  20  21
BRANCH  20  23
HETATM   23  C   UNK N   1      26.724  24.420  -5.582  0.00  0.00     0.170 C 
HETATM   24  N   UNK N   1      25.575  23.604  -5.943  0.00  0.00    -0.392 N 
HETATM   25  C   UNK N   1      25.840  23.321  -7.363  0.00  0.00     0.194 C 
HETATM   26  H   UNK N   1      24.790  23.306  -5.364  0.00  0.00     0.155 HD
HETATM   27  C   UNK N   1      27.381  23.060  -7.534  0.00  0.00     0.033 C 
HETATM   28  C   UNK N   1      27.729  21.633  -7.927  0.00  0.00     0.029 C 
HETATM   29  C   UNK N   1      27.989  24.012  -8.556  0.00  0.00     0.029 C 
HETATM   30  S   UNK N   1      28.171  23.402  -5.933  0.00  0.00    -0.130 SA
BRANCH  25  31
HETATM   31  C   UNK N   1      24.937  22.253  -7.919  0.00  0.00     0.164 C 
HETATM   32  O   UNK N   1      24.847  22.101  -9.127  0.00  0.00    -0.648 OA
BRANCH  31  33
HETATM   33  O   UNK N   1      24.208  21.476  -7.095  0.00  0.00    -0.775 OA
HETATM   34  H   UNK N   1      24.525  21.232  -6.248  0.00  0.00     0.167 HD
ENDBRANCH  31  33
ENDBRANCH  25  31
ENDBRANCH  20  23
ENDBRANCH   2  20
TORSDOF 10
ENDMDL
MODEL 7
REMARK VINA RESULT:      -6.0      2.868      4.246
REMARK  10 active torsions:
REMARK  status: ('A' for Active; 'I' for Inactive)
REMARK    1  A    between atoms: C_6  and  C_4 
REMARK    2  A    between atoms: C_11  and  C_6 
REMARK    3  A    between atoms: C_6  and  N_17 
REMARK    4  A    between atoms: C_8  and  C_7 
REMARK    5  A    between atoms: C_10  and  C_8 
REMARK    6  A    between atoms: C_9  and  C_12 
REMARK    7  A    between atoms: C_10  and  O_24 
REMARK    8  A    between atoms: O_26  and  C_12 
REMARK    9  A    between atoms: N_15  and  C_13 
REMARK   10  A    between atoms: O_27  and  N_21 
ROOT
HETATM    1  C   UNK N   1      33.942  16.918   7.141  0.00  0.00     0.168 C 
HETATM    2  N   UNK N   1      34.307  15.672   7.010  0.00  0.00    -0.355 N 
ATOM      3  HN  UNK N   1      33.952  15.025   7.714  1.00  0.00     0.162 HD
ENDROOT
BRANCH   1   4
HETATM    4  C   UNK N   1      33.114  17.304   8.300  0.00  0.00     0.132 C 
HETATM    5  N   UNK N   1      33.662  17.526   9.454  0.00  0.00    -0.261 N 
ATOM      6  HN  UNK N   1      33.078  17.827  10.234  1.00  0.00     0.194 HD
BRANCH   4   7
HETATM    7  C   UNK N   1      31.656  17.448   8.140  0.00  0.00     0.074 A 
HETATM    8  C   UNK N   1      30.986  17.046   6.959  0.00  0.00     0.085 A 
HETATM    9  S   UNK N   1      29.403  17.455   7.204  0.00  0.00    -0.064 SA
HETATM   10  C   UNK N   1      29.572  18.092   8.709  0.00  0.00     0.142 A 
HETATM   11  N   UNK N   1      30.864  18.036   9.102  0.00  0.00    -0.335 N 
HETATM   12  H   UNK N   1      31.197  18.373   9.964  0.00  0.00     0.168 HD
BRANCH  10  13
HETATM   13  N   UNK N   1      28.627  18.565   9.426  0.00  0.00    -0.380 N 
HETATM   14  H   UNK N   1      28.758  19.061  10.265  0.00  0.00     0.158 HD
ATOM     15  HN  UNK N   1      27.670  18.417   9.105  1.00  0.00     0.158 HD
ENDBRANCH  10  13
ENDBRANCH   4   7
BRANCH   5  16
HETATM   16  O   UNK N   1      34.957  17.372   9.639  0.00  0.00    -0.285 OA
HETATM   17  C   UNK N   1      35.426  16.573  10.650  0.00  0.00     0.237 C 
ENDBRANCH   5  16
ENDBRANCH   1   4
BRANCH   1  18
HETATM   18  O   UNK N   1      34.349  17.878   6.292  0.00  0.00    -0.344 OA
HETATM   19  H   UNK N   1      34.799  17.862   5.470  0.00  0.00     0.219 HD
ENDBRANCH   1  18
BRANCH   2  20
HETATM   20  C   UNK N   1      35.161  15.092   5.978  0.00  0.00     0.177 C 
BRANCH  20  21
HETATM   21  C   UNK N   1      34.279  14.266   5.086  0.00  0.00     0.259 C 
HETATM   22  O   UNK N   1      33.450  14.797   4.363  0.00  0.00    -0.305 OA
ENDBRANCH  20  21
BRANCH  20  23
HETATM   23  C   UNK N   1      36.294  14.245   6.593  0.00  0.00     0.170 C 
HETATM   24  N   UNK N   1      36.649  14.523   7.976  0.00  0.00    -0.392 N 
HETATM   25  C   UNK N   1      37.611  13.446   8.263  0.00  0.00     0.194 C 
HETATM   26  H   UNK N   1      36.319  15.269   8.588  0.00  0.00     0.155 HD
HETATM   27  C   UNK N   1      38.512  13.238   6.992  0.00  0.00     0.033 C 
HETATM   28  C   UNK N   1      39.970  13.616   7.196  0.00  0.00     0.029 C 
HETATM   29  C   UNK N   1      38.443  11.799   6.500  0.00  0.00     0.029 C 
HETATM   30  S   UNK N   1      37.845  14.299   5.674  0.00  0.00    -0.130 SA
BRANCH  25  31
HETATM   31  C   UNK N   1      38.353  13.662   9.555  0.00  0.00     0.164 C 
HETATM   32  O   UNK N   1      38.749  12.700  10.196  0.00  0.00    -0.648 OA
BRANCH  31  33
HETATM   33  O   UNK N   1      38.565  14.906  10.023  0.00  0.00    -0.775 OA
HETATM   34  H   UNK N   1      39.282  15.426   9.719  0.00  0.00     0.167 HD
ENDBRANCH  31  33
ENDBRANCH  25  31
ENDBRANCH  20  23
ENDBRANCH   2  20
TORSDOF 10
ENDMDL
MODEL 8
REMARK VINA RESULT:      -6.0      3.678      8.388
REMARK  10 active torsions:
REMARK  status: ('A' for Active; 'I' for Inactive)
REMARK    1  A    between atoms: C_6  and  C_4 
REMARK    2  A    between atoms: C_11  and  C_6 
REMARK    3  A    between atoms: C_6  and  N_17 
REMARK    4  A    between atoms: C_8  and  C_7 
REMARK    5  A    between atoms: C_10  and  C_8 
REMARK    6  A    between atoms: C_9  and  C_12 
REMARK    7  A    between atoms: C_10  and  O_24 
REMARK    8  A    between atoms: O_26  and  C_12 
REMARK    9  A    between atoms: N_15  and  C_13 
REMARK   10  A    between atoms: O_27  and  N_21 
ROOT
HETATM    1  C   UNK N   1      35.079  13.536  11.515  0.00  0.00     0.168 C 
HETATM    2  N   UNK N   1      34.928  12.953  10.357  0.00  0.00    -0.355 N 
ATOM      3  HN  UNK N   1      35.666  12.306  10.082  1.00  0.00     0.162 HD
ENDROOT
BRANCH   1   4
HETATM    4  C   UNK N   1      36.303  13.271  12.296  0.00  0.00     0.132 C 
HETATM    5  N   UNK N   1      37.472  13.476  11.776  0.00  0.00    -0.261 N 
ATOM      6  HN  UNK N   1      38.306  13.322  12.343  1.00  0.00     0.194 HD
BRANCH   4   7
HETATM    7  C   UNK N   1      36.192  12.778  13.680  0.00  0.00     0.074 A 
HETATM    8  C   UNK N   1      36.781  11.558  14.094  0.00  0.00     0.085 A 
HETATM    9  S   UNK N   1      36.343  11.387  15.679  0.00  0.00    -0.064 SA
HETATM   10  C   UNK N   1      35.472  12.772  15.817  0.00  0.00     0.142 A 
HETATM   11  N   UNK N   1      35.460  13.440  14.642  0.00  0.00    -0.335 N 
HETATM   12  H   UNK N   1      34.987  14.290  14.492  0.00  0.00     0.168 HD
BRANCH  10  13
HETATM   13  N   UNK N   1      34.894  13.183  16.878  0.00  0.00    -0.380 N 
HETATM   14  H   UNK N   1      35.320  13.233  17.764  0.00  0.00     0.158 HD
ATOM     15  HN  UNK N   1      33.921  13.481  16.802  1.00  0.00     0.158 HD
ENDBRANCH  10  13
ENDBRANCH   4   7
BRANCH   5  16
HETATM   16  O   UNK N   1      37.607  13.882  10.529  0.00  0.00    -0.285 OA
HETATM   17  C   UNK N   1      38.605  13.378   9.737  0.00  0.00     0.237 C 
ENDBRANCH   5  16
ENDBRANCH   1   4
BRANCH   1  18
HETATM   18  O   UNK N   1      34.190  14.423  11.993  0.00  0.00    -0.344 OA
HETATM   19  H   UNK N   1      33.374  14.336  12.446  0.00  0.00     0.219 HD
ENDBRANCH   1  18
BRANCH   2  20
HETATM   20  C   UNK N   1      33.831  13.116   9.408  0.00  0.00     0.177 C 
BRANCH  20  21
HETATM   21  C   UNK N   1      33.674  11.809   8.685  0.00  0.00     0.259 C 
HETATM   22  O   UNK N   1      32.700  11.099   8.880  0.00  0.00    -0.305 OA
ENDBRANCH  20  21
BRANCH  20  23
HETATM   23  C   UNK N   1      34.098  14.277   8.429  0.00  0.00     0.170 C 
HETATM   24  N   UNK N   1      33.929  15.627   8.944  0.00  0.00    -0.392 N 
HETATM   25  C   UNK N   1      34.420  16.442   7.821  0.00  0.00     0.194 C 
HETATM   26  H   UNK N   1      33.564  15.929   9.848  0.00  0.00     0.155 HD
HETATM   27  C   UNK N   1      33.928  15.783   6.482  0.00  0.00     0.033 C 
HETATM   28  C   UNK N   1      32.921  16.621   5.711  0.00  0.00     0.029 C 
HETATM   29  C   UNK N   1      35.101  15.461   5.565  0.00  0.00     0.029 C 
HETATM   30  S   UNK N   1      33.124  14.210   6.913  0.00  0.00    -0.130 SA
BRANCH  25  31
HETATM   31  C   UNK N   1      34.096  17.904   7.982  0.00  0.00     0.164 C 
HETATM   32  O   UNK N   1      34.949  18.744   7.747  0.00  0.00    -0.648 OA
BRANCH  31  33
HETATM   33  O   UNK N   1      32.878  18.292   8.404  0.00  0.00    -0.775 OA
HETATM   34  H   UNK N   1      32.714  18.487   9.306  0.00  0.00     0.167 HD
ENDBRANCH  31  33
ENDBRANCH  25  31
ENDBRANCH  20  23
ENDBRANCH   2  20
TORSDOF 10
ENDMDL
MODEL 9
REMARK VINA RESULT:      -6.0      6.074      9.476
REMARK  10 active torsions:
REMARK  status: ('A' for Active; 'I' for Inactive)
REMARK    1  A    between atoms: C_6  and  C_4 
REMARK    2  A    between atoms: C_11  and  C_6 
REMARK    3  A    between atoms: C_6  and  N_17 
REMARK    4  A    between atoms: C_8  and  C_7 
REMARK    5  A    between atoms: C_10  and  C_8 
REMARK    6  A    between atoms: C_9  and  C_12 
REMARK    7  A    between atoms: C_10  and  O_24 
REMARK    8  A    between atoms: O_26  and  C_12 
REMARK    9  A    between atoms: N_15  and  C_13 
REMARK   10  A    between atoms: O_27  and  N_21 
ROOT
HETATM    1  C   UNK N   1      22.406  16.031   5.509  0.00  0.00     0.168 C 
HETATM    2  N   UNK N   1      23.603  16.261   5.976  0.00  0.00    -0.355 N 
ATOM      3  HN  UNK N   1      23.736  17.154   6.449  1.00  0.00     0.162 HD
ENDROOT
BRANCH   1   4
HETATM    4  C   UNK N   1      21.373  17.077   5.643  0.00  0.00     0.132 C 
HETATM    5  N   UNK N   1      20.881  17.371   6.806  0.00  0.00    -0.261 N 
ATOM      6  HN  UNK N   1      20.194  18.120   6.883  1.00  0.00     0.194 HD
BRANCH   4   7
HETATM    7  C   UNK N   1      20.904  17.796   4.445  0.00  0.00     0.074 A 
HETATM    8  C   UNK N   1      21.101  19.189   4.279  0.00  0.00     0.085 A 
HETATM    9  S   UNK N   1      20.362  19.559   2.847  0.00  0.00    -0.064 SA
HETATM   10  C   UNK N   1      19.839  18.047   2.474  0.00  0.00     0.142 A 
HETATM   11  N   UNK N   1      20.194  17.173   3.442  0.00  0.00    -0.335 N 
HETATM   12  H   UNK N   1      19.973  16.214   3.432  0.00  0.00     0.168 HD
BRANCH  10  13
HETATM   13  N   UNK N   1      19.198  17.723   1.419  0.00  0.00    -0.380 N 
HETATM   14  H   UNK N   1      18.600  16.945   1.346  0.00  0.00     0.158 HD
ATOM     15  HN  UNK N   1      19.314  18.311   0.594  1.00  0.00     0.158 HD
ENDBRANCH  10  13
ENDBRANCH   4   7
BRANCH   5  16
HETATM   16  O   UNK N   1      21.252  16.722   7.891  0.00  0.00    -0.285 OA
HETATM   17  C   UNK N   1      20.325  16.075   8.667  0.00  0.00     0.237 C 
ENDBRANCH   5  16
ENDBRANCH   1   4
BRANCH   1  18
HETATM   18  O   UNK N   1      22.097  14.901   4.851  0.00  0.00    -0.344 OA
HETATM   19  H   UNK N   1      22.037  14.002   5.108  0.00  0.00     0.219 HD
ENDBRANCH   1  18
BRANCH   2  20
HETATM   20  C   UNK N   1      24.775  15.393   5.902  0.00  0.00     0.177 C 
BRANCH  20  21
HETATM   21  C   UNK N   1      24.686  14.431   7.052  0.00  0.00     0.259 C 
HETATM   22  O   UNK N   1      25.531  13.562   7.206  0.00  0.00    -0.305 OA
ENDBRANCH  20  21
BRANCH  20  23
HETATM   23  C   UNK N   1      26.084  16.208   5.944  0.00  0.00     0.170 C 
HETATM   24  N   UNK N   1      26.607  16.548   7.258  0.00  0.00    -0.392 N 
HETATM   25  C   UNK N   1      27.906  17.151   6.918  0.00  0.00     0.194 C 
HETATM   26  H   UNK N   1      26.185  16.405   8.175  0.00  0.00     0.155 HD
HETATM   27  C   UNK N   1      27.719  18.029   5.627  0.00  0.00     0.033 C 
HETATM   28  C   UNK N   1      27.898  19.521   5.860  0.00  0.00     0.029 C 
HETATM   29  C   UNK N   1      28.669  17.588   4.522  0.00  0.00     0.029 C 
HETATM   30  S   UNK N   1      26.023  17.761   5.029  0.00  0.00    -0.130 SA
BRANCH  25  31
HETATM   31  C   UNK N   1      28.543  17.850   8.090  0.00  0.00     0.164 C 
HETATM   32  O   UNK N   1      29.760  17.902   8.178  0.00  0.00    -0.648 OA
BRANCH  31  33
HETATM   33  O   UNK N   1      27.783  18.400   9.055  0.00  0.00    -0.775 OA
HETATM   34  H   UNK N   1      27.858  19.307   9.278  0.00  0.00     0.167 HD
ENDBRANCH  31  33
ENDBRANCH  25  31
ENDBRANCH  20  23
ENDBRANCH   2  20
TORSDOF 10
ENDMDL
