MODEL 1
REMARK VINA RESULT:      -7.5      0.000      0.000
REMARK  6 active torsions:
REMARK  status: ('A' for Active; 'I' for Inactive)
REMARK    1  A    between atoms: C_14  and  C_7 
REMARK    2  A    between atoms: C_15  and  C_8 
REMARK    3  A    between atoms: N_18  and  C_14 
REMARK    4  A    between atoms: N_19  and  C_14 
REMARK    5  A    between atoms: N_20  and  C_15 
REMARK    6  A    between atoms: N_21  and  C_15 
ROOT
HETATM    1  C   UNK N   1      31.377  15.269   5.960  0.00  0.00     0.013 A 
HETATM    2  C   UNK N   1      35.186  11.693  13.681  0.00  0.00     0.013 A 
HETATM    3  C   UNK N   1      31.982  14.776   7.121  0.00  0.00     0.034 A 
HETATM    4  C   UNK N   1      34.648  12.272  12.526  0.00  0.00     0.034 A 
HETATM    5  C   UNK N   1      32.659  17.359   6.142  0.00  0.00     0.043 A 
HETATM    6  C   UNK N   1      36.528  13.710  14.101  0.00  0.00     0.043 A 
HETATM    7  C   UNK N   1      31.710  16.548   5.454  0.00  0.00    -0.015 A 
HETATM    8  C   UNK N   1      36.126  12.396  14.473  0.00  0.00    -0.015 A 
HETATM    9  C   UNK N   1      33.228  16.836   7.305  0.00  0.00     0.063 A 
HETATM   10  C   UNK N   1      35.964  14.252  12.943  0.00  0.00     0.063 A 
HETATM   11  C   UNK N   1      32.897  15.599   7.754  0.00  0.00     0.086 A 
HETATM   12  C   UNK N   1      35.070  13.550  12.203  0.00  0.00     0.086 A 
HETATM   13  C   UNK N   1      35.227  16.563  10.286  0.00  0.00     0.263 A 
HETATM   14  C   UNK N   1      34.319  16.439   9.102  0.00  0.00     0.183 A 
HETATM   15  C   UNK N   1      35.366  15.446  11.273  0.00  0.00     0.183 A 
HETATM   16  N   UNK N   1      34.132  17.396   8.147  0.00  0.00    -0.336 N 
HETATM   17  N   UNK N   1      36.173  15.465  12.375  0.00  0.00    -0.336 N 
HETATM   18  N   UNK N   1      33.572  15.336   8.862  0.00  0.00    -0.225 N 
HETATM   19  N   UNK N   1      34.690  14.279  11.165  0.00  0.00    -0.225 N 
HETATM   20  O   UNK N   1      35.862  17.595  10.451  0.00  0.00    -0.280 OA
HETATM   21 Zn   UNK N   1      33.513  13.828   9.863  0.00  0.00     0.000 Zn
HETATM   22  H   UNK N   1      34.553  18.283   8.084  0.00  0.00     0.168 HD
HETATM   23  H   UNK N   1      36.764  16.188  12.684  0.00  0.00     0.168 HD
ENDROOT
BRANCH   7  24
HETATM   24  C   UNK N   1      31.020  17.009   4.200  0.00  0.00     0.202 C 
BRANCH  24  25
HETATM   25  N   UNK N   1      31.979  17.614   3.290  0.00  0.00    -0.407 N 
HETATM   26  H   UNK N   1      32.420  18.528   3.186  0.00  0.00     0.152 HD
HETATM   27  H   UNK N   1      32.292  16.957   2.575  0.00  0.00     0.152 HD
ENDBRANCH  24  25
BRANCH  24  28
HETATM   28  N   UNK N   1      29.956  17.958   4.480  0.00  0.00    -0.407 N 
HETATM   29  H   UNK N   1      29.700  18.195   5.439  0.00  0.00     0.152 HD
HETATM   30  H   UNK N   1      29.458  18.397   3.706  0.00  0.00     0.152 HD
ENDBRANCH  24  28
ENDBRANCH   7  24
BRANCH   8  31
HETATM   31  C   UNK N   1      36.661  11.712  15.699  0.00  0.00     0.202 C 
BRANCH  31  32
HETATM   32  N   UNK N   1      36.996  10.321  15.449  0.00  0.00    -0.407 N 
HETATM   33  H   UNK N   1      37.863   9.927  15.813  0.00  0.00     0.152 HD
HETATM   34  H   UNK N   1      36.361   9.736  14.906  0.00  0.00     0.152 HD
ENDBRANCH  31  32
BRANCH  31  35
HETATM   35  N   UNK N   1      35.687  11.788  16.777  0.00  0.00    -0.407 N 
HETATM   36  H   UNK N   1      34.692  11.647  16.947  0.00  0.00     0.152 HD
HETATM   37  H   UNK N   1      36.149  12.074  17.641  0.00  0.00     0.152 HD
ENDBRANCH  31  35
ENDBRANCH   8  31
TORSDOF 6
ENDMDL
MODEL 2
REMARK VINA RESULT:      -7.5      0.042      9.004
REMARK  6 active torsions:
REMARK  status: ('A' for Active; 'I' for Inactive)
REMARK    1  A    between atoms: C_14  and  C_7 
REMARK    2  A    between atoms: C_15  and  C_8 
REMARK    3  A    between atoms: N_18  and  C_14 
REMARK    4  A    between atoms: N_19  and  C_14 
REMARK    5  A    between atoms: N_20  and  C_15 
REMARK    6  A    between atoms: N_21  and  C_15 
ROOT
HETATM    1  C   UNK N   1      35.191  11.682  13.676  0.00  0.00     0.013 A 
HETATM    2  C   UNK N   1      31.423  15.224   5.920  0.00  0.00     0.013 A 
HETATM    3  C   UNK N   1      34.649  12.262  12.525  0.00  0.00     0.034 A 
HETATM    4  C   UNK N   1      32.012  14.741   7.094  0.00  0.00     0.034 A 
HETATM    5  C   UNK N   1      36.483  13.723  14.134  0.00  0.00     0.043 A 
HETATM    6  C   UNK N   1      32.659  17.340   6.139  0.00  0.00     0.043 A 
HETATM    7  C   UNK N   1      36.097  12.399  14.494  0.00  0.00    -0.015 A 
HETATM    8  C   UNK N   1      31.733  16.518   5.434  0.00  0.00    -0.015 A 
HETATM    9  C   UNK N   1      35.931  14.259  12.968  0.00  0.00     0.063 A 
HETATM   10  C   UNK N   1      33.225  16.817   7.304  0.00  0.00     0.063 A 
HETATM   11  C   UNK N   1      35.054  13.549  12.216  0.00  0.00     0.086 A 
HETATM   12  C   UNK N   1      32.903  15.575   7.746  0.00  0.00     0.086 A 
HETATM   13  C   UNK N   1      35.216  16.555  10.289  0.00  0.00     0.263 A 
HETATM   14  C   UNK N   1      35.346  15.445  11.287  0.00  0.00     0.183 A 
HETATM   15  C   UNK N   1      34.309  16.425   9.105  0.00  0.00     0.183 A 
HETATM   16  N   UNK N   1      36.139  15.472  12.398  0.00  0.00    -0.336 N 
HETATM   17  N   UNK N   1      34.120  17.383   8.150  0.00  0.00    -0.336 N 
HETATM   18  N   UNK N   1      34.676  14.274  11.176  0.00  0.00    -0.225 N 
HETATM   19  N   UNK N   1      33.569  15.320   8.862  0.00  0.00    -0.225 N 
HETATM   20  O   UNK N   1      35.864  17.580  10.442  0.00  0.00    -0.280 OA
HETATM   21 Zn   UNK N   1      33.515  13.811   9.865  0.00  0.00     0.000 Zn
HETATM   22  H   UNK N   1      36.723  16.200  12.712  0.00  0.00     0.168 HD
HETATM   23  H   UNK N   1      34.536  18.273   8.090  0.00  0.00     0.168 HD
ENDROOT
BRANCH   7  24
HETATM   24  C   UNK N   1      36.635  11.711  15.718  0.00  0.00     0.202 C 
BRANCH  24  25
HETATM   25  N   UNK N   1      37.017  10.344  15.400  0.00  0.00    -0.407 N 
HETATM   26  H   UNK N   1      37.541   9.600  15.862  0.00  0.00     0.152 HD
HETATM   27  H   UNK N   1      36.675  10.056  14.483  0.00  0.00     0.152 HD
ENDBRANCH  24  25
BRANCH  24  28
HETATM   28  N   UNK N   1      35.671  11.701  16.805  0.00  0.00    -0.407 N 
HETATM   29  H   UNK N   1      35.510  12.533  17.374  0.00  0.00     0.152 HD
HETATM   30  H   UNK N   1      35.146  10.850  17.003  0.00  0.00     0.152 HD
ENDBRANCH  24  28
ENDBRANCH   7  24
BRANCH   8  31
HETATM   31  C   UNK N   1      31.065  16.970   4.167  0.00  0.00     0.202 C 
BRANCH  31  32
HETATM   32  N   UNK N   1      32.002  17.582   3.241  0.00  0.00    -0.407 N 
HETATM   33  H   UNK N   1      31.671  18.232   2.528  0.00  0.00     0.152 HD
HETATM   34  H   UNK N   1      32.996  17.362   3.306  0.00  0.00     0.152 HD
ENDBRANCH  31  32
BRANCH  31  35
HETATM   35  N   UNK N   1      30.002  17.914   4.475  0.00  0.00    -0.407 N 
HETATM   36  H   UNK N   1      29.616  18.798   4.142  0.00  0.00     0.152 HD
HETATM   37  H   UNK N   1      29.471  17.587   5.282  0.00  0.00     0.152 HD
ENDBRANCH  31  35
ENDBRANCH   8  31
TORSDOF 6
ENDMDL
MODEL 3
REMARK VINA RESULT:      -7.4      3.223      4.507
REMARK  6 active torsions:
REMARK  status: ('A' for Active; 'I' for Inactive)
REMARK    1  A    between atoms: C_14  and  C_7 
REMARK    2  A    between atoms: C_15  and  C_8 
REMARK    3  A    between atoms: N_18  and  C_14 
REMARK    4  A    between atoms: N_19  and  C_14 
REMARK    5  A    between atoms: N_20  and  C_15 
REMARK    6  A    between atoms: N_21  and  C_15 
ROOT
HETATM    1  C   UNK N   1      28.192  19.094   7.866  0.00  0.00     0.013 A 
HETATM    2  C   UNK N   1      35.253  14.391  11.730  0.00  0.00     0.013 A 
HETATM    3  C   UNK N   1      29.259  18.363   8.397  0.00  0.00     0.034 A 
HETATM    4  C   UNK N   1      34.203  15.070  11.103  0.00  0.00     0.034 A 
HETATM    5  C   UNK N   1      28.651  18.194   5.624  0.00  0.00     0.043 A 
HETATM    6  C   UNK N   1      35.937  13.409   9.581  0.00  0.00     0.043 A 
HETATM    7  C   UNK N   1      27.870  19.014   6.490  0.00  0.00    -0.015 A 
HETATM    8  C   UNK N   1      36.123  13.557  10.985  0.00  0.00    -0.015 A 
HETATM    9  C   UNK N   1      29.718  17.493   6.192  0.00  0.00     0.063 A 
HETATM   10  C   UNK N   1      34.879  14.108   8.995  0.00  0.00     0.063 A 
HETATM   11  C   UNK N   1      29.989  17.582   7.518  0.00  0.00     0.086 A 
HETATM   12  C   UNK N   1      34.061  14.895   9.738  0.00  0.00     0.086 A 
HETATM   13  C   UNK N   1      32.595  15.353   6.509  0.00  0.00     0.263 A 
HETATM   14  C   UNK N   1      31.420  16.274   6.631  0.00  0.00     0.183 A 
HETATM   15  C   UNK N   1      33.408  14.978   7.709  0.00  0.00     0.183 A 
HETATM   16  N   UNK N   1      30.616  16.668   5.600  0.00  0.00    -0.336 N 
HETATM   17  N   UNK N   1      34.488  14.142   7.698  0.00  0.00    -0.336 N 
HETATM   18  N   UNK N   1      31.036  16.825   7.806  0.00  0.00    -0.225 N 
HETATM   19  N   UNK N   1      33.144  15.441   8.952  0.00  0.00    -0.225 N 
HETATM   20  O   UNK N   1      32.896  14.905   5.413  0.00  0.00    -0.280 OA
HETATM   21 Zn   UNK N   1      31.811  16.574   9.424  0.00  0.00     0.000 Zn
HETATM   22  H   UNK N   1      30.674  16.413   4.651  0.00  0.00     0.168 HD
HETATM   23  H   UNK N   1      34.888  13.675   6.929  0.00  0.00     0.168 HD
ENDROOT
BRANCH   7  24
HETATM   24  C   UNK N   1      26.707  19.826   5.993  0.00  0.00     0.202 C 
BRANCH  24  25
HETATM   25  N   UNK N   1      26.214  20.699   7.047  0.00  0.00    -0.407 N 
HETATM   26  H   UNK N   1      25.581  20.608   7.842  0.00  0.00     0.152 HD
HETATM   27  H   UNK N   1      26.600  21.640   6.973  0.00  0.00     0.152 HD
ENDBRANCH  24  25
BRANCH  24  28
HETATM   28  N   UNK N   1      25.621  18.987   5.514  0.00  0.00    -0.407 N 
HETATM   29  H   UNK N   1      25.807  18.122   5.007  0.00  0.00     0.152 HD
HETATM   30  H   UNK N   1      24.656  19.268   5.689  0.00  0.00     0.152 HD
ENDBRANCH  24  28
ENDBRANCH   7  24
BRANCH   8  31
HETATM   31  C   UNK N   1      37.229  12.859  11.724  0.00  0.00     0.202 C 
BRANCH  31  32
HETATM   32  N   UNK N   1      37.292  13.257  13.120  0.00  0.00    -0.407 N 
HETATM   33  H   UNK N   1      36.609  13.912  13.499  0.00  0.00     0.152 HD
HETATM   34  H   UNK N   1      38.024  12.880  13.722  0.00  0.00     0.152 HD
ENDBRANCH  31  32
BRANCH  31  35
HETATM   35  N   UNK N   1      38.506  13.132  11.084  0.00  0.00    -0.407 N 
HETATM   36  H   UNK N   1      39.061  12.836  10.282  0.00  0.00     0.152 HD
HETATM   37  H   UNK N   1      39.006  13.854  11.604  0.00  0.00     0.152 HD
ENDBRANCH  31  35
ENDBRANCH   8  31
TORSDOF 6
ENDMDL
MODEL 4
REMARK VINA RESULT:      -7.4      3.234      9.335
REMARK  6 active torsions:
REMARK  status: ('A' for Active; 'I' for Inactive)
REMARK    1  A    between atoms: C_14  and  C_7 
REMARK    2  A    between atoms: C_15  and  C_8 
REMARK    3  A    between atoms: N_18  and  C_14 
REMARK    4  A    between atoms: N_19  and  C_14 
REMARK    5  A    between atoms: N_20  and  C_15 
REMARK    6  A    between atoms: N_21  and  C_15 
ROOT
HETATM    1  C   UNK N   1      35.227  14.263  11.719  0.00  0.00     0.013 A 
HETATM    2  C   UNK N   1      28.187  19.063   7.935  0.00  0.00     0.013 A 
HETATM    3  C   UNK N   1      34.190  14.969  11.101  0.00  0.00     0.034 A 
HETATM    4  C   UNK N   1      29.261  18.330   8.452  0.00  0.00     0.034 A 
HETATM    5  C   UNK N   1      35.977  13.400   9.542  0.00  0.00     0.043 A 
HETATM    6  C   UNK N   1      28.715  18.282   5.663  0.00  0.00     0.043 A 
HETATM    7  C   UNK N   1      36.131  13.485  10.957  0.00  0.00    -0.015 A 
HETATM    8  C   UNK N   1      27.905  19.051   6.548  0.00  0.00    -0.015 A 
HETATM    9  C   UNK N   1      34.919  14.107   8.967  0.00  0.00     0.063 A 
HETATM   10  C   UNK N   1      29.774  17.563   6.222  0.00  0.00     0.063 A 
HETATM   11  C   UNK N   1      34.080  14.855   9.726  0.00  0.00     0.086 A 
HETATM   12  C   UNK N   1      30.020  17.599   7.556  0.00  0.00     0.086 A 
HETATM   13  C   UNK N   1      32.646  15.414   6.501  0.00  0.00     0.263 A 
HETATM   14  C   UNK N   1      33.455  15.008   7.694  0.00  0.00     0.183 A 
HETATM   15  C   UNK N   1      31.472  16.333   6.640  0.00  0.00     0.183 A 
HETATM   16  N   UNK N   1      34.543  14.184   7.667  0.00  0.00    -0.336 N 
HETATM   17  N   UNK N   1      30.682  16.763   5.613  0.00  0.00    -0.336 N 
HETATM   18  N   UNK N   1      33.173  15.426   8.950  0.00  0.00    -0.225 N 
HETATM   19  N   UNK N   1      31.071  16.840   7.829  0.00  0.00    -0.225 N 
HETATM   20  O   UNK N   1      32.947  14.985   5.396  0.00  0.00    -0.280 OA
HETATM   21 Zn   UNK N   1      31.825  16.531   9.447  0.00  0.00     0.000 Zn
HETATM   22  H   UNK N   1      34.957  13.748   6.887  0.00  0.00     0.168 HD
HETATM   23  H   UNK N   1      30.756  16.544   4.656  0.00  0.00     0.168 HD
ENDROOT
BRANCH   7  24
HETATM   24  C   UNK N   1      37.222  12.756  11.691  0.00  0.00     0.202 C 
BRANCH  24  25
HETATM   25  N   UNK N   1      37.187  13.090  13.106  0.00  0.00    -0.407 N 
HETATM   26  H   UNK N   1      37.657  13.760  13.716  0.00  0.00     0.152 HD
HETATM   27  H   UNK N   1      36.525  12.508  13.618  0.00  0.00     0.152 HD
ENDBRANCH  24  25
BRANCH  24  28
HETATM   28  N   UNK N   1      38.538  13.062  11.155  0.00  0.00    -0.407 N 
HETATM   29  H   UNK N   1      39.288  13.397  11.760  0.00  0.00     0.152 HD
HETATM   30  H   UNK N   1      38.715  12.940  10.158  0.00  0.00     0.152 HD
ENDBRANCH  24  28
ENDBRANCH   7  24
BRANCH   8  31
HETATM   31  C   UNK N   1      26.737  19.861   6.062  0.00  0.00     0.202 C 
BRANCH  31  32
HETATM   32  N   UNK N   1      26.271  20.805   7.064  0.00  0.00    -0.407 N 
HETATM   33  H   UNK N   1      25.415  21.338   6.910  0.00  0.00     0.152 HD
HETATM   34  H   UNK N   1      26.802  20.934   7.925  0.00  0.00     0.152 HD
ENDBRANCH  31  32
BRANCH  31  35
HETATM   35  N   UNK N   1      25.644  18.981   5.682  0.00  0.00    -0.407 N 
HETATM   36  H   UNK N   1      24.625  18.968   5.637  0.00  0.00     0.152 HD
HETATM   37  H   UNK N   1      26.016  18.091   5.351  0.00  0.00     0.152 HD
ENDBRANCH  31  35
ENDBRANCH   8  31
TORSDOF 6
ENDMDL
MODEL 5
REMARK VINA RESULT:      -7.1      3.007      5.157
REMARK  6 active torsions:
REMARK  status: ('A' for Active; 'I' for Inactive)
REMARK    1  A    between atoms: C_14  and  C_7 
REMARK    2  A    between atoms: C_15  and  C_8 
REMARK    3  A    between atoms: N_18  and  C_14 
REMARK    4  A    between atoms: N_19  and  C_14 
REMARK    5  A    between atoms: N_20  and  C_15 
REMARK    6  A    between atoms: N_21  and  C_15 
ROOT
HETATM    1  C   UNK N   1      34.893  16.423  10.133  0.00  0.00     0.013 A 
HETATM    2  C   UNK N   1      35.315  12.636  18.640  0.00  0.00     0.013 A 
HETATM    3  C   UNK N   1      34.944  15.805  11.386  0.00  0.00     0.034 A 
HETATM    4  C   UNK N   1      35.239  13.155  17.343  0.00  0.00     0.034 A 
HETATM    5  C   UNK N   1      34.600  14.241   9.036  0.00  0.00     0.043 A 
HETATM    6  C   UNK N   1      35.089  10.348  17.767  0.00  0.00     0.043 A 
HETATM    7  C   UNK N   1      34.713  15.660   8.954  0.00  0.00    -0.015 A 
HETATM    8  C   UNK N   1      35.238  11.240  18.867  0.00  0.00    -0.015 A 
HETATM    9  C   UNK N   1      34.671  13.663  10.306  0.00  0.00     0.063 A 
HETATM   10  C   UNK N   1      35.022  10.908  16.489  0.00  0.00     0.063 A 
HETATM   11  C   UNK N   1      34.831  14.427  11.417  0.00  0.00     0.086 A 
HETATM   12  C   UNK N   1      35.094  12.250  16.307  0.00  0.00     0.086 A 
HETATM   13  C   UNK N   1      34.740  11.182  12.913  0.00  0.00     0.263 A 
HETATM   14  C   UNK N   1      34.735  12.384  12.019  0.00  0.00     0.183 A 
HETATM   15  C   UNK N   1      34.876  11.325  14.397  0.00  0.00     0.183 A 
HETATM   16  N   UNK N   1      34.610  12.356  10.660  0.00  0.00    -0.336 N 
HETATM   17  N   UNK N   1      34.883  10.292  15.290  0.00  0.00    -0.336 N 
HETATM   18  N   UNK N   1      34.863  13.648  12.486  0.00  0.00    -0.225 N 
HETATM   19  N   UNK N   1      35.005  12.523  15.013  0.00  0.00    -0.225 N 
HETATM   20  O   UNK N   1      34.637  10.068  12.422  0.00  0.00    -0.280 OA
HETATM   21 Zn   UNK N   1      35.047  14.150  14.217  0.00  0.00     0.000 Zn
HETATM   22  H   UNK N   1      34.501  11.572  10.075  0.00  0.00     0.168 HD
HETATM   23  H   UNK N   1      34.807   9.328  15.106  0.00  0.00     0.168 HD
ENDROOT
BRANCH   7  24
HETATM   24  C   UNK N   1      34.665  16.394   7.643  0.00  0.00     0.202 C 
BRANCH  24  25
HETATM   25  N   UNK N   1      34.460  17.816   7.868  0.00  0.00    -0.407 N 
HETATM   26  H   UNK N   1      34.313  18.640   7.285  0.00  0.00     0.152 HD
HETATM   27  H   UNK N   1      34.464  18.048   8.861  0.00  0.00     0.152 HD
ENDBRANCH  24  25
BRANCH  24  28
HETATM   28  N   UNK N   1      33.617  15.888   6.773  0.00  0.00    -0.407 N 
HETATM   29  H   UNK N   1      32.770  15.467   7.156  0.00  0.00     0.152 HD
HETATM   30  H   UNK N   1      33.728  15.955   5.761  0.00  0.00     0.152 HD
ENDBRANCH  24  28
ENDBRANCH   7  24
BRANCH   8  31
HETATM   31  C   UNK N   1      35.326  10.754  20.286  0.00  0.00     0.202 C 
BRANCH  31  32
HETATM   32  N   UNK N   1      34.256  11.284  21.114  0.00  0.00    -0.407 N 
HETATM   33  H   UNK N   1      33.468  10.693  21.377  0.00  0.00     0.152 HD
HETATM   34  H   UNK N   1      34.295  12.251  21.435  0.00  0.00     0.152 HD
ENDBRANCH  31  32
BRANCH  31  35
HETATM   35  N   UNK N   1      36.610  11.122  20.860  0.00  0.00    -0.407 N 
HETATM   36  H   UNK N   1      37.609  11.034  20.673  0.00  0.00     0.152 HD
HETATM   37  H   UNK N   1      36.465  11.637  21.729  0.00  0.00     0.152 HD
ENDBRANCH  31  35
ENDBRANCH   8  31
TORSDOF 6
ENDMDL
MODEL 6
REMARK VINA RESULT:      -7.1      3.015     10.158
REMARK  6 active torsions:
REMARK  status: ('A' for Active; 'I' for Inactive)
REMARK    1  A    between atoms: C_14  and  C_7 
REMARK    2  A    between atoms: C_15  and  C_8 
REMARK    3  A    between atoms: N_18  and  C_14 
REMARK    4  A    between atoms: N_19  and  C_14 
REMARK    5  A    between atoms: N_20  and  C_15 
REMARK    6  A    between atoms: N_21  and  C_15 
ROOT
HETATM    1  C   UNK N   1      35.311  12.649  18.672  0.00  0.00     0.013 A 
HETATM    2  C   UNK N   1      34.876  16.381  10.140  0.00  0.00     0.013 A 
HETATM    3  C   UNK N   1      35.249  13.158  17.371  0.00  0.00     0.034 A 
HETATM    4  C   UNK N   1      34.944  15.772  11.398  0.00  0.00     0.034 A 
HETATM    5  C   UNK N   1      35.201  10.349  17.810  0.00  0.00     0.043 A 
HETATM    6  C   UNK N   1      34.697  14.182   9.054  0.00  0.00     0.043 A 
HETATM    7  C   UNK N   1      35.298  11.253  18.908  0.00  0.00    -0.015 A 
HETATM    8  C   UNK N   1      34.756  15.603   8.964  0.00  0.00    -0.015 A 
HETATM    9  C   UNK N   1      35.125  10.899  16.528  0.00  0.00     0.063 A 
HETATM   10  C   UNK N   1      34.765  13.615  10.329  0.00  0.00     0.063 A 
HETATM   11  C   UNK N   1      35.155  12.242  16.338  0.00  0.00     0.086 A 
HETATM   12  C   UNK N   1      34.885  14.390  11.436  0.00  0.00     0.086 A 
HETATM   13  C   UNK N   1      34.852  11.151  12.948  0.00  0.00     0.263 A 
HETATM   14  C   UNK N   1      34.981  11.301  14.432  0.00  0.00     0.183 A 
HETATM   15  C   UNK N   1      34.836  12.348  12.049  0.00  0.00     0.183 A 
HETATM   16  N   UNK N   1      35.011  10.274  15.331  0.00  0.00    -0.336 N 
HETATM   17  N   UNK N   1      34.731  12.309  10.688  0.00  0.00    -0.336 N 
HETATM   18  N   UNK N   1      35.075  12.506  15.044  0.00  0.00    -0.225 N 
HETATM   19  N   UNK N   1      34.929  13.616  12.510  0.00  0.00    -0.225 N 
HETATM   20  O   UNK N   1      34.754  10.033  12.464  0.00  0.00    -0.280 OA
HETATM   21 Zn   UNK N   1      35.081  14.130  14.241  0.00  0.00     0.000 Zn
HETATM   22  H   UNK N   1      34.963   9.307  15.151  0.00  0.00     0.168 HD
HETATM   23  H   UNK N   1      34.649  11.519  10.107  0.00  0.00     0.168 HD
ENDROOT
BRANCH   7  24
HETATM   24  C   UNK N   1      35.370  10.782  20.333  0.00  0.00     0.202 C 
BRANCH  24  25
HETATM   25  N   UNK N   1      34.233  11.283  21.089  0.00  0.00    -0.407 N 
HETATM   26  H   UNK N   1      34.074  11.634  22.033  0.00  0.00     0.152 HD
HETATM   27  H   UNK N   1      33.378  11.284  20.533  0.00  0.00     0.152 HD
ENDBRANCH  24  25
BRANCH  24  28
HETATM   28  N   UNK N   1      36.602  11.197  20.983  0.00  0.00    -0.407 N 
HETATM   29  H   UNK N   1      36.672  12.102  21.450  0.00  0.00     0.152 HD
HETATM   30  H   UNK N   1      37.409  10.575  20.973  0.00  0.00     0.152 HD
ENDBRANCH  24  28
ENDBRANCH   7  24
BRANCH   8  31
HETATM   31  C   UNK N   1      34.688  16.325   7.648  0.00  0.00     0.202 C 
BRANCH  31  32
HETATM   32  N   UNK N   1      34.483  17.753   7.817  0.00  0.00    -0.407 N 
HETATM   33  H   UNK N   1      34.887  18.240   8.617  0.00  0.00     0.152 HD
HETATM   34  H   UNK N   1      33.933  18.271   7.132  0.00  0.00     0.152 HD
ENDBRANCH  31  32
BRANCH  31  35
HETATM   35  N   UNK N   1      33.616  15.775   6.833  0.00  0.00    -0.407 N 
HETATM   36  H   UNK N   1      33.016  16.030   6.049  0.00  0.00     0.152 HD
HETATM   37  H   UNK N   1      33.393  14.830   7.146  0.00  0.00     0.152 HD
ENDBRANCH  31  35
ENDBRANCH   8  31
TORSDOF 6
ENDMDL
MODEL 7
REMARK VINA RESULT:      -6.8      6.660     10.179
REMARK  6 active torsions:
REMARK  status: ('A' for Active; 'I' for Inactive)
REMARK    1  A    between atoms: C_14  and  C_7 
REMARK    2  A    between atoms: C_15  and  C_8 
REMARK    3  A    between atoms: N_18  and  C_14 
REMARK    4  A    between atoms: N_19  and  C_14 
REMARK    5  A    between atoms: N_20  and  C_15 
REMARK    6  A    between atoms: N_21  and  C_15 
ROOT
HETATM    1  C   UNK N   1      21.499  17.027   5.321  0.00  0.00     0.013 A 
HETATM    2  C   UNK N   1      30.199  17.946   8.541  0.00  0.00     0.013 A 
HETATM    3  C   UNK N   1      22.823  17.138   5.759  0.00  0.00     0.034 A 
HETATM    4  C   UNK N   1      28.914  17.782   8.014  0.00  0.00     0.034 A 
HETATM    5  C   UNK N   1      22.252  16.037   3.200  0.00  0.00     0.043 A 
HETATM    6  C   UNK N   1      31.189  17.033   6.483  0.00  0.00     0.043 A 
HETATM    7  C   UNK N   1      21.197  16.473   4.054  0.00  0.00    -0.015 A 
HETATM    8  C   UNK N   1      31.342  17.575   7.791  0.00  0.00    -0.015 A 
HETATM    9  C   UNK N   1      23.561  16.180   3.669  0.00  0.00     0.063 A 
HETATM   10  C   UNK N   1      29.888  16.889   5.994  0.00  0.00     0.063 A 
HETATM   11  C   UNK N   1      23.812  16.702   4.896  0.00  0.00     0.086 A 
HETATM   12  C   UNK N   1      28.814  17.250   6.741  0.00  0.00     0.086 A 
HETATM   13  C   UNK N   1      27.156  16.086   3.795  0.00  0.00     0.263 A 
HETATM   14  C   UNK N   1      25.676  16.220   3.980  0.00  0.00     0.183 A 
HETATM   15  C   UNK N   1      28.110  16.499   4.873  0.00  0.00     0.183 A 
HETATM   16  N   UNK N   1      24.730  15.866   3.061  0.00  0.00    -0.336 N 
HETATM   17  N   UNK N   1      29.470  16.407   4.799  0.00  0.00    -0.336 N 
HETATM   18  N   UNK N   1      25.119  16.725   5.105  0.00  0.00    -0.225 N 
HETATM   19  N   UNK N   1      27.704  17.014   6.057  0.00  0.00    -0.225 N 
HETATM   20  O   UNK N   1      27.593  15.637   2.745  0.00  0.00    -0.280 OA
HETATM   21 Zn   UNK N   1      25.995  17.313   6.578  0.00  0.00     0.000 Zn
HETATM   22  H   UNK N   1      24.866  15.474   2.168  0.00  0.00     0.168 HD
HETATM   23  H   UNK N   1      30.017  16.072   4.053  0.00  0.00     0.168 HD
ENDROOT
BRANCH   7  24
HETATM   24  C   UNK N   1      19.751  16.384   3.653  0.00  0.00     0.202 C 
BRANCH  24  25
HETATM   25  N   UNK N   1      19.567  15.339   2.658  0.00  0.00    -0.407 N 
HETATM   26  H   UNK N   1      18.975  14.515   2.557  0.00  0.00     0.152 HD
HETATM   27  H   UNK N   1      20.188  15.462   1.858  0.00  0.00     0.152 HD
ENDBRANCH  24  25
BRANCH  24  28
HETATM   28  N   UNK N   1      19.253  17.644   3.127  0.00  0.00    -0.407 N 
HETATM   29  H   UNK N   1      18.264  17.885   3.185  0.00  0.00     0.152 HD
HETATM   30  H   UNK N   1      19.904  18.298   2.692  0.00  0.00     0.152 HD
ENDBRANCH  24  28
ENDBRANCH   7  24
BRANCH   8  31
HETATM   31  C   UNK N   1      32.691  17.780   8.420  0.00  0.00     0.202 C 
BRANCH  31  32
HETATM   32  N   UNK N   1      33.732  17.983   7.427  0.00  0.00    -0.407 N 
HETATM   33  H   UNK N   1      34.175  17.183   6.975  0.00  0.00     0.152 HD
HETATM   34  H   UNK N   1      34.021  18.930   7.182  0.00  0.00     0.152 HD
ENDBRANCH  31  32
BRANCH  31  35
HETATM   35  N   UNK N   1      33.032  16.638   9.252  0.00  0.00    -0.407 N 
HETATM   36  H   UNK N   1      33.580  15.778   9.220  0.00  0.00     0.152 HD
HETATM   37  H   UNK N   1      32.577  16.724  10.161  0.00  0.00     0.152 HD
ENDBRANCH  31  35
ENDBRANCH   8  31
TORSDOF 6
ENDMDL
MODEL 8
REMARK VINA RESULT:      -6.4      3.227      4.956
REMARK  6 active torsions:
REMARK  status: ('A' for Active; 'I' for Inactive)
REMARK    1  A    between atoms: C_14  and  C_7 
REMARK    2  A    between atoms: C_15  and  C_8 
REMARK    3  A    between atoms: N_18  and  C_14 
REMARK    4  A    between atoms: N_19  and  C_14 
REMARK    5  A    between atoms: N_20  and  C_15 
REMARK    6  A    between atoms: N_21  and  C_15 
ROOT
HETATM    1  C   UNK N   1      27.744  15.499   3.950  0.00  0.00     0.013 A 
HETATM    2  C   UNK N   1      35.470  13.387   8.720  0.00  0.00     0.013 A 
HETATM    3  C   UNK N   1      28.901  15.233   4.689  0.00  0.00     0.034 A 
HETATM    4  C   UNK N   1      34.310  13.753   8.029  0.00  0.00     0.034 A 
HETATM    5  C   UNK N   1      27.436  17.627   5.143  0.00  0.00     0.043 A 
HETATM    6  C   UNK N   1      35.336  15.431  10.081  0.00  0.00     0.043 A 
HETATM    7  C   UNK N   1      27.008  16.691   4.157  0.00  0.00    -0.015 A 
HETATM    8  C   UNK N   1      35.995  14.214   9.742  0.00  0.00    -0.015 A 
HETATM    9  C   UNK N   1      28.587  17.315   5.871  0.00  0.00     0.063 A 
HETATM   10  C   UNK N   1      34.180  15.757   9.368  0.00  0.00     0.063 A 
HETATM   11  C   UNK N   1      29.276  16.170   5.636  0.00  0.00     0.086 A 
HETATM   12  C   UNK N   1      33.706  14.944   8.391  0.00  0.00     0.086 A 
HETATM   13  C   UNK N   1      31.264  17.552   8.264  0.00  0.00     0.263 A 
HETATM   14  C   UNK N   1      30.263  17.235   7.197  0.00  0.00     0.183 A 
HETATM   15  C   UNK N   1      32.411  16.631   8.546  0.00  0.00     0.183 A 
HETATM   16  N   UNK N   1      29.191  18.012   6.863  0.00  0.00    -0.336 N 
HETATM   17  N   UNK N   1      33.375  16.840   9.490  0.00  0.00    -0.336 N 
HETATM   18  N   UNK N   1      30.322  16.111   6.445  0.00  0.00    -0.225 N 
HETATM   19  N   UNK N   1      32.608  15.474   7.873  0.00  0.00    -0.225 N 
HETATM   20  O   UNK N   1      31.141  18.577   8.918  0.00  0.00    -0.280 OA
HETATM   21 Zn   UNK N   1      31.574  14.805   6.544  0.00  0.00     0.000 Zn
HETATM   22  H   UNK N   1      28.922  18.876   7.251  0.00  0.00     0.168 HD
HETATM   23  H   UNK N   1      33.463  17.597  10.112  0.00  0.00     0.168 HD
ENDROOT
BRANCH   7  24
HETATM   24  C   UNK N   1      25.777  16.910   3.322  0.00  0.00     0.202 C 
BRANCH  24  25
HETATM   25  N   UNK N   1      25.214  18.224   3.589  0.00  0.00    -0.407 N 
HETATM   26  H   UNK N   1      24.487  18.810   3.179  0.00  0.00     0.152 HD
HETATM   27  H   UNK N   1      25.659  18.673   4.390  0.00  0.00     0.152 HD
ENDBRANCH  24  25
BRANCH  24  28
HETATM   28  N   UNK N   1      24.767  15.894   3.565  0.00  0.00    -0.407 N 
HETATM   29  H   UNK N   1      24.923  15.146   4.241  0.00  0.00     0.152 HD
HETATM   30  H   UNK N   1      23.887  15.929   3.051  0.00  0.00     0.152 HD
ENDBRANCH  24  28
ENDBRANCH   7  24
BRANCH   8  31
HETATM   31  C   UNK N   1      37.243  13.758  10.443  0.00  0.00     0.202 C 
BRANCH  31  32
HETATM   32  N   UNK N   1      37.134  13.871  11.887  0.00  0.00    -0.407 N 
HETATM   33  H   UNK N   1      37.743  13.324  12.493  0.00  0.00     0.152 HD
HETATM   34  H   UNK N   1      36.444  14.503  12.295  0.00  0.00     0.152 HD
ENDBRANCH  31  32
BRANCH  31  35
HETATM   35  N   UNK N   1      38.384  14.533   9.982  0.00  0.00    -0.407 N 
HETATM   36  H   UNK N   1      38.930  14.701   9.137  0.00  0.00     0.152 HD
HETATM   37  H   UNK N   1      38.757  15.090  10.751  0.00  0.00     0.152 HD
ENDBRANCH  31  35
ENDBRANCH   8  31
TORSDOF 6
ENDMDL
MODEL 9
REMARK VINA RESULT:      -6.4     15.590     18.736
REMARK  6 active torsions:
REMARK  status: ('A' for Active; 'I' for Inactive)
REMARK    1  A    between atoms: C_14  and  C_7 
REMARK    2  A    between atoms: C_15  and  C_8 
REMARK    3  A    between atoms: N_18  and  C_14 
REMARK    4  A    between atoms: N_19  and  C_14 
REMARK    5  A    between atoms: N_20  and  C_15 
REMARK    6  A    between atoms: N_21  and  C_15 
ROOT
HETATM    1  C   UNK N   1      34.018  18.899  -6.759  0.00  0.00     0.013 A 
HETATM    2  C   UNK N   1      26.814  24.805  -6.412  0.00  0.00     0.013 A 
HETATM    3  C   UNK N   1      32.942  19.786  -6.651  0.00  0.00     0.034 A 
HETATM    4  C   UNK N   1      27.898  23.921  -6.409  0.00  0.00     0.034 A 
HETATM    5  C   UNK N   1      34.449  19.082  -4.345  0.00  0.00     0.043 A 
HETATM    6  C   UNK N   1      27.088  25.190  -3.998  0.00  0.00     0.043 A 
HETATM    7  C   UNK N   1      34.773  18.531  -5.619  0.00  0.00    -0.015 A 
HETATM    8  C   UNK N   1      26.396  25.442  -5.218  0.00  0.00    -0.015 A 
HETATM    9  C   UNK N   1      33.377  19.976  -4.284  0.00  0.00     0.063 A 
HETATM   10  C   UNK N   1      28.166  24.304  -4.041  0.00  0.00     0.063 A 
HETATM   11  C   UNK N   1      32.666  20.295  -5.395  0.00  0.00     0.086 A 
HETATM   12  C   UNK N   1      28.537  23.706  -5.201  0.00  0.00     0.086 A 
HETATM   13  C   UNK N   1      30.957  22.298  -2.978  0.00  0.00     0.263 A 
HETATM   14  C   UNK N   1      31.845  21.367  -3.745  0.00  0.00     0.183 A 
HETATM   15  C   UNK N   1      29.844  23.036  -3.655  0.00  0.00     0.183 A 
HETATM   16  N   UNK N   1      32.878  20.647  -3.218  0.00  0.00    -0.336 N 
HETATM   17  N   UNK N   1      28.981  23.897  -3.038  0.00  0.00    -0.336 N 
HETATM   18  N   UNK N   1      31.708  21.150  -5.074  0.00  0.00    -0.225 N 
HETATM   19  N   UNK N   1      29.577  22.917  -4.975  0.00  0.00    -0.225 N 
HETATM   20  O   UNK N   1      31.147  22.460  -1.781  0.00  0.00    -0.280 OA
HETATM   21 Zn   UNK N   1      30.470  21.890  -6.171  0.00  0.00     0.000 Zn
HETATM   22  H   UNK N   1      33.186  20.620  -2.283  0.00  0.00     0.168 HD
HETATM   23  H   UNK N   1      28.958  24.159  -2.090  0.00  0.00     0.168 HD
ENDROOT
BRANCH   7  24
HETATM   24  C   UNK N   1      35.913  17.570  -5.812  0.00  0.00     0.202 C 
BRANCH  24  25
HETATM   25  N   UNK N   1      35.432  16.327  -6.393  0.00  0.00    -0.407 N 
HETATM   26  H   UNK N   1      34.997  15.472  -6.046  0.00  0.00     0.152 HD
HETATM   27  H   UNK N   1      35.562  16.304  -7.405  0.00  0.00     0.152 HD
ENDBRANCH  24  25
BRANCH  24  28
HETATM   28  N   UNK N   1      36.602  17.285  -4.565  0.00  0.00    -0.407 N 
HETATM   29  H   UNK N   1      36.952  18.037  -3.971  0.00  0.00     0.152 HD
HETATM   30  H   UNK N   1      36.738  16.316  -4.277  0.00  0.00     0.152 HD
ENDBRANCH  24  28
ENDBRANCH   7  24
BRANCH   8  31
HETATM   31  C   UNK N   1      25.225  26.379  -5.295  0.00  0.00     0.202 C 
BRANCH  31  32
HETATM   32  N   UNK N   1      25.054  26.934  -6.627  0.00  0.00    -0.407 N 
HETATM   33  H   UNK N   1      25.862  27.075  -7.233  0.00  0.00     0.152 HD
HETATM   34  H   UNK N   1      24.121  27.183  -6.957  0.00  0.00     0.152 HD
ENDBRANCH  31  32
BRANCH  31  35
HETATM   35  N   UNK N   1      25.389  27.461  -4.338  0.00  0.00    -0.407 N 
HETATM   36  H   UNK N   1      25.090  28.424  -4.182  0.00  0.00     0.152 HD
HETATM   37  H   UNK N   1      25.997  27.160  -3.576  0.00  0.00     0.152 HD
ENDBRANCH  31  35
ENDBRANCH   8  31
TORSDOF 6
ENDMDL
