REMARK  22 active torsions:
REMARK  status: ('A' for Active; 'I' for Inactive)
REMARK    1  A    between atoms: C_10  and  C_5 
REMARK    2  A    between atoms: O_44  and  C_5 
REMARK    3  A    between atoms: C_11  and  C_6 
REMARK    4  A    between atoms: O_45  and  C_6 
REMARK    5  A    between atoms: C_18  and  C_9 
REMARK    6  A    between atoms: C_13  and  O_33 
REMARK    7  A    between atoms: C_14  and  O_34 
REMARK    8  A    between atoms: C_15  and  O_35 
REMARK    9  A    between atoms: C_16  and  O_48 
REMARK   10  A    between atoms: N_22  and  C_17 
REMARK   11  A    between atoms: N_23  and  C_18 
REMARK   12  A    between atoms: O_36  and  C_18 
REMARK   13  A    between atoms: C_20  and  N_31 
REMARK   14  A    between atoms: C_21  and  N_32 
REMARK   15  A    between atoms: P_50  and  O_38 
REMARK   16  A    between atoms: P_50  and  O_39 
REMARK   17  A    between atoms: P_51  and  O_40 
REMARK   18  A    between atoms: P_51  and  O_44 
REMARK   19  A    between atoms: P_52  and  O_45 
REMARK   20  A    between atoms: P_50  and  O_48 
REMARK   21  A    between atoms: P_51  and  O_49 
REMARK   22  A    between atoms: P_52  and  O_49 
ROOT
HETATM    1  O   UNK N   1      -0.913  -2.578  -1.608  0.00  0.00    -0.287 OA
ENDROOT
BRANCH   1   2
HETATM    2  C   UNK N   1      -1.152  -1.889  -0.409  0.00  0.00     0.216 C 
BRANCH   2   3
HETATM    3  C   UNK N   1       0.096  -1.033  -0.204  0.00  0.00     0.180 C 
HETATM    4  C   UNK N   1       1.266  -1.834   0.325  0.00  0.00     0.183 C 
HETATM    5  C   UNK N   1       2.253  -0.690   0.396  0.00  0.00     0.214 C 
HETATM    6  C   UNK N   1       1.328   0.399   0.994  0.00  0.00     0.263 C 
HETATM    7  O   UNK N   1      -0.026   0.052   0.682  0.00  0.00    -0.353 OA
BRANCH   4   8
HETATM    8  O   UNK N   1       0.971  -2.327   1.605  0.00  0.00    -0.390 OA
HETATM    9  H   UNK N   1       0.574  -2.321   2.490  0.00  0.00     0.210 HD
ENDBRANCH   4   8
BRANCH   5  10
HETATM   10  O   UNK N   1       3.403  -0.865   1.204  0.00  0.00    -0.284 OA
BRANCH  10  11
HETATM   11  P   UNK N   1       4.228  -2.379   0.875  0.00  0.00     0.391 P 
HETATM   12  O   UNK N   1       3.638  -3.435   1.848  0.00  0.00    -0.632 OA
BRANCH  11  13
HETATM   13  O   UNK N   1       5.915  -2.260   1.262  0.00  0.00    -0.307 OA
HETATM   14  H   UNK N   1       6.444  -3.044   1.478  0.00  0.00     0.222 HD
ENDBRANCH  11  13
BRANCH  11  15
HETATM   15  O   UNK N   1       4.015  -2.980  -0.741  0.00  0.00    -0.307 OA
HETATM   16  H   UNK N   1       3.664  -3.045  -1.643  0.00  0.00     0.222 HD
ENDBRANCH  11  15
ENDBRANCH  10  11
ENDBRANCH   5  10
BRANCH   6  17
HETATM   17  N   UNK N   1       1.642   1.740   0.480  0.00  0.00    -0.297 N 
HETATM   18  C   UNK N   1       0.742   2.628  -0.024  0.00  0.00     0.188 A 
HETATM   19  N   UNK N   1       1.345   3.786  -0.413  0.00  0.00    -0.346 N 
HETATM   20  C   UNK N   1       2.649   3.587  -0.149  0.00  0.00     0.122 A 
ATOM     21  HN  UNK N   1       0.907   4.615  -0.813  1.00  0.00     0.167 HD
HETATM   22  C   UNK N   1       3.732   4.421  -0.361  0.00  0.00     0.131 A 
HETATM   23  C   UNK N   1       2.826   2.363   0.388  0.00  0.00     0.142 A 
HETATM   24  N   UNK N   1       4.972   3.956  -0.025  0.00  0.00    -0.337 N 
HETATM   25  C   UNK N   1       5.134   2.701   0.512  0.00  0.00     0.183 A 
ATOM     26  HN  UNK N   1       5.789   4.549  -0.175  1.00  0.00     0.168 HD
HETATM   27  N   UNK N   1       4.051   1.892   0.728  0.00  0.00    -0.336 N 
ATOM     28  HN  UNK N   1       4.162   0.962   1.133  1.00  0.00     0.168 HD
BRANCH  22  29
HETATM   29  N   UNK N   1       3.570   5.709  -0.911  0.00  0.00    -0.383 N 
HETATM   30  H   UNK N   1       4.293   6.256  -1.296  0.00  0.00     0.157 HD
HETATM   31  H   UNK N   1       2.663   6.091  -0.911  0.00  0.00     0.157 HD
ENDBRANCH  22  29
ENDBRANCH   6  17
ENDBRANCH   2   3
ENDBRANCH   1   2
BRANCH   1  32
HETATM   32  P   UNK N   1      -2.027  -3.895  -1.832  0.00  0.00     0.417 P 
HETATM   33  O   UNK N   1      -3.379  -3.364  -2.382  0.00  0.00    -0.624 OA
HETATM   34  O   UNK N   1      -1.385  -4.833  -3.141  0.00  0.00    -0.624 OA
BRANCH  32  35
HETATM   35  O   UNK N   1      -2.256  -4.989  -0.488  0.00  0.00    -0.188 OA
BRANCH  35  36
HETATM   36  P   UNK N   1      -3.310  -4.243   0.684  0.00  0.00     0.402 P 
HETATM   37  O   UNK N   1      -4.356  -5.325   1.072  0.00  0.00    -0.631 OA
BRANCH  36  38
HETATM   38  O   UNK N   1      -2.419  -3.849   2.120  0.00  0.00    -0.307 OA
HETATM   39  H   UNK N   1      -1.980  -4.171   2.923  0.00  0.00     0.222 HD
ENDBRANCH  36  38
BRANCH  36  40
HETATM   40  O   UNK N   1      -4.176  -2.871   0.057  0.00  0.00    -0.294 OA
BRANCH  40  41
HETATM   41  C   UNK N   1      -5.129  -2.529   1.014  0.00  0.00     0.215 C 
BRANCH  41  42
HETATM   42  C   UNK N   1      -6.185  -1.635   0.379  0.00  0.00     0.180 C 
HETATM   43  C   UNK N   1      -5.617  -0.371  -0.221  0.00  0.00     0.182 C 
HETATM   44  C   UNK N   1      -6.886   0.438  -0.404  0.00  0.00     0.198 C 
HETATM   45  C   UNK N   1      -7.820  -0.148   0.696  0.00  0.00     0.259 C 
HETATM   46  O   UNK N   1      -7.083  -1.170   1.353  0.00  0.00    -0.353 OA
BRANCH  43  47
HETATM   47  O   UNK N   1      -4.800   0.250   0.731  0.00  0.00    -0.390 OA
HETATM   48  H   UNK N   1      -4.145  -0.025   1.391  0.00  0.00     0.210 HD
ENDBRANCH  43  47
BRANCH  44  49
HETATM   49  O   UNK N   1      -7.401   0.211  -1.684  0.00  0.00    -0.388 OA
HETATM   50  H   UNK N   1      -7.716   0.441  -2.572  0.00  0.00     0.210 HD
ENDBRANCH  44  49
BRANCH  45  51
HETATM   51  N   UNK N   1      -9.069  -0.730   0.155  0.00  0.00    -0.336 N 
HETATM   52  C   UNK N   1      -9.999   0.045  -0.480  0.00  0.00     0.093 A 
HETATM   53  C   UNK N   1     -11.164  -0.535  -1.000  0.00  0.00     0.018 A 
HETATM   54  C   UNK N   1     -11.367  -1.913  -0.872  0.00  0.00     0.018 A 
HETATM   55  C   UNK N   1     -10.411  -2.694  -0.216  0.00  0.00     0.030 A 
HETATM   56  C   UNK N   1      -9.280  -2.072   0.292  0.00  0.00     0.108 A 
BRANCH  55  57
HETATM   57  C   UNK N   1     -10.549  -4.156  -0.063  0.00  0.00     0.145 C 
BRANCH  57  58
HETATM   58  N   UNK N   1     -11.577  -4.768  -0.521  0.00  0.00    -0.379 N 
HETATM   59  H   UNK N   1     -12.380  -4.319  -0.872  0.00  0.00     0.158 HD
ATOM     60  HN  UNK N   1     -11.564  -5.788  -0.521  1.00  0.00     0.158 HD
ENDBRANCH  57  58
BRANCH  57  61
HETATM   61  O   UNK N   1      -9.577  -4.862   0.553  0.00  0.00    -0.346 OA
HETATM   62  H   UNK N   1      -9.664  -5.691   0.980  0.00  0.00     0.219 HD
ENDBRANCH  57  61
ENDBRANCH  55  57
ENDBRANCH  45  51
ENDBRANCH  41  42
ENDBRANCH  40  41
ENDBRANCH  36  40
ENDBRANCH  35  36
ENDBRANCH  32  35
ENDBRANCH   1  32
TORSDOF 22
