MODEL 1
REMARK VINA RESULT:      -5.2      0.000      0.000
REMARK  4 active torsions:
REMARK  status: ('A' for Active; 'I' for Inactive)
REMARK    1  A    between atoms: N_1  and  C_2 
REMARK    2  A    between atoms: C_3  and  O_4 
REMARK    3  A    between atoms: C_8  and  C_9 
REMARK    4  A    between atoms: C_9  and  O_10 
ROOT
HETATM    1  C   UNK N   1      34.489  17.065   9.254  0.00  0.00     0.076 A 
HETATM    2  C   UNK N   1      34.568  18.081   8.286  0.00  0.00     0.092 A 
HETATM    3  C   UNK N   1      33.938  17.927   7.050  0.00  0.00     0.039 A 
HETATM    4  C   UNK N   1      33.225  16.763   6.767  0.00  0.00     0.004 A 
HETATM    5  C   UNK N   1      33.140  15.750   7.718  0.00  0.00     0.021 A 
HETATM    6  C   UNK N   1      33.763  15.879   8.965  0.00  0.00     0.066 A 
ENDROOT
BRANCH   6   7
HETATM    7  C   UNK N   1      33.627  14.756   9.926  0.00  0.00     0.178 C 
HETATM    8  O   UNK N   1      33.947  13.620   9.620  0.00  0.00    -0.646 OA
BRANCH   7   9
HETATM    9  O   UNK N   1      33.142  14.995  11.161  0.00  0.00    -0.773 OA
HETATM   10  H   UNK N   1      32.906  14.278  11.717  0.00  0.00     0.167 HD
ENDBRANCH   7   9
ENDBRANCH   6   7
BRANCH   1  11
HETATM   11  N   UNK N   1      35.135  17.243  10.498  0.00  0.00    -0.396 N 
HETATM   12  H   UNK N   1      34.683  17.731  11.223  0.00  0.00     0.156 HD
HETATM   13  H   UNK N   1      36.039  16.877  10.640  0.00  0.00     0.156 HD
ENDBRANCH   1  11
BRANCH   2  14
HETATM   14  O   UNK N   1      35.251  19.211   8.541  0.00  0.00    -0.358 OA
HETATM   15  H   UNK N   1      35.395  19.481   9.426  0.00  0.00     0.217 HD
ENDBRANCH   2  14
TORSDOF 4
ENDMDL
MODEL 2
REMARK VINA RESULT:      -5.1     14.510     15.552
REMARK  4 active torsions:
REMARK  status: ('A' for Active; 'I' for Inactive)
REMARK    1  A    between atoms: N_1  and  C_2 
REMARK    2  A    between atoms: C_3  and  O_4 
REMARK    3  A    between atoms: C_8  and  C_9 
REMARK    4  A    between atoms: C_9  and  O_10 
ROOT
HETATM    1  C   UNK N   1      19.825  18.376   2.825  0.00  0.00     0.076 A 
HETATM    2  C   UNK N   1      19.939  17.487   3.909  0.00  0.00     0.092 A 
HETATM    3  C   UNK N   1      21.093  17.479   4.693  0.00  0.00     0.039 A 
HETATM    4  C   UNK N   1      22.141  18.352   4.408  0.00  0.00     0.004 A 
HETATM    5  C   UNK N   1      22.039  19.236   3.337  0.00  0.00     0.021 A 
HETATM    6  C   UNK N   1      20.892  19.265   2.535  0.00  0.00     0.066 A 
ENDROOT
BRANCH   6   7
HETATM    7  C   UNK N   1      20.858  20.236   1.413  0.00  0.00     0.178 C 
HETATM    8  O   UNK N   1      21.050  21.425   1.599  0.00  0.00    -0.646 OA
BRANCH   7   9
HETATM    9  O   UNK N   1      20.611  19.796   0.162  0.00  0.00    -0.773 OA
HETATM   10  H   UNK N   1      21.322  19.642  -0.429  0.00  0.00     0.167 HD
ENDBRANCH   7   9
ENDBRANCH   6   7
BRANCH   1  11
HETATM   11  N   UNK N   1      18.647  18.367   2.045  0.00  0.00    -0.396 N 
HETATM   12  H   UNK N   1      17.830  18.803   2.379  0.00  0.00     0.156 HD
HETATM   13  H   UNK N   1      18.643  17.924   1.165  0.00  0.00     0.156 HD
ENDBRANCH   1  11
BRANCH   2  14
HETATM   14  O   UNK N   1      18.938  16.638   4.199  0.00  0.00    -0.358 OA
HETATM   15  H   UNK N   1      18.976  15.750   3.900  0.00  0.00     0.217 HD
ENDBRANCH   2  14
TORSDOF 4
ENDMDL
MODEL 3
REMARK VINA RESULT:      -5.0     11.948     13.069
REMARK  4 active torsions:
REMARK  status: ('A' for Active; 'I' for Inactive)
REMARK    1  A    between atoms: N_1  and  C_2 
REMARK    2  A    between atoms: C_3  and  O_4 
REMARK    3  A    between atoms: C_8  and  C_9 
REMARK    4  A    between atoms: C_9  and  O_10 
ROOT
HETATM    1  C   UNK N   1      21.856  12.200  11.174  0.00  0.00     0.076 A 
HETATM    2  C   UNK N   1      22.976  11.866  11.958  0.00  0.00     0.092 A 
HETATM    3  C   UNK N   1      24.265  12.060  11.461  0.00  0.00     0.039 A 
HETATM    4  C   UNK N   1      24.454  12.586  10.185  0.00  0.00     0.004 A 
HETATM    5  C   UNK N   1      23.353  12.920   9.400  0.00  0.00     0.021 A 
HETATM    6  C   UNK N   1      22.048  12.736   9.874  0.00  0.00     0.066 A 
ENDROOT
BRANCH   6   7
HETATM    7  C   UNK N   1      20.928  13.116   8.979  0.00  0.00     0.178 C 
HETATM    8  O   UNK N   1      20.879  12.725   7.825  0.00  0.00    -0.646 OA
BRANCH   7   9
HETATM    9  O   UNK N   1      19.943  13.909   9.449  0.00  0.00    -0.773 OA
HETATM   10  H   UNK N   1      19.808  14.758   9.077  0.00  0.00     0.167 HD
ENDBRANCH   7   9
ENDBRANCH   6   7
BRANCH   1  11
HETATM   11  N   UNK N   1      20.560  11.995  11.698  0.00  0.00    -0.396 N 
HETATM   12  H   UNK N   1      20.082  12.736  12.135  0.00  0.00     0.156 HD
HETATM   13  H   UNK N   1      20.134  11.110  11.625  0.00  0.00     0.156 HD
ENDBRANCH   1  11
BRANCH   2  14
HETATM   14  O   UNK N   1      22.814  11.357  13.192  0.00  0.00    -0.358 OA
HETATM   15  H   UNK N   1      22.843  11.922  13.939  0.00  0.00     0.217 HD
ENDBRANCH   2  14
TORSDOF 4
ENDMDL
MODEL 4
REMARK VINA RESULT:      -4.9      2.526      3.753
REMARK  4 active torsions:
REMARK  status: ('A' for Active; 'I' for Inactive)
REMARK    1  A    between atoms: N_1  and  C_2 
REMARK    2  A    between atoms: C_3  and  O_4 
REMARK    3  A    between atoms: C_8  and  C_9 
REMARK    4  A    between atoms: C_9  and  O_10 
ROOT
HETATM    1  C   UNK N   1      32.018  17.529   7.746  0.00  0.00     0.076 A 
HETATM    2  C   UNK N   1      31.155  17.190   6.689  0.00  0.00     0.092 A 
HETATM    3  C   UNK N   1      31.651  17.057   5.392  0.00  0.00     0.039 A 
HETATM    4  C   UNK N   1      33.005  17.257   5.133  0.00  0.00     0.004 A 
HETATM    5  C   UNK N   1      33.869  17.592   6.173  0.00  0.00     0.021 A 
HETATM    6  C   UNK N   1      33.398  17.733   7.484  0.00  0.00     0.066 A 
ENDROOT
BRANCH   6   7
HETATM    7  C   UNK N   1      34.380  18.092   8.536  0.00  0.00     0.178 C 
HETATM    8  O   UNK N   1      35.155  19.021   8.388  0.00  0.00    -0.646 OA
BRANCH   7   9
HETATM    9  O   UNK N   1      34.418  17.378   9.680  0.00  0.00    -0.773 OA
HETATM   10  H   UNK N   1      33.620  17.092  10.080  0.00  0.00     0.167 HD
ENDBRANCH   7   9
ENDBRANCH   6   7
BRANCH   1  11
HETATM   11  N   UNK N   1      31.494  17.659   9.052  0.00  0.00    -0.396 N 
HETATM   12  H   UNK N   1      31.976  17.270   9.818  0.00  0.00     0.156 HD
HETATM   13  H   UNK N   1      30.647  18.139   9.197  0.00  0.00     0.156 HD
ENDBRANCH   1  11
BRANCH   2  14
HETATM   14  O   UNK N   1      29.845  16.993   6.918  0.00  0.00    -0.358 OA
HETATM   15  H   UNK N   1      29.480  16.133   6.841  0.00  0.00     0.217 HD
ENDBRANCH   2  14
TORSDOF 4
ENDMDL
MODEL 5
REMARK VINA RESULT:      -4.9     11.377     12.427
REMARK  4 active torsions:
REMARK  status: ('A' for Active; 'I' for Inactive)
REMARK    1  A    between atoms: N_1  and  C_2 
REMARK    2  A    between atoms: C_3  and  O_4 
REMARK    3  A    between atoms: C_8  and  C_9 
REMARK    4  A    between atoms: C_9  and  O_10 
ROOT
HETATM    1  C   UNK N   1      22.152  13.476   9.591  0.00  0.00     0.076 A 
HETATM    2  C   UNK N   1      20.886  13.212  10.142  0.00  0.00     0.092 A 
HETATM    3  C   UNK N   1      20.765  12.395  11.267  0.00  0.00     0.039 A 
HETATM    4  C   UNK N   1      21.898  11.834  11.852  0.00  0.00     0.004 A 
HETATM    5  C   UNK N   1      23.158  12.089  11.315  0.00  0.00     0.021 A 
HETATM    6  C   UNK N   1      23.307  12.905  10.187  0.00  0.00     0.066 A 
ENDROOT
BRANCH   6   7
HETATM    7  C   UNK N   1      24.681  13.129   9.673  0.00  0.00     0.178 C 
HETATM    8  O   UNK N   1      24.941  13.010   8.488  0.00  0.00    -0.646 OA
BRANCH   7   9
HETATM    9  O   UNK N   1      25.662  13.472  10.532  0.00  0.00    -0.773 OA
HETATM   10  H   UNK N   1      25.450  13.889  11.344  0.00  0.00     0.167 HD
ENDBRANCH   7   9
ENDBRANCH   6   7
BRANCH   1  11
HETATM   11  N   UNK N   1      22.251  14.307   8.452  0.00  0.00    -0.396 N 
HETATM   12  H   UNK N   1      22.992  14.950   8.373  0.00  0.00     0.156 HD
HETATM   13  H   UNK N   1      21.578  14.242   7.735  0.00  0.00     0.156 HD
ENDBRANCH   1  11
BRANCH   2  14
HETATM   14  O   UNK N   1      19.781  13.744   9.591  0.00  0.00    -0.358 OA
HETATM   15  H   UNK N   1      18.952  13.321   9.702  0.00  0.00     0.217 HD
ENDBRANCH   2  14
TORSDOF 4
ENDMDL
MODEL 6
REMARK VINA RESULT:      -4.7     11.361     12.470
REMARK  4 active torsions:
REMARK  status: ('A' for Active; 'I' for Inactive)
REMARK    1  A    between atoms: N_1  and  C_2 
REMARK    2  A    between atoms: C_3  and  O_4 
REMARK    3  A    between atoms: C_8  and  C_9 
REMARK    4  A    between atoms: C_9  and  O_10 
ROOT
HETATM    1  C   UNK N   1      23.550  12.862   9.952  0.00  0.00     0.076 A 
HETATM    2  C   UNK N   1      23.926  12.338  11.202  0.00  0.00     0.092 A 
HETATM    3  C   UNK N   1      22.952  11.931  12.115  0.00  0.00     0.039 A 
HETATM    4  C   UNK N   1      21.600  12.042  11.796  0.00  0.00     0.004 A 
HETATM    5  C   UNK N   1      21.217  12.560  10.561  0.00  0.00     0.021 A 
HETATM    6  C   UNK N   1      22.173  12.975   9.626  0.00  0.00     0.066 A 
ENDROOT
BRANCH   6   7
HETATM    7  C   UNK N   1      21.686  13.516   8.333  0.00  0.00     0.178 C 
HETATM    8  O   UNK N   1      22.090  14.582   7.901  0.00  0.00    -0.646 OA
BRANCH   7   9
HETATM    9  O   UNK N   1      20.780  12.816   7.621  0.00  0.00    -0.773 OA
HETATM   10  H   UNK N   1      19.949  12.604   8.000  0.00  0.00     0.167 HD
ENDBRANCH   7   9
ENDBRANCH   6   7
BRANCH   1  11
HETATM   11  N   UNK N   1      24.553  13.268   9.043  0.00  0.00    -0.396 N 
HETATM   12  H   UNK N   1      25.246  13.907   9.325  0.00  0.00     0.156 HD
HETATM   13  H   UNK N   1      24.558  12.910   8.125  0.00  0.00     0.156 HD
ENDBRANCH   1  11
BRANCH   2  14
HETATM   14  O   UNK N   1      25.225  12.224  11.528  0.00  0.00    -0.358 OA
HETATM   15  H   UNK N   1      25.617  11.375  11.601  0.00  0.00     0.217 HD
ENDBRANCH   2  14
TORSDOF 4
ENDMDL
MODEL 7
REMARK VINA RESULT:      -4.7      1.211      3.727
REMARK  4 active torsions:
REMARK  status: ('A' for Active; 'I' for Inactive)
REMARK    1  A    between atoms: N_1  and  C_2 
REMARK    2  A    between atoms: C_3  and  O_4 
REMARK    3  A    between atoms: C_8  and  C_9 
REMARK    4  A    between atoms: C_9  and  O_10 
ROOT
HETATM    1  C   UNK N   1      33.920  16.294   9.423  0.00  0.00     0.076 A 
HETATM    2  C   UNK N   1      33.343  15.129   9.959  0.00  0.00     0.092 A 
HETATM    3  C   UNK N   1      32.538  14.313   9.164  0.00  0.00     0.039 A 
HETATM    4  C   UNK N   1      32.300  14.645   7.832  0.00  0.00     0.004 A 
HETATM    5  C   UNK N   1      32.866  15.797   7.290  0.00  0.00     0.021 A 
HETATM    6  C   UNK N   1      33.678  16.634   8.066  0.00  0.00     0.066 A 
ENDROOT
BRANCH   6   7
HETATM    7  C   UNK N   1      34.244  17.842   7.417  0.00  0.00     0.178 C 
HETATM    8  O   UNK N   1      34.708  18.755   8.077  0.00  0.00    -0.646 OA
BRANCH   7   9
HETATM    9  O   UNK N   1      34.247  17.932   6.072  0.00  0.00    -0.773 OA
HETATM   10  H   UNK N   1      34.164  17.158   5.550  0.00  0.00     0.167 HD
ENDBRANCH   7   9
ENDBRANCH   6   7
BRANCH   1  11
HETATM   11  N   UNK N   1      34.732  17.106  10.246  0.00  0.00    -0.396 N 
HETATM   12  H   UNK N   1      35.059  17.973   9.915  0.00  0.00     0.156 HD
HETATM   13  H   UNK N   1      34.970  16.804  11.153  0.00  0.00     0.156 HD
ENDBRANCH   1  11
BRANCH   2  14
HETATM   14  O   UNK N   1      33.561  14.792  11.242  0.00  0.00    -0.358 OA
HETATM   15  H   UNK N   1      34.437  14.669  11.552  0.00  0.00     0.217 HD
ENDBRANCH   2  14
TORSDOF 4
ENDMDL
MODEL 8
REMARK VINA RESULT:      -4.6      4.279      5.003
REMARK  4 active torsions:
REMARK  status: ('A' for Active; 'I' for Inactive)
REMARK    1  A    between atoms: N_1  and  C_2 
REMARK    2  A    between atoms: C_3  and  O_4 
REMARK    3  A    between atoms: C_8  and  C_9 
REMARK    4  A    between atoms: C_9  and  O_10 
ROOT
HETATM    1  C   UNK N   1      29.682  17.943   8.905  0.00  0.00     0.076 A 
HETATM    2  C   UNK N   1      28.345  17.877   8.473  0.00  0.00     0.092 A 
HETATM    3  C   UNK N   1      28.041  17.398   7.198  0.00  0.00     0.039 A 
HETATM    4  C   UNK N   1      29.059  16.980   6.343  0.00  0.00     0.004 A 
HETATM    5  C   UNK N   1      30.387  17.040   6.760  0.00  0.00     0.021 A 
HETATM    6  C   UNK N   1      30.720  17.517   8.034  0.00  0.00     0.066 A 
ENDROOT
BRANCH   6   7
HETATM    7  C   UNK N   1      32.156  17.551   8.405  0.00  0.00     0.178 C 
HETATM    8  O   UNK N   1      32.938  18.296   7.841  0.00  0.00    -0.646 OA
BRANCH   7   9
HETATM    9  O   UNK N   1      32.607  16.743   9.386  0.00  0.00    -0.773 OA
HETATM   10  H   UNK N   1      32.559  15.812   9.285  0.00  0.00     0.167 HD
ENDBRANCH   7   9
ENDBRANCH   6   7
BRANCH   1  11
HETATM   11  N   UNK N   1      29.967  18.431  10.199  0.00  0.00    -0.396 N 
HETATM   12  H   UNK N   1      30.407  19.305  10.311  0.00  0.00     0.156 HD
HETATM   13  H   UNK N   1      29.726  17.898  10.991  0.00  0.00     0.156 HD
ENDBRANCH   1  11
BRANCH   2  14
HETATM   14  O   UNK N   1      27.349  18.275   9.283  0.00  0.00    -0.358 OA
HETATM   15  H   UNK N   1      27.343  19.148   9.624  0.00  0.00     0.217 HD
ENDBRANCH   2  14
TORSDOF 4
ENDMDL
MODEL 9
REMARK VINA RESULT:      -4.5      6.811      8.245
REMARK  4 active torsions:
REMARK  status: ('A' for Active; 'I' for Inactive)
REMARK    1  A    between atoms: N_1  and  C_2 
REMARK    2  A    between atoms: C_3  and  O_4 
REMARK    3  A    between atoms: C_8  and  C_9 
REMARK    4  A    between atoms: C_9  and  O_10 
ROOT
HETATM    1  C   UNK N   1      36.420  14.050  15.545  0.00  0.00     0.076 A 
HETATM    2  C   UNK N   1      36.246  13.463  14.278  0.00  0.00     0.092 A 
HETATM    3  C   UNK N   1      35.248  12.509  14.076  0.00  0.00     0.039 A 
HETATM    4  C   UNK N   1      34.417  12.129  15.127  0.00  0.00     0.004 A 
HETATM    5  C   UNK N   1      34.580  12.703  16.386  0.00  0.00     0.021 A 
HETATM    6  C   UNK N   1      35.573  13.663  16.616  0.00  0.00     0.066 A 
ENDROOT
BRANCH   6   7
HETATM    7  C   UNK N   1      35.684  14.228  17.984  0.00  0.00     0.178 C 
HETATM    8  O   UNK N   1      35.392  13.568  18.966  0.00  0.00    -0.646 OA
BRANCH   7   9
HETATM    9  O   UNK N   1      36.116  15.495  18.145  0.00  0.00    -0.773 OA
HETATM   10  H   UNK N   1      36.094  16.092  17.423  0.00  0.00     0.167 HD
ENDBRANCH   7   9
ENDBRANCH   6   7
BRANCH   1  11
HETATM   11  N   UNK N   1      37.436  15.014  15.727  0.00  0.00    -0.396 N 
HETATM   12  H   UNK N   1      38.324  14.739  16.053  0.00  0.00     0.156 HD
HETATM   13  H   UNK N   1      37.257  15.962  15.527  0.00  0.00     0.156 HD
ENDBRANCH   1  11
BRANCH   2  14
HETATM   14  O   UNK N   1      37.039  13.817  13.252  0.00  0.00    -0.358 OA
HETATM   15  H   UNK N   1      37.819  14.310  13.410  0.00  0.00     0.217 HD
ENDBRANCH   2  14
TORSDOF 4
ENDMDL
