REMARK  8 active torsions:
REMARK  status: ('A' for Active; 'I' for Inactive)
REMARK    1  A    between atoms: C_1  and  N_2 
REMARK    2  A    between atoms: C_4  and  O_9 
REMARK    3  A    between atoms: C_7  and  C_13 
REMARK    4  A    between atoms: C_8  and  O_14 
REMARK    5  A    between atoms: C_13  and  O_16 
REMARK    6  A    between atoms: O_16  and  P_18 
REMARK    7  A    between atoms: P_18  and  O_19 
REMARK    8  A    between atoms: P_18  and  O_20 
ROOT
HETATM    1  C   UNK N   1       0.727  -0.416   0.696  0.00  0.00     0.263 C 
HETATM    2  O   UNK N   1      -0.403   0.437   0.788  0.00  0.00    -0.353 OA
HETATM    3  C   UNK N   1       0.329  -1.594  -0.205  0.00  0.00     0.198 C 
HETATM    4  C   UNK N   1      -1.152   0.079  -0.336  0.00  0.00     0.180 C 
HETATM    5  C   UNK N   1      -1.153  -1.419  -0.331  0.00  0.00     0.182 C 
ENDROOT
BRANCH   1   6
HETATM    6  N   UNK N   1       1.887   0.315   0.146  0.00  0.00    -0.280 N 
HETATM    7  C   UNK N   1       3.112  -0.299  -0.043  0.00  0.00     0.331 A 
HETATM    8  N   UNK N   1       4.168   0.412  -0.550  0.00  0.00    -0.275 N 
HETATM    9  O   UNK N   1       3.265  -1.477   0.238  0.00  0.00    -0.246 OA
HETATM   10  C   UNK N   1       4.034   1.736  -0.870  0.00  0.00     0.250 A 
HETATM   11  H   UNK N   1       5.035  -0.035  -0.685  0.00  0.00     0.173 HD
HETATM   12  O   UNK N   1       4.980   2.356  -1.317  0.00  0.00    -0.268 OA
HETATM   13  C   UNK N   1       2.815   2.371  -0.682  0.00  0.00     0.092 A 
HETATM   14  C   UNK N   1       1.750   1.639  -0.170  0.00  0.00     0.104 A 
ENDBRANCH   1   6
BRANCH   3  15
HETATM   15  O   UNK N   1       0.643  -2.820   0.381  0.00  0.00    -0.388 OA
HETATM   16  H   UNK N   1       0.013  -3.435   0.789  0.00  0.00     0.210 HD
ENDBRANCH   3  15
BRANCH   4  17
HETATM   17  C   UNK N   1      -2.495   0.793  -0.421  0.00  0.00     0.215 C 
BRANCH  17  18
HETATM   18  O   UNK N   1      -3.433   0.285   0.479  0.00  0.00    -0.294 OA
BRANCH  18  19
HETATM   19  P   UNK N   1      -4.793  -0.105  -0.532  0.00  0.00     0.390 P 
HETATM   20  O   UNK N   1      -5.381   1.026   0.356  0.00  0.00    -0.632 OA
BRANCH  19  21
HETATM   21  O   UNK N   1      -4.368  -1.461   0.464  0.00  0.00    -0.307 OA
HETATM   22  H   UNK N   1      -4.906  -2.045   1.021  0.00  0.00     0.222 HD
ENDBRANCH  19  21
BRANCH  19  23
HETATM   23  O   UNK N   1      -6.210  -0.858   0.127  0.00  0.00    -0.307 OA
HETATM   24  H   UNK N   1      -6.970  -0.382   0.496  0.00  0.00     0.222 HD
ENDBRANCH  19  23
ENDBRANCH  18  19
ENDBRANCH  17  18
ENDBRANCH   4  17
BRANCH   5  25
HETATM   25  O   UNK N   1      -1.621  -1.950  -1.533  0.00  0.00    -0.390 OA
HETATM   26  H   UNK N   1      -2.104  -1.852  -2.369  0.00  0.00     0.210 HD
ENDBRANCH   5  25
TORSDOF 8
