MODEL 1
REMARK VINA RESULT:      -6.1      0.000      0.000
REMARK  6 active torsions:
REMARK  status: ('A' for Active; 'I' for Inactive)
REMARK    1  A    between atoms: C_7  and  C_5 
REMARK    2  A    between atoms: C_8  and  C_5 
REMARK    3  A    between atoms: C_11  and  C_8 
REMARK    4  A    between atoms: C_8  and  N_12 
REMARK    5  A    between atoms: O_14  and  C_10 
REMARK    6  A    between atoms: O_16  and  C_11 
ROOT
HETATM    1  C   UNK N   1      33.906  10.420  14.396  0.00  0.00     0.001 A 
HETATM    2  C   UNK N   1      34.338  10.488  15.739  0.00  0.00     0.002 A 
HETATM    3  C   UNK N   1      34.294  11.407  13.473  0.00  0.00     0.014 A 
HETATM    4  C   UNK N   1      35.162  11.545  16.169  0.00  0.00     0.030 A 
HETATM    5  C   UNK N   1      35.101  12.447  13.927  0.00  0.00     0.001 A 
HETATM    6  C   UNK N   1      35.632  13.543  13.281  0.00  0.00     0.008 A 
HETATM    7  C   UNK N   1      35.524  12.510  15.233  0.00  0.00     0.045 A 
HETATM    8  C   UNK N   1      36.368  14.218  14.248  0.00  0.00     0.147 A 
HETATM    9  N   UNK N   1      36.301  13.588  15.445  0.00  0.00    -0.336 N 
HETATM   10  H   UNK N   1      36.729  13.859  16.288  0.00  0.00     0.168 HD
ENDROOT
BRANCH   6  11
HETATM   11  C   UNK N   1      35.496  13.942  11.834  0.00  0.00     0.079 C 
BRANCH  11  12
HETATM   12  C   UNK N   1      34.712  15.238  11.594  0.00  0.00     0.177 C 
BRANCH  12  13
HETATM   13  C   UNK N   1      35.616  16.253  10.946  0.00  0.00     0.163 C 
HETATM   14  O   UNK N   1      35.154  17.244  10.401  0.00  0.00    -0.648 OA
BRANCH  13  15
HETATM   15  O   UNK N   1      36.950  16.074  10.975  0.00  0.00    -0.775 OA
HETATM   16  H   UNK N   1      37.331  15.403  11.507  0.00  0.00     0.167 HD
ENDBRANCH  13  15
ENDBRANCH  12  13
BRANCH  12  17
HETATM   17  N   UNK N   1      33.568  14.981  10.731  0.00  0.00    -0.417 N 
HETATM   18  H   UNK N   1      33.471  15.466   9.838  0.00  0.00     0.150 HD
HETATM   19  H   UNK N   1      32.857  14.311  11.022  0.00  0.00     0.150 HD
ENDBRANCH  12  17
ENDBRANCH  11  12
ENDBRANCH   6  11
BRANCH   8  20
HETATM   20  O   UNK N   1      37.070  15.343  14.045  0.00  0.00    -0.346 OA
HETATM   21  H   UNK N   1      37.646  15.411  13.308  0.00  0.00     0.219 HD
ENDBRANCH   8  20
TORSDOF 6
ENDMDL
MODEL 2
REMARK VINA RESULT:      -5.9      2.847      4.264
REMARK  6 active torsions:
REMARK  status: ('A' for Active; 'I' for Inactive)
REMARK    1  A    between atoms: C_7  and  C_5 
REMARK    2  A    between atoms: C_8  and  C_5 
REMARK    3  A    between atoms: C_11  and  C_8 
REMARK    4  A    between atoms: C_8  and  N_12 
REMARK    5  A    between atoms: O_14  and  C_10 
REMARK    6  A    between atoms: O_16  and  C_11 
ROOT
HETATM    1  C   UNK N   1      35.106   9.305  18.028  0.00  0.00     0.001 A 
HETATM    2  C   UNK N   1      35.238   9.412  19.430  0.00  0.00     0.002 A 
HETATM    3  C   UNK N   1      35.078  10.460  17.227  0.00  0.00     0.014 A 
HETATM    4  C   UNK N   1      35.343  10.675  20.041  0.00  0.00     0.030 A 
HETATM    5  C   UNK N   1      35.174  11.698  17.858  0.00  0.00     0.001 A 
HETATM    6  C   UNK N   1      35.171  12.983  17.359  0.00  0.00     0.008 A 
HETATM    7  C   UNK N   1      35.306  11.800  19.221  0.00  0.00     0.045 A 
HETATM    8  C   UNK N   1      35.313  13.808  18.468  0.00  0.00     0.147 A 
HETATM    9  N   UNK N   1      35.394  13.084  19.611  0.00  0.00    -0.336 N 
HETATM   10  H   UNK N   1      35.495  13.426  20.528  0.00  0.00     0.168 HD
ENDROOT
BRANCH   6  11
HETATM   11  C   UNK N   1      35.072  13.437  15.925  0.00  0.00     0.079 C 
BRANCH  11  12
HETATM   12  C   UNK N   1      36.407  13.488  15.172  0.00  0.00     0.177 C 
BRANCH  12  13
HETATM   13  C   UNK N   1      36.140  13.591  13.694  0.00  0.00     0.163 C 
HETATM   14  O   UNK N   1      34.998  13.562  13.260  0.00  0.00    -0.648 OA
BRANCH  13  15
HETATM   15  O   UNK N   1      37.170  13.727  12.837  0.00  0.00    -0.775 OA
HETATM   16  H   UNK N   1      37.200  14.446  12.236  0.00  0.00     0.167 HD
ENDBRANCH  13  15
ENDBRANCH  12  13
BRANCH  12  17
HETATM   17  N   UNK N   1      37.187  14.636  15.609  0.00  0.00    -0.417 N 
HETATM   18  H   UNK N   1      38.207  14.607  15.596  0.00  0.00     0.150 HD
HETATM   19  H   UNK N   1      36.710  15.477  15.933  0.00  0.00     0.150 HD
ENDBRANCH  12  17
ENDBRANCH  11  12
ENDBRANCH   6  11
BRANCH   8  20
HETATM   20  O   UNK N   1      35.375  15.148  18.437  0.00  0.00    -0.346 OA
HETATM   21  H   UNK N   1      36.094  15.594  18.842  0.00  0.00     0.219 HD
ENDBRANCH   8  20
TORSDOF 6
ENDMDL
MODEL 3
REMARK VINA RESULT:      -5.7     14.926     17.272
REMARK  6 active torsions:
REMARK  status: ('A' for Active; 'I' for Inactive)
REMARK    1  A    between atoms: C_7  and  C_5 
REMARK    2  A    between atoms: C_8  and  C_5 
REMARK    3  A    between atoms: C_11  and  C_8 
REMARK    4  A    between atoms: C_8  and  N_12 
REMARK    5  A    between atoms: O_14  and  C_10 
REMARK    6  A    between atoms: O_16  and  C_11 
ROOT
HETATM    1  C   UNK N   1      25.867  20.553   2.901  0.00  0.00     0.001 A 
HETATM    2  C   UNK N   1      26.698  19.731   3.692  0.00  0.00     0.002 A 
HETATM    3  C   UNK N   1      24.468  20.413   2.956  0.00  0.00     0.014 A 
HETATM    4  C   UNK N   1      26.138  18.762   4.545  0.00  0.00     0.030 A 
HETATM    5  C   UNK N   1      23.941  19.439   3.800  0.00  0.00     0.001 A 
HETATM    6  C   UNK N   1      22.641  19.063   4.064  0.00  0.00     0.008 A 
HETATM    7  C   UNK N   1      24.751  18.643   4.572  0.00  0.00     0.045 A 
HETATM    8  C   UNK N   1      22.737  18.046   5.006  0.00  0.00     0.147 A 
HETATM    9  N   UNK N   1      24.030  17.785   5.317  0.00  0.00    -0.336 N 
HETATM   10  H   UNK N   1      24.368  17.114   5.951  0.00  0.00     0.168 HD
ENDROOT
BRANCH   6  11
HETATM   11  C   UNK N   1      21.363  19.629   3.501  0.00  0.00     0.079 C 
BRANCH  11  12
HETATM   12  C   UNK N   1      20.744  18.812   2.360  0.00  0.00     0.177 C 
BRANCH  12  13
HETATM   13  C   UNK N   1      19.451  18.201   2.831  0.00  0.00     0.163 C 
HETATM   14  O   UNK N   1      19.450  17.289   3.643  0.00  0.00    -0.648 OA
BRANCH  13  15
HETATM   15  O   UNK N   1      18.280  18.670   2.360  0.00  0.00    -0.775 OA
HETATM   16  H   UNK N   1      17.513  18.669   2.898  0.00  0.00     0.167 HD
ENDBRANCH  13  15
ENDBRANCH  12  13
BRANCH  12  17
HETATM   17  N   UNK N   1      20.491  19.667   1.209  0.00  0.00    -0.417 N 
HETATM   18  H   UNK N   1      19.654  19.538   0.641  0.00  0.00     0.150 HD
HETATM   19  H   UNK N   1      21.158  20.400   0.969  0.00  0.00     0.150 HD
ENDBRANCH  12  17
ENDBRANCH  11  12
ENDBRANCH   6  11
BRANCH   8  20
HETATM   20  O   UNK N   1      21.701  17.397   5.559  0.00  0.00    -0.346 OA
HETATM   21  H   UNK N   1      20.924  17.241   5.058  0.00  0.00     0.219 HD
ENDBRANCH   8  20
TORSDOF 6
ENDMDL
MODEL 4
REMARK VINA RESULT:      -5.6      5.049      8.583
REMARK  6 active torsions:
REMARK  status: ('A' for Active; 'I' for Inactive)
REMARK    1  A    between atoms: C_7  and  C_5 
REMARK    2  A    between atoms: C_8  and  C_5 
REMARK    3  A    between atoms: C_11  and  C_8 
REMARK    4  A    between atoms: C_8  and  N_12 
REMARK    5  A    between atoms: O_14  and  C_10 
REMARK    6  A    between atoms: O_16  and  C_11 
ROOT
HETATM    1  C   UNK N   1      33.044  17.508   4.344  0.00  0.00     0.001 A 
HETATM    2  C   UNK N   1      31.710  17.366   3.904  0.00  0.00     0.002 A 
HETATM    3  C   UNK N   1      33.351  17.454   5.715  0.00  0.00     0.014 A 
HETATM    4  C   UNK N   1      30.671  17.171   4.834  0.00  0.00     0.030 A 
HETATM    5  C   UNK N   1      32.304  17.270   6.614  0.00  0.00     0.001 A 
HETATM    6  C   UNK N   1      32.282  17.182   7.989  0.00  0.00     0.008 A 
HETATM    7  C   UNK N   1      31.006  17.129   6.185  0.00  0.00     0.045 A 
HETATM    8  C   UNK N   1      30.949  16.980   8.323  0.00  0.00     0.147 A 
HETATM    9  N   UNK N   1      30.165  16.949   7.219  0.00  0.00    -0.336 N 
HETATM   10  H   UNK N   1      29.190  16.823   7.181  0.00  0.00     0.168 HD
ENDROOT
BRANCH   6  11
HETATM   11  C   UNK N   1      33.436  17.250   8.956  0.00  0.00     0.079 C 
BRANCH  11  12
HETATM   12  C   UNK N   1      33.988  15.889   9.399  0.00  0.00     0.177 C 
BRANCH  12  13
HETATM   13  C   UNK N   1      35.338  16.083  10.035  0.00  0.00     0.163 C 
HETATM   14  O   UNK N   1      36.085  15.134  10.219  0.00  0.00    -0.648 OA
BRANCH  13  15
HETATM   15  O   UNK N   1      35.735  17.317  10.398  0.00  0.00    -0.775 OA
HETATM   16  H   UNK N   1      35.829  17.996   9.759  0.00  0.00     0.167 HD
ENDBRANCH  13  15
ENDBRANCH  12  13
BRANCH  12  17
HETATM   17  N   UNK N   1      33.083  15.266  10.353  0.00  0.00    -0.417 N 
HETATM   18  H   UNK N   1      32.072  15.361  10.250  0.00  0.00     0.150 HD
HETATM   19  H   UNK N   1      33.463  14.730  11.133  0.00  0.00     0.150 HD
ENDBRANCH  12  17
ENDBRANCH  11  12
ENDBRANCH   6  11
BRANCH   8  20
HETATM   20  O   UNK N   1      30.474  16.822   9.569  0.00  0.00    -0.346 OA
HETATM   21  H   UNK N   1      29.626  16.448   9.704  0.00  0.00     0.219 HD
ENDBRANCH   8  20
TORSDOF 6
ENDMDL
MODEL 5
REMARK VINA RESULT:      -5.5      1.895      2.519
REMARK  6 active torsions:
REMARK  status: ('A' for Active; 'I' for Inactive)
REMARK    1  A    between atoms: C_7  and  C_5 
REMARK    2  A    between atoms: C_8  and  C_5 
REMARK    3  A    between atoms: C_11  and  C_8 
REMARK    4  A    between atoms: C_8  and  N_12 
REMARK    5  A    between atoms: O_14  and  C_10 
REMARK    6  A    between atoms: O_16  and  C_11 
ROOT
HETATM    1  C   UNK N   1      35.680  13.058  16.055  0.00  0.00     0.001 A 
HETATM    2  C   UNK N   1      35.016  11.866  16.417  0.00  0.00     0.002 A 
HETATM    3  C   UNK N   1      35.759  13.447  14.706  0.00  0.00     0.014 A 
HETATM    4  C   UNK N   1      34.425  11.053  15.432  0.00  0.00     0.030 A 
HETATM    5  C   UNK N   1      35.175  12.619  13.750  0.00  0.00     0.001 A 
HETATM    6  C   UNK N   1      35.090  12.722  12.378  0.00  0.00     0.008 A 
HETATM    7  C   UNK N   1      34.526  11.462  14.104  0.00  0.00     0.045 A 
HETATM    8  C   UNK N   1      34.374  11.604  11.970  0.00  0.00     0.147 A 
HETATM    9  N   UNK N   1      34.029  10.829  13.026  0.00  0.00    -0.336 N 
HETATM   10  H   UNK N   1      33.523   9.985  13.008  0.00  0.00     0.168 HD
ENDROOT
BRANCH   6  11
HETATM   11  C   UNK N   1      35.618  13.811  11.481  0.00  0.00     0.079 C 
BRANCH  11  12
HETATM   12  C   UNK N   1      34.852  15.138  11.559  0.00  0.00     0.177 C 
BRANCH  12  13
HETATM   13  C   UNK N   1      35.685  16.230  10.943  0.00  0.00     0.163 C 
HETATM   14  O   UNK N   1      35.165  17.257  10.531  0.00  0.00    -0.648 OA
BRANCH  13  15
HETATM   15  O   UNK N   1      37.020  16.082  10.851  0.00  0.00    -0.775 OA
HETATM   16  H   UNK N   1      37.499  15.637  11.523  0.00  0.00     0.167 HD
ENDBRANCH  13  15
ENDBRANCH  12  13
BRANCH  12  17
HETATM   17  N   UNK N   1      33.585  15.031  10.852  0.00  0.00    -0.417 N 
HETATM   18  H   UNK N   1      32.740  14.736  11.341  0.00  0.00     0.150 HD
HETATM   19  H   UNK N   1      33.543  15.252   9.857  0.00  0.00     0.150 HD
ENDBRANCH  12  17
ENDBRANCH  11  12
ENDBRANCH   6  11
BRANCH   8  20
HETATM   20  O   UNK N   1      34.045  11.311  10.702  0.00  0.00    -0.346 OA
HETATM   21  H   UNK N   1      33.143  11.280  10.447  0.00  0.00     0.219 HD
ENDBRANCH   8  20
TORSDOF 6
ENDMDL
MODEL 6
REMARK VINA RESULT:      -5.5      7.769      9.757
REMARK  6 active torsions:
REMARK  status: ('A' for Active; 'I' for Inactive)
REMARK    1  A    between atoms: C_7  and  C_5 
REMARK    2  A    between atoms: C_8  and  C_5 
REMARK    3  A    between atoms: C_11  and  C_8 
REMARK    4  A    between atoms: C_8  and  N_12 
REMARK    5  A    between atoms: O_14  and  C_10 
REMARK    6  A    between atoms: O_16  and  C_11 
ROOT
HETATM    1  C   UNK N   1      32.705  17.050   4.779  0.00  0.00     0.001 A 
HETATM    2  C   UNK N   1      33.830  16.884   5.615  0.00  0.00     0.002 A 
HETATM    3  C   UNK N   1      31.429  17.250   5.336  0.00  0.00     0.014 A 
HETATM    4  C   UNK N   1      33.688  16.915   7.015  0.00  0.00     0.030 A 
HETATM    5  C   UNK N   1      31.315  17.267   6.724  0.00  0.00     0.001 A 
HETATM    6  C   UNK N   1      30.224  17.432   7.551  0.00  0.00     0.008 A 
HETATM    7  C   UNK N   1      32.411  17.108   7.536  0.00  0.00     0.045 A 
HETATM    8  C   UNK N   1      30.732  17.371   8.843  0.00  0.00     0.147 A 
HETATM    9  N   UNK N   1      32.072  17.171   8.836  0.00  0.00    -0.336 N 
HETATM   10  H   UNK N   1      32.668  17.089   9.614  0.00  0.00     0.168 HD
ENDROOT
BRANCH   6  11
HETATM   11  C   UNK N   1      28.783  17.664   7.176  0.00  0.00     0.079 C 
BRANCH  11  12
HETATM   12  C   UNK N   1      28.254  19.069   7.490  0.00  0.00     0.177 C 
BRANCH  12  13
HETATM   13  C   UNK N   1      27.429  19.561   6.331  0.00  0.00     0.163 C 
HETATM   14  O   UNK N   1      27.780  20.535   5.682  0.00  0.00    -0.648 OA
BRANCH  13  15
HETATM   15  O   UNK N   1      26.295  18.917   5.997  0.00  0.00    -0.775 OA
HETATM   16  H   UNK N   1      26.011  18.167   6.481  0.00  0.00     0.167 HD
ENDBRANCH  13  15
ENDBRANCH  12  13
BRANCH  12  17
HETATM   17  N   UNK N   1      27.437  19.041   8.694  0.00  0.00    -0.417 N 
HETATM   18  H   UNK N   1      26.537  18.561   8.701  0.00  0.00     0.150 HD
HETATM   19  H   UNK N   1      27.768  19.506   9.540  0.00  0.00     0.150 HD
ENDBRANCH  12  17
ENDBRANCH  11  12
ENDBRANCH   6  11
BRANCH   8  20
HETATM   20  O   UNK N   1      30.012  17.502   9.968  0.00  0.00    -0.346 OA
HETATM   21  H   UNK N   1      29.604  18.321  10.172  0.00  0.00     0.219 HD
ENDBRANCH   8  20
TORSDOF 6
ENDMDL
MODEL 7
REMARK VINA RESULT:      -5.4      1.876      2.798
REMARK  6 active torsions:
REMARK  status: ('A' for Active; 'I' for Inactive)
REMARK    1  A    between atoms: C_7  and  C_5 
REMARK    2  A    between atoms: C_8  and  C_5 
REMARK    3  A    between atoms: C_11  and  C_8 
REMARK    4  A    between atoms: C_8  and  N_12 
REMARK    5  A    between atoms: O_14  and  C_10 
REMARK    6  A    between atoms: O_16  and  C_11 
ROOT
HETATM    1  C   UNK N   1      36.839  15.057  16.876  0.00  0.00     0.001 A 
HETATM    2  C   UNK N   1      36.094  14.220  17.735  0.00  0.00     0.002 A 
HETATM    3  C   UNK N   1      36.765  14.891  15.482  0.00  0.00     0.014 A 
HETATM    4  C   UNK N   1      35.269  13.210  17.207  0.00  0.00     0.030 A 
HETATM    5  C   UNK N   1      35.949  13.878  14.985  0.00  0.00     0.001 A 
HETATM    6  C   UNK N   1      35.676  13.470  13.696  0.00  0.00     0.008 A 
HETATM    7  C   UNK N   1      35.222  13.067  15.822  0.00  0.00     0.045 A 
HETATM    8  C   UNK N   1      34.776  12.420  13.826  0.00  0.00     0.147 A 
HETATM    9  N   UNK N   1      34.498  12.170  15.129  0.00  0.00    -0.336 N 
HETATM   10  H   UNK N   1      33.895  11.481  15.489  0.00  0.00     0.168 HD
ENDROOT
BRANCH   6  11
HETATM   11  C   UNK N   1      36.195  14.036  12.400  0.00  0.00     0.079 C 
BRANCH  11  12
HETATM   12  C   UNK N   1      35.249  15.021  11.702  0.00  0.00     0.177 C 
BRANCH  12  13
HETATM   13  C   UNK N   1      36.060  16.028  10.930  0.00  0.00     0.163 C 
HETATM   14  O   UNK N   1      35.571  17.093  10.585  0.00  0.00    -0.648 OA
BRANCH  13  15
HETATM   15  O   UNK N   1      37.343  15.758  10.623  0.00  0.00    -0.775 OA
HETATM   16  H   UNK N   1      37.616  14.881  10.438  0.00  0.00     0.167 HD
ENDBRANCH  13  15
ENDBRANCH  12  13
BRANCH  12  17
HETATM   17  N   UNK N   1      34.362  14.310  10.795  0.00  0.00    -0.417 N 
HETATM   18  H   UNK N   1      33.398  14.108  11.062  0.00  0.00     0.150 HD
HETATM   19  H   UNK N   1      34.707  14.009   9.883  0.00  0.00     0.150 HD
ENDBRANCH  12  17
ENDBRANCH  11  12
ENDBRANCH   6  11
BRANCH   8  20
HETATM   20  O   UNK N   1      34.230  11.734  12.811  0.00  0.00    -0.346 OA
HETATM   21  H   UNK N   1      33.779  12.189  12.126  0.00  0.00     0.219 HD
ENDBRANCH   8  20
TORSDOF 6
ENDMDL
MODEL 8
REMARK VINA RESULT:      -5.4      8.384     10.180
REMARK  6 active torsions:
REMARK  status: ('A' for Active; 'I' for Inactive)
REMARK    1  A    between atoms: C_7  and  C_5 
REMARK    2  A    between atoms: C_8  and  C_5 
REMARK    3  A    between atoms: C_11  and  C_8 
REMARK    4  A    between atoms: C_8  and  N_12 
REMARK    5  A    between atoms: O_14  and  C_10 
REMARK    6  A    between atoms: O_16  and  C_11 
ROOT
HETATM    1  C   UNK N   1      32.424  17.178   6.226  0.00  0.00     0.001 A 
HETATM    2  C   UNK N   1      33.046  17.579   7.428  0.00  0.00     0.002 A 
HETATM    3  C   UNK N   1      31.022  17.128   6.133  0.00  0.00     0.014 A 
HETATM    4  C   UNK N   1      32.271  17.933   8.547  0.00  0.00     0.030 A 
HETATM    5  C   UNK N   1      30.278  17.474   7.258  0.00  0.00     0.001 A 
HETATM    6  C   UNK N   1      28.918  17.519   7.478  0.00  0.00     0.008 A 
HETATM    7  C   UNK N   1      30.885  17.867   8.426  0.00  0.00     0.045 A 
HETATM    8  C   UNK N   1      28.773  17.953   8.790  0.00  0.00     0.147 A 
HETATM    9  N   UNK N   1      29.977  18.166   9.373  0.00  0.00    -0.336 N 
HETATM   10  H   UNK N   1      30.151  18.472  10.291  0.00  0.00     0.168 HD
ENDROOT
BRANCH   6  11
HETATM   11  C   UNK N   1      27.798  17.205   6.520  0.00  0.00     0.079 C 
BRANCH  11  12
HETATM   12  C   UNK N   1      27.087  18.432   5.936  0.00  0.00     0.177 C 
BRANCH  12  13
HETATM   13  C   UNK N   1      27.946  19.039   4.859  0.00  0.00     0.163 C 
HETATM   14  O   UNK N   1      28.172  20.240   4.841  0.00  0.00    -0.648 OA
BRANCH  13  15
HETATM   15  O   UNK N   1      28.481  18.251   3.908  0.00  0.00    -0.775 OA
HETATM   16  H   UNK N   1      29.313  17.840   4.040  0.00  0.00     0.167 HD
ENDBRANCH  13  15
ENDBRANCH  12  13
BRANCH  12  17
HETATM   17  N   UNK N   1      25.799  18.048   5.376  0.00  0.00    -0.417 N 
HETATM   18  H   UNK N   1      25.634  18.098   4.371  0.00  0.00     0.150 HD
HETATM   19  H   UNK N   1      25.055  17.728   5.996  0.00  0.00     0.150 HD
ENDBRANCH  12  17
ENDBRANCH  11  12
ENDBRANCH   6  11
BRANCH   8  20
HETATM   20  O   UNK N   1      27.604  18.155   9.417  0.00  0.00    -0.346 OA
HETATM   21  H   UNK N   1      27.223  19.011   9.437  0.00  0.00     0.219 HD
ENDBRANCH   8  20
TORSDOF 6
ENDMDL
MODEL 9
REMARK VINA RESULT:      -5.4      2.775      4.020
REMARK  6 active torsions:
REMARK  status: ('A' for Active; 'I' for Inactive)
REMARK    1  A    between atoms: C_7  and  C_5 
REMARK    2  A    between atoms: C_8  and  C_5 
REMARK    3  A    between atoms: C_11  and  C_8 
REMARK    4  A    between atoms: C_8  and  N_12 
REMARK    5  A    between atoms: O_14  and  C_10 
REMARK    6  A    between atoms: O_16  and  C_11 
ROOT
HETATM    1  C   UNK N   1      35.210  13.533  18.818  0.00  0.00     0.001 A 
HETATM    2  C   UNK N   1      35.233  12.314  19.530  0.00  0.00     0.002 A 
HETATM    3  C   UNK N   1      35.211  13.536  17.411  0.00  0.00     0.014 A 
HETATM    4  C   UNK N   1      35.258  11.087  18.840  0.00  0.00     0.030 A 
HETATM    5  C   UNK N   1      35.245  12.308  16.754  0.00  0.00     0.001 A 
HETATM    6  C   UNK N   1      35.260  11.988  15.413  0.00  0.00     0.008 A 
HETATM    7  C   UNK N   1      35.264  11.123  17.448  0.00  0.00     0.045 A 
HETATM    8  C   UNK N   1      35.279  10.599  15.369  0.00  0.00     0.147 A 
HETATM    9  N   UNK N   1      35.284  10.067  16.615  0.00  0.00    -0.336 N 
HETATM   10  H   UNK N   1      35.298   9.114  16.858  0.00  0.00     0.168 HD
ENDROOT
BRANCH   6  11
HETATM   11  C   UNK N   1      35.229  12.911  14.223  0.00  0.00     0.079 C 
BRANCH  11  12
HETATM   12  C   UNK N   1      36.604  13.398  13.750  0.00  0.00     0.177 C 
BRANCH  12  13
HETATM   13  C   UNK N   1      36.922  12.772  12.418  0.00  0.00     0.163 C 
HETATM   14  O   UNK N   1      36.379  11.734  12.069  0.00  0.00    -0.648 OA
BRANCH  13  15
HETATM   15  O   UNK N   1      37.807  13.365  11.595  0.00  0.00    -0.775 OA
HETATM   16  H   UNK N   1      38.402  12.852  11.084  0.00  0.00     0.167 HD
ENDBRANCH  13  15
ENDBRANCH  12  13
BRANCH  12  17
HETATM   17  N   UNK N   1      36.608  14.848  13.622  0.00  0.00    -0.417 N 
HETATM   18  H   UNK N   1      37.279  15.314  13.011  0.00  0.00     0.150 HD
HETATM   19  H   UNK N   1      35.933  15.403  14.148  0.00  0.00     0.150 HD
ENDBRANCH  12  17
ENDBRANCH  11  12
ENDBRANCH   6  11
BRANCH   8  20
HETATM   20  O   UNK N   1      35.282   9.857  14.250  0.00  0.00    -0.346 OA
HETATM   21  H   UNK N   1      34.639  10.008  13.585  0.00  0.00     0.219 HD
ENDBRANCH   8  20
TORSDOF 6
ENDMDL
