MODEL 1
REMARK VINA RESULT:      -7.3      0.000      0.000
REMARK  10 active torsions:
REMARK  status: ('A' for Active; 'I' for Inactive)
REMARK    1  A    between atoms: C_2  and  N_1 
REMARK    2  A    between atoms: O_17  and  P_7 
REMARK    3  A    between atoms: O_9  and  P_7 
REMARK    4  A    between atoms: O_21  and  P_7 
REMARK    5  A    between atoms: O_9  and  P_8 
REMARK    6  A    between atoms: O_22  and  P_8 
REMARK    7  A    between atoms: O_23  and  P_8 
REMARK    8  A    between atoms: C_11  and  C_15 
REMARK    9  A    between atoms: C_12  and  O_24 
REMARK   10  A    between atoms: O_17  and  C_15 
ROOT
HETATM    1  C   UNK N   1      20.813  15.285   7.695  0.00  0.00     0.235 C 
HETATM    2  C   UNK N   1      20.554  16.640   8.326  0.00  0.00     0.088 C 
HETATM    3  O   UNK N   1      21.679  15.465   6.590  0.00  0.00    -0.356 OA
HETATM    4  C   UNK N   1      21.707  16.855   6.361  0.00  0.00     0.177 C 
HETATM    5  C   UNK N   1      20.556  17.476   7.101  0.00  0.00     0.153 C 
ENDROOT
BRANCH   4   6
HETATM    6  C   UNK N   1      21.625  17.197   4.875  0.00  0.00     0.215 C 
BRANCH   6   7
HETATM    7  O   UNK N   1      20.326  17.007   4.382  0.00  0.00    -0.294 OA
BRANCH   7   8
HETATM    8  P   UNK N   1      20.249  17.863   2.854  0.00  0.00     0.401 P 
HETATM    9  O   UNK N   1      20.479  16.843   1.705  0.00  0.00    -0.631 OA
BRANCH   8  10
HETATM   10  O   UNK N   1      21.440  19.127   2.649  0.00  0.00    -0.195 OA
BRANCH  10  11
HETATM   11  P   UNK N   1      20.597  20.649   2.602  0.00  0.00     0.399 P 
HETATM   12  O   UNK N   1      22.073  21.088   2.805  0.00  0.00    -0.631 OA
BRANCH  11  13
HETATM   13  O   UNK N   1      20.428  19.873   1.056  0.00  0.00    -0.307 OA
HETATM   14  H   UNK N   1      20.727  19.119   0.523  0.00  0.00     0.222 HD
ENDBRANCH  11  13
BRANCH  11  15
HETATM   15  O   UNK N   1      20.858  21.758   1.293  0.00  0.00    -0.307 OA
HETATM   16  H   UNK N   1      20.291  22.535   1.174  0.00  0.00     0.222 HD
ENDBRANCH  11  15
ENDBRANCH  10  11
ENDBRANCH   8  10
BRANCH   8  17
HETATM   17  O   UNK N   1      18.662  18.526   2.624  0.00  0.00    -0.307 OA
HETATM   18  H   UNK N   1      17.725  18.287   2.540  0.00  0.00     0.222 HD
ENDBRANCH   8  17
ENDBRANCH   7   8
ENDBRANCH   6   7
ENDBRANCH   4   6
BRANCH   5  19
HETATM   19  O   UNK N   1      20.821  18.812   7.401  0.00  0.00    -0.393 OA
HETATM   20  H   UNK N   1      21.455  19.289   7.959  0.00  0.00     0.210 HD
ENDBRANCH   5  19
BRANCH   1  21
HETATM   21  N   UNK N   1      21.285  14.301   8.689  0.00  0.00    -0.282 N 
HETATM   22  C   UNK N   1      20.506  13.801   9.724  0.00  0.00     0.331 A 
HETATM   23  N   UNK N   1      21.047  12.920  10.624  0.00  0.00    -0.275 N 
HETATM   24  O   UNK N   1      19.342  14.136   9.854  0.00  0.00    -0.246 OA
HETATM   25  C   UNK N   1      22.351  12.520  10.520  0.00  0.00     0.250 A 
HETATM   26  H   UNK N   1      20.489  12.569  11.355  0.00  0.00     0.173 HD
HETATM   27  C   UNK N   1      23.141  13.005   9.489  0.00  0.00     0.092 A 
HETATM   28  O   UNK N   1      22.817  11.744  11.333  0.00  0.00    -0.268 OA
HETATM   29  C   UNK N   1      22.585  13.901   8.582  0.00  0.00     0.104 A 
ENDBRANCH   1  21
TORSDOF 10
ENDMDL
MODEL 2
REMARK VINA RESULT:      -7.0      1.412      1.601
REMARK  10 active torsions:
REMARK  status: ('A' for Active; 'I' for Inactive)
REMARK    1  A    between atoms: C_2  and  N_1 
REMARK    2  A    between atoms: O_17  and  P_7 
REMARK    3  A    between atoms: O_9  and  P_7 
REMARK    4  A    between atoms: O_21  and  P_7 
REMARK    5  A    between atoms: O_9  and  P_8 
REMARK    6  A    between atoms: O_22  and  P_8 
REMARK    7  A    between atoms: O_23  and  P_8 
REMARK    8  A    between atoms: C_11  and  C_15 
REMARK    9  A    between atoms: C_12  and  O_24 
REMARK   10  A    between atoms: O_17  and  C_15 
ROOT
HETATM    1  C   UNK N   1      21.015  14.133   8.523  0.00  0.00     0.235 C 
HETATM    2  C   UNK N   1      20.796  15.574   8.940  0.00  0.00     0.088 C 
HETATM    3  O   UNK N   1      21.601  14.126   7.235  0.00  0.00    -0.356 OA
HETATM    4  C   UNK N   1      21.470  15.445   6.757  0.00  0.00     0.177 C 
HETATM    5  C   UNK N   1      20.464  16.157   7.618  0.00  0.00     0.153 C 
ENDROOT
BRANCH   4   6
HETATM    6  C   UNK N   1      21.038  15.489   5.294  0.00  0.00     0.215 C 
BRANCH   6   7
HETATM    7  O   UNK N   1      20.022  16.434   5.094  0.00  0.00    -0.294 OA
BRANCH   7   8
HETATM    8  P   UNK N   1      20.567  17.477   3.794  0.00  0.00     0.401 P 
HETATM    9  O   UNK N   1      21.862  16.869   3.185  0.00  0.00    -0.631 OA
BRANCH   8  10
HETATM   10  O   UNK N   1      20.956  19.115   4.266  0.00  0.00    -0.195 OA
BRANCH  10  11
HETATM   11  P   UNK N   1      20.987  20.090   2.825  0.00  0.00     0.399 P 
HETATM   12  O   UNK N   1      20.166  20.968   3.809  0.00  0.00    -0.631 OA
BRANCH  11  13
HETATM   13  O   UNK N   1      22.613  19.920   3.416  0.00  0.00    -0.307 OA
HETATM   14  H   UNK N   1      23.225  20.205   4.113  0.00  0.00     0.222 HD
ENDBRANCH  11  13
BRANCH  11  15
HETATM   15  O   UNK N   1      21.840  21.601   2.806  0.00  0.00    -0.307 OA
HETATM   16  H   UNK N   1      22.667  21.704   2.310  0.00  0.00     0.222 HD
ENDBRANCH  11  15
ENDBRANCH  10  11
ENDBRANCH   8  10
BRANCH   8  17
HETATM   17  O   UNK N   1      19.386  17.510   2.522  0.00  0.00    -0.307 OA
HETATM   18  H   UNK N   1      18.589  17.971   2.214  0.00  0.00     0.222 HD
ENDBRANCH   8  17
ENDBRANCH   7   8
ENDBRANCH   6   7
ENDBRANCH   4   6
BRANCH   5  19
HETATM   19  O   UNK N   1      20.683  17.535   7.602  0.00  0.00    -0.393 OA
HETATM   20  H   UNK N   1      21.437  18.119   7.426  0.00  0.00     0.210 HD
ENDBRANCH   5  19
BRANCH   1  21
HETATM   21  N   UNK N   1      21.769  13.377   9.542  0.00  0.00    -0.282 N 
HETATM   22  C   UNK N   1      21.185  12.720  10.617  0.00  0.00     0.331 A 
HETATM   23  N   UNK N   1      21.973  12.078  11.537  0.00  0.00    -0.275 N 
HETATM   24  O   UNK N   1      19.976  12.706  10.765  0.00  0.00    -0.246 OA
HETATM   25  C   UNK N   1      23.335  12.073  11.415  0.00  0.00     0.250 A 
HETATM   26  H   UNK N   1      21.552  11.614  12.297  0.00  0.00     0.173 HD
HETATM   27  C   UNK N   1      23.934  12.719  10.345  0.00  0.00     0.092 A 
HETATM   28  O   UNK N   1      24.020  11.506  12.246  0.00  0.00    -0.268 OA
HETATM   29  C   UNK N   1      23.128  13.371   9.417  0.00  0.00     0.104 A 
ENDBRANCH   1  21
TORSDOF 10
ENDMDL
MODEL 3
REMARK VINA RESULT:      -7.0      1.683      2.626
REMARK  10 active torsions:
REMARK  status: ('A' for Active; 'I' for Inactive)
REMARK    1  A    between atoms: C_2  and  N_1 
REMARK    2  A    between atoms: O_17  and  P_7 
REMARK    3  A    between atoms: O_9  and  P_7 
REMARK    4  A    between atoms: O_21  and  P_7 
REMARK    5  A    between atoms: O_9  and  P_8 
REMARK    6  A    between atoms: O_22  and  P_8 
REMARK    7  A    between atoms: O_23  and  P_8 
REMARK    8  A    between atoms: C_11  and  C_15 
REMARK    9  A    between atoms: C_12  and  O_24 
REMARK   10  A    between atoms: O_17  and  C_15 
ROOT
HETATM    1  C   UNK N   1      22.307  13.762   7.997  0.00  0.00     0.235 C 
HETATM    2  C   UNK N   1      21.137  13.081   7.316  0.00  0.00     0.088 C 
HETATM    3  O   UNK N   1      22.088  15.160   7.971  0.00  0.00    -0.356 OA
HETATM    4  C   UNK N   1      21.021  15.353   7.071  0.00  0.00     0.177 C 
HETATM    5  C   UNK N   1      20.849  14.093   6.271  0.00  0.00     0.153 C 
ENDROOT
BRANCH   4   6
HETATM    6  C   UNK N   1      21.258  16.541   6.142  0.00  0.00     0.215 C 
BRANCH   6   7
HETATM    7  O   UNK N   1      21.412  16.121   4.813  0.00  0.00    -0.294 OA
BRANCH   7   8
HETATM    8  P   UNK N   1      20.623  17.332   3.820  0.00  0.00     0.401 P 
HETATM    9  O   UNK N   1      21.117  17.166   2.356  0.00  0.00    -0.631 OA
BRANCH   8  10
HETATM   10  O   UNK N   1      20.943  18.990   4.273  0.00  0.00    -0.195 OA
BRANCH  10  11
HETATM   11  P   UNK N   1      20.906  19.954   2.824  0.00  0.00     0.399 P 
HETATM   12  O   UNK N   1      20.202  20.873   3.859  0.00  0.00    -0.631 OA
BRANCH  11  13
HETATM   13  O   UNK N   1      22.564  19.716   3.291  0.00  0.00    -0.307 OA
HETATM   14  H   UNK N   1      23.142  19.507   4.042  0.00  0.00     0.222 HD
ENDBRANCH  11  13
BRANCH  11  15
HETATM   15  O   UNK N   1      21.820  21.425   2.725  0.00  0.00    -0.307 OA
HETATM   16  H   UNK N   1      21.978  21.971   3.511  0.00  0.00     0.222 HD
ENDBRANCH  11  15
ENDBRANCH  10  11
ENDBRANCH   8  10
BRANCH   8  17
HETATM   17  O   UNK N   1      18.908  17.061   3.802  0.00  0.00    -0.307 OA
HETATM   18  H   UNK N   1      18.217  16.444   4.090  0.00  0.00     0.222 HD
ENDBRANCH   8  17
ENDBRANCH   7   8
ENDBRANCH   6   7
ENDBRANCH   4   6
BRANCH   5  19
HETATM   19  O   UNK N   1      19.540  13.978   5.801  0.00  0.00    -0.393 OA
HETATM   20  H   UNK N   1      18.949  13.249   5.557  0.00  0.00     0.210 HD
ENDBRANCH   5  19
BRANCH   1  21
HETATM   21  N   UNK N   1      22.555  13.206   9.342  0.00  0.00    -0.282 N 
HETATM   22  C   UNK N   1      23.818  13.027   9.892  0.00  0.00     0.331 A 
HETATM   23  N   UNK N   1      23.950  12.463  11.135  0.00  0.00    -0.275 N 
HETATM   24  O   UNK N   1      24.822  13.358   9.285  0.00  0.00    -0.246 OA
HETATM   25  C   UNK N   1      22.851  12.072  11.850  0.00  0.00     0.250 A 
HETATM   26  H   UNK N   1      24.848  12.339  11.519  0.00  0.00     0.173 HD
HETATM   27  C   UNK N   1      21.583  12.249  11.318  0.00  0.00     0.092 A 
HETATM   28  O   UNK N   1      22.987  11.565  12.948  0.00  0.00    -0.268 OA
HETATM   29  C   UNK N   1      21.458  12.819  10.055  0.00  0.00     0.104 A 
ENDBRANCH   1  21
TORSDOF 10
ENDMDL
MODEL 4
REMARK VINA RESULT:      -6.8     13.348     15.101
REMARK  10 active torsions:
REMARK  status: ('A' for Active; 'I' for Inactive)
REMARK    1  A    between atoms: C_2  and  N_1 
REMARK    2  A    between atoms: O_17  and  P_7 
REMARK    3  A    between atoms: O_9  and  P_7 
REMARK    4  A    between atoms: O_21  and  P_7 
REMARK    5  A    between atoms: O_9  and  P_8 
REMARK    6  A    between atoms: O_22  and  P_8 
REMARK    7  A    between atoms: O_23  and  P_8 
REMARK    8  A    between atoms: C_11  and  C_15 
REMARK    9  A    between atoms: C_12  and  O_24 
REMARK   10  A    between atoms: O_17  and  C_15 
ROOT
HETATM    1  C   UNK N   1      35.185  13.575  13.121  0.00  0.00     0.235 C 
HETATM    2  C   UNK N   1      36.168  14.722  12.985  0.00  0.00     0.088 C 
HETATM    3  O   UNK N   1      34.965  13.021  11.838  0.00  0.00    -0.356 OA
HETATM    4  C   UNK N   1      35.522  13.944  10.932  0.00  0.00     0.177 C 
HETATM    5  C   UNK N   1      35.747  15.239  11.660  0.00  0.00     0.153 C 
ENDROOT
BRANCH   4   6
HETATM    6  C   UNK N   1      34.629  14.170   9.715  0.00  0.00     0.215 C 
BRANCH   6   7
HETATM    7  O   UNK N   1      33.351  14.604  10.099  0.00  0.00    -0.294 OA
BRANCH   7   8
HETATM    8  P   UNK N   1      32.694  15.475   8.726  0.00  0.00     0.401 P 
HETATM    9  O   UNK N   1      32.050  14.447   7.754  0.00  0.00    -0.631 OA
BRANCH   8  10
HETATM   10  O   UNK N   1      33.861  16.384   7.794  0.00  0.00    -0.195 OA
BRANCH  10  11
HETATM   11  P   UNK N   1      33.653  18.068   8.182  0.00  0.00     0.399 P 
HETATM   12  O   UNK N   1      34.444  17.536   9.407  0.00  0.00    -0.631 OA
BRANCH  11  13
HETATM   13  O   UNK N   1      34.640  17.945   6.755  0.00  0.00    -0.307 OA
HETATM   14  H   UNK N   1      34.956  18.434   5.980  0.00  0.00     0.222 HD
ENDBRANCH  11  13
BRANCH  11  15
HETATM   15  O   UNK N   1      35.026  19.129   8.253  0.00  0.00    -0.307 OA
HETATM   16  H   UNK N   1      35.928  18.778   8.306  0.00  0.00     0.222 HD
ENDBRANCH  11  15
ENDBRANCH  10  11
ENDBRANCH   8  10
BRANCH   8  17
HETATM   17  O   UNK N   1      31.422  16.535   9.247  0.00  0.00    -0.307 OA
HETATM   18  H   UNK N   1      30.474  16.569   9.448  0.00  0.00     0.222 HD
ENDBRANCH   8  17
ENDBRANCH   7   8
ENDBRANCH   6   7
ENDBRANCH   4   6
BRANCH   5  19
HETATM   19  O   UNK N   1      36.765  15.978  11.058  0.00  0.00    -0.393 OA
HETATM   20  H   UNK N   1      36.815  16.752  10.476  0.00  0.00     0.210 HD
ENDBRANCH   5  19
BRANCH   1  21
HETATM   21  N   UNK N   1      35.619  12.602  14.143  0.00  0.00    -0.282 N 
HETATM   22  C   UNK N   1      35.024  12.461  15.390  0.00  0.00     0.331 A 
HETATM   23  N   UNK N   1      35.526  11.556  16.289  0.00  0.00    -0.275 N 
HETATM   24  O   UNK N   1      34.061  13.136  15.707  0.00  0.00    -0.246 OA
HETATM   25  C   UNK N   1      36.610  10.782  15.978  0.00  0.00     0.250 A 
HETATM   26  H   UNK N   1      35.100  11.462  17.172  0.00  0.00     0.173 HD
HETATM   27  C   UNK N   1      37.212  10.906  14.736  0.00  0.00     0.092 A 
HETATM   28  O   UNK N   1      37.047   9.990  16.792  0.00  0.00    -0.268 OA
HETATM   29  C   UNK N   1      36.699  11.829  13.830  0.00  0.00     0.104 A 
ENDBRANCH   1  21
TORSDOF 10
ENDMDL
MODEL 5
REMARK VINA RESULT:      -6.8     13.317     16.222
REMARK  10 active torsions:
REMARK  status: ('A' for Active; 'I' for Inactive)
REMARK    1  A    between atoms: C_2  and  N_1 
REMARK    2  A    between atoms: O_17  and  P_7 
REMARK    3  A    between atoms: O_9  and  P_7 
REMARK    4  A    between atoms: O_21  and  P_7 
REMARK    5  A    between atoms: O_9  and  P_8 
REMARK    6  A    between atoms: O_22  and  P_8 
REMARK    7  A    between atoms: O_23  and  P_8 
REMARK    8  A    between atoms: C_11  and  C_15 
REMARK    9  A    between atoms: C_12  and  O_24 
REMARK   10  A    between atoms: O_17  and  C_15 
ROOT
HETATM    1  C   UNK N   1      34.515  15.899   8.070  0.00  0.00     0.235 C 
HETATM    2  C   UNK N   1      33.373  15.717   9.050  0.00  0.00     0.088 C 
HETATM    3  O   UNK N   1      35.576  15.047   8.457  0.00  0.00    -0.356 OA
HETATM    4  C   UNK N   1      35.244  14.601   9.751  0.00  0.00     0.177 C 
HETATM    5  C   UNK N   1      34.157  15.490  10.288  0.00  0.00     0.153 C 
ENDROOT
BRANCH   4   6
HETATM    6  C   UNK N   1      36.447  14.611  10.692  0.00  0.00     0.215 C 
BRANCH   6   7
HETATM    7  O   UNK N   1      36.146  15.272  11.892  0.00  0.00    -0.294 OA
BRANCH   7   8
HETATM    8  P   UNK N   1      36.237  14.060  13.156  0.00  0.00     0.401 P 
HETATM    9  O   UNK N   1      37.066  12.857  12.627  0.00  0.00    -0.631 OA
BRANCH   8  10
HETATM   10  O   UNK N   1      34.699  13.417  13.683  0.00  0.00    -0.195 OA
BRANCH  10  11
HETATM   11  P   UNK N   1      34.835  11.683  13.727  0.00  0.00     0.399 P 
HETATM   12  O   UNK N   1      33.760  11.964  14.812  0.00  0.00    -0.631 OA
BRANCH  11  13
HETATM   13  O   UNK N   1      34.226  12.152  12.169  0.00  0.00    -0.307 OA
HETATM   14  H   UNK N   1      34.462  12.597  11.339  0.00  0.00     0.222 HD
ENDBRANCH  11  13
BRANCH  11  15
HETATM   15  O   UNK N   1      33.506  10.684  13.228  0.00  0.00    -0.307 OA
HETATM   16  H   UNK N   1      33.581   9.718  13.220  0.00  0.00     0.222 HD
ENDBRANCH  11  15
ENDBRANCH  10  11
ENDBRANCH   8  10
BRANCH   8  17
HETATM   17  O   UNK N   1      37.095  14.694  14.526  0.00  0.00    -0.307 OA
HETATM   18  H   UNK N   1      37.933  15.100  14.797  0.00  0.00     0.222 HD
ENDBRANCH   8  17
ENDBRANCH   7   8
ENDBRANCH   6   7
ENDBRANCH   4   6
BRANCH   5  19
HETATM   19  O   UNK N   1      33.401  14.822  11.252  0.00  0.00    -0.393 OA
HETATM   20  H   UNK N   1      33.212  14.941  12.195  0.00  0.00     0.210 HD
ENDBRANCH   5  19
BRANCH   1  21
HETATM   21  N   UNK N   1      34.069  15.725   6.673  0.00  0.00    -0.282 N 
HETATM   22  C   UNK N   1      33.907  16.768   5.770  0.00  0.00     0.331 A 
HETATM   23  N   UNK N   1      33.447  16.511   4.504  0.00  0.00    -0.275 N 
HETATM   24  O   UNK N   1      34.160  17.917   6.083  0.00  0.00    -0.246 OA
HETATM   25  C   UNK N   1      33.143  15.237   4.110  0.00  0.00     0.250 A 
HETATM   26  H   UNK N   1      33.333  17.255   3.869  0.00  0.00     0.173 HD
HETATM   27  C   UNK N   1      33.306  14.184   4.997  0.00  0.00     0.092 A 
HETATM   28  O   UNK N   1      32.728  15.029   2.986  0.00  0.00    -0.268 OA
HETATM   29  C   UNK N   1      33.770  14.453   6.281  0.00  0.00     0.104 A 
ENDBRANCH   1  21
TORSDOF 10
ENDMDL
MODEL 6
REMARK VINA RESULT:      -6.7     12.463     15.261
REMARK  10 active torsions:
REMARK  status: ('A' for Active; 'I' for Inactive)
REMARK    1  A    between atoms: C_2  and  N_1 
REMARK    2  A    between atoms: O_17  and  P_7 
REMARK    3  A    between atoms: O_9  and  P_7 
REMARK    4  A    between atoms: O_21  and  P_7 
REMARK    5  A    between atoms: O_9  and  P_8 
REMARK    6  A    between atoms: O_22  and  P_8 
REMARK    7  A    between atoms: O_23  and  P_8 
REMARK    8  A    between atoms: C_11  and  C_15 
REMARK    9  A    between atoms: C_12  and  O_24 
REMARK   10  A    between atoms: O_17  and  C_15 
ROOT
HETATM    1  C   UNK N   1      33.286  17.057   6.641  0.00  0.00     0.235 C 
HETATM    2  C   UNK N   1      33.323  17.864   7.924  0.00  0.00     0.088 C 
HETATM    3  O   UNK N   1      33.620  15.717   6.947  0.00  0.00    -0.356 OA
HETATM    4  C   UNK N   1      34.130  15.750   8.260  0.00  0.00     0.177 C 
HETATM    5  C   UNK N   1      34.448  17.178   8.604  0.00  0.00     0.153 C 
ENDROOT
BRANCH   4   6
HETATM    6  C   UNK N   1      35.373  14.879   8.418  0.00  0.00     0.215 C 
BRANCH   6   7
HETATM    7  O   UNK N   1      35.279  14.063   9.555  0.00  0.00    -0.294 OA
BRANCH   7   8
HETATM    8  P   UNK N   1      36.722  14.372  10.503  0.00  0.00     0.401 P 
HETATM    9  O   UNK N   1      37.962  13.968   9.658  0.00  0.00    -0.631 OA
BRANCH   8  10
HETATM   10  O   UNK N   1      36.828  13.486  12.007  0.00  0.00    -0.195 OA
BRANCH  10  11
HETATM   11  P   UNK N   1      35.383  12.529  12.163  0.00  0.00     0.399 P 
HETATM   12  O   UNK N   1      36.248  12.028  13.351  0.00  0.00    -0.631 OA
BRANCH  11  13
HETATM   13  O   UNK N   1      34.971  14.200  12.407  0.00  0.00    -0.307 OA
HETATM   14  H   UNK N   1      34.233  14.831  12.407  0.00  0.00     0.222 HD
ENDBRANCH  11  13
BRANCH  11  15
HETATM   15  O   UNK N   1      34.332  12.740  13.528  0.00  0.00    -0.307 OA
HETATM   16  H   UNK N   1      33.435  13.090  13.421  0.00  0.00     0.222 HD
ENDBRANCH  11  15
ENDBRANCH  10  11
ENDBRANCH   8  10
BRANCH   8  17
HETATM   17  O   UNK N   1      36.869  16.071  10.826  0.00  0.00    -0.307 OA
HETATM   18  H   UNK N   1      37.481  16.749  11.153  0.00  0.00     0.222 HD
ENDBRANCH   8  17
ENDBRANCH   7   8
ENDBRANCH   6   7
ENDBRANCH   4   6
BRANCH   5  19
HETATM   19  O   UNK N   1      34.403  17.378   9.983  0.00  0.00    -0.393 OA
HETATM   20  H   UNK N   1      33.800  17.139  10.704  0.00  0.00     0.210 HD
ENDBRANCH   5  19
BRANCH   1  21
HETATM   21  N   UNK N   1      32.003  17.221   5.929  0.00  0.00    -0.282 N 
HETATM   22  C   UNK N   1      31.892  17.500   4.573  0.00  0.00     0.331 A 
HETATM   23  N   UNK N   1      30.655  17.677   4.010  0.00  0.00    -0.275 N 
HETATM   24  O   UNK N   1      32.881  17.600   3.868  0.00  0.00    -0.246 OA
HETATM   25  C   UNK N   1      29.518  17.581   4.764  0.00  0.00     0.250 A 
HETATM   26  H   UNK N   1      30.583  17.875   3.048  0.00  0.00     0.173 HD
HETATM   27  C   UNK N   1      29.610  17.296   6.117  0.00  0.00     0.092 A 
HETATM   28  O   UNK N   1      28.428  17.749   4.248  0.00  0.00    -0.268 OA
HETATM   29  C   UNK N   1      30.869  17.122   6.683  0.00  0.00     0.104 A 
ENDBRANCH   1  21
TORSDOF 10
ENDMDL
MODEL 7
REMARK VINA RESULT:      -6.6     14.160     16.523
REMARK  10 active torsions:
REMARK  status: ('A' for Active; 'I' for Inactive)
REMARK    1  A    between atoms: C_2  and  N_1 
REMARK    2  A    between atoms: O_17  and  P_7 
REMARK    3  A    between atoms: O_9  and  P_7 
REMARK    4  A    between atoms: O_21  and  P_7 
REMARK    5  A    between atoms: O_9  and  P_8 
REMARK    6  A    between atoms: O_22  and  P_8 
REMARK    7  A    between atoms: O_23  and  P_8 
REMARK    8  A    between atoms: C_11  and  C_15 
REMARK    9  A    between atoms: C_12  and  O_24 
REMARK   10  A    between atoms: O_17  and  C_15 
ROOT
HETATM    1  C   UNK N   1      35.746  13.448  15.530  0.00  0.00     0.235 C 
HETATM    2  C   UNK N   1      37.063  13.016  14.915  0.00  0.00     0.088 C 
HETATM    3  O   UNK N   1      34.727  13.285  14.562  0.00  0.00    -0.356 OA
HETATM    4  C   UNK N   1      35.400  13.066  13.344  0.00  0.00     0.177 C 
HETATM    5  C   UNK N   1      36.836  13.473  13.522  0.00  0.00     0.153 C 
ENDROOT
BRANCH   4   6
HETATM    6  C   UNK N   1      34.771  13.842  12.189  0.00  0.00     0.215 C 
BRANCH   6   7
HETATM    7  O   UNK N   1      35.066  15.210  12.278  0.00  0.00    -0.294 OA
BRANCH   7   8
HETATM    8  P   UNK N   1      35.675  15.686  10.704  0.00  0.00     0.401 P 
HETATM    9  O   UNK N   1      35.548  17.229  10.572  0.00  0.00    -0.631 OA
BRANCH   8  10
HETATM   10  O   UNK N   1      34.830  14.993   9.339  0.00  0.00    -0.195 OA
BRANCH  10  11
HETATM   11  P   UNK N   1      33.970  16.278   8.539  0.00  0.00     0.399 P 
HETATM   12  O   UNK N   1      33.879  15.119   7.509  0.00  0.00    -0.631 OA
BRANCH  11  13
HETATM   13  O   UNK N   1      33.103  15.844   9.981  0.00  0.00    -0.307 OA
HETATM   14  H   UNK N   1      32.666  15.108  10.439  0.00  0.00     0.222 HD
ENDBRANCH  11  13
BRANCH  11  15
HETATM   15  O   UNK N   1      32.264  16.146   8.249  0.00  0.00    -0.307 OA
HETATM   16  H   UNK N   1      31.620  16.369   8.939  0.00  0.00     0.222 HD
ENDBRANCH  11  15
ENDBRANCH  10  11
ENDBRANCH   8  10
BRANCH   8  17
HETATM   17  O   UNK N   1      37.366  15.312  10.583  0.00  0.00    -0.307 OA
HETATM   18  H   UNK N   1      37.991  14.629  10.292  0.00  0.00     0.222 HD
ENDBRANCH   8  17
ENDBRANCH   7   8
ENDBRANCH   6   7
ENDBRANCH   4   6
BRANCH   5  19
HETATM   19  O   UNK N   1      37.660  12.792  12.626  0.00  0.00    -0.393 OA
HETATM   20  H   UNK N   1      38.465  12.997  12.126  0.00  0.00     0.210 HD
ENDBRANCH   5  19
BRANCH   1  21
HETATM   21  N   UNK N   1      35.489  12.760  16.810  0.00  0.00    -0.282 N 
HETATM   22  C   UNK N   1      35.388  13.405  18.036  0.00  0.00     0.331 A 
HETATM   23  N   UNK N   1      35.190  12.675  19.180  0.00  0.00    -0.275 N 
HETATM   24  O   UNK N   1      35.480  14.617  18.120  0.00  0.00    -0.246 OA
HETATM   25  C   UNK N   1      35.087  11.311  19.135  0.00  0.00     0.250 A 
HETATM   26  H   UNK N   1      35.120  13.138  20.046  0.00  0.00     0.173 HD
HETATM   27  C   UNK N   1      35.180  10.652  17.919  0.00  0.00     0.092 A 
HETATM   28  O   UNK N   1      34.920  10.678  20.161  0.00  0.00    -0.268 OA
HETATM   29  C   UNK N   1      35.384  11.400  16.764  0.00  0.00     0.104 A 
ENDBRANCH   1  21
TORSDOF 10
ENDMDL
MODEL 8
REMARK VINA RESULT:      -6.5     12.014     14.504
REMARK  10 active torsions:
REMARK  status: ('A' for Active; 'I' for Inactive)
REMARK    1  A    between atoms: C_2  and  N_1 
REMARK    2  A    between atoms: O_17  and  P_7 
REMARK    3  A    between atoms: O_9  and  P_7 
REMARK    4  A    between atoms: O_21  and  P_7 
REMARK    5  A    between atoms: O_9  and  P_8 
REMARK    6  A    between atoms: O_22  and  P_8 
REMARK    7  A    between atoms: O_23  and  P_8 
REMARK    8  A    between atoms: C_11  and  C_15 
REMARK    9  A    between atoms: C_12  and  O_24 
REMARK   10  A    between atoms: O_17  and  C_15 
ROOT
HETATM    1  C   UNK N   1      31.722  16.434   5.656  0.00  0.00     0.235 C 
HETATM    2  C   UNK N   1      32.804  17.494   5.586  0.00  0.00     0.088 C 
HETATM    3  O   UNK N   1      31.632  15.975   6.991  0.00  0.00    -0.356 OA
HETATM    4  C   UNK N   1      32.776  16.481   7.638  0.00  0.00     0.177 C 
HETATM    5  C   UNK N   1      33.748  16.936   6.585  0.00  0.00     0.153 C 
ENDROOT
BRANCH   4   6
HETATM    6  C   UNK N   1      33.431  15.445   8.548  0.00  0.00     0.215 C 
BRANCH   6   7
HETATM    7  O   UNK N   1      34.829  15.520   8.478  0.00  0.00    -0.294 OA
BRANCH   7   8
HETATM    8  P   UNK N   1      35.374  16.048  10.059  0.00  0.00     0.401 P 
HETATM    9  O   UNK N   1      35.358  17.602  10.092  0.00  0.00    -0.631 OA
BRANCH   8  10
HETATM   10  O   UNK N   1      36.994  15.553  10.492  0.00  0.00    -0.195 OA
BRANCH  10  11
HETATM   11  P   UNK N   1      37.016  13.814  10.564  0.00  0.00     0.399 P 
HETATM   12  O   UNK N   1      38.389  14.142   9.918  0.00  0.00    -0.631 OA
BRANCH  11  13
HETATM   13  O   UNK N   1      36.974  14.437  12.187  0.00  0.00    -0.307 OA
HETATM   14  H   UNK N   1      37.439  15.012  12.815  0.00  0.00     0.222 HD
ENDBRANCH  11  13
BRANCH  11  15
HETATM   15  O   UNK N   1      38.142  12.993  11.599  0.00  0.00    -0.307 OA
HETATM   16  H   UNK N   1      38.598  13.461  12.315  0.00  0.00     0.222 HD
ENDBRANCH  11  15
ENDBRANCH  10  11
ENDBRANCH   8  10
BRANCH   8  17
HETATM   17  O   UNK N   1      34.263  15.511  11.280  0.00  0.00    -0.307 OA
HETATM   18  H   UNK N   1      34.048  15.590  12.223  0.00  0.00     0.222 HD
ENDBRANCH   8  17
ENDBRANCH   7   8
ENDBRANCH   6   7
ENDBRANCH   4   6
BRANCH   5  19
HETATM   19  O   UNK N   1      34.597  17.922   7.086  0.00  0.00    -0.393 OA
HETATM   20  H   UNK N   1      35.470  18.275   6.854  0.00  0.00     0.210 HD
ENDBRANCH   5  19
BRANCH   1  21
HETATM   21  N   UNK N   1      30.448  16.916   5.087  0.00  0.00    -0.282 N 
HETATM   22  C   UNK N   1      30.071  16.747   3.761  0.00  0.00     0.331 A 
HETATM   23  N   UNK N   1      28.884  17.267   3.314  0.00  0.00    -0.275 N 
HETATM   24  O   UNK N   1      30.783  16.145   2.976  0.00  0.00    -0.246 OA
HETATM   25  C   UNK N   1      28.056  17.955   4.158  0.00  0.00     0.250 A 
HETATM   26  H   UNK N   1      28.624  17.144   2.373  0.00  0.00     0.173 HD
HETATM   27  C   UNK N   1      28.414  18.128   5.486  0.00  0.00     0.092 A 
HETATM   28  O   UNK N   1      27.010  18.418   3.742  0.00  0.00    -0.268 OA
HETATM   29  C   UNK N   1      29.622  17.600   5.930  0.00  0.00     0.104 A 
ENDBRANCH   1  21
TORSDOF 10
ENDMDL
MODEL 9
REMARK VINA RESULT:      -6.5      5.658      6.831
REMARK  10 active torsions:
REMARK  status: ('A' for Active; 'I' for Inactive)
REMARK    1  A    between atoms: C_2  and  N_1 
REMARK    2  A    between atoms: O_17  and  P_7 
REMARK    3  A    between atoms: O_9  and  P_7 
REMARK    4  A    between atoms: O_21  and  P_7 
REMARK    5  A    between atoms: O_9  and  P_8 
REMARK    6  A    between atoms: O_22  and  P_8 
REMARK    7  A    between atoms: O_23  and  P_8 
REMARK    8  A    between atoms: C_11  and  C_15 
REMARK    9  A    between atoms: C_12  and  O_24 
REMARK   10  A    between atoms: O_17  and  C_15 
ROOT
HETATM    1  C   UNK N   1      26.368  19.356   5.046  0.00  0.00     0.235 C 
HETATM    2  C   UNK N   1      26.647  20.196   3.815  0.00  0.00     0.088 C 
HETATM    3  O   UNK N   1      25.215  18.573   4.800  0.00  0.00    -0.356 OA
HETATM    4  C   UNK N   1      24.641  19.111   3.631  0.00  0.00     0.177 C 
HETATM    5  C   UNK N   1      25.252  20.462   3.387  0.00  0.00     0.153 C 
ENDROOT
BRANCH   4   6
HETATM    6  C   UNK N   1      23.123  19.229   3.735  0.00  0.00     0.215 C 
BRANCH   6   7
HETATM    7  O   UNK N   1      22.627  20.191   2.843  0.00  0.00    -0.294 OA
BRANCH   7   8
HETATM    8  P   UNK N   1      20.896  19.930   2.750  0.00  0.00     0.401 P 
HETATM    9  O   UNK N   1      20.210  20.772   3.861  0.00  0.00    -0.631 OA
BRANCH   8  10
HETATM   10  O   UNK N   1      20.379  18.276   2.982  0.00  0.00    -0.195 OA
BRANCH  10  11
HETATM   11  P   UNK N   1      20.302  17.519   1.417  0.00  0.00     0.399 P 
HETATM   12  O   UNK N   1      20.667  16.331   2.348  0.00  0.00    -0.631 OA
BRANCH  11  13
HETATM   13  O   UNK N   1      18.720  18.113   1.824  0.00  0.00    -0.307 OA
HETATM   14  H   UNK N   1      17.904  18.482   1.451  0.00  0.00     0.222 HD
ENDBRANCH  11  13
BRANCH  11  15
HETATM   15  O   UNK N   1      19.066  16.352   1.065  0.00  0.00    -0.307 OA
HETATM   16  H   UNK N   1      18.868  16.091   0.152  0.00  0.00     0.222 HD
ENDBRANCH  11  15
ENDBRANCH  10  11
ENDBRANCH   8  10
BRANCH   8  17
HETATM   17  O   UNK N   1      20.288  20.515   1.232  0.00  0.00    -0.307 OA
HETATM   18  H   UNK N   1      19.488  20.841   0.790  0.00  0.00     0.222 HD
ENDBRANCH   8  17
ENDBRANCH   7   8
ENDBRANCH   6   7
ENDBRANCH   4   6
BRANCH   5  19
HETATM   19  O   UNK N   1      25.193  20.797   2.035  0.00  0.00    -0.393 OA
HETATM   20  H   UNK N   1      25.833  21.032   1.346  0.00  0.00     0.210 HD
ENDBRANCH   5  19
BRANCH   1  21
HETATM   21  N   UNK N   1      27.555  18.583   5.461  0.00  0.00    -0.282 N 
HETATM   22  C   UNK N   1      28.179  18.713   6.695  0.00  0.00     0.331 A 
HETATM   23  N   UNK N   1      29.303  17.981   6.975  0.00  0.00    -0.275 N 
HETATM   24  O   UNK N   1      27.747  19.477   7.542  0.00  0.00    -0.246 OA
HETATM   25  C   UNK N   1      29.827  17.117   6.053  0.00  0.00     0.250 A 
HETATM   26  H   UNK N   1      29.741  18.079   7.852  0.00  0.00     0.173 HD
HETATM   27  C   UNK N   1      29.214  16.970   4.819  0.00  0.00     0.092 A 
HETATM   28  O   UNK N   1      30.831  16.481   6.315  0.00  0.00    -0.268 OA
HETATM   29  C   UNK N   1      28.074  17.719   4.542  0.00  0.00     0.104 A 
ENDBRANCH   1  21
TORSDOF 10
ENDMDL
