REMARK  5 active torsions:
REMARK  status: ('A' for Active; 'I' for Inactive)
REMARK    1  A    between atoms: C_4  and  C_2 
REMARK    2  A    between atoms: O_9  and  C_3 
REMARK    3  A    between atoms: C_5  and  C_4 
REMARK    4  A    between atoms: C_4  and  N_6 
REMARK    5  A    between atoms: O_8  and  C_5 
ROOT
HETATM    1  C   UNK N   1       1.589  -0.895   0.469  0.00  0.00     0.198 C 
ENDROOT
BRANCH   1   2
HETATM    2  C   UNK N   1       0.953   0.350  -0.119  0.00  0.00     0.032 C 
HETATM    3  C   UNK N   1      -0.371   0.562  -0.192  0.00  0.00     0.132 C 
BRANCH   3   4
HETATM    4  O   UNK N   1      -1.259  -0.352   0.255  0.00  0.00    -0.368 OA
HETATM    5  C   UNK N   1      -2.610  -0.142   0.127  0.00  0.00     0.208 C 
ENDBRANCH   3   4
ENDBRANCH   1   2
BRANCH   1   6
HETATM    6  C   UNK N   1       1.250  -2.165  -0.286  0.00  0.00     0.167 C 
HETATM    7  O   UNK N   1       2.135  -2.838  -0.795  0.00  0.00    -0.648 OA
BRANCH   6   8
HETATM    8  O   UNK N   1      -0.023  -2.596  -0.362  0.00  0.00    -0.775 OA
HETATM    9  H   UNK N   1      -0.725  -1.979  -0.415  0.00  0.00     0.167 HD
ENDBRANCH   6   8
ENDBRANCH   1   6
BRANCH   1  10
HETATM   10  N   UNK N   1       3.034  -0.708   0.482  0.00  0.00    -0.415 N 
HETATM   11  H   UNK N   1       3.653  -1.519   0.491  0.00  0.00     0.151 HD
HETATM   12  H   UNK N   1       3.426   0.233   0.482  0.00  0.00     0.151 HD
ENDBRANCH   1  10
TORSDOF 5
