MODEL 1
REMARK VINA RESULT:      -4.3      0.000      0.000
REMARK  15 active torsions:
REMARK  status: ('A' for Active; 'I' for Inactive)
REMARK    1  A    between atoms: C_2  and  C_3 
REMARK    2  A    between atoms: C_3  and  C_4 
REMARK    3  A    between atoms: C_4  and  C_5 
REMARK    4  A    between atoms: C_5  and  C_6 
REMARK    5  A    between atoms: C_6  and  C_7 
REMARK    6  A    between atoms: C_7  and  C_8 
REMARK    7  A    between atoms: C_8  and  C_9 
REMARK    8  A    between atoms: C_9  and  C_10 
REMARK    9  A    between atoms: C_10  and  C_11 
REMARK   10  A    between atoms: C_11  and  C_12 
REMARK   11  A    between atoms: C_12  and  C_13 
REMARK   12  A    between atoms: C_13  and  C_14 
REMARK   13  A    between atoms: C_14  and  C_15 
REMARK   14  A    between atoms: C_15  and  C_16 
REMARK   15  A    between atoms: C_16  and  O_17 
ROOT
HETATM    1  C   UNK N   1      28.980  28.533  -5.733  0.00  0.00     0.000 C 
ENDROOT
BRANCH   1   2
HETATM    2  C   UNK N   1      27.577  29.028  -5.916  0.00  0.00     0.000 C 
BRANCH   2   3
HETATM    3  C   UNK N   1      27.244  30.004  -4.814  0.00  0.00     0.000 C 
BRANCH   3   4
HETATM    4  C   UNK N   1      26.831  29.168  -3.638  0.00  0.00     0.000 C 
BRANCH   4   5
HETATM    5  C   UNK N   1      25.724  28.201  -3.967  0.00  0.00     0.000 C 
BRANCH   5   6
HETATM    6  C   UNK N   1      26.151  26.918  -3.302  0.00  0.00     0.000 C 
BRANCH   6   7
HETATM    7  C   UNK N   1      26.241  25.754  -4.252  0.00  0.00     0.000 C 
BRANCH   7   8
HETATM    8  C   UNK N   1      25.392  26.139  -5.441  0.00  0.00    -0.000 C 
BRANCH   8   9
HETATM    9  C   UNK N   1      25.790  25.367  -6.673  0.00  0.00    -0.005 C 
HETATM   10  C   UNK N   1      25.861  26.333  -7.837  0.00  0.00     0.005 C 
ENDBRANCH   8   9
ENDBRANCH   7   8
ENDBRANCH   6   7
ENDBRANCH   5   6
ENDBRANCH   4   5
ENDBRANCH   3   4
ENDBRANCH   2   3
ENDBRANCH   1   2
BRANCH   1  11
HETATM   11  C   UNK N   1      29.104  27.128  -6.268  0.00  0.00     0.000 C 
BRANCH  11  12
HETATM   12  C   UNK N   1      30.163  26.477  -5.425  0.00  0.00     0.000 C 
BRANCH  12  13
HETATM   13  C   UNK N   1      29.739  26.256  -3.998  0.00  0.00     0.001 C 
BRANCH  13  14
HETATM   14  C   UNK N   1      30.440  24.980  -3.613  0.00  0.00     0.010 C 
BRANCH  14  15
HETATM   15  C   UNK N   1      29.540  23.765  -3.649  0.00  0.00     0.110 C 
BRANCH  15  16
HETATM   16  C   UNK N   1      29.317  23.242  -2.259  0.00  0.00     0.139 C 
HETATM   17  O   UNK N   1      28.183  23.063  -1.827  0.00  0.00    -0.650 OA
BRANCH  16  18
HETATM   18  O   UNK N   1      30.372  22.966  -1.475  0.00  0.00    -0.776 OA
HETATM   19  H   UNK N   1      30.243  22.546  -0.647  0.00  0.00     0.167 HD
ENDBRANCH  16  18
ENDBRANCH  15  16
ENDBRANCH  14  15
ENDBRANCH  13  14
ENDBRANCH  12  13
ENDBRANCH  11  12
ENDBRANCH   1  11
TORSDOF 15
ENDMDL
MODEL 2
REMARK VINA RESULT:      -4.2      3.059      6.295
REMARK  15 active torsions:
REMARK  status: ('A' for Active; 'I' for Inactive)
REMARK    1  A    between atoms: C_2  and  C_3 
REMARK    2  A    between atoms: C_3  and  C_4 
REMARK    3  A    between atoms: C_4  and  C_5 
REMARK    4  A    between atoms: C_5  and  C_6 
REMARK    5  A    between atoms: C_6  and  C_7 
REMARK    6  A    between atoms: C_7  and  C_8 
REMARK    7  A    between atoms: C_8  and  C_9 
REMARK    8  A    between atoms: C_9  and  C_10 
REMARK    9  A    between atoms: C_10  and  C_11 
REMARK   10  A    between atoms: C_11  and  C_12 
REMARK   11  A    between atoms: C_12  and  C_13 
REMARK   12  A    between atoms: C_13  and  C_14 
REMARK   13  A    between atoms: C_14  and  C_15 
REMARK   14  A    between atoms: C_15  and  C_16 
REMARK   15  A    between atoms: C_16  and  O_17 
ROOT
HETATM    1  C   UNK N   1      27.029  24.576  -3.774  0.00  0.00     0.000 C 
ENDROOT
BRANCH   1   2
HETATM    2  C   UNK N   1      28.246  25.168  -4.417  0.00  0.00     0.000 C 
BRANCH   2   3
HETATM    3  C   UNK N   1      29.472  24.760  -3.637  0.00  0.00     0.000 C 
BRANCH   3   4
HETATM    4  C   UNK N   1      29.199  23.370  -3.142  0.00  0.00     0.000 C 
BRANCH   4   5
HETATM    5  C   UNK N   1      30.202  22.905  -2.119  0.00  0.00     0.000 C 
BRANCH   5   6
HETATM    6  C   UNK N   1      31.118  21.993  -2.893  0.00  0.00     0.000 C 
BRANCH   6   7
HETATM    7  C   UNK N   1      30.395  21.135  -3.898  0.00  0.00     0.000 C 
BRANCH   7   8
HETATM    8  C   UNK N   1      31.457  20.246  -4.504  0.00  0.00    -0.000 C 
BRANCH   8   9
HETATM    9  C   UNK N   1      31.498  20.386  -6.004  0.00  0.00    -0.005 C 
HETATM   10  C   UNK N   1      30.081  20.571  -6.504  0.00  0.00     0.005 C 
ENDBRANCH   8   9
ENDBRANCH   7   8
ENDBRANCH   6   7
ENDBRANCH   5   6
ENDBRANCH   4   5
ENDBRANCH   3   4
ENDBRANCH   2   3
ENDBRANCH   1   2
BRANCH   1  11
HETATM   11  C   UNK N   1      25.924  24.439  -4.792  0.00  0.00     0.000 C 
BRANCH  11  12
HETATM   12  C   UNK N   1      26.420  25.160  -6.012  0.00  0.00     0.000 C 
BRANCH  12  13
HETATM   13  C   UNK N   1      25.372  26.019  -6.667  0.00  0.00     0.001 C 
BRANCH  13  14
HETATM   14  C   UNK N   1      24.967  26.978  -5.579  0.00  0.00     0.010 C 
BRANCH  14  15
HETATM   15  C   UNK N   1      26.035  27.995  -5.246  0.00  0.00     0.110 C 
BRANCH  15  16
HETATM   16  C   UNK N   1      25.830  28.528  -3.857  0.00  0.00     0.139 C 
HETATM   17  O   UNK N   1      25.533  27.781  -2.931  0.00  0.00    -0.650 OA
BRANCH  16  18
HETATM   18  O   UNK N   1      25.974  29.843  -3.622  0.00  0.00    -0.776 OA
HETATM   19  H   UNK N   1      26.541  30.356  -4.163  0.00  0.00     0.167 HD
ENDBRANCH  16  18
ENDBRANCH  15  16
ENDBRANCH  14  15
ENDBRANCH  13  14
ENDBRANCH  12  13
ENDBRANCH  11  12
ENDBRANCH   1  11
TORSDOF 15
ENDMDL
MODEL 3
REMARK VINA RESULT:      -4.2      2.388      3.800
REMARK  15 active torsions:
REMARK  status: ('A' for Active; 'I' for Inactive)
REMARK    1  A    between atoms: C_2  and  C_3 
REMARK    2  A    between atoms: C_3  and  C_4 
REMARK    3  A    between atoms: C_4  and  C_5 
REMARK    4  A    between atoms: C_5  and  C_6 
REMARK    5  A    between atoms: C_6  and  C_7 
REMARK    6  A    between atoms: C_7  and  C_8 
REMARK    7  A    between atoms: C_8  and  C_9 
REMARK    8  A    between atoms: C_9  and  C_10 
REMARK    9  A    between atoms: C_10  and  C_11 
REMARK   10  A    between atoms: C_11  and  C_12 
REMARK   11  A    between atoms: C_12  and  C_13 
REMARK   12  A    between atoms: C_13  and  C_14 
REMARK   13  A    between atoms: C_14  and  C_15 
REMARK   14  A    between atoms: C_15  and  C_16 
REMARK   15  A    between atoms: C_16  and  O_17 
ROOT
HETATM    1  C   UNK N   1      27.677  23.401  -5.913  0.00  0.00     0.000 C 
ENDROOT
BRANCH   1   2
HETATM    2  C   UNK N   1      28.222  24.390  -4.928  0.00  0.00     0.000 C 
BRANCH   2   3
HETATM    3  C   UNK N   1      27.369  24.377  -3.683  0.00  0.00     0.000 C 
BRANCH   3   4
HETATM    4  C   UNK N   1      26.277  25.378  -3.925  0.00  0.00     0.000 C 
BRANCH   4   5
HETATM    5  C   UNK N   1      26.573  26.725  -3.319  0.00  0.00     0.000 C 
BRANCH   5   6
HETATM    6  C   UNK N   1      25.628  27.660  -4.028  0.00  0.00     0.000 C 
BRANCH   6   7
HETATM    7  C   UNK N   1      25.582  27.447  -5.518  0.00  0.00     0.000 C 
BRANCH   7   8
HETATM    8  C   UNK N   1      26.844  28.083  -6.053  0.00  0.00    -0.000 C 
BRANCH   8   9
HETATM    9  C   UNK N   1      27.369  27.334  -7.253  0.00  0.00    -0.005 C 
HETATM   10  C   UNK N   1      26.302  26.362  -7.710  0.00  0.00     0.005 C 
ENDBRANCH   8   9
ENDBRANCH   7   8
ENDBRANCH   6   7
ENDBRANCH   5   6
ENDBRANCH   4   5
ENDBRANCH   3   4
ENDBRANCH   2   3
ENDBRANCH   1   2
BRANCH   1  11
HETATM   11  C   UNK N   1      28.803  22.807  -6.722  0.00  0.00     0.000 C 
BRANCH  11  12
HETATM   12  C   UNK N   1      29.933  22.622  -5.750  0.00  0.00     0.000 C 
BRANCH  12  13
HETATM   13  C   UNK N   1      30.137  21.190  -5.334  0.00  0.00     0.001 C 
BRANCH  13  14
HETATM   14  C   UNK N   1      30.233  21.266  -3.834  0.00  0.00     0.010 C 
BRANCH  14  15
HETATM   15  C   UNK N   1      31.228  22.296  -3.346  0.00  0.00     0.110 C 
BRANCH  15  16
HETATM   16  C   UNK N   1      32.570  21.658  -3.124  0.00  0.00     0.139 C 
HETATM   17  O   UNK N   1      33.426  21.668  -4.002  0.00  0.00    -0.650 OA
BRANCH  16  18
HETATM   18  O   UNK N   1      32.838  21.068  -1.948  0.00  0.00    -0.776 OA
HETATM   19  H   UNK N   1      33.119  21.584  -1.218  0.00  0.00     0.167 HD
ENDBRANCH  16  18
ENDBRANCH  15  16
ENDBRANCH  14  15
ENDBRANCH  13  14
ENDBRANCH  12  13
ENDBRANCH  11  12
ENDBRANCH   1  11
TORSDOF 15
ENDMDL
MODEL 4
REMARK VINA RESULT:      -4.2      1.990      4.025
REMARK  15 active torsions:
REMARK  status: ('A' for Active; 'I' for Inactive)
REMARK    1  A    between atoms: C_2  and  C_3 
REMARK    2  A    between atoms: C_3  and  C_4 
REMARK    3  A    between atoms: C_4  and  C_5 
REMARK    4  A    between atoms: C_5  and  C_6 
REMARK    5  A    between atoms: C_6  and  C_7 
REMARK    6  A    between atoms: C_7  and  C_8 
REMARK    7  A    between atoms: C_8  and  C_9 
REMARK    8  A    between atoms: C_9  and  C_10 
REMARK    9  A    between atoms: C_10  and  C_11 
REMARK   10  A    between atoms: C_11  and  C_12 
REMARK   11  A    between atoms: C_12  and  C_13 
REMARK   12  A    between atoms: C_13  and  C_14 
REMARK   13  A    between atoms: C_14  and  C_15 
REMARK   14  A    between atoms: C_15  and  C_16 
REMARK   15  A    between atoms: C_16  and  O_17 
ROOT
HETATM    1  C   UNK N   1      26.920  22.563  -7.135  0.00  0.00     0.000 C 
ENDROOT
BRANCH   1   2
HETATM    2  C   UNK N   1      26.066  23.737  -7.507  0.00  0.00     0.000 C 
BRANCH   2   3
HETATM    3  C   UNK N   1      26.187  24.800  -6.443  0.00  0.00     0.000 C 
BRANCH   3   4
HETATM    4  C   UNK N   1      25.662  24.178  -5.182  0.00  0.00     0.000 C 
BRANCH   4   5
HETATM    5  C   UNK N   1      26.409  24.627  -3.953  0.00  0.00     0.000 C 
BRANCH   5   6
HETATM    6  C   UNK N   1      26.765  26.062  -4.246  0.00  0.00     0.000 C 
BRANCH   6   7
HETATM    7  C   UNK N   1      26.124  27.041  -3.298  0.00  0.00     0.000 C 
BRANCH   7   8
HETATM    8  C   UNK N   1      25.732  28.226  -4.150  0.00  0.00    -0.000 C 
BRANCH   8   9
HETATM    9  C   UNK N   1      26.594  28.325  -5.383  0.00  0.00    -0.005 C 
HETATM   10  C   UNK N   1      27.476  29.549  -5.249  0.00  0.00     0.005 C 
ENDBRANCH   8   9
ENDBRANCH   7   8
ENDBRANCH   6   7
ENDBRANCH   5   6
ENDBRANCH   4   5
ENDBRANCH   3   4
ENDBRANCH   2   3
ENDBRANCH   1   2
BRANCH   1  11
HETATM   11  C   UNK N   1      28.377  22.949  -7.186  0.00  0.00     0.000 C 
BRANCH  11  12
HETATM   12  C   UNK N   1      28.943  22.533  -5.859  0.00  0.00     0.000 C 
BRANCH  12  13
HETATM   13  C   UNK N   1      29.783  21.287  -5.930  0.00  0.00     0.001 C 
BRANCH  13  14
HETATM   14  C   UNK N   1      30.480  21.250  -4.596  0.00  0.00     0.010 C 
BRANCH  14  15
HETATM   15  C   UNK N   1      30.539  22.598  -3.911  0.00  0.00     0.110 C 
BRANCH  15  16
HETATM   16  C   UNK N   1      31.079  22.450  -2.518  0.00  0.00     0.139 C 
HETATM   17  O   UNK N   1      32.107  21.817  -2.304  0.00  0.00    -0.650 OA
BRANCH  16  18
HETATM   18  O   UNK N   1      30.429  23.017  -1.489  0.00  0.00    -0.776 OA
HETATM   19  H   UNK N   1      30.912  23.420  -0.794  0.00  0.00     0.167 HD
ENDBRANCH  16  18
ENDBRANCH  15  16
ENDBRANCH  14  15
ENDBRANCH  13  14
ENDBRANCH  12  13
ENDBRANCH  11  12
ENDBRANCH   1  11
TORSDOF 15
ENDMDL
MODEL 5
REMARK VINA RESULT:      -4.1      1.472      3.461
REMARK  15 active torsions:
REMARK  status: ('A' for Active; 'I' for Inactive)
REMARK    1  A    between atoms: C_2  and  C_3 
REMARK    2  A    between atoms: C_3  and  C_4 
REMARK    3  A    between atoms: C_4  and  C_5 
REMARK    4  A    between atoms: C_5  and  C_6 
REMARK    5  A    between atoms: C_6  and  C_7 
REMARK    6  A    between atoms: C_7  and  C_8 
REMARK    7  A    between atoms: C_8  and  C_9 
REMARK    8  A    between atoms: C_9  and  C_10 
REMARK    9  A    between atoms: C_10  and  C_11 
REMARK   10  A    between atoms: C_11  and  C_12 
REMARK   11  A    between atoms: C_12  and  C_13 
REMARK   12  A    between atoms: C_13  and  C_14 
REMARK   13  A    between atoms: C_14  and  C_15 
REMARK   14  A    between atoms: C_15  and  C_16 
REMARK   15  A    between atoms: C_16  and  O_17 
ROOT
HETATM    1  C   UNK N   1      27.309  24.128  -6.930  0.00  0.00     0.000 C 
ENDROOT
BRANCH   1   2
HETATM    2  C   UNK N   1      25.886  24.546  -7.144  0.00  0.00     0.000 C 
BRANCH   2   3
HETATM    3  C   UNK N   1      25.859  25.880  -7.850  0.00  0.00     0.000 C 
BRANCH   3   4
HETATM    4  C   UNK N   1      25.929  26.917  -6.768  0.00  0.00     0.000 C 
BRANCH   4   5
HETATM    5  C   UNK N   1      24.915  26.694  -5.676  0.00  0.00     0.000 C 
BRANCH   5   6
HETATM    6  C   UNK N   1      25.385  27.584  -4.554  0.00  0.00     0.000 C 
BRANCH   6   7
HETATM    7  C   UNK N   1      26.836  27.970  -4.666  0.00  0.00     0.000 C 
BRANCH   7   8
HETATM    8  C   UNK N   1      26.973  29.250  -3.874  0.00  0.00    -0.000 C 
BRANCH   8   9
HETATM    9  C   UNK N   1      27.377  30.402  -4.759  0.00  0.00    -0.005 C 
HETATM   10  C   UNK N   1      28.151  29.849  -5.937  0.00  0.00     0.005 C 
ENDBRANCH   8   9
ENDBRANCH   7   8
ENDBRANCH   6   7
ENDBRANCH   5   6
ENDBRANCH   4   5
ENDBRANCH   3   4
ENDBRANCH   2   3
ENDBRANCH   1   2
BRANCH   1  11
HETATM   11  C   UNK N   1      27.565  23.908  -5.460  0.00  0.00     0.000 C 
BRANCH  11  12
HETATM   12  C   UNK N   1      28.957  24.419  -5.220  0.00  0.00     0.000 C 
BRANCH  12  13
HETATM   13  C   UNK N   1      29.123  25.099  -3.888  0.00  0.00     0.001 C 
BRANCH  13  14
HETATM   14  C   UNK N   1      30.561  24.832  -3.530  0.00  0.00     0.010 C 
BRANCH  14  15
HETATM   15  C   UNK N   1      30.984  23.399  -3.768  0.00  0.00     0.110 C 
BRANCH  15  16
HETATM   16  C   UNK N   1      31.105  22.669  -2.460  0.00  0.00     0.139 C 
HETATM   17  O   UNK N   1      31.882  21.730  -2.331  0.00  0.00    -0.650 OA
BRANCH  16  18
HETATM   18  O   UNK N   1      30.350  23.048  -1.416  0.00  0.00    -0.776 OA
HETATM   19  H   UNK N   1      29.537  23.491  -1.561  0.00  0.00     0.167 HD
ENDBRANCH  16  18
ENDBRANCH  15  16
ENDBRANCH  14  15
ENDBRANCH  13  14
ENDBRANCH  12  13
ENDBRANCH  11  12
ENDBRANCH   1  11
TORSDOF 15
ENDMDL
MODEL 6
REMARK VINA RESULT:      -4.0     10.427     14.157
REMARK  15 active torsions:
REMARK  status: ('A' for Active; 'I' for Inactive)
REMARK    1  A    between atoms: C_2  and  C_3 
REMARK    2  A    between atoms: C_3  and  C_4 
REMARK    3  A    between atoms: C_4  and  C_5 
REMARK    4  A    between atoms: C_5  and  C_6 
REMARK    5  A    between atoms: C_6  and  C_7 
REMARK    6  A    between atoms: C_7  and  C_8 
REMARK    7  A    between atoms: C_8  and  C_9 
REMARK    8  A    between atoms: C_9  and  C_10 
REMARK    9  A    between atoms: C_10  and  C_11 
REMARK   10  A    between atoms: C_11  and  C_12 
REMARK   11  A    between atoms: C_12  and  C_13 
REMARK   12  A    between atoms: C_13  and  C_14 
REMARK   13  A    between atoms: C_14  and  C_15 
REMARK   14  A    between atoms: C_15  and  C_16 
REMARK   15  A    between atoms: C_16  and  O_17 
ROOT
HETATM    1  C   UNK N   1      27.816  18.718   6.398  0.00  0.00     0.000 C 
ENDROOT
BRANCH   1   2
HETATM    2  C   UNK N   1      28.727  17.954   7.310  0.00  0.00     0.000 C 
BRANCH   2   3
HETATM    3  C   UNK N   1      28.782  18.641   8.653  0.00  0.00     0.000 C 
BRANCH   3   4
HETATM    4  C   UNK N   1      30.222  18.604   9.074  0.00  0.00     0.000 C 
BRANCH   4   5
HETATM    5  C   UNK N   1      30.931  17.354   8.622  0.00  0.00     0.000 C 
BRANCH   5   6
HETATM    6  C   UNK N   1      32.366  17.786   8.462  0.00  0.00     0.000 C 
BRANCH   6   7
HETATM    7  C   UNK N   1      32.860  17.698   7.042  0.00  0.00     0.000 C 
BRANCH   7   8
HETATM    8  C   UNK N   1      31.945  16.709   6.358  0.00  0.00    -0.000 C 
BRANCH   8   9
HETATM    9  C   UNK N   1      32.382  16.449   4.939  0.00  0.00    -0.005 C 
HETATM   10  C   UNK N   1      32.051  17.671   4.108  0.00  0.00     0.005 C 
ENDBRANCH   8   9
ENDBRANCH   7   8
ENDBRANCH   6   7
ENDBRANCH   5   6
ENDBRANCH   4   5
ENDBRANCH   3   4
ENDBRANCH   2   3
ENDBRANCH   1   2
BRANCH   1  11
HETATM   11  C   UNK N   1      28.545  19.082   5.129  0.00  0.00     0.000 C 
BRANCH  11  12
HETATM   12  C   UNK N   1      27.518  18.971   4.038  0.00  0.00     0.000 C 
BRANCH  12  13
HETATM   13  C   UNK N   1      26.376  18.054   4.384  0.00  0.00     0.001 C 
BRANCH  13  14
HETATM   14  C   UNK N   1      25.294  18.454   3.416  0.00  0.00     0.010 C 
BRANCH  14  15
HETATM   15  C   UNK N   1      24.390  19.547   3.942  0.00  0.00     0.110 C 
BRANCH  15  16
HETATM   16  C   UNK N   1      24.199  20.611   2.900  0.00  0.00     0.139 C 
HETATM   17  O   UNK N   1      25.039  20.797   2.026  0.00  0.00    -0.650 OA
BRANCH  16  18
HETATM   18  O   UNK N   1      23.093  21.373   2.923  0.00  0.00    -0.776 OA
HETATM   19  H   UNK N   1      22.645  21.523   3.732  0.00  0.00     0.167 HD
ENDBRANCH  16  18
ENDBRANCH  15  16
ENDBRANCH  14  15
ENDBRANCH  13  14
ENDBRANCH  12  13
ENDBRANCH  11  12
ENDBRANCH   1  11
TORSDOF 15
ENDMDL
MODEL 7
REMARK VINA RESULT:      -4.0      2.507      5.036
REMARK  15 active torsions:
REMARK  status: ('A' for Active; 'I' for Inactive)
REMARK    1  A    between atoms: C_2  and  C_3 
REMARK    2  A    between atoms: C_3  and  C_4 
REMARK    3  A    between atoms: C_4  and  C_5 
REMARK    4  A    between atoms: C_5  and  C_6 
REMARK    5  A    between atoms: C_6  and  C_7 
REMARK    6  A    between atoms: C_7  and  C_8 
REMARK    7  A    between atoms: C_8  and  C_9 
REMARK    8  A    between atoms: C_9  and  C_10 
REMARK    9  A    between atoms: C_10  and  C_11 
REMARK   10  A    between atoms: C_11  and  C_12 
REMARK   11  A    between atoms: C_12  and  C_13 
REMARK   12  A    between atoms: C_13  and  C_14 
REMARK   13  A    between atoms: C_14  and  C_15 
REMARK   14  A    between atoms: C_15  and  C_16 
REMARK   15  A    between atoms: C_16  and  O_17 
ROOT
HETATM    1  C   UNK N   1      27.369  25.661  -8.614  0.00  0.00     0.000 C 
ENDROOT
BRANCH   1   2
HETATM    2  C   UNK N   1      26.093  25.645  -7.828  0.00  0.00     0.000 C 
BRANCH   2   3
HETATM    3  C   UNK N   1      25.632  24.219  -7.652  0.00  0.00     0.000 C 
BRANCH   3   4
HETATM    4  C   UNK N   1      26.145  23.784  -6.311  0.00  0.00     0.000 C 
BRANCH   4   5
HETATM    5  C   UNK N   1      25.701  24.690  -5.192  0.00  0.00     0.000 C 
BRANCH   5   6
HETATM    6  C   UNK N   1      26.687  24.416  -4.087  0.00  0.00     0.000 C 
BRANCH   6   7
HETATM    7  C   UNK N   1      27.858  25.363  -4.082  0.00  0.00     0.000 C 
BRANCH   7   8
HETATM    8  C   UNK N   1      29.086  24.484  -4.129  0.00  0.00    -0.000 C 
BRANCH   8   9
HETATM    9  C   UNK N   1      30.342  25.283  -3.889  0.00  0.00    -0.005 C 
HETATM   10  C   UNK N   1      30.216  26.599  -4.627  0.00  0.00     0.005 C 
ENDBRANCH   8   9
ENDBRANCH   7   8
ENDBRANCH   6   7
ENDBRANCH   5   6
ENDBRANCH   4   5
ENDBRANCH   3   4
ENDBRANCH   2   3
ENDBRANCH   1   2
BRANCH   1  11
HETATM   11  C   UNK N   1      28.327  26.663  -8.021  0.00  0.00     0.000 C 
BRANCH  11  12
HETATM   12  C   UNK N   1      27.476  27.576  -7.186  0.00  0.00     0.000 C 
BRANCH  12  13
HETATM   13  C   UNK N   1      28.166  28.861  -6.812  0.00  0.00     0.001 C 
BRANCH  13  14
HETATM   14  C   UNK N   1      27.558  29.216  -5.481  0.00  0.00     0.010 C 
BRANCH  14  15
HETATM   15  C   UNK N   1      26.369  28.356  -5.114  0.00  0.00     0.110 C 
BRANCH  15  16
HETATM   16  C   UNK N   1      25.926  28.653  -3.710  0.00  0.00     0.139 C 
HETATM   17  O   UNK N   1      25.492  27.766  -2.984  0.00  0.00    -0.650 OA
BRANCH  16  18
HETATM   18  O   UNK N   1      26.006  29.909  -3.240  0.00  0.00    -0.776 OA
HETATM   19  H   UNK N   1      26.237  30.611  -3.816  0.00  0.00     0.167 HD
ENDBRANCH  16  18
ENDBRANCH  15  16
ENDBRANCH  14  15
ENDBRANCH  13  14
ENDBRANCH  12  13
ENDBRANCH  11  12
ENDBRANCH   1  11
TORSDOF 15
ENDMDL
MODEL 8
REMARK VINA RESULT:      -4.0      2.078      4.039
REMARK  15 active torsions:
REMARK  status: ('A' for Active; 'I' for Inactive)
REMARK    1  A    between atoms: C_2  and  C_3 
REMARK    2  A    between atoms: C_3  and  C_4 
REMARK    3  A    between atoms: C_4  and  C_5 
REMARK    4  A    between atoms: C_5  and  C_6 
REMARK    5  A    between atoms: C_6  and  C_7 
REMARK    6  A    between atoms: C_7  and  C_8 
REMARK    7  A    between atoms: C_8  and  C_9 
REMARK    8  A    between atoms: C_9  and  C_10 
REMARK    9  A    between atoms: C_10  and  C_11 
REMARK   10  A    between atoms: C_11  and  C_12 
REMARK   11  A    between atoms: C_12  and  C_13 
REMARK   12  A    between atoms: C_13  and  C_14 
REMARK   13  A    between atoms: C_14  and  C_15 
REMARK   14  A    between atoms: C_15  and  C_16 
REMARK   15  A    between atoms: C_16  and  O_17 
ROOT
HETATM    1  C   UNK N   1      26.319  24.143  -4.249  0.00  0.00     0.000 C 
ENDROOT
BRANCH   1   2
HETATM    2  C   UNK N   1      27.118  24.231  -5.515  0.00  0.00     0.000 C 
BRANCH   2   3
HETATM    3  C   UNK N   1      26.482  25.241  -6.438  0.00  0.00     0.000 C 
BRANCH   3   4
HETATM    4  C   UNK N   1      25.252  25.728  -5.728  0.00  0.00     0.000 C 
BRANCH   4   5
HETATM    5  C   UNK N   1      25.014  27.204  -5.916  0.00  0.00     0.000 C 
BRANCH   5   6
HETATM    6  C   UNK N   1      25.520  27.820  -4.638  0.00  0.00     0.000 C 
BRANCH   6   7
HETATM    7  C   UNK N   1      26.850  28.510  -4.793  0.00  0.00     0.000 C 
BRANCH   7   8
HETATM    8  C   UNK N   1      27.773  27.827  -3.810  0.00  0.00    -0.000 C 
BRANCH   8   9
HETATM    9  C   UNK N   1      28.957  27.208  -4.509  0.00  0.00    -0.005 C 
HETATM   10  C   UNK N   1      30.159  27.317  -3.595  0.00  0.00     0.005 C 
ENDBRANCH   8   9
ENDBRANCH   7   8
ENDBRANCH   6   7
ENDBRANCH   5   6
ENDBRANCH   4   5
ENDBRANCH   3   4
ENDBRANCH   2   3
ENDBRANCH   1   2
BRANCH   1  11
HETATM   11  C   UNK N   1      27.238  24.199  -3.055  0.00  0.00     0.000 C 
BRANCH  11  12
HETATM   12  C   UNK N   1      28.557  23.677  -3.548  0.00  0.00     0.000 C 
BRANCH  12  13
HETATM   13  C   UNK N   1      29.421  23.108  -2.455  0.00  0.00     0.001 C 
BRANCH  13  14
HETATM   14  C   UNK N   1      30.822  23.307  -2.970  0.00  0.00     0.010 C 
BRANCH  14  15
HETATM   15  C   UNK N   1      31.683  22.068  -2.863  0.00  0.00     0.110 C 
BRANCH  15  16
HETATM   16  C   UNK N   1      31.558  21.238  -4.109  0.00  0.00     0.139 C 
HETATM   17  O   UNK N   1      31.470  21.766  -5.212  0.00  0.00    -0.650 OA
BRANCH  16  18
HETATM   18  O   UNK N   1      31.542  19.899  -4.016  0.00  0.00    -0.776 OA
HETATM   19  H   UNK N   1      30.814  19.414  -4.353  0.00  0.00     0.167 HD
ENDBRANCH  16  18
ENDBRANCH  15  16
ENDBRANCH  14  15
ENDBRANCH  13  14
ENDBRANCH  12  13
ENDBRANCH  11  12
ENDBRANCH   1  11
TORSDOF 15
ENDMDL
MODEL 9
REMARK VINA RESULT:      -4.0      1.414      2.841
REMARK  15 active torsions:
REMARK  status: ('A' for Active; 'I' for Inactive)
REMARK    1  A    between atoms: C_2  and  C_3 
REMARK    2  A    between atoms: C_3  and  C_4 
REMARK    3  A    between atoms: C_4  and  C_5 
REMARK    4  A    between atoms: C_5  and  C_6 
REMARK    5  A    between atoms: C_6  and  C_7 
REMARK    6  A    between atoms: C_7  and  C_8 
REMARK    7  A    between atoms: C_8  and  C_9 
REMARK    8  A    between atoms: C_9  and  C_10 
REMARK    9  A    between atoms: C_10  and  C_11 
REMARK   10  A    between atoms: C_11  and  C_12 
REMARK   11  A    between atoms: C_12  and  C_13 
REMARK   12  A    between atoms: C_13  and  C_14 
REMARK   13  A    between atoms: C_14  and  C_15 
REMARK   14  A    between atoms: C_15  and  C_16 
REMARK   15  A    between atoms: C_16  and  O_17 
ROOT
HETATM    1  C   UNK N   1      26.546  26.663  -3.224  0.00  0.00     0.000 C 
ENDROOT
BRANCH   1   2
HETATM    2  C   UNK N   1      25.615  27.769  -3.620  0.00  0.00     0.000 C 
BRANCH   2   3
HETATM    3  C   UNK N   1      25.907  28.183  -5.041  0.00  0.00     0.000 C 
BRANCH   3   4
HETATM    4  C   UNK N   1      26.964  29.245  -4.950  0.00  0.00     0.000 C 
BRANCH   4   5
HETATM    5  C   UNK N   1      27.846  29.299  -6.170  0.00  0.00     0.000 C 
BRANCH   5   6
HETATM    6  C   UNK N   1      28.142  27.853  -6.472  0.00  0.00     0.000 C 
BRANCH   6   7
HETATM    7  C   UNK N   1      27.992  27.504  -7.929  0.00  0.00     0.000 C 
BRANCH   7   8
HETATM    8  C   UNK N   1      27.471  26.086  -7.951  0.00  0.00    -0.000 C 
BRANCH   8   9
HETATM    9  C   UNK N   1      25.967  26.056  -8.050  0.00  0.00    -0.005 C 
HETATM   10  C   UNK N   1      25.587  25.991  -9.514  0.00  0.00     0.005 C 
ENDBRANCH   8   9
ENDBRANCH   7   8
ENDBRANCH   6   7
ENDBRANCH   5   6
ENDBRANCH   4   5
ENDBRANCH   3   4
ENDBRANCH   2   3
ENDBRANCH   1   2
BRANCH   1  11
HETATM   11  C   UNK N   1      26.336  25.468  -4.119  0.00  0.00     0.000 C 
BRANCH  11  12
HETATM   12  C   UNK N   1      27.453  24.522  -3.784  0.00  0.00     0.000 C 
BRANCH  12  13
HETATM   13  C   UNK N   1      28.757  24.881  -4.445  0.00  0.00     0.001 C 
BRANCH  13  14
HETATM   14  C   UNK N   1      29.795  24.386  -3.472  0.00  0.00     0.010 C 
BRANCH  14  15
HETATM   15  C   UNK N   1      29.381  23.133  -2.735  0.00  0.00     0.110 C 
BRANCH  15  16
HETATM   16  C   UNK N   1      30.449  22.083  -2.852  0.00  0.00     0.139 C 
HETATM   17  O   UNK N   1      30.286  21.093  -3.558  0.00  0.00    -0.650 OA
BRANCH  16  18
HETATM   18  O   UNK N   1      31.599  22.228  -2.175  0.00  0.00    -0.776 OA
HETATM   19  H   UNK N   1      32.116  21.476  -1.963  0.00  0.00     0.167 HD
ENDBRANCH  16  18
ENDBRANCH  15  16
ENDBRANCH  14  15
ENDBRANCH  13  14
ENDBRANCH  12  13
ENDBRANCH  11  12
ENDBRANCH   1  11
TORSDOF 15
ENDMDL
