REMARK  10 active torsions:
REMARK  status: ('A' for Active; 'I' for Inactive)
REMARK    1  A    between atoms: C_2  and  N_1 
REMARK    2  A    between atoms: O_17  and  P_7 
REMARK    3  A    between atoms: O_9  and  P_7 
REMARK    4  A    between atoms: O_21  and  P_7 
REMARK    5  A    between atoms: O_9  and  P_8 
REMARK    6  A    between atoms: O_22  and  P_8 
REMARK    7  A    between atoms: O_23  and  P_8 
REMARK    8  A    between atoms: C_11  and  C_15 
REMARK    9  A    between atoms: C_12  and  O_24 
REMARK   10  A    between atoms: O_17  and  C_15 
ROOT
HETATM    1  C   UNK N   1       8.668  -7.361  -0.758  0.00  0.00     0.235 C 
HETATM    2  C   UNK N   1       8.688  -8.640   0.056  0.00  0.00     0.088 C 
HETATM    3  O   UNK N   1       7.329  -6.913  -0.853  0.00  0.00    -0.356 OA
HETATM    4  C   UNK N   1       6.542  -7.991  -0.402  0.00  0.00     0.177 C 
HETATM    5  C   UNK N   1       7.400  -9.225  -0.389  0.00  0.00     0.153 C 
ENDROOT
BRANCH   4   6
HETATM    6  C   UNK N   1       5.311  -8.213  -1.277  0.00  0.00     0.215 C 
BRANCH   6   7
HETATM    7  O   UNK N   1       4.321  -7.256  -1.011  0.00  0.00    -0.294 OA
BRANCH   7   8
HETATM    8  P   UNK N   1       3.554  -7.745   0.488  0.00  0.00     0.401 P 
HETATM    9  O   UNK N   1       3.379  -9.289   0.471  0.00  0.00    -0.631 OA
BRANCH   8  10
HETATM   10  O   UNK N   1       1.969  -7.063   0.770  0.00  0.00    -0.195 OA
BRANCH  10  11
HETATM   11  P   UNK N   1       1.638  -5.938  -0.516  0.00  0.00     0.399 P 
HETATM   12  O   UNK N   1       0.224  -6.477  -0.168  0.00  0.00    -0.631 OA
BRANCH  11  13
HETATM   13  O   UNK N   1       2.275  -5.058   0.841  0.00  0.00    -0.307 OA
HETATM   14  H   UNK N   1       2.878  -5.120   1.599  0.00  0.00     0.222 HD
ENDBRANCH  11  13
BRANCH  11  15
HETATM   15  O   UNK N   1       0.733  -4.490  -0.205  0.00  0.00    -0.307 OA
HETATM   16  H   UNK N   1       1.180  -3.647  -0.032  0.00  0.00     0.222 HD
ENDBRANCH  11  15
ENDBRANCH  10  11
ENDBRANCH   8  10
BRANCH   8  17
HETATM   17  O   UNK N   1       4.587  -7.374   1.833  0.00  0.00    -0.307 OA
HETATM   18  H   UNK N   1       5.055  -7.770   2.585  0.00  0.00     0.222 HD
ENDBRANCH   8  17
ENDBRANCH   7   8
ENDBRANCH   6   7
ENDBRANCH   4   6
BRANCH   5  19
HETATM   19  O   UNK N   1       6.920 -10.154   0.534  0.00  0.00    -0.393 OA
HETATM   20  H   UNK N   1       6.194 -10.188   1.176  0.00  0.00     0.210 HD
ENDBRANCH   5  19
BRANCH   1  21
HETATM   21  N   UNK N   1       9.612  -6.359  -0.225  0.00  0.00    -0.282 N 
HETATM   22  C   UNK N   1       9.241  -5.099   0.226  0.00  0.00     0.331 A 
HETATM   23  N   UNK N   1      10.197  -4.220   0.665  0.00  0.00    -0.275 N 
HETATM   24  O   UNK N   1       8.073  -4.752   0.234  0.00  0.00    -0.246 OA
HETATM   25  C   UNK N   1      11.521  -4.564   0.668  0.00  0.00     0.250 A 
HETATM   26  H   UNK N   1       9.927  -3.328   0.983  0.00  0.00     0.173 HD
HETATM   27  C   UNK N   1      11.908  -5.820   0.227  0.00  0.00     0.092 A 
HETATM   28  O   UNK N   1      12.357  -3.768   1.053  0.00  0.00    -0.268 OA
HETATM   29  C   UNK N   1      10.932  -6.705  -0.220  0.00  0.00     0.104 A 
ENDBRANCH   1  21
TORSDOF 10
