REMARK  5 active torsions:
REMARK  status: ('A' for Active; 'I' for Inactive)
REMARK    1  A    between atoms: C_2  and  N_1 
REMARK    2  A    between atoms: C_2  and  C_3 
REMARK    3  A    between atoms: C_2  and  C_9 
REMARK    4  A    between atoms: C_3  and  C_4 
REMARK    5  A    between atoms: C_9  and  O_10 
ROOT
HETATM    1  C   UNK N   1      -0.356   3.064   0.000  0.00  0.00     0.178 C 
ENDROOT
BRANCH   1   2
HETATM    2  N   UNK N   1      -1.667   2.438  -0.000  0.00  0.00    -0.417 N 
HETATM    3  H   UNK N   1      -2.508   3.016  -0.000  0.00  0.00     0.150 HD
HETATM    4  H   UNK N   1      -1.747   1.421  -0.000  0.00  0.00     0.150 HD
ENDBRANCH   1   2
BRANCH   1   5
HETATM    5  C   UNK N   1       0.935   2.228  -0.000  0.00  0.00     0.081 C 
BRANCH   5   6
HETATM    6  C   UNK N   1       0.820   0.727  -0.000  0.00  0.00    -0.015 A 
HETATM    7  C   UNK N   1       1.911  -0.139  -0.000  0.00  0.00     0.015 A 
HETATM    8  C   UNK N   1       1.533  -1.513  -0.000  0.00  0.00     0.008 A 
HETATM    9  C   UNK N   1       0.148  -1.727   0.000  0.00  0.00     0.050 A 
HETATM   10  S   UNK N   1      -0.540  -0.221   0.000  0.00  0.00    -0.106 SA
ENDBRANCH   5   6
ENDBRANCH   1   5
BRANCH   1  11
HETATM   11  C   UNK N   1      -0.326   4.558   0.000  0.00  0.00     0.163 C 
HETATM   12  O   UNK N   1       0.738   5.153  -0.000  0.00  0.00    -0.648 OA
BRANCH  11  13
HETATM   13  O   UNK N   1      -1.481   5.252  -0.000  0.00  0.00    -0.775 OA
HETATM   14  H   UNK N   1      -1.464   6.189  -0.000  0.00  0.00     0.167 HD
ENDBRANCH  11  13
ENDBRANCH   1  11
TORSDOF 5
