MODEL 1
REMARK VINA RESULT:      -4.8      0.000      0.000
REMARK  3 active torsions:
REMARK  status: ('A' for Active; 'I' for Inactive)
REMARK    1  A    between atoms: C_3  and  N_7 
REMARK    2  A    between atoms: C_4  and  O_8 
REMARK    3  A    between atoms: C_6  and  O_10 
ROOT
HETATM    1  C   UNK N   1      36.291  13.920  13.928  0.00  0.00     0.042 C 
HETATM    2  C   UNK N   1      35.466  14.279  12.705  0.00  0.00     0.145 C 
HETATM    3  C   UNK N   1      35.327  13.042  11.780  0.00  0.00     0.134 C 
HETATM    4  C   UNK N   1      34.773  13.420  10.380  0.00  0.00     0.176 C 
HETATM    5  C   UNK N   1      34.269  14.864  10.346  0.00  0.00     0.204 C 
HETATM    6  C   UNK N   1      35.439  15.763  10.831  0.00  0.00     0.288 C 
HETATM    7  O   UNK N   1      33.140  15.015  11.160  0.00  0.00    -0.388 OA
HETATM    8  O   UNK N   1      36.076  15.380  12.049  0.00  0.00    -0.352 OA
HETATM    9  H   UNK N   1      32.458  15.213  11.819  0.00  0.00     0.210 HD
ENDROOT
BRANCH   4  10
HETATM   10  O   UNK N   1      33.787  12.530   9.939  0.00  0.00    -0.391 OA
HETATM   11  H   UNK N   1      32.963  12.402  10.434  0.00  0.00     0.210 HD
ENDBRANCH   4  10
BRANCH   6  12
HETATM   12  O   UNK N   1      35.007  17.090  10.921  0.00  0.00    -0.369 OA
HETATM   13  H   UNK N   1      35.377  17.837  11.417  0.00  0.00     0.212 HD
ENDBRANCH   6  12
BRANCH   3  14
HETATM   14  N   UNK N   1      34.478  12.054  12.438  0.00  0.00    -0.422 N 
HETATM   15  H   UNK N   1      34.735  11.173  12.883  0.00  0.00     0.150 HD
HETATM   16  H   UNK N   1      33.483  12.278  12.457  0.00  0.00     0.150 HD
ENDBRANCH   3  14
TORSDOF 3
ENDMDL
MODEL 2
REMARK VINA RESULT:      -4.7      2.695      3.966
REMARK  3 active torsions:
REMARK  status: ('A' for Active; 'I' for Inactive)
REMARK    1  A    between atoms: C_3  and  N_7 
REMARK    2  A    between atoms: C_4  and  O_8 
REMARK    3  A    between atoms: C_6  and  O_10 
ROOT
HETATM    1  C   UNK N   1      34.252  18.344   8.109  0.00  0.00     0.042 C 
HETATM    2  C   UNK N   1      34.617  17.042   8.799  0.00  0.00     0.145 C 
HETATM    3  C   UNK N   1      33.338  16.209   9.068  0.00  0.00     0.134 C 
HETATM    4  C   UNK N   1      33.603  15.029  10.041  0.00  0.00     0.176 C 
HETATM    5  C   UNK N   1      35.099  14.832  10.290  0.00  0.00     0.204 C 
HETATM    6  C   UNK N   1      35.660  16.196  10.778  0.00  0.00     0.288 C 
HETATM    7  O   UNK N   1      35.744  14.403   9.125  0.00  0.00    -0.388 OA
HETATM    8  O   UNK N   1      35.329  17.340   9.990  0.00  0.00    -0.352 OA
HETATM    9  H   UNK N   1      36.266  14.256   8.321  0.00  0.00     0.210 HD
ENDROOT
BRANCH   4  10
HETATM   10  O   UNK N   1      33.001  13.840   9.613  0.00  0.00    -0.391 OA
HETATM   11  H   UNK N   1      32.114  13.836   9.219  0.00  0.00     0.210 HD
ENDBRANCH   4  10
BRANCH   6  12
HETATM   12  O   UNK N   1      37.047  16.109  10.925  0.00  0.00    -0.369 OA
HETATM   13  H   UNK N   1      37.652  15.374  10.740  0.00  0.00     0.212 HD
ENDBRANCH   6  12
BRANCH   3  14
HETATM   14  N   UNK N   1      32.806  15.737   7.793  0.00  0.00    -0.422 N 
HETATM   15  H   UNK N   1      33.254  15.702   6.877  0.00  0.00     0.150 HD
HETATM   16  H   UNK N   1      31.847  15.391   7.822  0.00  0.00     0.150 HD
ENDBRANCH   3  14
TORSDOF 3
ENDMDL
MODEL 3
REMARK VINA RESULT:      -4.7     15.449     16.683
REMARK  3 active torsions:
REMARK  status: ('A' for Active; 'I' for Inactive)
REMARK    1  A    between atoms: C_3  and  N_7 
REMARK    2  A    between atoms: C_4  and  O_8 
REMARK    3  A    between atoms: C_6  and  O_10 
ROOT
HETATM    1  C   UNK N   1      24.522  20.286   3.183  0.00  0.00     0.042 C 
HETATM    2  C   UNK N   1      23.007  20.209   3.123  0.00  0.00     0.145 C 
HETATM    3  C   UNK N   1      22.537  18.767   3.446  0.00  0.00     0.134 C 
HETATM    4  C   UNK N   1      21.041  18.548   3.095  0.00  0.00     0.176 C 
HETATM    5  C   UNK N   1      20.344  19.867   2.759  0.00  0.00     0.204 C 
HETATM    6  C   UNK N   1      21.169  20.540   1.629  0.00  0.00     0.288 C 
HETATM    7  O   UNK N   1      20.264  20.689   3.889  0.00  0.00    -0.388 OA
HETATM    8  O   UNK N   1      22.577  20.644   1.842  0.00  0.00    -0.352 OA
HETATM    9  H   UNK N   1      20.316  21.356   4.590  0.00  0.00     0.210 HD
ENDROOT
BRANCH   4  10
HETATM   10  O   UNK N   1      20.355  17.855   4.098  0.00  0.00    -0.391 OA
HETATM   11  H   UNK N   1      19.592  18.246   4.553  0.00  0.00     0.210 HD
ENDBRANCH   4  10
BRANCH   6  12
HETATM   12  O   UNK N   1      20.640  21.803   1.347  0.00  0.00    -0.369 OA
HETATM   13  H   UNK N   1      20.428  22.217   0.496  0.00  0.00     0.212 HD
ENDBRANCH   6  12
BRANCH   3  14
HETATM   14  N   UNK N   1      22.798  18.491   4.855  0.00  0.00    -0.422 N 
HETATM   15  H   UNK N   1      22.410  17.763   5.455  0.00  0.00     0.150 HD
HETATM   16  H   UNK N   1      23.467  19.116   5.305  0.00  0.00     0.150 HD
ENDBRANCH   3  14
TORSDOF 3
ENDMDL
MODEL 4
REMARK VINA RESULT:      -4.6      4.459      5.148
REMARK  3 active torsions:
REMARK  status: ('A' for Active; 'I' for Inactive)
REMARK    1  A    between atoms: C_3  and  N_7 
REMARK    2  A    between atoms: C_4  and  O_8 
REMARK    3  A    between atoms: C_6  and  O_10 
ROOT
HETATM    1  C   UNK N   1      34.940  15.400   5.758  0.00  0.00     0.042 C 
HETATM    2  C   UNK N   1      34.446  16.144   6.985  0.00  0.00     0.145 C 
HETATM    3  C   UNK N   1      32.953  15.810   7.240  0.00  0.00     0.134 C 
HETATM    4  C   UNK N   1      32.309  16.770   8.277  0.00  0.00     0.176 C 
HETATM    5  C   UNK N   1      33.361  17.635   8.970  0.00  0.00     0.204 C 
HETATM    6  C   UNK N   1      34.165  18.354   7.852  0.00  0.00     0.288 C 
HETATM    7  O   UNK N   1      34.198  16.852   9.774  0.00  0.00    -0.388 OA
HETATM    8  O   UNK N   1      34.665  17.533   6.798  0.00  0.00    -0.352 OA
HETATM    9  H   UNK N   1      34.895  16.348  10.220  0.00  0.00     0.210 HD
ENDROOT
BRANCH   4  10
HETATM   10  O   UNK N   1      31.517  16.092   9.210  0.00  0.00    -0.391 OA
HETATM   11  H   UNK N   1      30.943  16.570   9.829  0.00  0.00     0.210 HD
ENDBRANCH   4  10
BRANCH   6  12
HETATM   12  O   UNK N   1      35.213  19.084   8.420  0.00  0.00    -0.369 OA
HETATM   13  H   UNK N   1      35.374  20.040   8.436  0.00  0.00     0.212 HD
ENDBRANCH   6  12
BRANCH   3  14
HETATM   14  N   UNK N   1      32.846  14.418   7.667  0.00  0.00    -0.422 N 
HETATM   15  H   UNK N   1      33.465  13.877   8.271  0.00  0.00     0.150 HD
HETATM   16  H   UNK N   1      32.036  13.914   7.309  0.00  0.00     0.150 HD
ENDBRANCH   3  14
TORSDOF 3
ENDMDL
MODEL 5
REMARK VINA RESULT:      -4.5      4.381      5.753
REMARK  3 active torsions:
REMARK  status: ('A' for Active; 'I' for Inactive)
REMARK    1  A    between atoms: C_3  and  N_7 
REMARK    2  A    between atoms: C_4  and  O_8 
REMARK    3  A    between atoms: C_6  and  O_10 
ROOT
HETATM    1  C   UNK N   1      32.301  15.032   9.457  0.00  0.00     0.042 C 
HETATM    2  C   UNK N   1      32.933  15.911   8.394  0.00  0.00     0.145 C 
HETATM    3  C   UNK N   1      33.386  17.256   9.020  0.00  0.00     0.134 C 
HETATM    4  C   UNK N   1      33.746  18.311   7.939  0.00  0.00     0.176 C 
HETATM    5  C   UNK N   1      33.808  17.688   6.544  0.00  0.00     0.204 C 
HETATM    6  C   UNK N   1      32.449  16.974   6.307  0.00  0.00     0.288 C 
HETATM    7  O   UNK N   1      34.878  16.791   6.448  0.00  0.00    -0.388 OA
HETATM    8  O   UNK N   1      32.003  16.092   7.337  0.00  0.00    -0.352 OA
HETATM    9  H   UNK N   1      35.501  16.052   6.370  0.00  0.00     0.210 HD
ENDROOT
BRANCH   4  10
HETATM   10  O   UNK N   1      34.928  18.998   8.239  0.00  0.00    -0.391 OA
HETATM   11  H   UNK N   1      35.060  19.424   9.101  0.00  0.00     0.210 HD
ENDBRANCH   4  10
BRANCH   6  12
HETATM   12  O   UNK N   1      32.481  16.294   5.085  0.00  0.00    -0.369 OA
HETATM   13  H   UNK N   1      33.231  16.069   4.513  0.00  0.00     0.212 HD
ENDBRANCH   6  12
BRANCH   3  14
HETATM   14  N   UNK N   1      34.512  17.004   9.913  0.00  0.00    -0.422 N 
HETATM   15  H   UNK N   1      35.107  17.669  10.409  0.00  0.00     0.150 HD
HETATM   16  H   UNK N   1      34.737  16.021  10.065  0.00  0.00     0.150 HD
ENDBRANCH   3  14
TORSDOF 3
ENDMDL
MODEL 6
REMARK VINA RESULT:      -4.5     16.364     17.536
REMARK  3 active torsions:
REMARK  status: ('A' for Active; 'I' for Inactive)
REMARK    1  A    between atoms: C_3  and  N_7 
REMARK    2  A    between atoms: C_4  and  O_8 
REMARK    3  A    between atoms: C_6  and  O_10 
ROOT
HETATM    1  C   UNK N   1      20.738  16.337   5.217  0.00  0.00     0.042 C 
HETATM    2  C   UNK N   1      20.263  17.295   4.139  0.00  0.00     0.145 C 
HETATM    3  C   UNK N   1      20.371  16.619   2.747  0.00  0.00     0.134 C 
HETATM    4  C   UNK N   1      20.204  17.639   1.588  0.00  0.00     0.176 C 
HETATM    5  C   UNK N   1      19.728  18.999   2.101  0.00  0.00     0.204 C 
HETATM    6  C   UNK N   1      20.730  19.444   3.201  0.00  0.00     0.288 C 
HETATM    7  O   UNK N   1      18.425  18.910   2.605  0.00  0.00    -0.388 OA
HETATM    8  O   UNK N   1      21.025  18.490   4.220  0.00  0.00    -0.352 OA
HETATM    9  H   UNK N   1      17.593  18.878   3.102  0.00  0.00     0.210 HD
ENDROOT
BRANCH   4  10
HETATM   10  O   UNK N   1      19.369  17.160   0.573  0.00  0.00    -0.391 OA
HETATM   11  H   UNK N   1      19.186  16.213   0.474  0.00  0.00     0.210 HD
ENDBRANCH   4  10
BRANCH   6  12
HETATM   12  O   UNK N   1      20.290  20.637   3.784  0.00  0.00    -0.369 OA
HETATM   13  H   UNK N   1      20.345  20.943   4.702  0.00  0.00     0.212 HD
ENDBRANCH   6  12
BRANCH   3  14
HETATM   14  N   UNK N   1      19.379  15.552   2.662  0.00  0.00    -0.422 N 
HETATM   15  H   UNK N   1      18.408  15.545   2.975  0.00  0.00     0.150 HD
HETATM   16  H   UNK N   1      19.703  14.690   2.227  0.00  0.00     0.150 HD
ENDBRANCH   3  14
TORSDOF 3
ENDMDL
MODEL 7
REMARK VINA RESULT:      -4.4      7.580      9.042
REMARK  3 active torsions:
REMARK  status: ('A' for Active; 'I' for Inactive)
REMARK    1  A    between atoms: C_3  and  N_7 
REMARK    2  A    between atoms: C_4  and  O_8 
REMARK    3  A    between atoms: C_6  and  O_10 
ROOT
HETATM    1  C   UNK N   1      28.536  15.862   5.701  0.00  0.00     0.042 C 
HETATM    2  C   UNK N   1      28.430  16.829   6.866  0.00  0.00     0.145 C 
HETATM    3  C   UNK N   1      27.892  18.196   6.371  0.00  0.00     0.134 C 
HETATM    4  C   UNK N   1      28.058  19.311   7.438  0.00  0.00     0.176 C 
HETATM    5  C   UNK N   1      28.476  18.735   8.791  0.00  0.00     0.204 C 
HETATM    6  C   UNK N   1      29.757  17.891   8.548  0.00  0.00     0.288 C 
HETATM    7  O   UNK N   1      27.449  17.956   9.338  0.00  0.00    -0.388 OA
HETATM    8  O   UNK N   1      29.703  16.942   7.485  0.00  0.00    -0.352 OA
HETATM    9  H   UNK N   1      26.841  17.288   9.690  0.00  0.00     0.210 HD
ENDROOT
BRANCH   4  10
HETATM   10  O   UNK N   1      26.915  20.108   7.559  0.00  0.00    -0.391 OA
HETATM   11  H   UNK N   1      26.802  20.915   7.032  0.00  0.00     0.210 HD
ENDBRANCH   4  10
BRANCH   6  12
HETATM   12  O   UNK N   1      30.131  17.251   9.734  0.00  0.00    -0.369 OA
HETATM   13  H   UNK N   1      29.682  17.209  10.592  0.00  0.00     0.212 HD
ENDBRANCH   6  12
BRANCH   3  14
HETATM   14  N   UNK N   1      26.494  18.039   5.981  0.00  0.00    -0.422 N 
HETATM   15  H   UNK N   1      25.648  18.155   6.540  0.00  0.00     0.150 HD
HETATM   16  H   UNK N   1      26.340  17.776   5.008  0.00  0.00     0.150 HD
ENDBRANCH   3  14
TORSDOF 3
ENDMDL
MODEL 8
REMARK VINA RESULT:      -4.4     13.847     14.593
REMARK  3 active torsions:
REMARK  status: ('A' for Active; 'I' for Inactive)
REMARK    1  A    between atoms: C_3  and  N_7 
REMARK    2  A    between atoms: C_4  and  O_8 
REMARK    3  A    between atoms: C_6  and  O_10 
ROOT
HETATM    1  C   UNK N   1      45.732  19.569   3.317  0.00  0.00     0.042 C 
HETATM    2  C   UNK N   1      44.684  20.605   2.956  0.00  0.00     0.145 C 
HETATM    3  C   UNK N   1      44.576  21.664   4.084  0.00  0.00     0.134 C 
HETATM    4  C   UNK N   1      43.319  22.560   3.926  0.00  0.00     0.176 C 
HETATM    5  C   UNK N   1      42.642  22.344   2.572  0.00  0.00     0.204 C 
HETATM    6  C   UNK N   1      42.358  20.823   2.445  0.00  0.00     0.288 C 
HETATM    7  O   UNK N   1      43.459  22.798   1.530  0.00  0.00    -0.388 OA
HETATM    8  O   UNK N   1      43.451  19.945   2.714  0.00  0.00    -0.352 OA
HETATM    9  H   UNK N   1      44.038  22.952   0.768  0.00  0.00     0.210 HD
ENDROOT
BRANCH   4  10
HETATM   10  O   UNK N   1      43.599  23.914   4.142  0.00  0.00    -0.391 OA
HETATM   11  H   UNK N   1      44.414  24.198   4.584  0.00  0.00     0.210 HD
ENDBRANCH   4  10
BRANCH   6  12
HETATM   12  O   UNK N   1      41.831  20.546   1.180  0.00  0.00    -0.369 OA
HETATM   13  H   UNK N   1      41.690  19.697   0.732  0.00  0.00     0.212 HD
ENDBRANCH   6  12
BRANCH   3  14
HETATM   14  N   UNK N   1      45.799  22.462   4.100  0.00  0.00    -0.422 N 
HETATM   15  H   UNK N   1      45.965  23.399   3.733  0.00  0.00     0.150 HD
HETATM   16  H   UNK N   1      46.603  22.018   4.543  0.00  0.00     0.150 HD
ENDBRANCH   3  14
TORSDOF 3
ENDMDL
MODEL 9
REMARK VINA RESULT:      -4.3      2.338      4.145
REMARK  3 active torsions:
REMARK  status: ('A' for Active; 'I' for Inactive)
REMARK    1  A    between atoms: C_3  and  N_7 
REMARK    2  A    between atoms: C_4  and  O_8 
REMARK    3  A    between atoms: C_6  and  O_10 
ROOT
HETATM    1  C   UNK N   1      32.506  15.629   8.686  0.00  0.00     0.042 C 
HETATM    2  C   UNK N   1      33.548  15.082   9.645  0.00  0.00     0.145 C 
HETATM    3  C   UNK N   1      34.872  15.876   9.496  0.00  0.00     0.134 C 
HETATM    4  C   UNK N   1      36.058  15.174  10.209  0.00  0.00     0.176 C 
HETATM    5  C   UNK N   1      35.579  14.016  11.086  0.00  0.00     0.204 C 
HETATM    6  C   UNK N   1      34.738  13.078  10.178  0.00  0.00     0.288 C 
HETATM    7  O   UNK N   1      34.825  14.490  12.166  0.00  0.00    -0.388 OA
HETATM    8  O   UNK N   1      33.718  13.695   9.394  0.00  0.00    -0.352 OA
HETATM    9  H   UNK N   1      34.175  14.743  12.839  0.00  0.00     0.210 HD
ENDROOT
BRANCH   4  10
HETATM   10  O   UNK N   1      36.846  16.069  10.940  0.00  0.00    -0.391 OA
HETATM   11  H   UNK N   1      37.783  16.209  10.727  0.00  0.00     0.210 HD
ENDBRANCH   4  10
BRANCH   6  12
HETATM   12  O   UNK N   1      34.184  12.050  10.948  0.00  0.00    -0.369 OA
HETATM   13  H   UNK N   1      33.260  11.776  11.055  0.00  0.00     0.212 HD
ENDBRANCH   6  12
BRANCH   3  14
HETATM   14  N   UNK N   1      34.670  17.229  10.007  0.00  0.00    -0.422 N 
HETATM   15  H   UNK N   1      35.304  17.818  10.548  0.00  0.00     0.150 HD
HETATM   16  H   UNK N   1      33.765  17.645   9.791  0.00  0.00     0.150 HD
ENDBRANCH   3  14
TORSDOF 3
ENDMDL
