MODEL 1
REMARK VINA RESULT:      -5.5      0.000      0.000
REMARK WARNING: 32 MAX_TORS EXCEEDED!!!
REMARK  89 active torsions:
REMARK  status: ('A' for Active; 'I' for Inactive)
REMARK    1  A    between atoms: C_2  and  C_3 
REMARK    2  A    between atoms: C_3  and  C_4 
REMARK    3  A    between atoms: C_4  and  C_5 
REMARK    4  A    between atoms: C_5  and  C_6 
REMARK    5  A    between atoms: C_6  and  C_7 
REMARK    6  A    between atoms: C_7  and  C_8 
REMARK    7  A    between atoms: C_8  and  C_9 
REMARK    8  A    between atoms: C_9  and  C_10 
REMARK    9  A    between atoms: C_10  and  C_11 
REMARK   10  A    between atoms: C_11  and  C_12 
REMARK   11  A    between atoms: C_12  and  C_13 
REMARK   12  A    between atoms: C_13  and  C_14 
REMARK   13  A    between atoms: C_14  and  C_15 
REMARK   14  A    between atoms: C_15  and  C_16 
REMARK   15  A    between atoms: C_16  and  C_17 
REMARK   16  A    between atoms: C_17  and  C_18 
REMARK   17  A    between atoms: C_18  and  O_20 
REMARK   18  A    between atoms: O_20  and  C_21 
REMARK   19  A    between atoms: C_21  and  C_22 
REMARK   20  A    between atoms: C_22  and  C_23 
REMARK   21  A    between atoms: C_22  and  O_81 
REMARK   22  A    between atoms: C_23  and  O_24 
REMARK   23  A    between atoms: P_25  and  O_24 
REMARK   24  A    between atoms: P_25  and  O_26 
REMARK   25  A    between atoms: P_25  and  O_28 
REMARK   26  A    between atoms: O_28  and  C_29 
REMARK   27  A    between atoms: C_29  and  C_30 
REMARK   28  A    between atoms: C_30  and  O_31 
REMARK   29  A    between atoms: C_30  and  C_32 
REMARK   30  A    between atoms: C_32  and  O_33 
REMARK   31  A    between atoms: P_34  and  O_33 
REMARK   32  A    between atoms: P_34  and  O_35 
REMARK   33  A    between atoms: P_34  and  O_37 
REMARK   34  A    between atoms: O_37  and  C_38 
REMARK   35  A    between atoms: C_38  and  C_39 
REMARK   36  A    between atoms: C_39  and  C_40 
REMARK   37  A    between atoms: C_39  and  O_61 
REMARK   38  A    between atoms: C_40  and  O_41 
REMARK   39  A    between atoms: O_41  and  C_42 
REMARK   40  A    between atoms: C_42  and  C_44 
REMARK   41  A    between atoms: C_44  and  C_45 
REMARK   42  A    between atoms: C_45  and  C_46 
REMARK   43  A    between atoms: C_46  and  C_47 
REMARK   44  A    between atoms: C_47  and  C_48 
REMARK   45  A    between atoms: C_48  and  C_49 
REMARK   46  A    between atoms: C_49  and  C_50 
REMARK   47  A    between atoms: C_50  and  C_51 
REMARK   48  A    between atoms: C_51  and  C_52 
REMARK   49  A    between atoms: C_52  and  C_53 
REMARK   50  A    between atoms: C_53  and  C_54 
REMARK   51  A    between atoms: C_54  and  C_55 
REMARK   52  A    between atoms: C_55  and  C_56 
REMARK   53  A    between atoms: C_56  and  C_57 
REMARK   54  A    between atoms: C_57  and  C_58 
REMARK   55  A    between atoms: C_58  and  C_59 
REMARK   56  A    between atoms: O_61  and  C_62 
REMARK   57  A    between atoms: C_62  and  C_64 
REMARK   58  A    between atoms: C_64  and  C_65 
REMARK   59  A    between atoms: C_65  and  C_66 
REMARK   60  A    between atoms: C_66  and  C_67 
REMARK   61  A    between atoms: C_67  and  C_68 
REMARK   62  A    between atoms: C_68  and  C_69 
REMARK   63  A    between atoms: C_69  and  C_70 
REMARK   64  A    between atoms: C_70  and  C_71 
REMARK   65  A    between atoms: C_71  and  C_72 
REMARK   66  A    between atoms: C_72  and  C_73 
REMARK   67  A    between atoms: C_73  and  C_74 
REMARK   68  A    between atoms: C_74  and  C_75 
REMARK   69  A    between atoms: C_75  and  C_76 
REMARK   70  A    between atoms: C_76  and  C_77 
REMARK   71  A    between atoms: C_77  and  C_78 
REMARK   72  A    between atoms: C_78  and  C_79 
REMARK   73  A    between atoms: O_81  and  C_82 
REMARK   74  A    between atoms: C_82  and  C_84 
REMARK   75  A    between atoms: C_84  and  C_85 
REMARK   76  A    between atoms: C_85  and  C_86 
REMARK   77  A    between atoms: C_86  and  C_87 
REMARK   78  A    between atoms: C_87  and  C_88 
REMARK   79  A    between atoms: C_88  and  C_89 
REMARK   80  A    between atoms: C_89  and  C_90 
REMARK   81  A    between atoms: C_90  and  C_91 
REMARK   82  A    between atoms: C_91  and  C_92 
REMARK   83  A    between atoms: C_92  and  C_93 
REMARK   84  A    between atoms: C_93  and  C_94 
REMARK   85  A    between atoms: C_94  and  C_95 
REMARK   86  A    between atoms: C_95  and  C_96 
REMARK   87  A    between atoms: C_96  and  C_97 
REMARK   88  A    between atoms: C_97  and  C_98 
REMARK   89  A    between atoms: C_98  and  C_99 
ROOT
HETATM    1  C   UNK N   1      31.985   9.043   7.458  0.00  0.00     0.166 C 
ENDROOT
BRANCH   1   2
HETATM    2  C   UNK N   1      33.126   9.963   7.860  0.00  0.00     0.214 C 
BRANCH   2   3
HETATM    3  O   UNK N   1      32.635  10.997   8.662  0.00  0.00    -0.294 OA
BRANCH   3   4
HETATM    4  P   UNK N   1      33.450  12.419   8.128  0.00  0.00     0.393 P 
HETATM    5  O   UNK N   1      34.508  11.953   7.094  0.00  0.00    -0.631 OA
BRANCH   4   6
HETATM    6  O   UNK N   1      34.311  13.201   9.433  0.00  0.00    -0.294 OA
BRANCH   6   7
HETATM    7  C   UNK N   1      35.568  13.523   8.904  0.00  0.00     0.215 C 
BRANCH   7   8
HETATM    8  C   UNK N   1      36.055  14.883   9.406  0.00  0.00     0.180 C 
BRANCH   8   9
HETATM    9  C   UNK N   1      36.756  14.698  10.745  0.00  0.00     0.213 C 
BRANCH   9  10
HETATM   10  O   UNK N   1      36.027  15.155  11.823  0.00  0.00    -0.319 OA
BRANCH  10  11
HETATM   11  C   UNK N   1      35.628  14.375  12.861  0.00  0.00     0.258 C 
HETATM   12  O   UNK N   1      34.618  13.702  12.741  0.00  0.00    -0.265 OA
BRANCH  11  13
HETATM   13  C   UNK N   1      36.418  14.268  14.134  0.00  0.00     0.111 C 
BRANCH  13  14
HETATM   14  C   UNK N   1      36.972  12.872  14.342  0.00  0.00     0.010 C 
BRANCH  14  15
HETATM   15  C   UNK N   1      36.354  12.249  15.577  0.00  0.00     0.000 C 
BRANCH  15  16
HETATM   16  C   UNK N   1      35.846  13.322  16.519  0.00  0.00     0.000 C 
BRANCH  16  17
HETATM   17  C   UNK N   1      34.843  12.740  17.508  0.00  0.00     0.000 C 
BRANCH  17  18
HETATM   18  C   UNK N   1      35.273  12.918  18.957  0.00  0.00     0.000 C 
BRANCH  18  19
HETATM   19  C   UNK N   1      35.412  11.573  19.645  0.00  0.00     0.000 C 
BRANCH  19  20
HETATM   20  C   UNK N   1      34.984  10.482  18.686  0.00  0.00     0.000 C 
BRANCH  20  21
HETATM   21  C   UNK N   1      34.252   9.386  19.432  0.00  0.00     0.000 C 
BRANCH  21  22
HETATM   22  C   UNK N   1      33.951   9.837  20.847  0.00  0.00     0.000 C 
BRANCH  22  23
HETATM   23  C   UNK N   1      32.480   9.632  21.141  0.00  0.00     0.000 C 
BRANCH  23  24
HETATM   24  C   UNK N   1      32.327   9.079  22.542  0.00  0.00     0.000 C 
BRANCH  24  25
HETATM   25  C   UNK N   1      32.859  10.089  23.533  0.00  0.00     0.000 C 
BRANCH  25  26
HETATM   26  C   UNK N   1      31.918  10.187  24.714  0.00  0.00     0.000 C 
BRANCH  26  27
HETATM   27  C   UNK N   1      32.676   9.836  25.976  0.00  0.00    -0.000 C 
BRANCH  27  28
HETATM   28  C   UNK N   1      34.164   9.930  25.719  0.00  0.00    -0.005 C 
HETATM   29  C   UNK N   1      34.804  10.777  26.798  0.00  0.00     0.005 C 
ENDBRANCH  27  28
ENDBRANCH  26  27
ENDBRANCH  25  26
ENDBRANCH  24  25
ENDBRANCH  23  24
ENDBRANCH  22  23
ENDBRANCH  21  22
ENDBRANCH  20  21
ENDBRANCH  19  20
ENDBRANCH  18  19
ENDBRANCH  17  18
ENDBRANCH  16  17
ENDBRANCH  15  16
ENDBRANCH  14  15
ENDBRANCH  13  14
ENDBRANCH  11  13
ENDBRANCH  10  11
ENDBRANCH   9  10
ENDBRANCH   8   9
BRANCH   8  30
HETATM   30  O   UNK N   1      34.973  15.701   9.630  0.00  0.00    -0.312 OA
BRANCH  30  31
HETATM   31  C   UNK N   1      34.848  16.928   9.081  0.00  0.00     0.259 C 
HETATM   32  O   UNK N   1      35.339  17.911   9.617  0.00  0.00    -0.265 OA
BRANCH  31  33
HETATM   33  C   UNK N   1      34.135  17.055   7.780  0.00  0.00     0.111 C 
BRANCH  33  34
HETATM   34  C   UNK N   1      32.968  18.020   7.929  0.00  0.00     0.010 C 
BRANCH  34  35
HETATM   35  C   UNK N   1      31.780  17.374   8.634  0.00  0.00     0.000 C 
BRANCH  35  36
HETATM   36  C   UNK N   1      30.585  18.310   8.839  0.00  0.00     0.000 C 
BRANCH  36  37
HETATM   37  C   UNK N   1      29.262  17.573   8.991  0.00  0.00     0.000 C 
BRANCH  37  38
HETATM   38  C   UNK N   1      28.117  18.536   8.724  0.00  0.00     0.000 C 
BRANCH  38  39
HETATM   39  C   UNK N   1      28.416  19.398   7.516  0.00  0.00     0.000 C 
BRANCH  39  40
HETATM   40  C   UNK N   1      27.180  20.189   7.102  0.00  0.00     0.000 C 
BRANCH  40  41
HETATM   41  C   UNK N   1      27.393  20.962   5.808  0.00  0.00     0.000 C 
BRANCH  41  42
HETATM   42  C   UNK N   1      27.994  20.060   4.742  0.00  0.00     0.000 C 
BRANCH  42  43
HETATM   43  C   UNK N   1      26.918  19.550   3.810  0.00  0.00     0.000 C 
BRANCH  43  44
HETATM   44  C   UNK N   1      25.742  20.500   3.854  0.00  0.00     0.000 C 
BRANCH  44  45
HETATM   45  C   UNK N   1      24.992  20.453   2.545  0.00  0.00     0.000 C 
BRANCH  45  46
HETATM   46  C   UNK N   1      23.530  20.699   2.833  0.00  0.00     0.000 C 
BRANCH  46  47
HETATM   47  C   UNK N   1      22.936  19.497   3.529  0.00  0.00    -0.000 C 
BRANCH  47  48
HETATM   48  C   UNK N   1      21.433  19.533   3.370  0.00  0.00    -0.005 C 
HETATM   49  C   UNK N   1      21.076  20.315   2.125  0.00  0.00     0.005 C 
ENDBRANCH  47  48
ENDBRANCH  46  47
ENDBRANCH  45  46
ENDBRANCH  44  45
ENDBRANCH  43  44
ENDBRANCH  42  43
ENDBRANCH  41  42
ENDBRANCH  40  41
ENDBRANCH  39  40
ENDBRANCH  38  39
ENDBRANCH  37  38
ENDBRANCH  36  37
ENDBRANCH  35  36
ENDBRANCH  34  35
ENDBRANCH  33  34
ENDBRANCH  31  33
ENDBRANCH  30  31
ENDBRANCH   8  30
ENDBRANCH   7   8
ENDBRANCH   6   7
ENDBRANCH   4   6
BRANCH   4  50
HETATM   50  O   UNK N   1      32.363  13.464   7.263  0.00  0.00    -0.307 OA
HETATM   51  H   UNK N   1      32.149  14.303   6.825  0.00  0.00     0.222 HD
ENDBRANCH   4  50
ENDBRANCH   3   4
ENDBRANCH   2   3
ENDBRANCH   1   2
BRANCH   1  52
HETATM   52  O   UNK N   1      30.868   9.314   8.244  0.00  0.00    -0.391 OA
HETATM   53  H   UNK N   1      30.366  10.133   8.108  0.00  0.00     0.210 HD
ENDBRANCH   1  52
BRANCH   1  54
HETATM   54  C   UNK N   1      31.634   9.244   5.993  0.00  0.00     0.214 C 
BRANCH  54  55
HETATM   55  O   UNK N   1      30.278   9.552   5.891  0.00  0.00    -0.294 OA
BRANCH  55  56
HETATM   56  P   UNK N   1      30.119  10.693   4.591  0.00  0.00     0.393 P 
HETATM   57  O   UNK N   1      28.648  11.189   4.596  0.00  0.00    -0.631 OA
BRANCH  56  58
HETATM   58  O   UNK N   1      30.417   9.988   3.030  0.00  0.00    -0.307 OA
HETATM   59  H   UNK N   1      30.931   9.265   2.637  0.00  0.00     0.222 HD
ENDBRANCH  56  58
BRANCH  56  60
HETATM   60  O   UNK N   1      31.132  12.068   4.897  0.00  0.00    -0.294 OA
BRANCH  60  61
HETATM   61  C   UNK N   1      30.378  13.154   4.438  0.00  0.00     0.215 C 
BRANCH  61  62
HETATM   62  C   UNK N   1      30.980  13.750   3.178  0.00  0.00     0.180 C 
BRANCH  62  63
HETATM   63  C   UNK N   1      32.490  13.908   3.319  0.00  0.00     0.213 C 
BRANCH  63  64
HETATM   64  O   UNK N   1      32.939  15.133   2.870  0.00  0.00    -0.319 OA
BRANCH  64  65
HETATM   65  C   UNK N   1      32.377  16.324   3.204  0.00  0.00     0.258 C 
HETATM   66  O   UNK N   1      32.150  17.137   2.325  0.00  0.00    -0.265 OA
BRANCH  65  67
HETATM   67  C   UNK N   1      32.013  16.672   4.620  0.00  0.00     0.111 C 
BRANCH  67  68
HETATM   68  C   UNK N   1      30.787  17.565   4.660  0.00  0.00     0.010 C 
BRANCH  68  69
HETATM   69  C   UNK N   1      29.542  16.770   4.339  0.00  0.00     0.000 C 
BRANCH  69  70
HETATM   70  C   UNK N   1      28.940  16.270   5.643  0.00  0.00     0.000 C 
BRANCH  70  71
HETATM   71  C   UNK N   1      27.431  16.475   5.677  0.00  0.00     0.000 C 
BRANCH  71  72
HETATM   72  C   UNK N   1      26.706  15.333   6.376  0.00  0.00     0.000 C 
BRANCH  72  73
HETATM   73  C   UNK N   1      26.827  14.034   5.601  0.00  0.00     0.000 C 
BRANCH  73  74
HETATM   74  C   UNK N   1      25.691  13.079   5.934  0.00  0.00     0.000 C 
BRANCH  74  75
HETATM   75  C   UNK N   1      25.150  13.329   7.336  0.00  0.00     0.000 C 
BRANCH  75  76
HETATM   76  C   UNK N   1      23.633  13.450   7.353  0.00  0.00     0.000 C 
BRANCH  76  77
HETATM   77  C   UNK N   1      23.003  12.275   6.622  0.00  0.00     0.000 C 
BRANCH  77  78
HETATM   78  C   UNK N   1      21.494  12.383   6.660  0.00  0.00     0.000 C 
BRANCH  78  79
HETATM   79  C   UNK N   1      20.927  12.141   5.275  0.00  0.00     0.000 C 
BRANCH  79  80
HETATM   80  C   UNK N   1      20.018  10.934   5.313  0.00  0.00     0.000 C 
BRANCH  80  81
HETATM   81  C   UNK N   1      20.597   9.844   4.439  0.00  0.00    -0.000 C 
BRANCH  81  82
HETATM   82  C   UNK N   1      20.759   8.581   5.257  0.00  0.00    -0.005 C 
HETATM   83  C   UNK N   1      22.198   8.456   5.708  0.00  0.00     0.005 C 
ENDBRANCH  81  82
ENDBRANCH  80  81
ENDBRANCH  79  80
ENDBRANCH  78  79
ENDBRANCH  77  78
ENDBRANCH  76  77
ENDBRANCH  75  76
ENDBRANCH  74  75
ENDBRANCH  73  74
ENDBRANCH  72  73
ENDBRANCH  71  72
ENDBRANCH  70  71
ENDBRANCH  69  70
ENDBRANCH  68  69
ENDBRANCH  67  68
ENDBRANCH  65  67
ENDBRANCH  64  65
ENDBRANCH  63  64
ENDBRANCH  62  63
BRANCH  62  84
HETATM   84  O   UNK N   1      30.656  13.001   2.065  0.00  0.00    -0.312 OA
BRANCH  84  85
HETATM   85  C   UNK N   1      29.412  12.997   1.526  0.00  0.00     0.259 C 
HETATM   86  O   UNK N   1      28.925  11.964   1.096  0.00  0.00    -0.265 OA
BRANCH  85  87
HETATM   87  C   UNK N   1      28.595  14.256   1.559  0.00  0.00     0.111 C 
BRANCH  87  88
HETATM   88  C   UNK N   1      27.286  14.101   2.324  0.00  0.00     0.010 C 
BRANCH  88  89
HETATM   89  C   UNK N   1      26.351  15.273   2.064  0.00  0.00     0.000 C 
BRANCH  89  90
HETATM   90  C   UNK N   1      24.951  14.745   1.791  0.00  0.00     0.000 C 
BRANCH  90  91
HETATM   91  C   UNK N   1      24.024  14.903   2.987  0.00  0.00     0.000 C 
BRANCH  91  92
HETATM   92  C   UNK N   1      24.301  16.174   3.781  0.00  0.00     0.000 C 
BRANCH  92  93
HETATM   93  C   UNK N   1      23.402  16.262   5.011  0.00  0.00     0.000 C 
BRANCH  93  94
HETATM   94  C   UNK N   1      22.004  15.747   4.703  0.00  0.00     0.000 C 
BRANCH  94  95
HETATM   95  C   UNK N   1      20.986  16.388   5.632  0.00  0.00     0.000 C 
BRANCH  95  96
HETATM   96  C   UNK N   1      21.542  16.477   7.043  0.00  0.00     0.000 C 
BRANCH  96  97
HETATM   97  C   UNK N   1      20.518  16.029   8.072  0.00  0.00     0.000 C 
BRANCH  97  98
HETATM   98  C   UNK N   1      21.125  15.040   9.049  0.00  0.00     0.000 C 
BRANCH  98  99
HETATM   99  C   UNK N   1      20.021  14.270   9.742  0.00  0.00     0.000 C 
BRANCH  99 100
HETATM  100  C   UNK N   1      20.577  13.018  10.389  0.00  0.00     0.000 C 
BRANCH 100 101
HETATM  101  C   UNK N   1      22.086  13.124  10.437  0.00  0.00    -0.000 C 
BRANCH 101 102
HETATM  102  C   UNK N   1      22.684  11.788  10.821  0.00  0.00    -0.005 C 
HETATM  103  C   UNK N   1      23.287  11.893  12.205  0.00  0.00     0.005 C 
ENDBRANCH 101 102
ENDBRANCH 100 101
ENDBRANCH  99 100
ENDBRANCH  98  99
ENDBRANCH  97  98
ENDBRANCH  96  97
ENDBRANCH  95  96
ENDBRANCH  94  95
ENDBRANCH  93  94
ENDBRANCH  92  93
ENDBRANCH  91  92
ENDBRANCH  90  91
ENDBRANCH  89  90
ENDBRANCH  88  89
ENDBRANCH  87  88
ENDBRANCH  85  87
ENDBRANCH  84  85
ENDBRANCH  62  84
ENDBRANCH  61  62
ENDBRANCH  60  61
ENDBRANCH  56  60
ENDBRANCH  55  56
ENDBRANCH  54  55
ENDBRANCH   1  54
TORSDOF 89
ENDMDL
MODEL 2
REMARK VINA RESULT:      -5.4      2.173      3.286
REMARK WARNING: 32 MAX_TORS EXCEEDED!!!
REMARK  89 active torsions:
REMARK  status: ('A' for Active; 'I' for Inactive)
REMARK    1  A    between atoms: C_2  and  C_3 
REMARK    2  A    between atoms: C_3  and  C_4 
REMARK    3  A    between atoms: C_4  and  C_5 
REMARK    4  A    between atoms: C_5  and  C_6 
REMARK    5  A    between atoms: C_6  and  C_7 
REMARK    6  A    between atoms: C_7  and  C_8 
REMARK    7  A    between atoms: C_8  and  C_9 
REMARK    8  A    between atoms: C_9  and  C_10 
REMARK    9  A    between atoms: C_10  and  C_11 
REMARK   10  A    between atoms: C_11  and  C_12 
REMARK   11  A    between atoms: C_12  and  C_13 
REMARK   12  A    between atoms: C_13  and  C_14 
REMARK   13  A    between atoms: C_14  and  C_15 
REMARK   14  A    between atoms: C_15  and  C_16 
REMARK   15  A    between atoms: C_16  and  C_17 
REMARK   16  A    between atoms: C_17  and  C_18 
REMARK   17  A    between atoms: C_18  and  O_20 
REMARK   18  A    between atoms: O_20  and  C_21 
REMARK   19  A    between atoms: C_21  and  C_22 
REMARK   20  A    between atoms: C_22  and  C_23 
REMARK   21  A    between atoms: C_22  and  O_81 
REMARK   22  A    between atoms: C_23  and  O_24 
REMARK   23  A    between atoms: P_25  and  O_24 
REMARK   24  A    between atoms: P_25  and  O_26 
REMARK   25  A    between atoms: P_25  and  O_28 
REMARK   26  A    between atoms: O_28  and  C_29 
REMARK   27  A    between atoms: C_29  and  C_30 
REMARK   28  A    between atoms: C_30  and  O_31 
REMARK   29  A    between atoms: C_30  and  C_32 
REMARK   30  A    between atoms: C_32  and  O_33 
REMARK   31  A    between atoms: P_34  and  O_33 
REMARK   32  A    between atoms: P_34  and  O_35 
REMARK   33  A    between atoms: P_34  and  O_37 
REMARK   34  A    between atoms: O_37  and  C_38 
REMARK   35  A    between atoms: C_38  and  C_39 
REMARK   36  A    between atoms: C_39  and  C_40 
REMARK   37  A    between atoms: C_39  and  O_61 
REMARK   38  A    between atoms: C_40  and  O_41 
REMARK   39  A    between atoms: O_41  and  C_42 
REMARK   40  A    between atoms: C_42  and  C_44 
REMARK   41  A    between atoms: C_44  and  C_45 
REMARK   42  A    between atoms: C_45  and  C_46 
REMARK   43  A    between atoms: C_46  and  C_47 
REMARK   44  A    between atoms: C_47  and  C_48 
REMARK   45  A    between atoms: C_48  and  C_49 
REMARK   46  A    between atoms: C_49  and  C_50 
REMARK   47  A    between atoms: C_50  and  C_51 
REMARK   48  A    between atoms: C_51  and  C_52 
REMARK   49  A    between atoms: C_52  and  C_53 
REMARK   50  A    between atoms: C_53  and  C_54 
REMARK   51  A    between atoms: C_54  and  C_55 
REMARK   52  A    between atoms: C_55  and  C_56 
REMARK   53  A    between atoms: C_56  and  C_57 
REMARK   54  A    between atoms: C_57  and  C_58 
REMARK   55  A    between atoms: C_58  and  C_59 
REMARK   56  A    between atoms: O_61  and  C_62 
REMARK   57  A    between atoms: C_62  and  C_64 
REMARK   58  A    between atoms: C_64  and  C_65 
REMARK   59  A    between atoms: C_65  and  C_66 
REMARK   60  A    between atoms: C_66  and  C_67 
REMARK   61  A    between atoms: C_67  and  C_68 
REMARK   62  A    between atoms: C_68  and  C_69 
REMARK   63  A    between atoms: C_69  and  C_70 
REMARK   64  A    between atoms: C_70  and  C_71 
REMARK   65  A    between atoms: C_71  and  C_72 
REMARK   66  A    between atoms: C_72  and  C_73 
REMARK   67  A    between atoms: C_73  and  C_74 
REMARK   68  A    between atoms: C_74  and  C_75 
REMARK   69  A    between atoms: C_75  and  C_76 
REMARK   70  A    between atoms: C_76  and  C_77 
REMARK   71  A    between atoms: C_77  and  C_78 
REMARK   72  A    between atoms: C_78  and  C_79 
REMARK   73  A    between atoms: O_81  and  C_82 
REMARK   74  A    between atoms: C_82  and  C_84 
REMARK   75  A    between atoms: C_84  and  C_85 
REMARK   76  A    between atoms: C_85  and  C_86 
REMARK   77  A    between atoms: C_86  and  C_87 
REMARK   78  A    between atoms: C_87  and  C_88 
REMARK   79  A    between atoms: C_88  and  C_89 
REMARK   80  A    between atoms: C_89  and  C_90 
REMARK   81  A    between atoms: C_90  and  C_91 
REMARK   82  A    between atoms: C_91  and  C_92 
REMARK   83  A    between atoms: C_92  and  C_93 
REMARK   84  A    between atoms: C_93  and  C_94 
REMARK   85  A    between atoms: C_94  and  C_95 
REMARK   86  A    between atoms: C_95  and  C_96 
REMARK   87  A    between atoms: C_96  and  C_97 
REMARK   88  A    between atoms: C_97  and  C_98 
REMARK   89  A    between atoms: C_98  and  C_99 
ROOT
HETATM    1  C   UNK N   1      32.009   8.626   8.261  0.00  0.00     0.166 C 
ENDROOT
BRANCH   1   2
HETATM    2  C   UNK N   1      33.156   9.607   8.435  0.00  0.00     0.214 C 
BRANCH   2   3
HETATM    3  O   UNK N   1      32.713  10.903   8.154  0.00  0.00    -0.294 OA
BRANCH   3   4
HETATM    4  P   UNK N   1      34.096  11.741   7.555  0.00  0.00     0.393 P 
HETATM    5  O   UNK N   1      35.332  11.054   8.192  0.00  0.00    -0.631 OA
BRANCH   4   6
HETATM    6  O   UNK N   1      34.111  13.413   8.065  0.00  0.00    -0.294 OA
BRANCH   6   7
HETATM    7  C   UNK N   1      35.457  13.705   8.326  0.00  0.00     0.215 C 
BRANCH   7   8
HETATM    8  C   UNK N   1      35.611  14.541   9.598  0.00  0.00     0.180 C 
BRANCH   8   9
HETATM    9  C   UNK N   1      35.416  13.643  10.812  0.00  0.00     0.213 C 
BRANCH   9  10
HETATM   10  O   UNK N   1      36.112  14.056  11.928  0.00  0.00    -0.319 OA
BRANCH  10  11
HETATM   11  C   UNK N   1      36.682  13.213  12.827  0.00  0.00     0.258 C 
HETATM   12  O   UNK N   1      37.247  12.211  12.423  0.00  0.00    -0.265 OA
BRANCH  11  13
HETATM   13  C   UNK N   1      36.693  13.501  14.301  0.00  0.00     0.111 C 
BRANCH  13  14
HETATM   14  C   UNK N   1      36.718  12.230  15.128  0.00  0.00     0.010 C 
BRANCH  14  15
HETATM   15  C   UNK N   1      35.559  12.225  16.103  0.00  0.00     0.000 C 
BRANCH  15  16
HETATM   16  C   UNK N   1      34.238  12.159  15.362  0.00  0.00     0.000 C 
BRANCH  16  17
HETATM   17  C   UNK N   1      33.949  10.736  14.901  0.00  0.00     0.000 C 
BRANCH  17  18
HETATM   18  C   UNK N   1      33.962  10.594  13.385  0.00  0.00     0.000 C 
BRANCH  18  19
HETATM   19  C   UNK N   1      34.956   9.532  12.953  0.00  0.00     0.000 C 
BRANCH  19  20
HETATM   20  C   UNK N   1      35.345   8.703  14.158  0.00  0.00     0.000 C 
BRANCH  20  21
HETATM   21  C   UNK N   1      36.853   8.644  14.289  0.00  0.00     0.000 C 
BRANCH  21  22
HETATM   22  C   UNK N   1      37.258   7.387  15.033  0.00  0.00     0.000 C 
BRANCH  22  23
HETATM   23  C   UNK N   1      36.744   7.453  16.455  0.00  0.00     0.000 C 
BRANCH  23  24
HETATM   24  C   UNK N   1      37.270   8.711  17.113  0.00  0.00     0.000 C 
BRANCH  24  25
HETATM   25  C   UNK N   1      36.341   9.104  18.241  0.00  0.00     0.000 C 
BRANCH  25  26
HETATM   26  C   UNK N   1      37.151   9.611  19.414  0.00  0.00     0.000 C 
BRANCH  26  27
HETATM   27  C   UNK N   1      36.308  10.586  20.207  0.00  0.00    -0.000 C 
BRANCH  27  28
HETATM   28  C   UNK N   1      35.325  11.276  19.286  0.00  0.00    -0.005 C 
HETATM   29  C   UNK N   1      35.108  12.697  19.762  0.00  0.00     0.005 C 
ENDBRANCH  27  28
ENDBRANCH  26  27
ENDBRANCH  25  26
ENDBRANCH  24  25
ENDBRANCH  23  24
ENDBRANCH  22  23
ENDBRANCH  21  22
ENDBRANCH  20  21
ENDBRANCH  19  20
ENDBRANCH  18  19
ENDBRANCH  17  18
ENDBRANCH  16  17
ENDBRANCH  15  16
ENDBRANCH  14  15
ENDBRANCH  13  14
ENDBRANCH  11  13
ENDBRANCH  10  11
ENDBRANCH   9  10
ENDBRANCH   8   9
BRANCH   8  30
HETATM   30  O   UNK N   1      34.620  15.493   9.640  0.00  0.00    -0.312 OA
BRANCH  30  31
HETATM   31  C   UNK N   1      34.824  16.786   9.314  0.00  0.00     0.259 C 
HETATM   32  O   UNK N   1      35.375  17.554  10.090  0.00  0.00    -0.265 OA
BRANCH  31  33
HETATM   33  C   UNK N   1      34.403  17.253   7.964  0.00  0.00     0.111 C 
BRANCH  33  34
HETATM   34  C   UNK N   1      33.217  18.198   8.097  0.00  0.00     0.010 C 
BRANCH  34  35
HETATM   35  C   UNK N   1      31.974  17.483   8.616  0.00  0.00     0.000 C 
BRANCH  35  36
HETATM   36  C   UNK N   1      30.738  18.380   8.741  0.00  0.00     0.000 C 
BRANCH  36  37
HETATM   37  C   UNK N   1      29.474  17.616   9.110  0.00  0.00     0.000 C 
BRANCH  37  38
HETATM   38  C   UNK N   1      28.260  18.477   8.803  0.00  0.00     0.000 C 
BRANCH  38  39
HETATM   39  C   UNK N   1      28.428  19.182   7.474  0.00  0.00     0.000 C 
BRANCH  39  40
HETATM   40  C   UNK N   1      27.273  20.145   7.228  0.00  0.00     0.000 C 
BRANCH  40  41
HETATM   41  C   UNK N   1      27.482  20.995   5.982  0.00  0.00     0.000 C 
BRANCH  41  42
HETATM   42  C   UNK N   1      26.319  20.826   5.019  0.00  0.00     0.000 C 
BRANCH  42  43
HETATM   43  C   UNK N   1      26.783  20.180   3.733  0.00  0.00     0.000 C 
BRANCH  43  44
HETATM   44  C   UNK N   1      25.584  19.601   3.017  0.00  0.00     0.000 C 
BRANCH  44  45
HETATM   45  C   UNK N   1      24.313  20.049   3.695  0.00  0.00     0.000 C 
BRANCH  45  46
HETATM   46  C   UNK N   1      23.417  18.844   3.857  0.00  0.00     0.000 C 
BRANCH  46  47
HETATM   47  C   UNK N   1      21.971  19.281   3.893  0.00  0.00    -0.000 C 
BRANCH  47  48
HETATM   48  C   UNK N   1      21.496  19.519   2.477  0.00  0.00    -0.005 C 
HETATM   49  C   UNK N   1      20.788  20.853   2.400  0.00  0.00     0.005 C 
ENDBRANCH  47  48
ENDBRANCH  46  47
ENDBRANCH  45  46
ENDBRANCH  44  45
ENDBRANCH  43  44
ENDBRANCH  42  43
ENDBRANCH  41  42
ENDBRANCH  40  41
ENDBRANCH  39  40
ENDBRANCH  38  39
ENDBRANCH  37  38
ENDBRANCH  36  37
ENDBRANCH  35  36
ENDBRANCH  34  35
ENDBRANCH  33  34
ENDBRANCH  31  33
ENDBRANCH  30  31
ENDBRANCH   8  30
ENDBRANCH   7   8
ENDBRANCH   6   7
ENDBRANCH   4   6
BRANCH   4  50
HETATM   50  O   UNK N   1      34.256  11.517   5.838  0.00  0.00    -0.307 OA
HETATM   51  H   UNK N   1      34.749  11.599   5.007  0.00  0.00     0.222 HD
ENDBRANCH   4  50
ENDBRANCH   3   4
ENDBRANCH   2   3
ENDBRANCH   1   2
BRANCH   1  52
HETATM   52  O   UNK N   1      30.814   9.234   8.640  0.00  0.00    -0.391 OA
HETATM   53  H   UNK N   1      30.802  10.174   8.879  0.00  0.00     0.210 HD
ENDBRANCH   1  52
BRANCH   1  54
HETATM   54  C   UNK N   1      31.911   8.178   6.812  0.00  0.00     0.214 C 
BRANCH  54  55
HETATM   55  O   UNK N   1      30.802   8.785   6.224  0.00  0.00    -0.294 OA
BRANCH  55  56
HETATM   56  P   UNK N   1      31.387   9.675   4.852  0.00  0.00     0.393 P 
HETATM   57  O   UNK N   1      30.453   9.338   3.658  0.00  0.00    -0.631 OA
BRANCH  56  58
HETATM   58  O   UNK N   1      32.999   9.222   4.387  0.00  0.00    -0.307 OA
HETATM   59  H   UNK N   1      33.915   9.387   4.659  0.00  0.00     0.222 HD
ENDBRANCH  56  58
BRANCH  56  60
HETATM   60  O   UNK N   1      31.244  11.377   5.159  0.00  0.00    -0.294 OA
BRANCH  60  61
HETATM   61  C   UNK N   1      30.139  11.768   4.392  0.00  0.00     0.215 C 
BRANCH  61  62
HETATM   62  C   UNK N   1      30.501  12.891   3.437  0.00  0.00     0.180 C 
BRANCH  62  63
HETATM   63  C   UNK N   1      31.977  13.255   3.559  0.00  0.00     0.213 C 
BRANCH  63  64
HETATM   64  O   UNK N   1      32.344  14.274   2.705  0.00  0.00    -0.319 OA
BRANCH  64  65
HETATM   65  C   UNK N   1      33.035  15.381   3.085  0.00  0.00     0.258 C 
HETATM   66  O   UNK N   1      33.733  15.952   2.265  0.00  0.00    -0.265 OA
BRANCH  65  67
HETATM   67  C   UNK N   1      32.962  15.934   4.480  0.00  0.00     0.111 C 
BRANCH  67  68
HETATM   68  C   UNK N   1      32.431  17.355   4.471  0.00  0.00     0.010 C 
BRANCH  68  69
HETATM   69  C   UNK N   1      30.974  17.379   4.872  0.00  0.00     0.000 C 
BRANCH  69  70
HETATM   70  C   UNK N   1      30.675  16.128   5.681  0.00  0.00     0.000 C 
BRANCH  70  71
HETATM   71  C   UNK N   1      29.380  15.465   5.230  0.00  0.00     0.000 C 
BRANCH  71  72
HETATM   72  C   UNK N   1      28.163  16.007   5.969  0.00  0.00     0.000 C 
BRANCH  72  73
HETATM   73  C   UNK N   1      27.307  16.883   5.073  0.00  0.00     0.000 C 
BRANCH  73  74
HETATM   74  C   UNK N   1      25.827  16.575   5.243  0.00  0.00     0.000 C 
BRANCH  74  75
HETATM   75  C   UNK N   1      25.616  15.253   5.968  0.00  0.00     0.000 C 
BRANCH  75  76
HETATM   76  C   UNK N   1      24.196  15.107   6.495  0.00  0.00     0.000 C 
BRANCH  76  77
HETATM   77  C   UNK N   1      23.765  13.651   6.452  0.00  0.00     0.000 C 
BRANCH  77  78
HETATM   78  C   UNK N   1      24.721  12.797   7.258  0.00  0.00     0.000 C 
BRANCH  78  79
HETATM   79  C   UNK N   1      24.614  13.154   8.727  0.00  0.00     0.000 C 
BRANCH  79  80
HETATM   80  C   UNK N   1      24.336  11.900   9.525  0.00  0.00     0.000 C 
BRANCH  80  81
HETATM   81  C   UNK N   1      24.427  12.217  11.001  0.00  0.00    -0.000 C 
BRANCH  81  82
HETATM   82  C   UNK N   1      23.067  12.029  11.637  0.00  0.00    -0.005 C 
HETATM   83  C   UNK N   1      23.229  11.874  13.134  0.00  0.00     0.005 C 
ENDBRANCH  81  82
ENDBRANCH  80  81
ENDBRANCH  79  80
ENDBRANCH  78  79
ENDBRANCH  77  78
ENDBRANCH  76  77
ENDBRANCH  75  76
ENDBRANCH  74  75
ENDBRANCH  73  74
ENDBRANCH  72  73
ENDBRANCH  71  72
ENDBRANCH  70  71
ENDBRANCH  69  70
ENDBRANCH  68  69
ENDBRANCH  67  68
ENDBRANCH  65  67
ENDBRANCH  64  65
ENDBRANCH  63  64
ENDBRANCH  62  63
BRANCH  62  84
HETATM   84  O   UNK N   1      30.172  12.568   2.136  0.00  0.00    -0.312 OA
BRANCH  84  85
HETATM   85  C   UNK N   1      28.981  12.903   1.581  0.00  0.00     0.259 C 
HETATM   86  O   UNK N   1      28.334  12.079   0.954  0.00  0.00    -0.265 OA
BRANCH  85  87
HETATM   87  C   UNK N   1      28.413  14.269   1.835  0.00  0.00     0.111 C 
BRANCH  87  88
HETATM   88  C   UNK N   1      27.025  14.234   2.465  0.00  0.00     0.010 C 
BRANCH  88  89
HETATM   89  C   UNK N   1      26.077  15.199   1.769  0.00  0.00     0.000 C 
BRANCH  89  90
HETATM   90  C   UNK N   1      24.649  14.885   2.187  0.00  0.00     0.000 C 
BRANCH  90  91
HETATM   91  C   UNK N   1      23.917  14.026   1.168  0.00  0.00     0.000 C 
BRANCH  91  92
HETATM   92  C   UNK N   1      22.454  14.424   1.007  0.00  0.00     0.000 C 
BRANCH  92  93
HETATM   93  C   UNK N   1      21.959  15.206   2.220  0.00  0.00     0.000 C 
BRANCH  93  94
HETATM   94  C   UNK N   1      20.658  15.931   1.910  0.00  0.00     0.000 C 
BRANCH  94  95
HETATM   95  C   UNK N   1      19.929  16.286   3.196  0.00  0.00     0.000 C 
BRANCH  95  96
HETATM   96  C   UNK N   1      20.755  15.875   4.402  0.00  0.00     0.000 C 
BRANCH  96  97
HETATM   97  C   UNK N   1      20.036  16.194   5.701  0.00  0.00     0.000 C 
BRANCH  97  98
HETATM   98  C   UNK N   1      20.985  16.818   6.708  0.00  0.00     0.000 C 
BRANCH  98  99
HETATM   99  C   UNK N   1      20.227  17.153   7.976  0.00  0.00     0.000 C 
BRANCH  99 100
HETATM  100  C   UNK N   1      20.059  15.915   8.833  0.00  0.00     0.000 C 
BRANCH 100 101
HETATM  101  C   UNK N   1      21.327  15.093   8.755  0.00  0.00    -0.000 C 
BRANCH 101 102
HETATM  102  C   UNK N   1      21.023  13.646   9.073  0.00  0.00    -0.005 C 
HETATM  103  C   UNK N   1      20.032  13.586  10.216  0.00  0.00     0.005 C 
ENDBRANCH 101 102
ENDBRANCH 100 101
ENDBRANCH  99 100
ENDBRANCH  98  99
ENDBRANCH  97  98
ENDBRANCH  96  97
ENDBRANCH  95  96
ENDBRANCH  94  95
ENDBRANCH  93  94
ENDBRANCH  92  93
ENDBRANCH  91  92
ENDBRANCH  90  91
ENDBRANCH  89  90
ENDBRANCH  88  89
ENDBRANCH  87  88
ENDBRANCH  85  87
ENDBRANCH  84  85
ENDBRANCH  62  84
ENDBRANCH  61  62
ENDBRANCH  60  61
ENDBRANCH  56  60
ENDBRANCH  55  56
ENDBRANCH  54  55
ENDBRANCH   1  54
TORSDOF 89
ENDMDL
MODEL 3
REMARK VINA RESULT:      -5.4      1.359      2.102
REMARK WARNING: 32 MAX_TORS EXCEEDED!!!
REMARK  89 active torsions:
REMARK  status: ('A' for Active; 'I' for Inactive)
REMARK    1  A    between atoms: C_2  and  C_3 
REMARK    2  A    between atoms: C_3  and  C_4 
REMARK    3  A    between atoms: C_4  and  C_5 
REMARK    4  A    between atoms: C_5  and  C_6 
REMARK    5  A    between atoms: C_6  and  C_7 
REMARK    6  A    between atoms: C_7  and  C_8 
REMARK    7  A    between atoms: C_8  and  C_9 
REMARK    8  A    between atoms: C_9  and  C_10 
REMARK    9  A    between atoms: C_10  and  C_11 
REMARK   10  A    between atoms: C_11  and  C_12 
REMARK   11  A    between atoms: C_12  and  C_13 
REMARK   12  A    between atoms: C_13  and  C_14 
REMARK   13  A    between atoms: C_14  and  C_15 
REMARK   14  A    between atoms: C_15  and  C_16 
REMARK   15  A    between atoms: C_16  and  C_17 
REMARK   16  A    between atoms: C_17  and  C_18 
REMARK   17  A    between atoms: C_18  and  O_20 
REMARK   18  A    between atoms: O_20  and  C_21 
REMARK   19  A    between atoms: C_21  and  C_22 
REMARK   20  A    between atoms: C_22  and  C_23 
REMARK   21  A    between atoms: C_22  and  O_81 
REMARK   22  A    between atoms: C_23  and  O_24 
REMARK   23  A    between atoms: P_25  and  O_24 
REMARK   24  A    between atoms: P_25  and  O_26 
REMARK   25  A    between atoms: P_25  and  O_28 
REMARK   26  A    between atoms: O_28  and  C_29 
REMARK   27  A    between atoms: C_29  and  C_30 
REMARK   28  A    between atoms: C_30  and  O_31 
REMARK   29  A    between atoms: C_30  and  C_32 
REMARK   30  A    between atoms: C_32  and  O_33 
REMARK   31  A    between atoms: P_34  and  O_33 
REMARK   32  A    between atoms: P_34  and  O_35 
REMARK   33  A    between atoms: P_34  and  O_37 
REMARK   34  A    between atoms: O_37  and  C_38 
REMARK   35  A    between atoms: C_38  and  C_39 
REMARK   36  A    between atoms: C_39  and  C_40 
REMARK   37  A    between atoms: C_39  and  O_61 
REMARK   38  A    between atoms: C_40  and  O_41 
REMARK   39  A    between atoms: O_41  and  C_42 
REMARK   40  A    between atoms: C_42  and  C_44 
REMARK   41  A    between atoms: C_44  and  C_45 
REMARK   42  A    between atoms: C_45  and  C_46 
REMARK   43  A    between atoms: C_46  and  C_47 
REMARK   44  A    between atoms: C_47  and  C_48 
REMARK   45  A    between atoms: C_48  and  C_49 
REMARK   46  A    between atoms: C_49  and  C_50 
REMARK   47  A    between atoms: C_50  and  C_51 
REMARK   48  A    between atoms: C_51  and  C_52 
REMARK   49  A    between atoms: C_52  and  C_53 
REMARK   50  A    between atoms: C_53  and  C_54 
REMARK   51  A    between atoms: C_54  and  C_55 
REMARK   52  A    between atoms: C_55  and  C_56 
REMARK   53  A    between atoms: C_56  and  C_57 
REMARK   54  A    between atoms: C_57  and  C_58 
REMARK   55  A    between atoms: C_58  and  C_59 
REMARK   56  A    between atoms: O_61  and  C_62 
REMARK   57  A    between atoms: C_62  and  C_64 
REMARK   58  A    between atoms: C_64  and  C_65 
REMARK   59  A    between atoms: C_65  and  C_66 
REMARK   60  A    between atoms: C_66  and  C_67 
REMARK   61  A    between atoms: C_67  and  C_68 
REMARK   62  A    between atoms: C_68  and  C_69 
REMARK   63  A    between atoms: C_69  and  C_70 
REMARK   64  A    between atoms: C_70  and  C_71 
REMARK   65  A    between atoms: C_71  and  C_72 
REMARK   66  A    between atoms: C_72  and  C_73 
REMARK   67  A    between atoms: C_73  and  C_74 
REMARK   68  A    between atoms: C_74  and  C_75 
REMARK   69  A    between atoms: C_75  and  C_76 
REMARK   70  A    between atoms: C_76  and  C_77 
REMARK   71  A    between atoms: C_77  and  C_78 
REMARK   72  A    between atoms: C_78  and  C_79 
REMARK   73  A    between atoms: O_81  and  C_82 
REMARK   74  A    between atoms: C_82  and  C_84 
REMARK   75  A    between atoms: C_84  and  C_85 
REMARK   76  A    between atoms: C_85  and  C_86 
REMARK   77  A    between atoms: C_86  and  C_87 
REMARK   78  A    between atoms: C_87  and  C_88 
REMARK   79  A    between atoms: C_88  and  C_89 
REMARK   80  A    between atoms: C_89  and  C_90 
REMARK   81  A    between atoms: C_90  and  C_91 
REMARK   82  A    between atoms: C_91  and  C_92 
REMARK   83  A    between atoms: C_92  and  C_93 
REMARK   84  A    between atoms: C_93  and  C_94 
REMARK   85  A    between atoms: C_94  and  C_95 
REMARK   86  A    between atoms: C_95  and  C_96 
REMARK   87  A    between atoms: C_96  and  C_97 
REMARK   88  A    between atoms: C_97  and  C_98 
REMARK   89  A    between atoms: C_98  and  C_99 
ROOT
HETATM    1  C   UNK N   1      31.882   8.929   7.308  0.00  0.00     0.166 C 
ENDROOT
BRANCH   1   2
HETATM    2  C   UNK N   1      33.053   9.849   7.610  0.00  0.00     0.214 C 
BRANCH   2   3
HETATM    3  O   UNK N   1      32.638  10.870   8.470  0.00  0.00    -0.294 OA
BRANCH   3   4
HETATM    4  P   UNK N   1      33.452  12.288   7.923  0.00  0.00     0.393 P 
HETATM    5  O   UNK N   1      34.343  11.848   6.732  0.00  0.00    -0.631 OA
BRANCH   4   6
HETATM    6  O   UNK N   1      34.512  12.940   9.151  0.00  0.00    -0.294 OA
BRANCH   6   7
HETATM    7  C   UNK N   1      35.682  13.306   8.470  0.00  0.00     0.215 C 
BRANCH   7   8
HETATM    8  C   UNK N   1      36.149  14.705   8.874  0.00  0.00     0.180 C 
BRANCH   8   9
HETATM    9  C   UNK N   1      37.167  14.585  10.001  0.00  0.00     0.213 C 
BRANCH   9  10
HETATM   10  O   UNK N   1      36.601  14.449  11.251  0.00  0.00    -0.319 OA
BRANCH  10  11
HETATM   11  C   UNK N   1      36.702  13.334  12.018  0.00  0.00     0.258 C 
HETATM   12  O   UNK N   1      37.671  12.606  11.880  0.00  0.00    -0.265 OA
BRANCH  11  13
HETATM   13  C   UNK N   1      35.691  12.992  13.075  0.00  0.00     0.111 C 
BRANCH  13  14
HETATM   14  C   UNK N   1      35.941  13.747  14.366  0.00  0.00     0.010 C 
BRANCH  14  15
HETATM   15  C   UNK N   1      36.738  12.884  15.323  0.00  0.00     0.000 C 
BRANCH  15  16
HETATM   16  C   UNK N   1      36.541  11.414  15.008  0.00  0.00     0.000 C 
BRANCH  16  17
HETATM   17  C   UNK N   1      36.518  10.589  16.289  0.00  0.00     0.000 C 
BRANCH  17  18
HETATM   18  C   UNK N   1      35.206   9.843  16.485  0.00  0.00     0.000 C 
BRANCH  18  19
HETATM   19  C   UNK N   1      34.767   9.900  17.937  0.00  0.00     0.000 C 
BRANCH  19  20
HETATM   20  C   UNK N   1      35.241  11.203  18.544  0.00  0.00     0.000 C 
BRANCH  20  21
HETATM   21  C   UNK N   1      35.894  10.950  19.886  0.00  0.00     0.000 C 
BRANCH  21  22
HETATM   22  C   UNK N   1      34.944  10.188  20.788  0.00  0.00     0.000 C 
BRANCH  22  23
HETATM   23  C   UNK N   1      35.737   9.377  21.790  0.00  0.00     0.000 C 
BRANCH  23  24
HETATM   24  C   UNK N   1      35.068   8.033  21.980  0.00  0.00     0.000 C 
BRANCH  24  25
HETATM   25  C   UNK N   1      34.804   7.415  20.626  0.00  0.00     0.000 C 
BRANCH  25  26
HETATM   26  C   UNK N   1      33.489   6.668  20.653  0.00  0.00     0.000 C 
BRANCH  26  27
HETATM   27  C   UNK N   1      32.576   7.241  19.590  0.00  0.00    -0.000 C 
BRANCH  27  28
HETATM   28  C   UNK N   1      31.298   7.737  20.231  0.00  0.00    -0.005 C 
HETATM   29  C   UNK N   1      31.549   9.088  20.866  0.00  0.00     0.005 C 
ENDBRANCH  27  28
ENDBRANCH  26  27
ENDBRANCH  25  26
ENDBRANCH  24  25
ENDBRANCH  23  24
ENDBRANCH  22  23
ENDBRANCH  21  22
ENDBRANCH  20  21
ENDBRANCH  19  20
ENDBRANCH  18  19
ENDBRANCH  17  18
ENDBRANCH  16  17
ENDBRANCH  15  16
ENDBRANCH  14  15
ENDBRANCH  13  14
ENDBRANCH  11  13
ENDBRANCH  10  11
ENDBRANCH   9  10
ENDBRANCH   8   9
BRANCH   8  30
HETATM   30  O   UNK N   1      35.084  15.417   9.371  0.00  0.00    -0.312 OA
BRANCH  30  31
HETATM   31  C   UNK N   1      34.887  16.727   9.117  0.00  0.00     0.259 C 
HETATM   32  O   UNK N   1      35.282  17.586   9.891  0.00  0.00    -0.265 OA
BRANCH  31  33
HETATM   33  C   UNK N   1      34.216  17.111   7.844  0.00  0.00     0.111 C 
BRANCH  33  34
HETATM   34  C   UNK N   1      33.102  18.106   8.133  0.00  0.00     0.010 C 
BRANCH  34  35
HETATM   35  C   UNK N   1      31.793  17.409   8.492  0.00  0.00     0.000 C 
BRANCH  35  36
HETATM   36  C   UNK N   1      30.616  18.362   8.725  0.00  0.00     0.000 C 
BRANCH  36  37
HETATM   37  C   UNK N   1      29.266  17.659   8.737  0.00  0.00     0.000 C 
BRANCH  37  38
HETATM   38  C   UNK N   1      28.159  18.698   8.664  0.00  0.00     0.000 C 
BRANCH  38  39
HETATM   39  C   UNK N   1      28.210  19.440   7.347  0.00  0.00     0.000 C 
BRANCH  39  40
HETATM   40  C   UNK N   1      27.101  20.484   7.276  0.00  0.00     0.000 C 
BRANCH  40  41
HETATM   41  C   UNK N   1      26.879  20.999   5.861  0.00  0.00     0.000 C 
BRANCH  41  42
HETATM   42  C   UNK N   1      27.739  20.229   4.872  0.00  0.00     0.000 C 
BRANCH  42  43
HETATM   43  C   UNK N   1      26.893  19.687   3.741  0.00  0.00     0.000 C 
BRANCH  43  44
HETATM   44  C   UNK N   1      25.455  20.092   3.970  0.00  0.00     0.000 C 
BRANCH  44  45
HETATM   45  C   UNK N   1      24.715  20.130   2.656  0.00  0.00     0.000 C 
BRANCH  45  46
HETATM   46  C   UNK N   1      23.311  20.621   2.921  0.00  0.00     0.000 C 
BRANCH  46  47
HETATM   47  C   UNK N   1      22.459  19.486   3.435  0.00  0.00    -0.000 C 
BRANCH  47  48
HETATM   48  C   UNK N   1      21.104  19.549   2.767  0.00  0.00    -0.005 C 
HETATM   49  C   UNK N   1      21.133  20.584   1.664  0.00  0.00     0.005 C 
ENDBRANCH  47  48
ENDBRANCH  46  47
ENDBRANCH  45  46
ENDBRANCH  44  45
ENDBRANCH  43  44
ENDBRANCH  42  43
ENDBRANCH  41  42
ENDBRANCH  40  41
ENDBRANCH  39  40
ENDBRANCH  38  39
ENDBRANCH  37  38
ENDBRANCH  36  37
ENDBRANCH  35  36
ENDBRANCH  34  35
ENDBRANCH  33  34
ENDBRANCH  31  33
ENDBRANCH  30  31
ENDBRANCH   8  30
ENDBRANCH   7   8
ENDBRANCH   6   7
ENDBRANCH   4   6
BRANCH   4  50
HETATM   50  O   UNK N   1      32.320  13.437   7.275  0.00  0.00    -0.307 OA
HETATM   51  H   UNK N   1      31.533  13.999   7.351  0.00  0.00     0.222 HD
ENDBRANCH   4  50
ENDBRANCH   3   4
ENDBRANCH   2   3
ENDBRANCH   1   2
BRANCH   1  52
HETATM   52  O   UNK N   1      30.810   9.250   8.138  0.00  0.00    -0.391 OA
HETATM   53  H   UNK N   1      29.911   9.293   7.775  0.00  0.00     0.210 HD
ENDBRANCH   1  52
BRANCH   1  54
HETATM   54  C   UNK N   1      31.457   9.072   5.855  0.00  0.00     0.214 C 
BRANCH  54  55
HETATM   55  O   UNK N   1      30.112   9.436   5.811  0.00  0.00    -0.294 OA
BRANCH  55  56
HETATM   56  P   UNK N   1      29.957  10.629   4.559  0.00  0.00     0.393 P 
HETATM   57  O   UNK N   1      28.470  11.077   4.536  0.00  0.00    -0.631 OA
BRANCH  56  58
HETATM   58  O   UNK N   1      30.330  10.008   2.979  0.00  0.00    -0.307 OA
HETATM   59  H   UNK N   1      30.973   9.419   2.555  0.00  0.00     0.222 HD
ENDBRANCH  56  58
BRANCH  56  60
HETATM   60  O   UNK N   1      30.912  12.021   4.961  0.00  0.00    -0.294 OA
BRANCH  60  61
HETATM   61  C   UNK N   1      30.164  13.099   4.472  0.00  0.00     0.215 C 
BRANCH  61  62
HETATM   62  C   UNK N   1      30.837  13.736   3.269  0.00  0.00     0.180 C 
BRANCH  62  63
HETATM   63  C   UNK N   1      32.344  13.839   3.480  0.00  0.00     0.213 C 
BRANCH  63  64
HETATM   64  O   UNK N   1      32.843  15.080   3.140  0.00  0.00    -0.319 OA
BRANCH  64  65
HETATM   65  C   UNK N   1      32.260  16.259   3.480  0.00  0.00     0.258 C 
HETATM   66  O   UNK N   1      32.174  17.140   2.641  0.00  0.00    -0.265 OA
BRANCH  65  67
HETATM   67  C   UNK N   1      31.704  16.515   4.853  0.00  0.00     0.111 C 
BRANCH  67  68
HETATM   68  C   UNK N   1      30.617  17.572   4.808  0.00  0.00     0.010 C 
BRANCH  68  69
HETATM   69  C   UNK N   1      29.292  16.954   4.424  0.00  0.00     0.000 C 
BRANCH  69  70
HETATM   70  C   UNK N   1      28.713  16.257   5.644  0.00  0.00     0.000 C 
BRANCH  70  71
HETATM   71  C   UNK N   1      27.197  16.400   5.704  0.00  0.00     0.000 C 
BRANCH  71  72
HETATM   72  C   UNK N   1      26.530  15.216   6.392  0.00  0.00     0.000 C 
BRANCH  72  73
HETATM   73  C   UNK N   1      26.783  13.919   5.647  0.00  0.00     0.000 C 
BRANCH  73  74
HETATM   74  C   UNK N   1      25.593  12.978   5.747  0.00  0.00     0.000 C 
BRANCH  74  75
HETATM   75  C   UNK N   1      24.697  13.340   6.924  0.00  0.00     0.000 C 
BRANCH  75  76
HETATM   76  C   UNK N   1      23.233  13.032   6.648  0.00  0.00     0.000 C 
BRANCH  76  77
HETATM   77  C   UNK N   1      23.093  12.265   5.344  0.00  0.00     0.000 C 
BRANCH  77  78
HETATM   78  C   UNK N   1      21.782  12.611   4.671  0.00  0.00     0.000 C 
BRANCH  78  79
HETATM   79  C   UNK N   1      21.560  11.699   3.481  0.00  0.00     0.000 C 
BRANCH  79  80
HETATM   80  C   UNK N   1      21.417  12.537   2.230  0.00  0.00     0.000 C 
BRANCH  80  81
HETATM   81  C   UNK N   1      19.988  13.017   2.110  0.00  0.00    -0.000 C 
BRANCH  81  82
HETATM   82  C   UNK N   1      19.967  14.530   2.101  0.00  0.00    -0.005 C 
HETATM   83  C   UNK N   1      20.868  15.039   0.997  0.00  0.00     0.005 C 
ENDBRANCH  81  82
ENDBRANCH  80  81
ENDBRANCH  79  80
ENDBRANCH  78  79
ENDBRANCH  77  78
ENDBRANCH  76  77
ENDBRANCH  75  76
ENDBRANCH  74  75
ENDBRANCH  73  74
ENDBRANCH  72  73
ENDBRANCH  71  72
ENDBRANCH  70  71
ENDBRANCH  69  70
ENDBRANCH  68  69
ENDBRANCH  67  68
ENDBRANCH  65  67
ENDBRANCH  64  65
ENDBRANCH  63  64
ENDBRANCH  62  63
BRANCH  62  84
HETATM   84  O   UNK N   1      30.540  13.052   2.108  0.00  0.00    -0.312 OA
BRANCH  84  85
HETATM   85  C   UNK N   1      29.297  13.041   1.566  0.00  0.00     0.259 C 
HETATM   86  O   UNK N   1      28.807  12.001   1.156  0.00  0.00    -0.265 OA
BRANCH  85  87
HETATM   87  C   UNK N   1      28.484  14.303   1.572  0.00  0.00     0.111 C 
BRANCH  87  88
HETATM   88  C   UNK N   1      27.157  14.160   2.307  0.00  0.00     0.010 C 
BRANCH  88  89
HETATM   89  C   UNK N   1      26.277  15.384   2.105  0.00  0.00     0.000 C 
BRANCH  89  90
HETATM   90  C   UNK N   1      24.851  14.933   1.828  0.00  0.00     0.000 C 
BRANCH  90  91
HETATM   91  C   UNK N   1      23.949  15.068   3.046  0.00  0.00     0.000 C 
BRANCH  91  92
HETATM   92  C   UNK N   1      24.247  16.321   3.862  0.00  0.00     0.000 C 
BRANCH  92  93
HETATM   93  C   UNK N   1      23.301  16.440   5.053  0.00  0.00     0.000 C 
BRANCH  93  94
HETATM   94  C   UNK N   1      21.872  16.106   4.652  0.00  0.00     0.000 C 
BRANCH  94  95
HETATM   95  C   UNK N   1      20.934  16.282   5.835  0.00  0.00     0.000 C 
BRANCH  95  96
HETATM   96  C   UNK N   1      21.696  16.133   7.140  0.00  0.00     0.000 C 
BRANCH  96  97
HETATM   97  C   UNK N   1      20.759  15.836   8.298  0.00  0.00     0.000 C 
BRANCH  97  98
HETATM   98  C   UNK N   1      21.322  14.741   9.186  0.00  0.00     0.000 C 
BRANCH  98  99
HETATM   99  C   UNK N   1      20.184  13.960   9.808  0.00  0.00     0.000 C 
BRANCH  99 100
HETATM  100  C   UNK N   1      20.726  12.834  10.666  0.00  0.00     0.000 C 
BRANCH 100 101
HETATM  101  C   UNK N   1      22.031  12.352  10.070  0.00  0.00    -0.000 C 
BRANCH 101 102
HETATM  102  C   UNK N   1      23.088  12.266  11.148  0.00  0.00    -0.005 C 
HETATM  103  C   UNK N   1      24.456  12.219  10.500  0.00  0.00     0.005 C 
ENDBRANCH 101 102
ENDBRANCH 100 101
ENDBRANCH  99 100
ENDBRANCH  98  99
ENDBRANCH  97  98
ENDBRANCH  96  97
ENDBRANCH  95  96
ENDBRANCH  94  95
ENDBRANCH  93  94
ENDBRANCH  92  93
ENDBRANCH  91  92
ENDBRANCH  90  91
ENDBRANCH  89  90
ENDBRANCH  88  89
ENDBRANCH  87  88
ENDBRANCH  85  87
ENDBRANCH  84  85
ENDBRANCH  62  84
ENDBRANCH  61  62
ENDBRANCH  60  61
ENDBRANCH  56  60
ENDBRANCH  55  56
ENDBRANCH  54  55
ENDBRANCH   1  54
TORSDOF 89
ENDMDL
MODEL 4
REMARK VINA RESULT:      -5.3      1.931      4.016
REMARK WARNING: 32 MAX_TORS EXCEEDED!!!
REMARK  89 active torsions:
REMARK  status: ('A' for Active; 'I' for Inactive)
REMARK    1  A    between atoms: C_2  and  C_3 
REMARK    2  A    between atoms: C_3  and  C_4 
REMARK    3  A    between atoms: C_4  and  C_5 
REMARK    4  A    between atoms: C_5  and  C_6 
REMARK    5  A    between atoms: C_6  and  C_7 
REMARK    6  A    between atoms: C_7  and  C_8 
REMARK    7  A    between atoms: C_8  and  C_9 
REMARK    8  A    between atoms: C_9  and  C_10 
REMARK    9  A    between atoms: C_10  and  C_11 
REMARK   10  A    between atoms: C_11  and  C_12 
REMARK   11  A    between atoms: C_12  and  C_13 
REMARK   12  A    between atoms: C_13  and  C_14 
REMARK   13  A    between atoms: C_14  and  C_15 
REMARK   14  A    between atoms: C_15  and  C_16 
REMARK   15  A    between atoms: C_16  and  C_17 
REMARK   16  A    between atoms: C_17  and  C_18 
REMARK   17  A    between atoms: C_18  and  O_20 
REMARK   18  A    between atoms: O_20  and  C_21 
REMARK   19  A    between atoms: C_21  and  C_22 
REMARK   20  A    between atoms: C_22  and  C_23 
REMARK   21  A    between atoms: C_22  and  O_81 
REMARK   22  A    between atoms: C_23  and  O_24 
REMARK   23  A    between atoms: P_25  and  O_24 
REMARK   24  A    between atoms: P_25  and  O_26 
REMARK   25  A    between atoms: P_25  and  O_28 
REMARK   26  A    between atoms: O_28  and  C_29 
REMARK   27  A    between atoms: C_29  and  C_30 
REMARK   28  A    between atoms: C_30  and  O_31 
REMARK   29  A    between atoms: C_30  and  C_32 
REMARK   30  A    between atoms: C_32  and  O_33 
REMARK   31  A    between atoms: P_34  and  O_33 
REMARK   32  A    between atoms: P_34  and  O_35 
REMARK   33  A    between atoms: P_34  and  O_37 
REMARK   34  A    between atoms: O_37  and  C_38 
REMARK   35  A    between atoms: C_38  and  C_39 
REMARK   36  A    between atoms: C_39  and  C_40 
REMARK   37  A    between atoms: C_39  and  O_61 
REMARK   38  A    between atoms: C_40  and  O_41 
REMARK   39  A    between atoms: O_41  and  C_42 
REMARK   40  A    between atoms: C_42  and  C_44 
REMARK   41  A    between atoms: C_44  and  C_45 
REMARK   42  A    between atoms: C_45  and  C_46 
REMARK   43  A    between atoms: C_46  and  C_47 
REMARK   44  A    between atoms: C_47  and  C_48 
REMARK   45  A    between atoms: C_48  and  C_49 
REMARK   46  A    between atoms: C_49  and  C_50 
REMARK   47  A    between atoms: C_50  and  C_51 
REMARK   48  A    between atoms: C_51  and  C_52 
REMARK   49  A    between atoms: C_52  and  C_53 
REMARK   50  A    between atoms: C_53  and  C_54 
REMARK   51  A    between atoms: C_54  and  C_55 
REMARK   52  A    between atoms: C_55  and  C_56 
REMARK   53  A    between atoms: C_56  and  C_57 
REMARK   54  A    between atoms: C_57  and  C_58 
REMARK   55  A    between atoms: C_58  and  C_59 
REMARK   56  A    between atoms: O_61  and  C_62 
REMARK   57  A    between atoms: C_62  and  C_64 
REMARK   58  A    between atoms: C_64  and  C_65 
REMARK   59  A    between atoms: C_65  and  C_66 
REMARK   60  A    between atoms: C_66  and  C_67 
REMARK   61  A    between atoms: C_67  and  C_68 
REMARK   62  A    between atoms: C_68  and  C_69 
REMARK   63  A    between atoms: C_69  and  C_70 
REMARK   64  A    between atoms: C_70  and  C_71 
REMARK   65  A    between atoms: C_71  and  C_72 
REMARK   66  A    between atoms: C_72  and  C_73 
REMARK   67  A    between atoms: C_73  and  C_74 
REMARK   68  A    between atoms: C_74  and  C_75 
REMARK   69  A    between atoms: C_75  and  C_76 
REMARK   70  A    between atoms: C_76  and  C_77 
REMARK   71  A    between atoms: C_77  and  C_78 
REMARK   72  A    between atoms: C_78  and  C_79 
REMARK   73  A    between atoms: O_81  and  C_82 
REMARK   74  A    between atoms: C_82  and  C_84 
REMARK   75  A    between atoms: C_84  and  C_85 
REMARK   76  A    between atoms: C_85  and  C_86 
REMARK   77  A    between atoms: C_86  and  C_87 
REMARK   78  A    between atoms: C_87  and  C_88 
REMARK   79  A    between atoms: C_88  and  C_89 
REMARK   80  A    between atoms: C_89  and  C_90 
REMARK   81  A    between atoms: C_90  and  C_91 
REMARK   82  A    between atoms: C_91  and  C_92 
REMARK   83  A    between atoms: C_92  and  C_93 
REMARK   84  A    between atoms: C_93  and  C_94 
REMARK   85  A    between atoms: C_94  and  C_95 
REMARK   86  A    between atoms: C_95  and  C_96 
REMARK   87  A    between atoms: C_96  and  C_97 
REMARK   88  A    between atoms: C_97  and  C_98 
REMARK   89  A    between atoms: C_98  and  C_99 
ROOT
HETATM    1  C   UNK N   1      34.965  14.505   6.151  0.00  0.00     0.166 C 
ENDROOT
BRANCH   1   2
HETATM    2  C   UNK N   1      35.265  13.189   6.849  0.00  0.00     0.214 C 
BRANCH   2   3
HETATM    3  O   UNK N   1      34.083  12.460   7.004  0.00  0.00    -0.294 OA
BRANCH   3   4
HETATM    4  P   UNK N   1      33.410  12.991   8.500  0.00  0.00     0.393 P 
HETATM    5  O   UNK N   1      32.301  14.015   8.140  0.00  0.00    -0.631 OA
BRANCH   4   6
HETATM    6  O   UNK N   1      34.590  13.829   9.480  0.00  0.00    -0.294 OA
BRANCH   6   7
HETATM    7  C   UNK N   1      33.998  15.061   9.795  0.00  0.00     0.215 C 
BRANCH   7   8
HETATM    8  C   UNK N   1      35.000  16.210   9.671  0.00  0.00     0.180 C 
BRANCH   8   9
HETATM    9  C   UNK N   1      35.778  16.335  10.975  0.00  0.00     0.213 C 
BRANCH   9  10
HETATM   10  O   UNK N   1      35.315  15.514  11.981  0.00  0.00    -0.319 OA
BRANCH  10  11
HETATM   11  C   UNK N   1      35.979  14.423  12.442  0.00  0.00     0.258 C 
HETATM   12  O   UNK N   1      36.951  14.018  11.828  0.00  0.00    -0.265 OA
BRANCH  11  13
HETATM   13  C   UNK N   1      35.593  13.729  13.718  0.00  0.00     0.111 C 
BRANCH  13  14
HETATM   14  C   UNK N   1      36.517  14.093  14.864  0.00  0.00     0.010 C 
BRANCH  14  15
HETATM   15  C   UNK N   1      36.163  13.280  16.092  0.00  0.00     0.000 C 
BRANCH  15  16
HETATM   16  C   UNK N   1      35.145  12.210  15.748  0.00  0.00     0.000 C 
BRANCH  16  17
HETATM   17  C   UNK N   1      35.759  10.821  15.881  0.00  0.00     0.000 C 
BRANCH  17  18
HETATM   18  C   UNK N   1      34.853   9.847  16.622  0.00  0.00     0.000 C 
BRANCH  18  19
HETATM   19  C   UNK N   1      35.485   9.419  17.935  0.00  0.00     0.000 C 
BRANCH  19  20
HETATM   20  C   UNK N   1      34.590   9.853  19.076  0.00  0.00     0.000 C 
BRANCH  20  21
HETATM   21  C   UNK N   1      33.444   8.877  19.243  0.00  0.00     0.000 C 
BRANCH  21  22
HETATM   22  C   UNK N   1      32.914   8.940  20.662  0.00  0.00     0.000 C 
BRANCH  22  23
HETATM   23  C   UNK N   1      33.650  10.018  21.429  0.00  0.00     0.000 C 
BRANCH  23  24
HETATM   24  C   UNK N   1      32.705  10.643  22.433  0.00  0.00     0.000 C 
BRANCH  24  25
HETATM   25  C   UNK N   1      32.300   9.598  23.448  0.00  0.00     0.000 C 
BRANCH  25  26
HETATM   26  C   UNK N   1      32.307  10.204  24.834  0.00  0.00     0.000 C 
BRANCH  26  27
HETATM   27  C   UNK N   1      31.043   9.791  25.557  0.00  0.00    -0.000 C 
BRANCH  27  28
HETATM   28  C   UNK N   1      30.439  10.992  26.252  0.00  0.00    -0.005 C 
HETATM   29  C   UNK N   1      31.543  11.954  26.636  0.00  0.00     0.005 C 
ENDBRANCH  27  28
ENDBRANCH  26  27
ENDBRANCH  25  26
ENDBRANCH  24  25
ENDBRANCH  23  24
ENDBRANCH  22  23
ENDBRANCH  21  22
ENDBRANCH  20  21
ENDBRANCH  19  20
ENDBRANCH  18  19
ENDBRANCH  17  18
ENDBRANCH  16  17
ENDBRANCH  15  16
ENDBRANCH  14  15
ENDBRANCH  13  14
ENDBRANCH  11  13
ENDBRANCH  10  11
ENDBRANCH   9  10
ENDBRANCH   8   9
BRANCH   8  30
HETATM   30  O   UNK N   1      34.321  17.391   9.495  0.00  0.00    -0.312 OA
BRANCH  30  31
HETATM   31  C   UNK N   1      34.477  18.178   8.410  0.00  0.00     0.259 C 
HETATM   32  O   UNK N   1      35.278  19.102   8.410  0.00  0.00    -0.265 OA
BRANCH  31  33
HETATM   33  C   UNK N   1      33.682  17.870   7.189  0.00  0.00     0.111 C 
BRANCH  33  34
HETATM   34  C   UNK N   1      32.241  17.572   7.577  0.00  0.00     0.010 C 
BRANCH  34  35
HETATM   35  C   UNK N   1      31.394  17.184   6.370  0.00  0.00     0.000 C 
BRANCH  35  36
HETATM   36  C   UNK N   1      29.906  16.993   6.681  0.00  0.00     0.000 C 
BRANCH  36  37
HETATM   37  C   UNK N   1      29.568  17.190   8.152  0.00  0.00     0.000 C 
BRANCH  37  38
HETATM   38  C   UNK N   1      28.574  18.332   8.289  0.00  0.00     0.000 C 
BRANCH  38  39
HETATM   39  C   UNK N   1      28.184  18.867   6.929  0.00  0.00     0.000 C 
BRANCH  39  40
HETATM   40  C   UNK N   1      27.492  20.219   7.062  0.00  0.00     0.000 C 
BRANCH  40  41
HETATM   41  C   UNK N   1      27.372  20.943   5.728  0.00  0.00     0.000 C 
BRANCH  41  42
HETATM   42  C   UNK N   1      27.771  20.024   4.585  0.00  0.00     0.000 C 
BRANCH  42  43
HETATM   43  C   UNK N   1      26.755  20.096   3.466  0.00  0.00     0.000 C 
BRANCH  43  44
HETATM   44  C   UNK N   1      25.389  20.349   4.063  0.00  0.00     0.000 C 
BRANCH  44  45
HETATM   45  C   UNK N   1      24.316  19.964   3.074  0.00  0.00     0.000 C 
BRANCH  45  46
HETATM   46  C   UNK N   1      23.107  19.499   3.851  0.00  0.00     0.000 C 
BRANCH  46  47
HETATM   47  C   UNK N   1      21.906  19.431   2.937  0.00  0.00    -0.000 C 
BRANCH  47  48
HETATM   48  C   UNK N   1      21.516  20.835   2.537  0.00  0.00    -0.005 C 
HETATM   49  C   UNK N   1      20.682  20.787   1.275  0.00  0.00     0.005 C 
ENDBRANCH  47  48
ENDBRANCH  46  47
ENDBRANCH  45  46
ENDBRANCH  44  45
ENDBRANCH  43  44
ENDBRANCH  42  43
ENDBRANCH  41  42
ENDBRANCH  40  41
ENDBRANCH  39  40
ENDBRANCH  38  39
ENDBRANCH  37  38
ENDBRANCH  36  37
ENDBRANCH  35  36
ENDBRANCH  34  35
ENDBRANCH  33  34
ENDBRANCH  31  33
ENDBRANCH  30  31
ENDBRANCH   8  30
ENDBRANCH   7   8
ENDBRANCH   6   7
ENDBRANCH   4   6
BRANCH   4  50
HETATM   50  O   UNK N   1      32.606  11.682   9.314  0.00  0.00    -0.307 OA
HETATM   51  H   UNK N   1      31.816  11.267   9.693  0.00  0.00     0.222 HD
ENDBRANCH   4  50
ENDBRANCH   3   4
ENDBRANCH   2   3
ENDBRANCH   1   2
BRANCH   1  52
HETATM   52  O   UNK N   1      36.110  15.300   6.142  0.00  0.00    -0.391 OA
HETATM   53  H   UNK N   1      36.866  15.054   5.587  0.00  0.00     0.210 HD
ENDBRANCH   1  52
BRANCH   1  54
HETATM   54  C   UNK N   1      34.512  14.256   4.722  0.00  0.00     0.214 C 
BRANCH  54  55
HETATM   55  O   UNK N   1      33.140  14.490   4.635  0.00  0.00    -0.294 OA
BRANCH  55  56
HETATM   56  P   UNK N   1      32.820  14.998   3.005  0.00  0.00     0.393 P 
HETATM   57  O   UNK N   1      34.191  15.098   2.281  0.00  0.00    -0.631 OA
BRANCH  56  58
HETATM   58  O   UNK N   1      32.078  16.567   2.918  0.00  0.00    -0.307 OA
HETATM   59  H   UNK N   1      31.191  16.957   2.869  0.00  0.00     0.222 HD
ENDBRANCH  56  58
BRANCH  56  60
HETATM   60  O   UNK N   1      31.889  13.782   2.189  0.00  0.00    -0.294 OA
BRANCH  60  61
HETATM   61  C   UNK N   1      31.513  12.901   3.210  0.00  0.00     0.215 C 
BRANCH  61  62
HETATM   62  C   UNK N   1      30.037  12.555   3.123  0.00  0.00     0.180 C 
BRANCH  62  63
HETATM   63  C   UNK N   1      29.234  13.731   2.579  0.00  0.00     0.213 C 
BRANCH  63  64
HETATM   64  O   UNK N   1      28.985  14.691   3.539  0.00  0.00    -0.319 OA
BRANCH  64  65
HETATM   65  C   UNK N   1      28.565  15.955   3.266  0.00  0.00     0.258 C 
HETATM   66  O   UNK N   1      29.345  16.738   2.751  0.00  0.00    -0.265 OA
BRANCH  65  67
HETATM   67  C   UNK N   1      27.168  16.421   3.566  0.00  0.00     0.111 C 
BRANCH  67  68
HETATM   68  C   UNK N   1      26.795  16.120   5.005  0.00  0.00     0.010 C 
BRANCH  68  69
HETATM   69  C   UNK N   1      25.454  16.729   5.344  0.00  0.00     0.000 C 
BRANCH  69  70
HETATM   70  C   UNK N   1      24.451  16.309   4.282  0.00  0.00     0.000 C 
BRANCH  70  71
HETATM   71  C   UNK N   1      23.233  15.633   4.898  0.00  0.00     0.000 C 
BRANCH  71  72
HETATM   72  C   UNK N   1      22.592  16.478   5.991  0.00  0.00     0.000 C 
BRANCH  72  73
HETATM   73  C   UNK N   1      21.184  16.905   5.617  0.00  0.00     0.000 C 
BRANCH  73  74
HETATM   74  C   UNK N   1      20.561  15.948   4.613  0.00  0.00     0.000 C 
BRANCH  74  75
HETATM   75  C   UNK N   1      19.739  16.696   3.571  0.00  0.00     0.000 C 
BRANCH  75  76
HETATM   76  C   UNK N   1      20.186  16.379   2.151  0.00  0.00     0.000 C 
BRANCH  76  77
HETATM   77  C   UNK N   1      20.048  14.891   1.875  0.00  0.00     0.000 C 
BRANCH  77  78
HETATM   78  C   UNK N   1      21.174  14.417   0.982  0.00  0.00     0.000 C 
BRANCH  78  79
HETATM   79  C   UNK N   1      22.459  14.326   1.782  0.00  0.00     0.000 C 
BRANCH  79  80
HETATM   80  C   UNK N   1      23.628  14.187   0.832  0.00  0.00     0.000 C 
BRANCH  80  81
HETATM   81  C   UNK N   1      24.648  13.244   1.429  0.00  0.00    -0.000 C 
BRANCH  81  82
HETATM   82  C   UNK N   1      24.062  11.851   1.497  0.00  0.00    -0.005 C 
HETATM   83  C   UNK N   1      23.907  11.301   0.095  0.00  0.00     0.005 C 
ENDBRANCH  81  82
ENDBRANCH  80  81
ENDBRANCH  79  80
ENDBRANCH  78  79
ENDBRANCH  77  78
ENDBRANCH  76  77
ENDBRANCH  75  76
ENDBRANCH  74  75
ENDBRANCH  73  74
ENDBRANCH  72  73
ENDBRANCH  71  72
ENDBRANCH  70  71
ENDBRANCH  69  70
ENDBRANCH  68  69
ENDBRANCH  67  68
ENDBRANCH  65  67
ENDBRANCH  64  65
ENDBRANCH  63  64
ENDBRANCH  62  63
BRANCH  62  84
HETATM   84  O   UNK N   1      29.833  11.418   2.368  0.00  0.00    -0.312 OA
BRANCH  84  85
HETATM   85  C   UNK N   1      28.611  10.849   2.221  0.00  0.00     0.259 C 
HETATM   86  O   UNK N   1      28.130  10.689   1.111  0.00  0.00    -0.265 OA
BRANCH  85  87
HETATM   87  C   UNK N   1      27.899  10.321   3.432  0.00  0.00     0.111 C 
BRANCH  87  88
HETATM   88  C   UNK N   1      26.612  11.074   3.747  0.00  0.00     0.010 C 
BRANCH  88  89
HETATM   89  C   UNK N   1      26.789  11.999   4.942  0.00  0.00     0.000 C 
BRANCH  89  90
HETATM   90  C   UNK N   1      25.494  12.757   5.184  0.00  0.00     0.000 C 
BRANCH  90  91
HETATM   91  C   UNK N   1      24.812  12.350   6.481  0.00  0.00     0.000 C 
BRANCH  91  92
HETATM   92  C   UNK N   1      24.735  13.491   7.489  0.00  0.00     0.000 C 
BRANCH  92  93
HETATM   93  C   UNK N   1      23.347  13.582   8.114  0.00  0.00     0.000 C 
BRANCH  93  94
HETATM   94  C   UNK N   1      22.411  12.538   7.522  0.00  0.00     0.000 C 
BRANCH  94  95
HETATM   95  C   UNK N   1      21.103  13.182   7.093  0.00  0.00     0.000 C 
BRANCH  95  96
HETATM   96  C   UNK N   1      20.552  12.486   5.860  0.00  0.00     0.000 C 
BRANCH  96  97
HETATM   97  C   UNK N   1      21.619  12.326   4.791  0.00  0.00     0.000 C 
BRANCH  97  98
HETATM   98  C   UNK N   1      21.137  11.419   3.674  0.00  0.00     0.000 C 
BRANCH  98  99
HETATM   99  C   UNK N   1      21.723  10.035   3.858  0.00  0.00     0.000 C 
BRANCH  99 100
HETATM  100  C   UNK N   1      22.941  10.094   4.757  0.00  0.00     0.000 C 
BRANCH 100 101
HETATM  101  C   UNK N   1      23.792   8.868   4.507  0.00  0.00    -0.000 C 
BRANCH 101 102
HETATM  102  C   UNK N   1      24.684   8.608   5.701  0.00  0.00    -0.005 C 
HETATM  103  C   UNK N   1      25.854   7.750   5.269  0.00  0.00     0.005 C 
ENDBRANCH 101 102
ENDBRANCH 100 101
ENDBRANCH  99 100
ENDBRANCH  98  99
ENDBRANCH  97  98
ENDBRANCH  96  97
ENDBRANCH  95  96
ENDBRANCH  94  95
ENDBRANCH  93  94
ENDBRANCH  92  93
ENDBRANCH  91  92
ENDBRANCH  90  91
ENDBRANCH  89  90
ENDBRANCH  88  89
ENDBRANCH  87  88
ENDBRANCH  85  87
ENDBRANCH  84  85
ENDBRANCH  62  84
ENDBRANCH  61  62
ENDBRANCH  60  61
ENDBRANCH  56  60
ENDBRANCH  55  56
ENDBRANCH  54  55
ENDBRANCH   1  54
TORSDOF 89
ENDMDL
MODEL 5
REMARK VINA RESULT:      -5.3      3.513      7.168
REMARK WARNING: 32 MAX_TORS EXCEEDED!!!
REMARK  89 active torsions:
REMARK  status: ('A' for Active; 'I' for Inactive)
REMARK    1  A    between atoms: C_2  and  C_3 
REMARK    2  A    between atoms: C_3  and  C_4 
REMARK    3  A    between atoms: C_4  and  C_5 
REMARK    4  A    between atoms: C_5  and  C_6 
REMARK    5  A    between atoms: C_6  and  C_7 
REMARK    6  A    between atoms: C_7  and  C_8 
REMARK    7  A    between atoms: C_8  and  C_9 
REMARK    8  A    between atoms: C_9  and  C_10 
REMARK    9  A    between atoms: C_10  and  C_11 
REMARK   10  A    between atoms: C_11  and  C_12 
REMARK   11  A    between atoms: C_12  and  C_13 
REMARK   12  A    between atoms: C_13  and  C_14 
REMARK   13  A    between atoms: C_14  and  C_15 
REMARK   14  A    between atoms: C_15  and  C_16 
REMARK   15  A    between atoms: C_16  and  C_17 
REMARK   16  A    between atoms: C_17  and  C_18 
REMARK   17  A    between atoms: C_18  and  O_20 
REMARK   18  A    between atoms: O_20  and  C_21 
REMARK   19  A    between atoms: C_21  and  C_22 
REMARK   20  A    between atoms: C_22  and  C_23 
REMARK   21  A    between atoms: C_22  and  O_81 
REMARK   22  A    between atoms: C_23  and  O_24 
REMARK   23  A    between atoms: P_25  and  O_24 
REMARK   24  A    between atoms: P_25  and  O_26 
REMARK   25  A    between atoms: P_25  and  O_28 
REMARK   26  A    between atoms: O_28  and  C_29 
REMARK   27  A    between atoms: C_29  and  C_30 
REMARK   28  A    between atoms: C_30  and  O_31 
REMARK   29  A    between atoms: C_30  and  C_32 
REMARK   30  A    between atoms: C_32  and  O_33 
REMARK   31  A    between atoms: P_34  and  O_33 
REMARK   32  A    between atoms: P_34  and  O_35 
REMARK   33  A    between atoms: P_34  and  O_37 
REMARK   34  A    between atoms: O_37  and  C_38 
REMARK   35  A    between atoms: C_38  and  C_39 
REMARK   36  A    between atoms: C_39  and  C_40 
REMARK   37  A    between atoms: C_39  and  O_61 
REMARK   38  A    between atoms: C_40  and  O_41 
REMARK   39  A    between atoms: O_41  and  C_42 
REMARK   40  A    between atoms: C_42  and  C_44 
REMARK   41  A    between atoms: C_44  and  C_45 
REMARK   42  A    between atoms: C_45  and  C_46 
REMARK   43  A    between atoms: C_46  and  C_47 
REMARK   44  A    between atoms: C_47  and  C_48 
REMARK   45  A    between atoms: C_48  and  C_49 
REMARK   46  A    between atoms: C_49  and  C_50 
REMARK   47  A    between atoms: C_50  and  C_51 
REMARK   48  A    between atoms: C_51  and  C_52 
REMARK   49  A    between atoms: C_52  and  C_53 
REMARK   50  A    between atoms: C_53  and  C_54 
REMARK   51  A    between atoms: C_54  and  C_55 
REMARK   52  A    between atoms: C_55  and  C_56 
REMARK   53  A    between atoms: C_56  and  C_57 
REMARK   54  A    between atoms: C_57  and  C_58 
REMARK   55  A    between atoms: C_58  and  C_59 
REMARK   56  A    between atoms: O_61  and  C_62 
REMARK   57  A    between atoms: C_62  and  C_64 
REMARK   58  A    between atoms: C_64  and  C_65 
REMARK   59  A    between atoms: C_65  and  C_66 
REMARK   60  A    between atoms: C_66  and  C_67 
REMARK   61  A    between atoms: C_67  and  C_68 
REMARK   62  A    between atoms: C_68  and  C_69 
REMARK   63  A    between atoms: C_69  and  C_70 
REMARK   64  A    between atoms: C_70  and  C_71 
REMARK   65  A    between atoms: C_71  and  C_72 
REMARK   66  A    between atoms: C_72  and  C_73 
REMARK   67  A    between atoms: C_73  and  C_74 
REMARK   68  A    between atoms: C_74  and  C_75 
REMARK   69  A    between atoms: C_75  and  C_76 
REMARK   70  A    between atoms: C_76  and  C_77 
REMARK   71  A    between atoms: C_77  and  C_78 
REMARK   72  A    between atoms: C_78  and  C_79 
REMARK   73  A    between atoms: O_81  and  C_82 
REMARK   74  A    between atoms: C_82  and  C_84 
REMARK   75  A    between atoms: C_84  and  C_85 
REMARK   76  A    between atoms: C_85  and  C_86 
REMARK   77  A    between atoms: C_86  and  C_87 
REMARK   78  A    between atoms: C_87  and  C_88 
REMARK   79  A    between atoms: C_88  and  C_89 
REMARK   80  A    between atoms: C_89  and  C_90 
REMARK   81  A    between atoms: C_90  and  C_91 
REMARK   82  A    between atoms: C_91  and  C_92 
REMARK   83  A    between atoms: C_92  and  C_93 
REMARK   84  A    between atoms: C_93  and  C_94 
REMARK   85  A    between atoms: C_94  and  C_95 
REMARK   86  A    between atoms: C_95  and  C_96 
REMARK   87  A    between atoms: C_96  and  C_97 
REMARK   88  A    between atoms: C_97  and  C_98 
REMARK   89  A    between atoms: C_98  and  C_99 
ROOT
HETATM    1  C   UNK N   1      28.428  17.603   8.517  0.00  0.00     0.166 C 
ENDROOT
BRANCH   1   2
HETATM    2  C   UNK N   1      29.752  17.407   9.235  0.00  0.00     0.214 C 
BRANCH   2   3
HETATM    3  O   UNK N   1      30.667  18.374   8.807  0.00  0.00    -0.294 OA
BRANCH   3   4
HETATM    4  P   UNK N   1      32.053  17.493   8.282  0.00  0.00     0.393 P 
HETATM    5  O   UNK N   1      33.239  18.493   8.305  0.00  0.00    -0.631 OA
BRANCH   4   6
HETATM    6  O   UNK N   1      31.879  16.933   6.636  0.00  0.00    -0.294 OA
BRANCH   6   7
HETATM    7  C   UNK N   1      33.188  16.745   6.171  0.00  0.00     0.215 C 
BRANCH   7   8
HETATM    8  C   UNK N   1      33.649  15.300   6.370  0.00  0.00     0.180 C 
BRANCH   8   9
HETATM    9  C   UNK N   1      34.998  15.301   7.078  0.00  0.00     0.213 C 
BRANCH   9  10
HETATM   10  O   UNK N   1      34.965  14.748   8.340  0.00  0.00    -0.319 OA
BRANCH  10  11
HETATM   11  C   UNK N   1      35.921  13.922   8.838  0.00  0.00     0.258 C 
HETATM   12  O   UNK N   1      36.866  13.617   8.130  0.00  0.00    -0.265 OA
BRANCH  11  13
HETATM   13  C   UNK N   1      35.886  13.414  10.251  0.00  0.00     0.111 C 
BRANCH  13  14
HETATM   14  C   UNK N   1      35.079  14.320  11.160  0.00  0.00     0.010 C 
BRANCH  14  15
HETATM   15  C   UNK N   1      35.044  13.747  12.562  0.00  0.00     0.000 C 
BRANCH  15  16
HETATM   16  C   UNK N   1      36.450  13.514  13.079  0.00  0.00     0.000 C 
BRANCH  16  17
HETATM   17  C   UNK N   1      36.458  13.435  14.601  0.00  0.00     0.000 C 
BRANCH  17  18
HETATM   18  C   UNK N   1      35.118  12.992  15.174  0.00  0.00     0.000 C 
BRANCH  18  19
HETATM   19  C   UNK N   1      35.097  13.162  16.682  0.00  0.00     0.000 C 
BRANCH  19  20
HETATM   20  C   UNK N   1      35.451  11.842  17.333  0.00  0.00     0.000 C 
BRANCH  20  21
HETATM   21  C   UNK N   1      34.768  10.701  16.609  0.00  0.00     0.000 C 
BRANCH  21  22
HETATM   22  C   UNK N   1      35.694   9.504  16.541  0.00  0.00     0.000 C 
BRANCH  22  23
HETATM   23  C   UNK N   1      36.993   9.906  15.876  0.00  0.00     0.000 C 
BRANCH  23  24
HETATM   24  C   UNK N   1      37.268   8.969  14.719  0.00  0.00     0.000 C 
BRANCH  24  25
HETATM   25  C   UNK N   1      35.969   8.334  14.277  0.00  0.00     0.000 C 
BRANCH  25  26
HETATM   26  C   UNK N   1      35.650   8.760  12.861  0.00  0.00     0.000 C 
BRANCH  26  27
HETATM   27  C   UNK N   1      34.938  10.096  12.899  0.00  0.00    -0.000 C 
BRANCH  27  28
HETATM   28  C   UNK N   1      33.671  10.021  12.076  0.00  0.00    -0.005 C 
HETATM   29  C   UNK N   1      33.819   8.936  11.030  0.00  0.00     0.005 C 
ENDBRANCH  27  28
ENDBRANCH  26  27
ENDBRANCH  25  26
ENDBRANCH  24  25
ENDBRANCH  23  24
ENDBRANCH  22  23
ENDBRANCH  21  22
ENDBRANCH  20  21
ENDBRANCH  19  20
ENDBRANCH  18  19
ENDBRANCH  17  18
ENDBRANCH  16  17
ENDBRANCH  15  16
ENDBRANCH  14  15
ENDBRANCH  13  14
ENDBRANCH  11  13
ENDBRANCH  10  11
ENDBRANCH   9  10
ENDBRANCH   8   9
BRANCH   8  30
HETATM   30  O   UNK N   1      33.840  14.708   5.145  0.00  0.00    -0.312 OA
BRANCH  30  31
HETATM   31  C   UNK N   1      32.825  14.344   4.334  0.00  0.00     0.259 C 
HETATM   32  O   UNK N   1      32.768  14.739   3.179  0.00  0.00    -0.265 OA
BRANCH  31  33
HETATM   33  C   UNK N   1      31.793  13.410   4.864  0.00  0.00     0.111 C 
BRANCH  33  34
HETATM   34  C   UNK N   1      30.447  14.117   4.929  0.00  0.00     0.010 C 
BRANCH  34  35
HETATM   35  C   UNK N   1      29.374  13.374   4.140  0.00  0.00     0.000 C 
BRANCH  35  36
HETATM   36  C   UNK N   1      29.612  13.346   2.627  0.00  0.00     0.000 C 
BRANCH  36  37
HETATM   37  C   UNK N   1      28.327  13.408   1.814  0.00  0.00     0.000 C 
BRANCH  37  38
HETATM   38  C   UNK N   1      27.175  12.884   2.656  0.00  0.00     0.000 C 
BRANCH  38  39
HETATM   39  C   UNK N   1      25.888  12.889   1.861  0.00  0.00     0.000 C 
BRANCH  39  40
HETATM   40  C   UNK N   1      25.252  14.274   1.877  0.00  0.00     0.000 C 
BRANCH  40  41
HETATM   41  C   UNK N   1      24.165  14.426   0.821  0.00  0.00     0.000 C 
BRANCH  41  42
HETATM   42  C   UNK N   1      22.949  13.590   1.184  0.00  0.00     0.000 C 
BRANCH  42  43
HETATM   43  C   UNK N   1      22.787  12.439   0.217  0.00  0.00     0.000 C 
BRANCH  43  44
HETATM   44  C   UNK N   1      21.451  11.776   0.466  0.00  0.00     0.000 C 
BRANCH  44  45
HETATM   45  C   UNK N   1      20.467  12.786   1.003  0.00  0.00     0.000 C 
BRANCH  45  46
HETATM   46  C   UNK N   1      19.099  12.442   0.463  0.00  0.00     0.000 C 
BRANCH  46  47
HETATM   47  C   UNK N   1      18.276  13.700   0.315  0.00  0.00    -0.000 C 
BRANCH  47  48
HETATM   48  C   UNK N   1      19.155  14.897   0.598  0.00  0.00    -0.005 C 
HETATM   49  C   UNK N   1      18.808  16.015  -0.360  0.00  0.00     0.005 C 
ENDBRANCH  47  48
ENDBRANCH  46  47
ENDBRANCH  45  46
ENDBRANCH  44  45
ENDBRANCH  43  44
ENDBRANCH  42  43
ENDBRANCH  41  42
ENDBRANCH  40  41
ENDBRANCH  39  40
ENDBRANCH  38  39
ENDBRANCH  37  38
ENDBRANCH  36  37
ENDBRANCH  35  36
ENDBRANCH  34  35
ENDBRANCH  33  34
ENDBRANCH  31  33
ENDBRANCH  30  31
ENDBRANCH   8  30
ENDBRANCH   7   8
ENDBRANCH   6   7
ENDBRANCH   4   6
BRANCH   4  50
HETATM   50  O   UNK N   1      32.458  16.245   9.422  0.00  0.00    -0.307 OA
HETATM   51  H   UNK N   1      32.525  15.313   9.682  0.00  0.00     0.222 HD
ENDBRANCH   4  50
ENDBRANCH   3   4
ENDBRANCH   2   3
ENDBRANCH   1   2
BRANCH   1  52
HETATM   52  O   UNK N   1      27.449  17.975   9.436  0.00  0.00    -0.391 OA
HETATM   53  H   UNK N   1      26.536  18.115   9.142  0.00  0.00     0.210 HD
ENDBRANCH   1  52
BRANCH   1  54
HETATM   54  C   UNK N   1      28.558  18.681   7.452  0.00  0.00     0.214 C 
BRANCH  54  55
HETATM   55  O   UNK N   1      27.575  19.647   7.664  0.00  0.00    -0.294 OA
BRANCH  55  56
HETATM   56  P   UNK N   1      27.191  20.320   6.110  0.00  0.00     0.393 P 
HETATM   57  O   UNK N   1      28.174  19.692   5.085  0.00  0.00    -0.631 OA
BRANCH  56  58
HETATM   58  O   UNK N   1      27.411  22.043   6.043  0.00  0.00    -0.307 OA
HETATM   59  H   UNK N   1      27.621  22.779   6.639  0.00  0.00     0.222 HD
ENDBRANCH  56  58
BRANCH  56  60
HETATM   60  O   UNK N   1      25.587  19.844   5.650  0.00  0.00    -0.294 OA
BRANCH  60  61
HETATM   61  C   UNK N   1      25.511  20.176   4.291  0.00  0.00     0.215 C 
BRANCH  61  62
HETATM   62  C   UNK N   1      24.420  19.385   3.591  0.00  0.00     0.180 C 
BRANCH  62  63
HETATM   63  C   UNK N   1      24.594  17.889   3.831  0.00  0.00     0.213 C 
BRANCH  63  64
HETATM   64  O   UNK N   1      25.787  17.407   3.333  0.00  0.00    -0.319 OA
BRANCH  64  65
HETATM   65  C   UNK N   1      26.725  16.766   4.078  0.00  0.00     0.258 C 
HETATM   66  O   UNK N   1      27.799  16.493   3.568  0.00  0.00    -0.265 OA
BRANCH  65  67
HETATM   67  C   UNK N   1      26.493  16.392   5.515  0.00  0.00     0.111 C 
BRANCH  67  68
HETATM   68  C   UNK N   1      26.326  14.891   5.662  0.00  0.00     0.010 C 
BRANCH  68  69
HETATM   69  C   UNK N   1      24.866  14.510   5.577  0.00  0.00     0.000 C 
BRANCH  69  70
HETATM   70  C   UNK N   1      24.770  13.005   5.388  0.00  0.00     0.000 C 
BRANCH  70  71
HETATM   71  C   UNK N   1      23.480  12.610   4.681  0.00  0.00     0.000 C 
BRANCH  71  72
HETATM   72  C   UNK N   1      22.312  13.511   5.060  0.00  0.00     0.000 C 
BRANCH  72  73
HETATM   73  C   UNK N   1      20.983  12.914   4.636  0.00  0.00     0.000 C 
BRANCH  73  74
HETATM   74  C   UNK N   1      20.374  12.068   5.742  0.00  0.00     0.000 C 
BRANCH  74  75
HETATM   75  C   UNK N   1      20.168  10.628   5.289  0.00  0.00     0.000 C 
BRANCH  75  76
HETATM   76  C   UNK N   1      19.983  10.520   3.783  0.00  0.00     0.000 C 
BRANCH  76  77
HETATM   77  C   UNK N   1      20.825   9.382   3.229  0.00  0.00     0.000 C 
BRANCH  77  78
HETATM   78  C   UNK N   1      22.047   9.166   4.095  0.00  0.00     0.000 C 
BRANCH  78  79
HETATM   79  C   UNK N   1      23.193   8.650   3.247  0.00  0.00     0.000 C 
BRANCH  79  80
HETATM   80  C   UNK N   1      23.904   9.821   2.605  0.00  0.00     0.000 C 
BRANCH  80  81
HETATM   81  C   UNK N   1      24.616   9.350   1.357  0.00  0.00    -0.000 C 
BRANCH  81  82
HETATM   82  C   UNK N   1      23.603   8.780   0.388  0.00  0.00    -0.005 C 
HETATM   83  C   UNK N   1      24.009   9.129  -1.027  0.00  0.00     0.005 C 
ENDBRANCH  81  82
ENDBRANCH  80  81
ENDBRANCH  79  80
ENDBRANCH  78  79
ENDBRANCH  77  78
ENDBRANCH  76  77
ENDBRANCH  75  76
ENDBRANCH  74  75
ENDBRANCH  73  74
ENDBRANCH  72  73
ENDBRANCH  71  72
ENDBRANCH  70  71
ENDBRANCH  69  70
ENDBRANCH  68  69
ENDBRANCH  67  68
ENDBRANCH  65  67
ENDBRANCH  64  65
ENDBRANCH  63  64
ENDBRANCH  62  63
BRANCH  62  84
HETATM   84  O   UNK N   1      23.166  19.811   3.978  0.00  0.00    -0.312 OA
BRANCH  84  85
HETATM   85  C   UNK N   1      22.174  20.061   3.087  0.00  0.00     0.259 C 
HETATM   86  O   UNK N   1      22.429  20.530   1.990  0.00  0.00    -0.265 OA
BRANCH  85  87
HETATM   87  C   UNK N   1      20.768  19.657   3.424  0.00  0.00     0.111 C 
BRANCH  87  88
HETATM   88  C   UNK N   1      20.212  18.589   2.490  0.00  0.00     0.010 C 
BRANCH  88  89
HETATM   89  C   UNK N   1      21.052  17.322   2.535  0.00  0.00     0.000 C 
BRANCH  89  90
HETATM   90  C   UNK N   1      20.825  16.618   3.864  0.00  0.00     0.000 C 
BRANCH  90  91
HETATM   91  C   UNK N   1      19.400  16.109   4.019  0.00  0.00     0.000 C 
BRANCH  91  92
HETATM   92  C   UNK N   1      19.021  15.858   5.474  0.00  0.00     0.000 C 
BRANCH  92  93
HETATM   93  C   UNK N   1      20.091  16.393   6.422  0.00  0.00     0.000 C 
BRANCH  93  94
HETATM   94  C   UNK N   1      19.562  16.488   7.845  0.00  0.00     0.000 C 
BRANCH  94  95
HETATM   95  C   UNK N   1      20.587  15.945   8.828  0.00  0.00     0.000 C 
BRANCH  95  96
HETATM   96  C   UNK N   1      20.820  14.464   8.585  0.00  0.00     0.000 C 
BRANCH  96  97
HETATM   97  C   UNK N   1      21.289  13.762   9.847  0.00  0.00     0.000 C 
BRANCH  97  98
HETATM   98  C   UNK N   1      21.775  12.358   9.540  0.00  0.00     0.000 C 
BRANCH  98  99
HETATM   99  C   UNK N   1      22.928  12.425   8.561  0.00  0.00     0.000 C 
BRANCH  99 100
HETATM  100  C   UNK N   1      23.667  11.102   8.526  0.00  0.00     0.000 C 
BRANCH 100 101
HETATM  101  C   UNK N   1      23.225  10.329   7.303  0.00  0.00    -0.000 C 
BRANCH 101 102
HETATM  102  C   UNK N   1      24.242   9.259   6.975  0.00  0.00    -0.005 C 
HETATM  103  C   UNK N   1      23.655   7.901   7.295  0.00  0.00     0.005 C 
ENDBRANCH 101 102
ENDBRANCH 100 101
ENDBRANCH  99 100
ENDBRANCH  98  99
ENDBRANCH  97  98
ENDBRANCH  96  97
ENDBRANCH  95  96
ENDBRANCH  94  95
ENDBRANCH  93  94
ENDBRANCH  92  93
ENDBRANCH  91  92
ENDBRANCH  90  91
ENDBRANCH  89  90
ENDBRANCH  88  89
ENDBRANCH  87  88
ENDBRANCH  85  87
ENDBRANCH  84  85
ENDBRANCH  62  84
ENDBRANCH  61  62
ENDBRANCH  60  61
ENDBRANCH  56  60
ENDBRANCH  55  56
ENDBRANCH  54  55
ENDBRANCH   1  54
TORSDOF 89
ENDMDL
MODEL 6
REMARK VINA RESULT:      -5.3      3.377     13.886
REMARK WARNING: 32 MAX_TORS EXCEEDED!!!
REMARK  89 active torsions:
REMARK  status: ('A' for Active; 'I' for Inactive)
REMARK    1  A    between atoms: C_2  and  C_3 
REMARK    2  A    between atoms: C_3  and  C_4 
REMARK    3  A    between atoms: C_4  and  C_5 
REMARK    4  A    between atoms: C_5  and  C_6 
REMARK    5  A    between atoms: C_6  and  C_7 
REMARK    6  A    between atoms: C_7  and  C_8 
REMARK    7  A    between atoms: C_8  and  C_9 
REMARK    8  A    between atoms: C_9  and  C_10 
REMARK    9  A    between atoms: C_10  and  C_11 
REMARK   10  A    between atoms: C_11  and  C_12 
REMARK   11  A    between atoms: C_12  and  C_13 
REMARK   12  A    between atoms: C_13  and  C_14 
REMARK   13  A    between atoms: C_14  and  C_15 
REMARK   14  A    between atoms: C_15  and  C_16 
REMARK   15  A    between atoms: C_16  and  C_17 
REMARK   16  A    between atoms: C_17  and  C_18 
REMARK   17  A    between atoms: C_18  and  O_20 
REMARK   18  A    between atoms: O_20  and  C_21 
REMARK   19  A    between atoms: C_21  and  C_22 
REMARK   20  A    between atoms: C_22  and  C_23 
REMARK   21  A    between atoms: C_22  and  O_81 
REMARK   22  A    between atoms: C_23  and  O_24 
REMARK   23  A    between atoms: P_25  and  O_24 
REMARK   24  A    between atoms: P_25  and  O_26 
REMARK   25  A    between atoms: P_25  and  O_28 
REMARK   26  A    between atoms: O_28  and  C_29 
REMARK   27  A    between atoms: C_29  and  C_30 
REMARK   28  A    between atoms: C_30  and  O_31 
REMARK   29  A    between atoms: C_30  and  C_32 
REMARK   30  A    between atoms: C_32  and  O_33 
REMARK   31  A    between atoms: P_34  and  O_33 
REMARK   32  A    between atoms: P_34  and  O_35 
REMARK   33  A    between atoms: P_34  and  O_37 
REMARK   34  A    between atoms: O_37  and  C_38 
REMARK   35  A    between atoms: C_38  and  C_39 
REMARK   36  A    between atoms: C_39  and  C_40 
REMARK   37  A    between atoms: C_39  and  O_61 
REMARK   38  A    between atoms: C_40  and  O_41 
REMARK   39  A    between atoms: O_41  and  C_42 
REMARK   40  A    between atoms: C_42  and  C_44 
REMARK   41  A    between atoms: C_44  and  C_45 
REMARK   42  A    between atoms: C_45  and  C_46 
REMARK   43  A    between atoms: C_46  and  C_47 
REMARK   44  A    between atoms: C_47  and  C_48 
REMARK   45  A    between atoms: C_48  and  C_49 
REMARK   46  A    between atoms: C_49  and  C_50 
REMARK   47  A    between atoms: C_50  and  C_51 
REMARK   48  A    between atoms: C_51  and  C_52 
REMARK   49  A    between atoms: C_52  and  C_53 
REMARK   50  A    between atoms: C_53  and  C_54 
REMARK   51  A    between atoms: C_54  and  C_55 
REMARK   52  A    between atoms: C_55  and  C_56 
REMARK   53  A    between atoms: C_56  and  C_57 
REMARK   54  A    between atoms: C_57  and  C_58 
REMARK   55  A    between atoms: C_58  and  C_59 
REMARK   56  A    between atoms: O_61  and  C_62 
REMARK   57  A    between atoms: C_62  and  C_64 
REMARK   58  A    between atoms: C_64  and  C_65 
REMARK   59  A    between atoms: C_65  and  C_66 
REMARK   60  A    between atoms: C_66  and  C_67 
REMARK   61  A    between atoms: C_67  and  C_68 
REMARK   62  A    between atoms: C_68  and  C_69 
REMARK   63  A    between atoms: C_69  and  C_70 
REMARK   64  A    between atoms: C_70  and  C_71 
REMARK   65  A    between atoms: C_71  and  C_72 
REMARK   66  A    between atoms: C_72  and  C_73 
REMARK   67  A    between atoms: C_73  and  C_74 
REMARK   68  A    between atoms: C_74  and  C_75 
REMARK   69  A    between atoms: C_75  and  C_76 
REMARK   70  A    between atoms: C_76  and  C_77 
REMARK   71  A    between atoms: C_77  and  C_78 
REMARK   72  A    between atoms: C_78  and  C_79 
REMARK   73  A    between atoms: O_81  and  C_82 
REMARK   74  A    between atoms: C_82  and  C_84 
REMARK   75  A    between atoms: C_84  and  C_85 
REMARK   76  A    between atoms: C_85  and  C_86 
REMARK   77  A    between atoms: C_86  and  C_87 
REMARK   78  A    between atoms: C_87  and  C_88 
REMARK   79  A    between atoms: C_88  and  C_89 
REMARK   80  A    between atoms: C_89  and  C_90 
REMARK   81  A    between atoms: C_90  and  C_91 
REMARK   82  A    between atoms: C_91  and  C_92 
REMARK   83  A    between atoms: C_92  and  C_93 
REMARK   84  A    between atoms: C_93  and  C_94 
REMARK   85  A    between atoms: C_94  and  C_95 
REMARK   86  A    between atoms: C_95  and  C_96 
REMARK   87  A    between atoms: C_96  and  C_97 
REMARK   88  A    between atoms: C_97  and  C_98 
REMARK   89  A    between atoms: C_98  and  C_99 
ROOT
HETATM    1  C   UNK N   1      28.251  18.538   8.399  0.00  0.00     0.166 C 
ENDROOT
BRANCH   1   2
HETATM    2  C   UNK N   1      27.493  19.551   7.557  0.00  0.00     0.214 C 
BRANCH   2   3
HETATM    3  O   UNK N   1      27.173  18.988   6.318  0.00  0.00    -0.294 OA
BRANCH   3   4
HETATM    4  P   UNK N   1      27.515  20.213   5.155  0.00  0.00     0.393 P 
HETATM    5  O   UNK N   1      27.879  21.489   5.959  0.00  0.00    -0.631 OA
BRANCH   4   6
HETATM    6  O   UNK N   1      26.112  20.595   4.185  0.00  0.00    -0.294 OA
BRANCH   6   7
HETATM    7  C   UNK N   1      25.756  19.390   3.562  0.00  0.00     0.215 C 
BRANCH   7   8
HETATM    8  C   UNK N   1      24.237  19.233   3.476  0.00  0.00     0.180 C 
BRANCH   8   9
HETATM    9  C   UNK N   1      23.619  20.572   3.096  0.00  0.00     0.213 C 
BRANCH   9  10
HETATM   10  O   UNK N   1      22.930  20.548   1.903  0.00  0.00    -0.319 OA
BRANCH  10  11
HETATM   11  C   UNK N   1      21.576  20.518   1.802  0.00  0.00     0.258 C 
HETATM   12  O   UNK N   1      21.062  20.611   0.701  0.00  0.00    -0.265 OA
BRANCH  11  13
HETATM   13  C   UNK N   1      20.687  20.316   2.996  0.00  0.00     0.111 C 
BRANCH  13  14
HETATM   14  C   UNK N   1      19.532  19.381   2.693  0.00  0.00     0.010 C 
BRANCH  14  15
HETATM   15  C   UNK N   1      19.947  17.947   2.947  0.00  0.00     0.000 C 
BRANCH  15  16
HETATM   16  C   UNK N   1      20.028  17.175   1.645  0.00  0.00     0.000 C 
BRANCH  16  17
HETATM   17  C   UNK N   1      19.999  15.674   1.907  0.00  0.00     0.000 C 
BRANCH  17  18
HETATM   18  C   UNK N   1      20.756  14.878   0.852  0.00  0.00     0.000 C 
BRANCH  18  19
HETATM   19  C   UNK N   1      20.586  13.387   1.080  0.00  0.00     0.000 C 
BRANCH  19  20
HETATM   20  C   UNK N   1      19.511  13.167   2.123  0.00  0.00     0.000 C 
BRANCH  20  21
HETATM   21  C   UNK N   1      20.045  12.313   3.254  0.00  0.00     0.000 C 
BRANCH  21  22
HETATM   22  C   UNK N   1      19.351  12.680   4.550  0.00  0.00     0.000 C 
BRANCH  22  23
HETATM   23  C   UNK N   1      20.379  12.814   5.653  0.00  0.00     0.000 C 
BRANCH  23  24
HETATM   24  C   UNK N   1      20.815  11.432   6.095  0.00  0.00     0.000 C 
BRANCH  24  25
HETATM   25  C   UNK N   1      22.325  11.384   6.148  0.00  0.00     0.000 C 
BRANCH  25  26
HETATM   26  C   UNK N   1      22.846  10.496   5.039  0.00  0.00     0.000 C 
BRANCH  26  27
HETATM   27  C   UNK N   1      24.283  10.869   4.745  0.00  0.00    -0.000 C 
BRANCH  27  28
HETATM   28  C   UNK N   1      24.547  10.746   3.261  0.00  0.00    -0.005 C 
HETATM   29  C   UNK N   1      23.227  10.725   2.519  0.00  0.00     0.005 C 
ENDBRANCH  27  28
ENDBRANCH  26  27
ENDBRANCH  25  26
ENDBRANCH  24  25
ENDBRANCH  23  24
ENDBRANCH  22  23
ENDBRANCH  21  22
ENDBRANCH  20  21
ENDBRANCH  19  20
ENDBRANCH  18  19
ENDBRANCH  17  18
ENDBRANCH  16  17
ENDBRANCH  15  16
ENDBRANCH  14  15
ENDBRANCH  13  14
ENDBRANCH  11  13
ENDBRANCH  10  11
ENDBRANCH   9  10
ENDBRANCH   8   9
BRANCH   8  30
HETATM   30  O   UNK N   1      23.741  18.899   4.713  0.00  0.00    -0.312 OA
BRANCH  30  31
HETATM   31  C   UNK N   1      23.034  17.774   4.946  0.00  0.00     0.259 C 
HETATM   32  O   UNK N   1      22.379  17.641   5.970  0.00  0.00    -0.265 OA
BRANCH  31  33
HETATM   33  C   UNK N   1      23.032  16.708   3.906  0.00  0.00     0.111 C 
BRANCH  33  34
HETATM   34  C   UNK N   1      22.749  15.360   4.555  0.00  0.00     0.010 C 
BRANCH  34  35
HETATM   35  C   UNK N   1      23.342  14.206   3.753  0.00  0.00     0.000 C 
BRANCH  35  36
HETATM   36  C   UNK N   1      23.876  14.607   2.374  0.00  0.00     0.000 C 
BRANCH  36  37
HETATM   37  C   UNK N   1      25.355  14.300   2.188  0.00  0.00     0.000 C 
BRANCH  37  38
HETATM   38  C   UNK N   1      26.135  15.604   2.138  0.00  0.00     0.000 C 
BRANCH  38  39
HETATM   39  C   UNK N   1      27.184  15.640   3.229  0.00  0.00     0.000 C 
BRANCH  39  40
HETATM   40  C   UNK N   1      26.546  15.962   4.576  0.00  0.00     0.000 C 
BRANCH  40  41
HETATM   41  C   UNK N   1      26.729  14.839   5.587  0.00  0.00     0.000 C 
BRANCH  41  42
HETATM   42  C   UNK N   1      25.781  15.018   6.761  0.00  0.00     0.000 C 
BRANCH  42  43
HETATM   43  C   UNK N   1      25.104  13.709   7.103  0.00  0.00     0.000 C 
BRANCH  43  44
HETATM   44  C   UNK N   1      25.121  13.529   8.604  0.00  0.00     0.000 C 
BRANCH  44  45
HETATM   45  C   UNK N   1      24.307  12.316   8.985  0.00  0.00     0.000 C 
BRANCH  45  46
HETATM   46  C   UNK N   1      23.469  12.674  10.190  0.00  0.00     0.000 C 
BRANCH  46  47
HETATM   47  C   UNK N   1      22.005  12.480   9.872  0.00  0.00    -0.000 C 
BRANCH  47  48
HETATM   48  C   UNK N   1      21.523  13.656   9.053  0.00  0.00    -0.005 C 
HETATM   49  C   UNK N   1      20.277  14.235   9.686  0.00  0.00     0.005 C 
ENDBRANCH  47  48
ENDBRANCH  46  47
ENDBRANCH  45  46
ENDBRANCH  44  45
ENDBRANCH  43  44
ENDBRANCH  42  43
ENDBRANCH  41  42
ENDBRANCH  40  41
ENDBRANCH  39  40
ENDBRANCH  38  39
ENDBRANCH  37  38
ENDBRANCH  36  37
ENDBRANCH  35  36
ENDBRANCH  34  35
ENDBRANCH  33  34
ENDBRANCH  31  33
ENDBRANCH  30  31
ENDBRANCH   8  30
ENDBRANCH   7   8
ENDBRANCH   6   7
ENDBRANCH   4   6
BRANCH   4  50
HETATM   50  O   UNK N   1      28.932  19.809   4.233  0.00  0.00    -0.307 OA
HETATM   51  H   UNK N   1      29.780  19.350   4.123  0.00  0.00     0.222 HD
ENDBRANCH   4  50
ENDBRANCH   3   4
ENDBRANCH   2   3
ENDBRANCH   1   2
BRANCH   1  52
HETATM   52  O   UNK N   1      27.448  18.115   9.455  0.00  0.00    -0.391 OA
HETATM   53  H   UNK N   1      27.556  18.508  10.335  0.00  0.00     0.210 HD
ENDBRANCH   1  52
BRANCH   1  54
HETATM   54  C   UNK N   1      28.648  17.339   7.552  0.00  0.00     0.214 C 
BRANCH  54  55
HETATM   55  O   UNK N   1      29.956  17.515   7.103  0.00  0.00    -0.294 OA
BRANCH  55  56
HETATM   56  P   UNK N   1      31.002  16.985   8.385  0.00  0.00     0.393 P 
HETATM   57  O   UNK N   1      30.102  16.688   9.615  0.00  0.00    -0.631 OA
BRANCH  56  58
HETATM   58  O   UNK N   1      32.148  18.198   8.869  0.00  0.00    -0.307 OA
HETATM   59  H   UNK N   1      33.049  18.485   8.651  0.00  0.00     0.222 HD
ENDBRANCH  56  58
BRANCH  56  60
HETATM   60  O   UNK N   1      31.770  15.497   7.931  0.00  0.00    -0.294 OA
BRANCH  60  61
HETATM   61  C   UNK N   1      32.717  15.283   8.939  0.00  0.00     0.215 C 
BRANCH  61  62
HETATM   62  C   UNK N   1      34.121  15.596   8.451  0.00  0.00     0.180 C 
BRANCH  62  63
HETATM   63  C   UNK N   1      35.132  14.618   9.039  0.00  0.00     0.213 C 
BRANCH  63  64
HETATM   64  O   UNK N   1      35.153  13.411   8.369  0.00  0.00    -0.319 OA
BRANCH  64  65
HETATM   65  C   UNK N   1      35.079  12.198   8.975  0.00  0.00     0.258 C 
HETATM   66  O   UNK N   1      35.368  11.200   8.336  0.00  0.00    -0.265 OA
BRANCH  65  67
HETATM   67  C   UNK N   1      34.664  12.039  10.411  0.00  0.00     0.111 C 
BRANCH  67  68
HETATM   68  C   UNK N   1      34.940  10.631  10.902  0.00  0.00     0.010 C 
BRANCH  68  69
HETATM   69  C   UNK N   1      33.715  10.054  11.571  0.00  0.00     0.000 C 
BRANCH  69  70
HETATM   70  C   UNK N   1      33.842  10.260  13.072  0.00  0.00     0.000 C 
BRANCH  70  71
HETATM   71  C   UNK N   1      35.150   9.691  13.607  0.00  0.00     0.000 C 
BRANCH  71  72
HETATM   72  C   UNK N   1      36.050  10.766  14.203  0.00  0.00     0.000 C 
BRANCH  72  73
HETATM   73  C   UNK N   1      35.244  11.901  14.806  0.00  0.00     0.000 C 
BRANCH  73  74
HETATM   74  C   UNK N   1      36.145  13.003  15.339  0.00  0.00     0.000 C 
BRANCH  74  75
HETATM   75  C   UNK N   1      35.856  13.294  16.806  0.00  0.00     0.000 C 
BRANCH  75  76
HETATM   76  C   UNK N   1      35.016  12.203  17.453  0.00  0.00     0.000 C 
BRANCH  76  77
HETATM   77  C   UNK N   1      35.896  11.033  17.862  0.00  0.00     0.000 C 
BRANCH  77  78
HETATM   78  C   UNK N   1      35.806  10.807  19.356  0.00  0.00     0.000 C 
BRANCH  78  79
HETATM   79  C   UNK N   1      34.461  10.201  19.704  0.00  0.00     0.000 C 
BRANCH  79  80
HETATM   80  C   UNK N   1      34.190   9.030  18.786  0.00  0.00     0.000 C 
BRANCH  80  81
HETATM   81  C   UNK N   1      33.382   7.989  19.529  0.00  0.00    -0.000 C 
BRANCH  81  82
HETATM   82  C   UNK N   1      32.017   8.555  19.854  0.00  0.00    -0.005 C 
HETATM   83  C   UNK N   1      31.628   8.153  21.260  0.00  0.00     0.005 C 
ENDBRANCH  81  82
ENDBRANCH  80  81
ENDBRANCH  79  80
ENDBRANCH  78  79
ENDBRANCH  77  78
ENDBRANCH  76  77
ENDBRANCH  75  76
ENDBRANCH  74  75
ENDBRANCH  73  74
ENDBRANCH  72  73
ENDBRANCH  71  72
ENDBRANCH  70  71
ENDBRANCH  69  70
ENDBRANCH  68  69
ENDBRANCH  67  68
ENDBRANCH  65  67
ENDBRANCH  64  65
ENDBRANCH  63  64
ENDBRANCH  62  63
BRANCH  62  84
HETATM   84  O   UNK N   1      34.180  15.610   7.073  0.00  0.00    -0.312 OA
BRANCH  84  85
HETATM   85  C   UNK N   1      34.181  16.760   6.354  0.00  0.00     0.259 C 
HETATM   86  O   UNK N   1      34.547  17.808   6.860  0.00  0.00    -0.265 OA
BRANCH  85  87
HETATM   87  C   UNK N   1      33.827  16.712   4.896  0.00  0.00     0.111 C 
BRANCH  87  88
HETATM   88  C   UNK N   1      32.542  17.462   4.566  0.00  0.00     0.010 C 
BRANCH  88  89
HETATM   89  C   UNK N   1      32.118  17.226   3.124  0.00  0.00     0.000 C 
BRANCH  89  90
HETATM   90  C   UNK N   1      30.759  16.543   3.107  0.00  0.00     0.000 C 
BRANCH  90  91
HETATM   91  C   UNK N   1      30.863  15.033   3.257  0.00  0.00     0.000 C 
BRANCH  91  92
HETATM   92  C   UNK N   1      30.496  14.555   4.657  0.00  0.00     0.000 C 
BRANCH  92  93
HETATM   93  C   UNK N   1      31.004  13.138   4.906  0.00  0.00     0.000 C 
BRANCH  93  94
HETATM   94  C   UNK N   1      32.141  12.791   3.957  0.00  0.00     0.000 C 
BRANCH  94  95
HETATM   95  C   UNK N   1      31.846  11.489   3.230  0.00  0.00     0.000 C 
BRANCH  95  96
HETATM   96  C   UNK N   1      31.808  11.719   1.729  0.00  0.00     0.000 C 
BRANCH  96  97
HETATM   97  C   UNK N   1      30.533  11.165   1.116  0.00  0.00     0.000 C 
BRANCH  97  98
HETATM   98  C   UNK N   1      29.714  12.270   0.475  0.00  0.00     0.000 C 
BRANCH  98  99
HETATM   99  C   UNK N   1      28.714  12.805   1.479  0.00  0.00     0.000 C 
BRANCH  99 100
HETATM  100  C   UNK N   1      28.034  11.662   2.205  0.00  0.00     0.000 C 
BRANCH 100 101
HETATM  101  C   UNK N   1      27.882  12.033   3.664  0.00  0.00    -0.000 C 
BRANCH 101 102
HETATM  102  C   UNK N   1      28.215  10.842   4.535  0.00  0.00    -0.005 C 
HETATM  103  C   UNK N   1      28.375   9.616   3.661  0.00  0.00     0.005 C 
ENDBRANCH 101 102
ENDBRANCH 100 101
ENDBRANCH  99 100
ENDBRANCH  98  99
ENDBRANCH  97  98
ENDBRANCH  96  97
ENDBRANCH  95  96
ENDBRANCH  94  95
ENDBRANCH  93  94
ENDBRANCH  92  93
ENDBRANCH  91  92
ENDBRANCH  90  91
ENDBRANCH  89  90
ENDBRANCH  88  89
ENDBRANCH  87  88
ENDBRANCH  85  87
ENDBRANCH  84  85
ENDBRANCH  62  84
ENDBRANCH  61  62
ENDBRANCH  60  61
ENDBRANCH  56  60
ENDBRANCH  55  56
ENDBRANCH  54  55
ENDBRANCH   1  54
TORSDOF 89
ENDMDL
MODEL 7
REMARK VINA RESULT:      -5.2      3.059     11.643
REMARK WARNING: 32 MAX_TORS EXCEEDED!!!
REMARK  89 active torsions:
REMARK  status: ('A' for Active; 'I' for Inactive)
REMARK    1  A    between atoms: C_2  and  C_3 
REMARK    2  A    between atoms: C_3  and  C_4 
REMARK    3  A    between atoms: C_4  and  C_5 
REMARK    4  A    between atoms: C_5  and  C_6 
REMARK    5  A    between atoms: C_6  and  C_7 
REMARK    6  A    between atoms: C_7  and  C_8 
REMARK    7  A    between atoms: C_8  and  C_9 
REMARK    8  A    between atoms: C_9  and  C_10 
REMARK    9  A    between atoms: C_10  and  C_11 
REMARK   10  A    between atoms: C_11  and  C_12 
REMARK   11  A    between atoms: C_12  and  C_13 
REMARK   12  A    between atoms: C_13  and  C_14 
REMARK   13  A    between atoms: C_14  and  C_15 
REMARK   14  A    between atoms: C_15  and  C_16 
REMARK   15  A    between atoms: C_16  and  C_17 
REMARK   16  A    between atoms: C_17  and  C_18 
REMARK   17  A    between atoms: C_18  and  O_20 
REMARK   18  A    between atoms: O_20  and  C_21 
REMARK   19  A    between atoms: C_21  and  C_22 
REMARK   20  A    between atoms: C_22  and  C_23 
REMARK   21  A    between atoms: C_22  and  O_81 
REMARK   22  A    between atoms: C_23  and  O_24 
REMARK   23  A    between atoms: P_25  and  O_24 
REMARK   24  A    between atoms: P_25  and  O_26 
REMARK   25  A    between atoms: P_25  and  O_28 
REMARK   26  A    between atoms: O_28  and  C_29 
REMARK   27  A    between atoms: C_29  and  C_30 
REMARK   28  A    between atoms: C_30  and  O_31 
REMARK   29  A    between atoms: C_30  and  C_32 
REMARK   30  A    between atoms: C_32  and  O_33 
REMARK   31  A    between atoms: P_34  and  O_33 
REMARK   32  A    between atoms: P_34  and  O_35 
REMARK   33  A    between atoms: P_34  and  O_37 
REMARK   34  A    between atoms: O_37  and  C_38 
REMARK   35  A    between atoms: C_38  and  C_39 
REMARK   36  A    between atoms: C_39  and  C_40 
REMARK   37  A    between atoms: C_39  and  O_61 
REMARK   38  A    between atoms: C_40  and  O_41 
REMARK   39  A    between atoms: O_41  and  C_42 
REMARK   40  A    between atoms: C_42  and  C_44 
REMARK   41  A    between atoms: C_44  and  C_45 
REMARK   42  A    between atoms: C_45  and  C_46 
REMARK   43  A    between atoms: C_46  and  C_47 
REMARK   44  A    between atoms: C_47  and  C_48 
REMARK   45  A    between atoms: C_48  and  C_49 
REMARK   46  A    between atoms: C_49  and  C_50 
REMARK   47  A    between atoms: C_50  and  C_51 
REMARK   48  A    between atoms: C_51  and  C_52 
REMARK   49  A    between atoms: C_52  and  C_53 
REMARK   50  A    between atoms: C_53  and  C_54 
REMARK   51  A    between atoms: C_54  and  C_55 
REMARK   52  A    between atoms: C_55  and  C_56 
REMARK   53  A    between atoms: C_56  and  C_57 
REMARK   54  A    between atoms: C_57  and  C_58 
REMARK   55  A    between atoms: C_58  and  C_59 
REMARK   56  A    between atoms: O_61  and  C_62 
REMARK   57  A    between atoms: C_62  and  C_64 
REMARK   58  A    between atoms: C_64  and  C_65 
REMARK   59  A    between atoms: C_65  and  C_66 
REMARK   60  A    between atoms: C_66  and  C_67 
REMARK   61  A    between atoms: C_67  and  C_68 
REMARK   62  A    between atoms: C_68  and  C_69 
REMARK   63  A    between atoms: C_69  and  C_70 
REMARK   64  A    between atoms: C_70  and  C_71 
REMARK   65  A    between atoms: C_71  and  C_72 
REMARK   66  A    between atoms: C_72  and  C_73 
REMARK   67  A    between atoms: C_73  and  C_74 
REMARK   68  A    between atoms: C_74  and  C_75 
REMARK   69  A    between atoms: C_75  and  C_76 
REMARK   70  A    between atoms: C_76  and  C_77 
REMARK   71  A    between atoms: C_77  and  C_78 
REMARK   72  A    between atoms: C_78  and  C_79 
REMARK   73  A    between atoms: O_81  and  C_82 
REMARK   74  A    between atoms: C_82  and  C_84 
REMARK   75  A    between atoms: C_84  and  C_85 
REMARK   76  A    between atoms: C_85  and  C_86 
REMARK   77  A    between atoms: C_86  and  C_87 
REMARK   78  A    between atoms: C_87  and  C_88 
REMARK   79  A    between atoms: C_88  and  C_89 
REMARK   80  A    between atoms: C_89  and  C_90 
REMARK   81  A    between atoms: C_90  and  C_91 
REMARK   82  A    between atoms: C_91  and  C_92 
REMARK   83  A    between atoms: C_92  and  C_93 
REMARK   84  A    between atoms: C_93  and  C_94 
REMARK   85  A    between atoms: C_94  and  C_95 
REMARK   86  A    between atoms: C_95  and  C_96 
REMARK   87  A    between atoms: C_96  and  C_97 
REMARK   88  A    between atoms: C_97  and  C_98 
REMARK   89  A    between atoms: C_98  and  C_99 
ROOT
HETATM    1  C   UNK N   1      34.263  13.568   3.475  0.00  0.00     0.166 C 
ENDROOT
BRANCH   1   2
HETATM    2  C   UNK N   1      33.604  14.260   4.656  0.00  0.00     0.214 C 
BRANCH   2   3
HETATM    3  O   UNK N   1      34.183  15.518   4.847  0.00  0.00    -0.294 OA
BRANCH   3   4
HETATM    4  P   UNK N   1      32.885  16.645   4.724  0.00  0.00     0.393 P 
HETATM    5  O   UNK N   1      33.441  18.006   5.218  0.00  0.00    -0.631 OA
BRANCH   4   6
HETATM    6  O   UNK N   1      31.555  16.217   5.775  0.00  0.00    -0.294 OA
BRANCH   6   7
HETATM    7  C   UNK N   1      31.526  17.217   6.757  0.00  0.00     0.215 C 
BRANCH   7   8
HETATM    8  C   UNK N   1      31.857  16.651   8.140  0.00  0.00     0.180 C 
BRANCH   8   9
HETATM    9  C   UNK N   1      30.664  16.863   9.063  0.00  0.00     0.213 C 
BRANCH   9  10
HETATM   10  O   UNK N   1      29.807  17.858   8.646  0.00  0.00    -0.319 OA
BRANCH  10  11
HETATM   11  C   UNK N   1      28.468  17.695   8.486  0.00  0.00     0.258 C 
HETATM   12  O   UNK N   1      27.766  17.563   9.475  0.00  0.00    -0.265 OA
BRANCH  11  13
HETATM   13  C   UNK N   1      27.810  17.729   7.136  0.00  0.00     0.111 C 
BRANCH  13  14
HETATM   14  C   UNK N   1      28.170  18.981   6.361  0.00  0.00     0.010 C 
BRANCH  14  15
HETATM   15  C   UNK N   1      27.463  20.181   6.957  0.00  0.00     0.000 C 
BRANCH  15  16
HETATM   16  C   UNK N   1      27.015  21.134   5.867  0.00  0.00     0.000 C 
BRANCH  16  17
HETATM   17  C   UNK N   1      25.992  20.467   4.955  0.00  0.00     0.000 C 
BRANCH  17  18
HETATM   18  C   UNK N   1      26.405  20.491   3.490  0.00  0.00     0.000 C 
BRANCH  18  19
HETATM   19  C   UNK N   1      25.184  20.494   2.588  0.00  0.00     0.000 C 
BRANCH  19  20
HETATM   20  C   UNK N   1      24.004  19.934   3.354  0.00  0.00     0.000 C 
BRANCH  20  21
HETATM   21  C   UNK N   1      22.706  20.360   2.702  0.00  0.00     0.000 C 
BRANCH  21  22
HETATM   22  C   UNK N   1      21.531  19.769   3.455  0.00  0.00     0.000 C 
BRANCH  22  23
HETATM   23  C   UNK N   1      20.323  19.715   2.545  0.00  0.00     0.000 C 
BRANCH  23  24
HETATM   24  C   UNK N   1      19.951  18.267   2.302  0.00  0.00     0.000 C 
BRANCH  24  25
HETATM   25  C   UNK N   1      20.786  17.384   3.202  0.00  0.00     0.000 C 
BRANCH  25  26
HETATM   26  C   UNK N   1      21.229  16.155   2.440  0.00  0.00     0.000 C 
BRANCH  26  27
HETATM   27  C   UNK N   1      20.031  15.554   1.737  0.00  0.00    -0.000 C 
BRANCH  27  28
HETATM   28  C   UNK N   1      19.612  14.283   2.444  0.00  0.00    -0.005 C 
HETATM   29  C   UNK N   1      20.708  13.857   3.397  0.00  0.00     0.005 C 
ENDBRANCH  27  28
ENDBRANCH  26  27
ENDBRANCH  25  26
ENDBRANCH  24  25
ENDBRANCH  23  24
ENDBRANCH  22  23
ENDBRANCH  21  22
ENDBRANCH  20  21
ENDBRANCH  19  20
ENDBRANCH  18  19
ENDBRANCH  17  18
ENDBRANCH  16  17
ENDBRANCH  15  16
ENDBRANCH  14  15
ENDBRANCH  13  14
ENDBRANCH  11  13
ENDBRANCH  10  11
ENDBRANCH   9  10
ENDBRANCH   8   9
BRANCH   8  30
HETATM   30  O   UNK N   1      32.910  17.349   8.679  0.00  0.00    -0.312 OA
BRANCH  30  31
HETATM   31  C   UNK N   1      34.192  16.938   8.590  0.00  0.00     0.259 C 
HETATM   32  O   UNK N   1      35.002  17.542   7.901  0.00  0.00    -0.265 OA
BRANCH  31  33
HETATM   33  C   UNK N   1      34.615  15.752   9.385  0.00  0.00     0.111 C 
BRANCH  33  34
HETATM   34  C   UNK N   1      34.468  14.493   8.544  0.00  0.00     0.010 C 
BRANCH  34  35
HETATM   35  C   UNK N   1      33.526  13.482   9.192  0.00  0.00     0.000 C 
BRANCH  35  36
HETATM   36  C   UNK N   1      33.704  12.046   8.690  0.00  0.00     0.000 C 
BRANCH  36  37
HETATM   37  C   UNK N   1      34.910  11.341   9.295  0.00  0.00     0.000 C 
BRANCH  37  38
HETATM   38  C   UNK N   1      35.871  10.950   8.184  0.00  0.00     0.000 C 
BRANCH  38  39
HETATM   39  C   UNK N   1      37.228  11.582   8.405  0.00  0.00     0.000 C 
BRANCH  39  40
HETATM   40  C   UNK N   1      37.580  11.593   9.888  0.00  0.00     0.000 C 
BRANCH  40  41
HETATM   41  C   UNK N   1      38.298  12.869  10.305  0.00  0.00     0.000 C 
BRANCH  41  42
HETATM   42  C   UNK N   1      37.318  13.857  10.916  0.00  0.00     0.000 C 
BRANCH  42  43
HETATM   43  C   UNK N   1      36.586  13.227  12.080  0.00  0.00     0.000 C 
BRANCH  43  44
HETATM   44  C   UNK N   1      35.805  14.301  12.805  0.00  0.00     0.000 C 
BRANCH  44  45
HETATM   45  C   UNK N   1      36.463  14.613  14.126  0.00  0.00     0.000 C 
BRANCH  45  46
HETATM   46  C   UNK N   1      36.507  13.342  14.941  0.00  0.00     0.000 C 
BRANCH  46  47
HETATM   47  C   UNK N   1      35.138  13.047  15.505  0.00  0.00    -0.000 C 
BRANCH  47  48
HETATM   48  C   UNK N   1      35.289  12.558  16.927  0.00  0.00    -0.005 C 
HETATM   49  C   UNK N   1      35.833  11.147  16.921  0.00  0.00     0.005 C 
ENDBRANCH  47  48
ENDBRANCH  46  47
ENDBRANCH  45  46
ENDBRANCH  44  45
ENDBRANCH  43  44
ENDBRANCH  42  43
ENDBRANCH  41  42
ENDBRANCH  40  41
ENDBRANCH  39  40
ENDBRANCH  38  39
ENDBRANCH  37  38
ENDBRANCH  36  37
ENDBRANCH  35  36
ENDBRANCH  34  35
ENDBRANCH  33  34
ENDBRANCH  31  33
ENDBRANCH  30  31
ENDBRANCH   8  30
ENDBRANCH   7   8
ENDBRANCH   6   7
ENDBRANCH   4   6
BRANCH   4  50
HETATM   50  O   UNK N   1      32.433  16.885   3.063  0.00  0.00    -0.307 OA
HETATM   51  H   UNK N   1      32.637  16.902   2.115  0.00  0.00     0.222 HD
ENDBRANCH   4  50
ENDBRANCH   3   4
ENDBRANCH   2   3
ENDBRANCH   1   2
BRANCH   1  52
HETATM   52  O   UNK N   1      34.587  12.259   3.823  0.00  0.00    -0.391 OA
HETATM   53  H   UNK N   1      35.460  12.058   4.196  0.00  0.00     0.210 HD
ENDBRANCH   1  52
BRANCH   1  54
HETATM   54  C   UNK N   1      33.325  13.556   2.278  0.00  0.00     0.214 C 
BRANCH  54  55
HETATM   55  O   UNK N   1      32.029  13.825   2.717  0.00  0.00    -0.294 OA
BRANCH  55  56
HETATM   56  P   UNK N   1      31.103  12.378   2.461  0.00  0.00     0.393 P 
HETATM   57  O   UNK N   1      32.112  11.237   2.160  0.00  0.00    -0.631 OA
BRANCH  56  58
HETATM   58  O   UNK N   1      30.033  12.490   1.096  0.00  0.00    -0.307 OA
HETATM   59  H   UNK N   1      29.097  12.347   0.883  0.00  0.00     0.222 HD
ENDBRANCH  56  58
BRANCH  56  60
HETATM   60  O   UNK N   1      30.265  11.958   3.921  0.00  0.00    -0.294 OA
BRANCH  60  61
HETATM   61  C   UNK N   1      30.010  13.192   4.533  0.00  0.00     0.215 C 
BRANCH  61  62
HETATM   62  C   UNK N   1      28.780  13.857   3.939  0.00  0.00     0.180 C 
BRANCH  62  63
HETATM   63  C   UNK N   1      27.514  13.094   4.316  0.00  0.00     0.213 C 
BRANCH  63  64
HETATM   64  O   UNK N   1      27.178  12.133   3.385  0.00  0.00    -0.319 OA
BRANCH  64  65
HETATM   65  C   UNK N   1      26.721  12.406   2.134  0.00  0.00     0.258 C 
HETATM   66  O   UNK N   1      27.044  11.673   1.215  0.00  0.00    -0.265 OA
BRANCH  65  67
HETATM   67  C   UNK N   1      25.822  13.574   1.843  0.00  0.00     0.111 C 
BRANCH  67  68
HETATM   68  C   UNK N   1      24.363  13.179   1.975  0.00  0.00     0.010 C 
BRANCH  68  69
HETATM   69  C   UNK N   1      23.559  13.729   0.819  0.00  0.00     0.000 C 
BRANCH  69  70
HETATM   70  C   UNK N   1      23.372  12.623  -0.207  0.00  0.00     0.000 C 
BRANCH  70  71
HETATM   71  C   UNK N   1      22.828  11.352   0.432  0.00  0.00     0.000 C 
BRANCH  71  72
HETATM   72  C   UNK N   1      21.354  11.471   0.797  0.00  0.00     0.000 C 
BRANCH  72  73
HETATM   73  C   UNK N   1      20.824  10.190   1.415  0.00  0.00     0.000 C 
BRANCH  73  74
HETATM   74  C   UNK N   1      19.574  10.446   2.242  0.00  0.00     0.000 C 
BRANCH  74  75
HETATM   75  C   UNK N   1      19.441   9.433   3.372  0.00  0.00     0.000 C 
BRANCH  75  76
HETATM   76  C   UNK N   1      18.931  10.070   4.657  0.00  0.00     0.000 C 
BRANCH  76  77
HETATM   77  C   UNK N   1      20.000  10.967   5.260  0.00  0.00     0.000 C 
BRANCH  77  78
HETATM   78  C   UNK N   1      21.287  10.194   5.448  0.00  0.00     0.000 C 
BRANCH  78  79
HETATM   79  C   UNK N   1      22.466  11.047   5.023  0.00  0.00     0.000 C 
BRANCH  79  80
HETATM   80  C   UNK N   1      23.733  10.479   5.621  0.00  0.00     0.000 C 
BRANCH  80  81
HETATM   81  C   UNK N   1      23.464  10.041   7.043  0.00  0.00    -0.000 C 
BRANCH  81  82
HETATM   82  C   UNK N   1      23.815   8.577   7.191  0.00  0.00    -0.005 C 
HETATM   83  C   UNK N   1      24.912   8.222   6.210  0.00  0.00     0.005 C 
ENDBRANCH  81  82
ENDBRANCH  80  81
ENDBRANCH  79  80
ENDBRANCH  78  79
ENDBRANCH  77  78
ENDBRANCH  76  77
ENDBRANCH  75  76
ENDBRANCH  74  75
ENDBRANCH  73  74
ENDBRANCH  72  73
ENDBRANCH  71  72
ENDBRANCH  70  71
ENDBRANCH  69  70
ENDBRANCH  68  69
ENDBRANCH  67  68
ENDBRANCH  65  67
ENDBRANCH  64  65
ENDBRANCH  63  64
ENDBRANCH  62  63
BRANCH  62  84
HETATM   84  O   UNK N   1      28.697  15.182   4.316  0.00  0.00    -0.312 OA
BRANCH  84  85
HETATM   85  C   UNK N   1      28.793  16.200   3.425  0.00  0.00     0.259 C 
HETATM   86  O   UNK N   1      29.675  16.206   2.582  0.00  0.00    -0.265 OA
BRANCH  85  87
HETATM   87  C   UNK N   1      27.739  17.269   3.419  0.00  0.00     0.111 C 
BRANCH  87  88
HETATM   88  C   UNK N   1      26.329  16.720   3.233  0.00  0.00     0.010 C 
BRANCH  88  89
HETATM   89  C   UNK N   1      25.538  16.776   4.531  0.00  0.00     0.000 C 
BRANCH  89  90
HETATM   90  C   UNK N   1      24.228  16.024   4.351  0.00  0.00     0.000 C 
BRANCH  90  91
HETATM   91  C   UNK N   1      24.098  14.843   5.300  0.00  0.00     0.000 C 
BRANCH  91  92
HETATM   92  C   UNK N   1      24.684  15.128   6.678  0.00  0.00     0.000 C 
BRANCH  92  93
HETATM   93  C   UNK N   1      25.511  13.949   7.180  0.00  0.00     0.000 C 
BRANCH  93  94
HETATM   94  C   UNK N   1      24.713  13.098   8.157  0.00  0.00     0.000 C 
BRANCH  94  95
HETATM   95  C   UNK N   1      25.104  13.428   9.589  0.00  0.00     0.000 C 
BRANCH  95  96
HETATM   96  C   UNK N   1      24.660  12.318  10.526  0.00  0.00     0.000 C 
BRANCH  96  97
HETATM   97  C   UNK N   1      23.272  11.814  10.170  0.00  0.00     0.000 C 
BRANCH  97  98
HETATM   98  C   UNK N   1      22.272  12.163  11.257  0.00  0.00     0.000 C 
BRANCH  98  99
HETATM   99  C   UNK N   1      21.009  12.712  10.625  0.00  0.00     0.000 C 
BRANCH  99 100
HETATM  100  C   UNK N   1      21.355  13.692   9.522  0.00  0.00     0.000 C 
BRANCH 100 101
HETATM  101  C   UNK N   1      20.986  13.077   8.190  0.00  0.00    -0.000 C 
BRANCH 101 102
HETATM  102  C   UNK N   1      21.128  14.106   7.091  0.00  0.00    -0.005 C 
HETATM  103  C   UNK N   1      21.076  15.492   7.697  0.00  0.00     0.005 C 
ENDBRANCH 101 102
ENDBRANCH 100 101
ENDBRANCH  99 100
ENDBRANCH  98  99
ENDBRANCH  97  98
ENDBRANCH  96  97
ENDBRANCH  95  96
ENDBRANCH  94  95
ENDBRANCH  93  94
ENDBRANCH  92  93
ENDBRANCH  91  92
ENDBRANCH  90  91
ENDBRANCH  89  90
ENDBRANCH  88  89
ENDBRANCH  87  88
ENDBRANCH  85  87
ENDBRANCH  84  85
ENDBRANCH  62  84
ENDBRANCH  61  62
ENDBRANCH  60  61
ENDBRANCH  56  60
ENDBRANCH  55  56
ENDBRANCH  54  55
ENDBRANCH   1  54
TORSDOF 89
ENDMDL
MODEL 8
REMARK VINA RESULT:      -5.2      1.749      3.701
REMARK WARNING: 32 MAX_TORS EXCEEDED!!!
REMARK  89 active torsions:
REMARK  status: ('A' for Active; 'I' for Inactive)
REMARK    1  A    between atoms: C_2  and  C_3 
REMARK    2  A    between atoms: C_3  and  C_4 
REMARK    3  A    between atoms: C_4  and  C_5 
REMARK    4  A    between atoms: C_5  and  C_6 
REMARK    5  A    between atoms: C_6  and  C_7 
REMARK    6  A    between atoms: C_7  and  C_8 
REMARK    7  A    between atoms: C_8  and  C_9 
REMARK    8  A    between atoms: C_9  and  C_10 
REMARK    9  A    between atoms: C_10  and  C_11 
REMARK   10  A    between atoms: C_11  and  C_12 
REMARK   11  A    between atoms: C_12  and  C_13 
REMARK   12  A    between atoms: C_13  and  C_14 
REMARK   13  A    between atoms: C_14  and  C_15 
REMARK   14  A    between atoms: C_15  and  C_16 
REMARK   15  A    between atoms: C_16  and  C_17 
REMARK   16  A    between atoms: C_17  and  C_18 
REMARK   17  A    between atoms: C_18  and  O_20 
REMARK   18  A    between atoms: O_20  and  C_21 
REMARK   19  A    between atoms: C_21  and  C_22 
REMARK   20  A    between atoms: C_22  and  C_23 
REMARK   21  A    between atoms: C_22  and  O_81 
REMARK   22  A    between atoms: C_23  and  O_24 
REMARK   23  A    between atoms: P_25  and  O_24 
REMARK   24  A    between atoms: P_25  and  O_26 
REMARK   25  A    between atoms: P_25  and  O_28 
REMARK   26  A    between atoms: O_28  and  C_29 
REMARK   27  A    between atoms: C_29  and  C_30 
REMARK   28  A    between atoms: C_30  and  O_31 
REMARK   29  A    between atoms: C_30  and  C_32 
REMARK   30  A    between atoms: C_32  and  O_33 
REMARK   31  A    between atoms: P_34  and  O_33 
REMARK   32  A    between atoms: P_34  and  O_35 
REMARK   33  A    between atoms: P_34  and  O_37 
REMARK   34  A    between atoms: O_37  and  C_38 
REMARK   35  A    between atoms: C_38  and  C_39 
REMARK   36  A    between atoms: C_39  and  C_40 
REMARK   37  A    between atoms: C_39  and  O_61 
REMARK   38  A    between atoms: C_40  and  O_41 
REMARK   39  A    between atoms: O_41  and  C_42 
REMARK   40  A    between atoms: C_42  and  C_44 
REMARK   41  A    between atoms: C_44  and  C_45 
REMARK   42  A    between atoms: C_45  and  C_46 
REMARK   43  A    between atoms: C_46  and  C_47 
REMARK   44  A    between atoms: C_47  and  C_48 
REMARK   45  A    between atoms: C_48  and  C_49 
REMARK   46  A    between atoms: C_49  and  C_50 
REMARK   47  A    between atoms: C_50  and  C_51 
REMARK   48  A    between atoms: C_51  and  C_52 
REMARK   49  A    between atoms: C_52  and  C_53 
REMARK   50  A    between atoms: C_53  and  C_54 
REMARK   51  A    between atoms: C_54  and  C_55 
REMARK   52  A    between atoms: C_55  and  C_56 
REMARK   53  A    between atoms: C_56  and  C_57 
REMARK   54  A    between atoms: C_57  and  C_58 
REMARK   55  A    between atoms: C_58  and  C_59 
REMARK   56  A    between atoms: O_61  and  C_62 
REMARK   57  A    between atoms: C_62  and  C_64 
REMARK   58  A    between atoms: C_64  and  C_65 
REMARK   59  A    between atoms: C_65  and  C_66 
REMARK   60  A    between atoms: C_66  and  C_67 
REMARK   61  A    between atoms: C_67  and  C_68 
REMARK   62  A    between atoms: C_68  and  C_69 
REMARK   63  A    between atoms: C_69  and  C_70 
REMARK   64  A    between atoms: C_70  and  C_71 
REMARK   65  A    between atoms: C_71  and  C_72 
REMARK   66  A    between atoms: C_72  and  C_73 
REMARK   67  A    between atoms: C_73  and  C_74 
REMARK   68  A    between atoms: C_74  and  C_75 
REMARK   69  A    between atoms: C_75  and  C_76 
REMARK   70  A    between atoms: C_76  and  C_77 
REMARK   71  A    between atoms: C_77  and  C_78 
REMARK   72  A    between atoms: C_78  and  C_79 
REMARK   73  A    between atoms: O_81  and  C_82 
REMARK   74  A    between atoms: C_82  and  C_84 
REMARK   75  A    between atoms: C_84  and  C_85 
REMARK   76  A    between atoms: C_85  and  C_86 
REMARK   77  A    between atoms: C_86  and  C_87 
REMARK   78  A    between atoms: C_87  and  C_88 
REMARK   79  A    between atoms: C_88  and  C_89 
REMARK   80  A    between atoms: C_89  and  C_90 
REMARK   81  A    between atoms: C_90  and  C_91 
REMARK   82  A    between atoms: C_91  and  C_92 
REMARK   83  A    between atoms: C_92  and  C_93 
REMARK   84  A    between atoms: C_93  and  C_94 
REMARK   85  A    between atoms: C_94  and  C_95 
REMARK   86  A    between atoms: C_95  and  C_96 
REMARK   87  A    between atoms: C_96  and  C_97 
REMARK   88  A    between atoms: C_97  and  C_98 
REMARK   89  A    between atoms: C_98  and  C_99 
ROOT
HETATM    1  C   UNK N   1      31.887   8.712   7.864  0.00  0.00     0.166 C 
ENDROOT
BRANCH   1   2
HETATM    2  C   UNK N   1      33.104   9.620   7.938  0.00  0.00     0.214 C 
BRANCH   2   3
HETATM    3  O   UNK N   1      32.691  10.953   8.026  0.00  0.00    -0.294 OA
BRANCH   3   4
HETATM    4  P   UNK N   1      33.961  11.874   7.312  0.00  0.00     0.393 P 
HETATM    5  O   UNK N   1      35.288  11.210   7.763  0.00  0.00    -0.631 OA
BRANCH   4   6
HETATM    6  O   UNK N   1      33.978  13.519   7.904  0.00  0.00    -0.294 OA
BRANCH   6   7
HETATM    7  C   UNK N   1      35.311  13.769   8.257  0.00  0.00     0.215 C 
BRANCH   7   8
HETATM    8  C   UNK N   1      35.405  14.533   9.579  0.00  0.00     0.180 C 
BRANCH   8   9
HETATM    9  C   UNK N   1      35.050  13.593  10.723  0.00  0.00     0.213 C 
BRANCH   9  10
HETATM   10  O   UNK N   1      36.058  13.438  11.650  0.00  0.00    -0.319 OA
BRANCH  10  11
HETATM   11  C   UNK N   1      36.099  14.075  12.849  0.00  0.00     0.258 C 
HETATM   12  O   UNK N   1      36.138  15.293  12.871  0.00  0.00    -0.265 OA
BRANCH  11  13
HETATM   13  C   UNK N   1      36.039  13.333  14.154  0.00  0.00     0.111 C 
BRANCH  13  14
HETATM   14  C   UNK N   1      34.846  12.400  14.223  0.00  0.00     0.010 C 
BRANCH  14  15
HETATM   15  C   UNK N   1      35.305  10.998  14.569  0.00  0.00     0.000 C 
BRANCH  15  16
HETATM   16  C   UNK N   1      36.767  10.999  14.970  0.00  0.00     0.000 C 
BRANCH  16  17
HETATM   17  C   UNK N   1      37.325   9.581  14.969  0.00  0.00     0.000 C 
BRANCH  17  18
HETATM   18  C   UNK N   1      37.366   8.964  16.361  0.00  0.00     0.000 C 
BRANCH  18  19
HETATM   19  C   UNK N   1      36.424   7.777  16.449  0.00  0.00     0.000 C 
BRANCH  19  20
HETATM   20  C   UNK N   1      36.742   6.988  17.701  0.00  0.00     0.000 C 
BRANCH  20  21
HETATM   21  C   UNK N   1      35.469   6.438  18.311  0.00  0.00     0.000 C 
BRANCH  21  22
HETATM   22  C   UNK N   1      34.998   7.345  19.429  0.00  0.00     0.000 C 
BRANCH  22  23
HETATM   23  C   UNK N   1      33.730   8.054  19.005  0.00  0.00     0.000 C 
BRANCH  23  24
HETATM   24  C   UNK N   1      33.353   9.071  20.061  0.00  0.00     0.000 C 
BRANCH  24  25
HETATM   25  C   UNK N   1      34.605   9.529  20.775  0.00  0.00     0.000 C 
BRANCH  25  26
HETATM   26  C   UNK N   1      34.892  10.972  20.425  0.00  0.00     0.000 C 
BRANCH  26  27
HETATM   27  C   UNK N   1      35.860  11.012  19.262  0.00  0.00    -0.000 C 
BRANCH  27  28
HETATM   28  C   UNK N   1      35.198  11.671  18.072  0.00  0.00    -0.005 C 
HETATM   29  C   UNK N   1      35.180  13.171  18.277  0.00  0.00     0.005 C 
ENDBRANCH  27  28
ENDBRANCH  26  27
ENDBRANCH  25  26
ENDBRANCH  24  25
ENDBRANCH  23  24
ENDBRANCH  22  23
ENDBRANCH  21  22
ENDBRANCH  20  21
ENDBRANCH  19  20
ENDBRANCH  18  19
ENDBRANCH  17  18
ENDBRANCH  16  17
ENDBRANCH  15  16
ENDBRANCH  14  15
ENDBRANCH  13  14
ENDBRANCH  11  13
ENDBRANCH  10  11
ENDBRANCH   9  10
ENDBRANCH   8   9
BRANCH   8  30
HETATM   30  O   UNK N   1      34.476  15.546   9.589  0.00  0.00    -0.312 OA
BRANCH  30  31
HETATM   31  C   UNK N   1      34.776  16.826   9.285  0.00  0.00     0.259 C 
HETATM   32  O   UNK N   1      35.395  17.531  10.068  0.00  0.00    -0.265 OA
BRANCH  31  33
HETATM   33  C   UNK N   1      34.374  17.352   7.951  0.00  0.00     0.111 C 
BRANCH  33  34
HETATM   34  C   UNK N   1      33.162  18.261   8.103  0.00  0.00     0.010 C 
BRANCH  34  35
HETATM   35  C   UNK N   1      31.877  17.466   8.315  0.00  0.00     0.000 C 
BRANCH  35  36
HETATM   36  C   UNK N   1      30.677  18.315   8.747  0.00  0.00     0.000 C 
BRANCH  36  37
HETATM   37  C   UNK N   1      29.358  17.557   8.708  0.00  0.00     0.000 C 
BRANCH  37  38
HETATM   38  C   UNK N   1      28.210  18.551   8.652  0.00  0.00     0.000 C 
BRANCH  38  39
HETATM   39  C   UNK N   1      28.184  19.262   7.317  0.00  0.00     0.000 C 
BRANCH  39  40
HETATM   40  C   UNK N   1      27.103  20.337   7.302  0.00  0.00     0.000 C 
BRANCH  40  41
HETATM   41  C   UNK N   1      27.002  21.039   5.955  0.00  0.00     0.000 C 
BRANCH  41  42
HETATM   42  C   UNK N   1      27.811  20.296   4.904  0.00  0.00     0.000 C 
BRANCH  42  43
HETATM   43  C   UNK N   1      27.083  20.291   3.579  0.00  0.00     0.000 C 
BRANCH  43  44
HETATM   44  C   UNK N   1      25.594  20.296   3.839  0.00  0.00     0.000 C 
BRANCH  44  45
HETATM   45  C   UNK N   1      25.011  18.940   3.525  0.00  0.00     0.000 C 
BRANCH  45  46
HETATM   46  C   UNK N   1      23.846  18.703   4.456  0.00  0.00     0.000 C 
BRANCH  46  47
HETATM   47  C   UNK N   1      23.654  17.221   4.671  0.00  0.00    -0.000 C 
BRANCH  47  48
HETATM   48  C   UNK N   1      22.461  16.760   3.863  0.00  0.00    -0.005 C 
HETATM   49  C   UNK N   1      22.076  15.360   4.287  0.00  0.00     0.005 C 
ENDBRANCH  47  48
ENDBRANCH  46  47
ENDBRANCH  45  46
ENDBRANCH  44  45
ENDBRANCH  43  44
ENDBRANCH  42  43
ENDBRANCH  41  42
ENDBRANCH  40  41
ENDBRANCH  39  40
ENDBRANCH  38  39
ENDBRANCH  37  38
ENDBRANCH  36  37
ENDBRANCH  35  36
ENDBRANCH  34  35
ENDBRANCH  33  34
ENDBRANCH  31  33
ENDBRANCH  30  31
ENDBRANCH   8  30
ENDBRANCH   7   8
ENDBRANCH   6   7
ENDBRANCH   4   6
BRANCH   4  50
HETATM   50  O   UNK N   1      33.922  11.739   5.580  0.00  0.00    -0.307 OA
HETATM   51  H   UNK N   1      33.570  11.986   4.710  0.00  0.00     0.222 HD
ENDBRANCH   4  50
ENDBRANCH   3   4
ENDBRANCH   2   3
ENDBRANCH   1   2
BRANCH   1  52
HETATM   52  O   UNK N   1      30.817   9.311   8.525  0.00  0.00    -0.391 OA
HETATM   53  H   UNK N   1      30.598   9.048   9.432  0.00  0.00     0.210 HD
ENDBRANCH   1  52
BRANCH   1  54
HETATM   54  C   UNK N   1      31.507   8.454   6.415  0.00  0.00     0.214 C 
BRANCH  54  55
HETATM   55  O   UNK N   1      30.397   9.232   6.093  0.00  0.00    -0.294 OA
BRANCH  55  56
HETATM   56  P   UNK N   1      30.844  10.200   4.722  0.00  0.00     0.393 P 
HETATM   57  O   UNK N   1      29.731  10.020   3.654  0.00  0.00    -0.631 OA
BRANCH  56  58
HETATM   58  O   UNK N   1      32.339   9.695   3.994  0.00  0.00    -0.307 OA
HETATM   59  H   UNK N   1      32.684   9.445   3.122  0.00  0.00     0.222 HD
ENDBRANCH  56  58
BRANCH  56  60
HETATM   60  O   UNK N   1      30.865  11.875   5.174  0.00  0.00    -0.294 OA
BRANCH  60  61
HETATM   61  C   UNK N   1      29.788  12.430   4.472  0.00  0.00     0.215 C 
BRANCH  61  62
HETATM   62  C   UNK N   1      30.232  13.604   3.618  0.00  0.00     0.180 C 
BRANCH  62  63
HETATM   63  C   UNK N   1      31.687  13.963   3.903  0.00  0.00     0.213 C 
BRANCH  63  64
HETATM   64  O   UNK N   1      32.214  14.824   2.962  0.00  0.00    -0.319 OA
BRANCH  64  65
HETATM   65  C   UNK N   1      32.612  16.096   3.225  0.00  0.00     0.258 C 
HETATM   66  O   UNK N   1      33.125  16.751   2.333  0.00  0.00    -0.265 OA
BRANCH  65  67
HETATM   67  C   UNK N   1      32.431  16.733   4.574  0.00  0.00     0.111 C 
BRANCH  67  68
HETATM   68  C   UNK N   1      31.230  17.659   4.579  0.00  0.00     0.010 C 
BRANCH  68  69
HETATM   69  C   UNK N   1      30.029  16.967   5.180  0.00  0.00     0.000 C 
BRANCH  69  70
HETATM   70  C   UNK N   1      28.913  16.952   4.147  0.00  0.00     0.000 C 
BRANCH  70  71
HETATM   71  C   UNK N   1      27.553  16.725   4.796  0.00  0.00     0.000 C 
BRANCH  71  72
HETATM   72  C   UNK N   1      27.556  15.537   5.749  0.00  0.00     0.000 C 
BRANCH  72  73
HETATM   73  C   UNK N   1      26.616  15.754   6.920  0.00  0.00     0.000 C 
BRANCH  73  74
HETATM   74  C   UNK N   1      25.251  15.138   6.660  0.00  0.00     0.000 C 
BRANCH  74  75
HETATM   75  C   UNK N   1      25.374  13.685   6.218  0.00  0.00     0.000 C 
BRANCH  75  76
HETATM   76  C   UNK N   1      25.035  12.713   7.339  0.00  0.00     0.000 C 
BRANCH  76  77
HETATM   77  C   UNK N   1      24.825  13.466   8.643  0.00  0.00     0.000 C 
BRANCH  77  78
HETATM   78  C   UNK N   1      24.632  12.491   9.785  0.00  0.00     0.000 C 
BRANCH  78  79
HETATM   79  C   UNK N   1      23.201  11.992   9.799  0.00  0.00     0.000 C 
BRANCH  79  80
HETATM   80  C   UNK N   1      22.277  13.118   9.393  0.00  0.00     0.000 C 
BRANCH  80  81
HETATM   81  C   UNK N   1      21.318  12.622   8.334  0.00  0.00    -0.000 C 
BRANCH  81  82
HETATM   82  C   UNK N   1      20.927  13.774   7.434  0.00  0.00    -0.005 C 
HETATM   83  C   UNK N   1      21.606  15.039   7.913  0.00  0.00     0.005 C 
ENDBRANCH  81  82
ENDBRANCH  80  81
ENDBRANCH  79  80
ENDBRANCH  78  79
ENDBRANCH  77  78
ENDBRANCH  76  77
ENDBRANCH  75  76
ENDBRANCH  74  75
ENDBRANCH  73  74
ENDBRANCH  72  73
ENDBRANCH  71  72
ENDBRANCH  70  71
ENDBRANCH  69  70
ENDBRANCH  68  69
ENDBRANCH  67  68
ENDBRANCH  65  67
ENDBRANCH  64  65
ENDBRANCH  63  64
ENDBRANCH  62  63
BRANCH  62  84
HETATM   84  O   UNK N   1      30.032  13.352   2.276  0.00  0.00    -0.312 OA
BRANCH  84  85
HETATM   85  C   UNK N   1      28.799  13.155   1.747  0.00  0.00     0.259 C 
HETATM   86  O   UNK N   1      28.520  12.102   1.199  0.00  0.00    -0.265 OA
BRANCH  85  87
HETATM   87  C   UNK N   1      27.745  14.207   1.936  0.00  0.00     0.111 C 
BRANCH  87  88
HETATM   88  C   UNK N   1      26.528  13.705   2.705  0.00  0.00     0.010 C 
BRANCH  88  89
HETATM   89  C   UNK N   1      25.334  14.628   2.515  0.00  0.00     0.000 C 
BRANCH  89  90
HETATM   90  C   UNK N   1      24.820  14.493   1.090  0.00  0.00     0.000 C 
BRANCH  90  91
HETATM   91  C   UNK N   1      23.301  14.501   1.014  0.00  0.00     0.000 C 
BRANCH  91  92
HETATM   92  C   UNK N   1      22.723  13.134   0.665  0.00  0.00     0.000 C 
BRANCH  92  93
HETATM   93  C   UNK N   1      23.634  12.380  -0.300  0.00  0.00     0.000 C 
BRANCH  93  94
HETATM   94  C   UNK N   1      23.272  10.904  -0.353  0.00  0.00     0.000 C 
BRANCH  94  95
HETATM   95  C   UNK N   1      24.447  10.053   0.100  0.00  0.00     0.000 C 
BRANCH  95  96
HETATM   96  C   UNK N   1      25.269  10.797   1.138  0.00  0.00     0.000 C 
BRANCH  96  97
HETATM   97  C   UNK N   1      25.824   9.851   2.188  0.00  0.00     0.000 C 
BRANCH  97  98
HETATM   98  C   UNK N   1      25.309  10.210   3.570  0.00  0.00     0.000 C 
BRANCH  98  99
HETATM   99  C   UNK N   1      24.104  11.117   3.440  0.00  0.00     0.000 C 
BRANCH  99 100
HETATM  100  C   UNK N   1      22.843  10.380   3.845  0.00  0.00     0.000 C 
BRANCH 100 101
HETATM  101  C   UNK N   1      23.186   9.392   4.938  0.00  0.00    -0.000 C 
BRANCH 101 102
HETATM  102  C   UNK N   1      23.074  10.060   6.290  0.00  0.00    -0.005 C 
HETATM  103  C   UNK N   1      23.654   9.145   7.347  0.00  0.00     0.005 C 
ENDBRANCH 101 102
ENDBRANCH 100 101
ENDBRANCH  99 100
ENDBRANCH  98  99
ENDBRANCH  97  98
ENDBRANCH  96  97
ENDBRANCH  95  96
ENDBRANCH  94  95
ENDBRANCH  93  94
ENDBRANCH  92  93
ENDBRANCH  91  92
ENDBRANCH  90  91
ENDBRANCH  89  90
ENDBRANCH  88  89
ENDBRANCH  87  88
ENDBRANCH  85  87
ENDBRANCH  84  85
ENDBRANCH  62  84
ENDBRANCH  61  62
ENDBRANCH  60  61
ENDBRANCH  56  60
ENDBRANCH  55  56
ENDBRANCH  54  55
ENDBRANCH   1  54
TORSDOF 89
ENDMDL
MODEL 9
REMARK VINA RESULT:      -5.2      3.056     10.860
REMARK WARNING: 32 MAX_TORS EXCEEDED!!!
REMARK  89 active torsions:
REMARK  status: ('A' for Active; 'I' for Inactive)
REMARK    1  A    between atoms: C_2  and  C_3 
REMARK    2  A    between atoms: C_3  and  C_4 
REMARK    3  A    between atoms: C_4  and  C_5 
REMARK    4  A    between atoms: C_5  and  C_6 
REMARK    5  A    between atoms: C_6  and  C_7 
REMARK    6  A    between atoms: C_7  and  C_8 
REMARK    7  A    between atoms: C_8  and  C_9 
REMARK    8  A    between atoms: C_9  and  C_10 
REMARK    9  A    between atoms: C_10  and  C_11 
REMARK   10  A    between atoms: C_11  and  C_12 
REMARK   11  A    between atoms: C_12  and  C_13 
REMARK   12  A    between atoms: C_13  and  C_14 
REMARK   13  A    between atoms: C_14  and  C_15 
REMARK   14  A    between atoms: C_15  and  C_16 
REMARK   15  A    between atoms: C_16  and  C_17 
REMARK   16  A    between atoms: C_17  and  C_18 
REMARK   17  A    between atoms: C_18  and  O_20 
REMARK   18  A    between atoms: O_20  and  C_21 
REMARK   19  A    between atoms: C_21  and  C_22 
REMARK   20  A    between atoms: C_22  and  C_23 
REMARK   21  A    between atoms: C_22  and  O_81 
REMARK   22  A    between atoms: C_23  and  O_24 
REMARK   23  A    between atoms: P_25  and  O_24 
REMARK   24  A    between atoms: P_25  and  O_26 
REMARK   25  A    between atoms: P_25  and  O_28 
REMARK   26  A    between atoms: O_28  and  C_29 
REMARK   27  A    between atoms: C_29  and  C_30 
REMARK   28  A    between atoms: C_30  and  O_31 
REMARK   29  A    between atoms: C_30  and  C_32 
REMARK   30  A    between atoms: C_32  and  O_33 
REMARK   31  A    between atoms: P_34  and  O_33 
REMARK   32  A    between atoms: P_34  and  O_35 
REMARK   33  A    between atoms: P_34  and  O_37 
REMARK   34  A    between atoms: O_37  and  C_38 
REMARK   35  A    between atoms: C_38  and  C_39 
REMARK   36  A    between atoms: C_39  and  C_40 
REMARK   37  A    between atoms: C_39  and  O_61 
REMARK   38  A    between atoms: C_40  and  O_41 
REMARK   39  A    between atoms: O_41  and  C_42 
REMARK   40  A    between atoms: C_42  and  C_44 
REMARK   41  A    between atoms: C_44  and  C_45 
REMARK   42  A    between atoms: C_45  and  C_46 
REMARK   43  A    between atoms: C_46  and  C_47 
REMARK   44  A    between atoms: C_47  and  C_48 
REMARK   45  A    between atoms: C_48  and  C_49 
REMARK   46  A    between atoms: C_49  and  C_50 
REMARK   47  A    between atoms: C_50  and  C_51 
REMARK   48  A    between atoms: C_51  and  C_52 
REMARK   49  A    between atoms: C_52  and  C_53 
REMARK   50  A    between atoms: C_53  and  C_54 
REMARK   51  A    between atoms: C_54  and  C_55 
REMARK   52  A    between atoms: C_55  and  C_56 
REMARK   53  A    between atoms: C_56  and  C_57 
REMARK   54  A    between atoms: C_57  and  C_58 
REMARK   55  A    between atoms: C_58  and  C_59 
REMARK   56  A    between atoms: O_61  and  C_62 
REMARK   57  A    between atoms: C_62  and  C_64 
REMARK   58  A    between atoms: C_64  and  C_65 
REMARK   59  A    between atoms: C_65  and  C_66 
REMARK   60  A    between atoms: C_66  and  C_67 
REMARK   61  A    between atoms: C_67  and  C_68 
REMARK   62  A    between atoms: C_68  and  C_69 
REMARK   63  A    between atoms: C_69  and  C_70 
REMARK   64  A    between atoms: C_70  and  C_71 
REMARK   65  A    between atoms: C_71  and  C_72 
REMARK   66  A    between atoms: C_72  and  C_73 
REMARK   67  A    between atoms: C_73  and  C_74 
REMARK   68  A    between atoms: C_74  and  C_75 
REMARK   69  A    between atoms: C_75  and  C_76 
REMARK   70  A    between atoms: C_76  and  C_77 
REMARK   71  A    between atoms: C_77  and  C_78 
REMARK   72  A    between atoms: C_78  and  C_79 
REMARK   73  A    between atoms: O_81  and  C_82 
REMARK   74  A    between atoms: C_82  and  C_84 
REMARK   75  A    between atoms: C_84  and  C_85 
REMARK   76  A    between atoms: C_85  and  C_86 
REMARK   77  A    between atoms: C_86  and  C_87 
REMARK   78  A    between atoms: C_87  and  C_88 
REMARK   79  A    between atoms: C_88  and  C_89 
REMARK   80  A    between atoms: C_89  and  C_90 
REMARK   81  A    between atoms: C_90  and  C_91 
REMARK   82  A    between atoms: C_91  and  C_92 
REMARK   83  A    between atoms: C_92  and  C_93 
REMARK   84  A    between atoms: C_93  and  C_94 
REMARK   85  A    between atoms: C_94  and  C_95 
REMARK   86  A    between atoms: C_95  and  C_96 
REMARK   87  A    between atoms: C_96  and  C_97 
REMARK   88  A    between atoms: C_97  and  C_98 
REMARK   89  A    between atoms: C_98  and  C_99 
ROOT
HETATM    1  C   UNK N   1      31.331  12.812   4.288  0.00  0.00     0.166 C 
ENDROOT
BRANCH   1   2
HETATM    2  C   UNK N   1      32.058  13.851   5.126  0.00  0.00     0.214 C 
BRANCH   2   3
HETATM    3  O   UNK N   1      31.709  13.697   6.471  0.00  0.00    -0.294 OA
BRANCH   3   4
HETATM    4  P   UNK N   1      33.147  13.170   7.261  0.00  0.00     0.393 P 
HETATM    5  O   UNK N   1      32.699  12.181   8.369  0.00  0.00    -0.631 OA
BRANCH   4   6
HETATM    6  O   UNK N   1      33.975  14.492   8.050  0.00  0.00    -0.294 OA
BRANCH   6   7
HETATM    7  C   UNK N   1      33.475  14.509   9.360  0.00  0.00     0.215 C 
BRANCH   7   8
HETATM    8  C   UNK N   1      34.539  14.968  10.358  0.00  0.00     0.180 C 
BRANCH   8   9
HETATM    9  C   UNK N   1      35.214  16.225   9.825  0.00  0.00     0.213 C 
BRANCH   9  10
HETATM   10  O   UNK N   1      34.362  17.300   9.690  0.00  0.00    -0.319 OA
BRANCH  10  11
HETATM   11  C   UNK N   1      34.158  17.972   8.528  0.00  0.00     0.258 C 
HETATM   12  O   UNK N   1      35.120  18.269   7.840  0.00  0.00    -0.265 OA
BRANCH  11  13
HETATM   13  C   UNK N   1      32.783  18.313   8.029  0.00  0.00     0.111 C 
BRANCH  13  14
HETATM   14  C   UNK N   1      32.170  17.178   7.232  0.00  0.00     0.010 C 
BRANCH  14  15
HETATM   15  C   UNK N   1      30.757  16.915   7.710  0.00  0.00     0.000 C 
BRANCH  15  16
HETATM   16  C   UNK N   1      30.314  17.988   8.685  0.00  0.00     0.000 C 
BRANCH  16  17
HETATM   17  C   UNK N   1      28.902  17.709   9.187  0.00  0.00     0.000 C 
BRANCH  17  18
HETATM   18  C   UNK N   1      27.828  18.268   8.262  0.00  0.00     0.000 C 
BRANCH  18  19
HETATM   19  C   UNK N   1      28.232  19.631   7.732  0.00  0.00     0.000 C 
BRANCH  19  20
HETATM   20  C   UNK N   1      27.036  20.275   7.065  0.00  0.00     0.000 C 
BRANCH  20  21
HETATM   21  C   UNK N   1      27.454  20.949   5.776  0.00  0.00     0.000 C 
BRANCH  21  22
HETATM   22  C   UNK N   1      28.255  19.984   4.925  0.00  0.00     0.000 C 
BRANCH  22  23
HETATM   23  C   UNK N   1      27.412  19.518   3.758  0.00  0.00     0.000 C 
BRANCH  23  24
HETATM   24  C   UNK N   1      27.524  18.013   3.636  0.00  0.00     0.000 C 
BRANCH  24  25
HETATM   25  C   UNK N   1      28.338  17.482   4.795  0.00  0.00     0.000 C 
BRANCH  25  26
HETATM   26  C   UNK N   1      28.659  16.022   4.565  0.00  0.00     0.000 C 
BRANCH  26  27
HETATM   27  C   UNK N   1      28.059  15.204   5.687  0.00  0.00    -0.000 C 
BRANCH  27  28
HETATM   28  C   UNK N   1      26.569  15.460   5.763  0.00  0.00    -0.005 C 
HETATM   29  C   UNK N   1      26.115  15.342   7.202  0.00  0.00     0.005 C 
ENDBRANCH  27  28
ENDBRANCH  26  27
ENDBRANCH  25  26
ENDBRANCH  24  25
ENDBRANCH  23  24
ENDBRANCH  22  23
ENDBRANCH  21  22
ENDBRANCH  20  21
ENDBRANCH  19  20
ENDBRANCH  18  19
ENDBRANCH  17  18
ENDBRANCH  16  17
ENDBRANCH  15  16
ENDBRANCH  14  15
ENDBRANCH  13  14
ENDBRANCH  11  13
ENDBRANCH  10  11
ENDBRANCH   9  10
ENDBRANCH   8   9
BRANCH   8  30
HETATM   30  O   UNK N   1      35.513  14.004  10.463  0.00  0.00    -0.312 OA
BRANCH  30  31
HETATM   31  C   UNK N   1      36.296  13.860  11.552  0.00  0.00     0.259 C 
HETATM   32  O   UNK N   1      37.484  13.590  11.443  0.00  0.00    -0.265 OA
BRANCH  31  33
HETATM   33  C   UNK N   1      35.693  14.081  12.895  0.00  0.00     0.111 C 
BRANCH  33  34
HETATM   34  C   UNK N   1      36.644  13.580  13.972  0.00  0.00     0.010 C 
BRANCH  34  35
HETATM   35  C   UNK N   1      36.071  13.773  15.373  0.00  0.00     0.000 C 
BRANCH  35  36
HETATM   36  C   UNK N   1      34.864  12.883  15.687  0.00  0.00     0.000 C 
BRANCH  36  37
HETATM   37  C   UNK N   1      35.247  11.460  16.065  0.00  0.00     0.000 C 
BRANCH  37  38
HETATM   38  C   UNK N   1      34.373  10.483  15.295  0.00  0.00     0.000 C 
BRANCH  38  39
HETATM   39  C   UNK N   1      33.954  11.075  13.967  0.00  0.00     0.000 C 
BRANCH  39  40
HETATM   40  C   UNK N   1      33.841   9.986  12.906  0.00  0.00     0.000 C 
BRANCH  40  41
HETATM   41  C   UNK N   1      35.164   9.275  12.663  0.00  0.00     0.000 C 
BRANCH  41  42
HETATM   42  C   UNK N   1      36.224  10.262  12.201  0.00  0.00     0.000 C 
BRANCH  42  43
HETATM   43  C   UNK N   1      37.600   9.801  12.625  0.00  0.00     0.000 C 
BRANCH  43  44
HETATM   44  C   UNK N   1      38.012  10.566  13.862  0.00  0.00     0.000 C 
BRANCH  44  45
HETATM   45  C   UNK N   1      38.779   9.662  14.795  0.00  0.00     0.000 C 
BRANCH  45  46
HETATM   46  C   UNK N   1      37.907   8.472  15.118  0.00  0.00     0.000 C 
BRANCH  46  47
HETATM   47  C   UNK N   1      37.442   8.551  16.553  0.00  0.00    -0.000 C 
BRANCH  47  48
HETATM   48  C   UNK N   1      36.257   7.630  16.735  0.00  0.00    -0.005 C 
HETATM   49  C   UNK N   1      35.895   7.005  15.407  0.00  0.00     0.005 C 
ENDBRANCH  47  48
ENDBRANCH  46  47
ENDBRANCH  45  46
ENDBRANCH  44  45
ENDBRANCH  43  44
ENDBRANCH  42  43
ENDBRANCH  41  42
ENDBRANCH  40  41
ENDBRANCH  39  40
ENDBRANCH  38  39
ENDBRANCH  37  38
ENDBRANCH  36  37
ENDBRANCH  35  36
ENDBRANCH  34  35
ENDBRANCH  33  34
ENDBRANCH  31  33
ENDBRANCH  30  31
ENDBRANCH   8  30
ENDBRANCH   7   8
ENDBRANCH   6   7
ENDBRANCH   4   6
BRANCH   4  50
HETATM   50  O   UNK N   1      34.145  12.251   6.174  0.00  0.00    -0.307 OA
HETATM   51  H   UNK N   1      34.639  12.149   5.346  0.00  0.00     0.222 HD
ENDBRANCH   4  50
ENDBRANCH   3   4
ENDBRANCH   2   3
ENDBRANCH   1   2
BRANCH   1  52
HETATM   52  O   UNK N   1      30.158  12.430   4.933  0.00  0.00    -0.391 OA
HETATM   53  H   UNK N   1      29.455  13.080   5.088  0.00  0.00     0.210 HD
ENDBRANCH   1  52
BRANCH   1  54
HETATM   54  C   UNK N   1      30.994  13.380   2.918  0.00  0.00     0.214 C 
BRANCH  54  55
HETATM   55  O   UNK N   1      32.018  13.056   2.030  0.00  0.00    -0.294 OA
BRANCH  55  56
HETATM   56  P   UNK N   1      31.408  11.800   0.997  0.00  0.00     0.393 P 
HETATM   57  O   UNK N   1      32.599  11.296   0.138  0.00  0.00    -0.631 OA
BRANCH  56  58
HETATM   58  O   UNK N   1      30.183  12.360  -0.101  0.00  0.00    -0.307 OA
HETATM   59  H   UNK N   1      29.561  13.098  -0.193  0.00  0.00     0.222 HD
ENDBRANCH  56  58
BRANCH  56  60
HETATM   60  O   UNK N   1      30.864  10.466   1.965  0.00  0.00    -0.294 OA
BRANCH  60  61
HETATM   61  C   UNK N   1      29.766   9.959   1.258  0.00  0.00     0.215 C 
BRANCH  61  62
HETATM   62  C   UNK N   1      28.464  10.240   1.987  0.00  0.00     0.180 C 
BRANCH  62  63
HETATM   63  C   UNK N   1      27.341  10.539   1.000  0.00  0.00     0.213 C 
BRANCH  63  64
HETATM   64  O   UNK N   1      26.460  11.490   1.472  0.00  0.00    -0.319 OA
BRANCH  64  65
HETATM   65  C   UNK N   1      26.832  12.704   1.958  0.00  0.00     0.258 C 
HETATM   66  O   UNK N   1      27.891  13.187   1.594  0.00  0.00    -0.265 OA
BRANCH  65  67
HETATM   67  C   UNK N   1      25.978  13.481   2.920  0.00  0.00     0.111 C 
BRANCH  67  68
HETATM   68  C   UNK N   1      25.521  14.789   2.302  0.00  0.00     0.010 C 
BRANCH  68  69
HETATM   69  C   UNK N   1      24.730  14.532   1.040  0.00  0.00     0.000 C 
BRANCH  69  70
HETATM   70  C   UNK N   1      23.283  14.266   1.423  0.00  0.00     0.000 C 
BRANCH  70  71
HETATM   71  C   UNK N   1      22.622  13.280   0.468  0.00  0.00     0.000 C 
BRANCH  71  72
HETATM   72  C   UNK N   1      21.164  13.020   0.820  0.00  0.00     0.000 C 
BRANCH  72  73
HETATM   73  C   UNK N   1      20.560  14.174   1.599  0.00  0.00     0.000 C 
BRANCH  73  74
HETATM   74  C   UNK N   1      19.697  15.055   0.711  0.00  0.00     0.000 C 
BRANCH  74  75
HETATM   75  C   UNK N   1      19.993  16.531   0.940  0.00  0.00     0.000 C 
BRANCH  75  76
HETATM   76  C   UNK N   1      20.695  16.778   2.268  0.00  0.00     0.000 C 
BRANCH  76  77
HETATM   77  C   UNK N   1      19.792  17.568   3.201  0.00  0.00     0.000 C 
BRANCH  77  78
HETATM   78  C   UNK N   1      19.847  19.041   2.859  0.00  0.00     0.000 C 
BRANCH  78  79
HETATM   79  C   UNK N   1      20.929  19.718   3.677  0.00  0.00     0.000 C 
BRANCH  79  80
HETATM   80  C   UNK N   1      21.941  20.344   2.744  0.00  0.00     0.000 C 
BRANCH  80  81
HETATM   81  C   UNK N   1      23.336  20.004   3.218  0.00  0.00    -0.000 C 
BRANCH  81  82
HETATM   82  C   UNK N   1      23.315  18.659   3.910  0.00  0.00    -0.005 C 
HETATM   83  C   UNK N   1      24.320  18.659   5.041  0.00  0.00     0.005 C 
ENDBRANCH  81  82
ENDBRANCH  80  81
ENDBRANCH  79  80
ENDBRANCH  78  79
ENDBRANCH  77  78
ENDBRANCH  76  77
ENDBRANCH  75  76
ENDBRANCH  74  75
ENDBRANCH  73  74
ENDBRANCH  72  73
ENDBRANCH  71  72
ENDBRANCH  70  71
ENDBRANCH  69  70
ENDBRANCH  68  69
ENDBRANCH  67  68
ENDBRANCH  65  67
ENDBRANCH  64  65
ENDBRANCH  63  64
ENDBRANCH  62  63
BRANCH  62  84
HETATM   84  O   UNK N   1      28.127   9.199   2.829  0.00  0.00    -0.312 OA
BRANCH  84  85
HETATM   85  C   UNK N   1      27.665   9.400   4.088  0.00  0.00     0.259 C 
HETATM   86  O   UNK N   1      28.210  10.202   4.829  0.00  0.00    -0.265 OA
BRANCH  85  87
HETATM   87  C   UNK N   1      26.410   8.703   4.527  0.00  0.00     0.111 C 
BRANCH  87  88
HETATM   88  C   UNK N   1      25.155   9.250   3.857  0.00  0.00     0.010 C 
BRANCH  88  89
HETATM   89  C   UNK N   1      24.612  10.460   4.604  0.00  0.00     0.000 C 
BRANCH  89  90
HETATM   90  C   UNK N   1      23.484  11.081   3.796  0.00  0.00     0.000 C 
BRANCH  90  91
HETATM   91  C   UNK N   1      22.285  11.451   4.656  0.00  0.00     0.000 C 
BRANCH  91  92
HETATM   92  C   UNK N   1      21.968  12.942   4.610  0.00  0.00     0.000 C 
BRANCH  92  93
HETATM   93  C   UNK N   1      23.136  13.770   5.137  0.00  0.00     0.000 C 
BRANCH  93  94
HETATM   94  C   UNK N   1      22.827  15.258   5.066  0.00  0.00     0.000 C 
BRANCH  94  95
HETATM   95  C   UNK N   1      22.538  15.807   6.454  0.00  0.00     0.000 C 
BRANCH  95  96
HETATM   96  C   UNK N   1      21.146  16.413   6.502  0.00  0.00     0.000 C 
BRANCH  96  97
HETATM   97  C   UNK N   1      20.468  16.139   7.833  0.00  0.00     0.000 C 
BRANCH  97  98
HETATM   98  C   UNK N   1      20.492  14.658   8.161  0.00  0.00     0.000 C 
BRANCH  98  99
HETATM   99  C   UNK N   1      20.990  14.461   9.577  0.00  0.00     0.000 C 
BRANCH  99 100
HETATM  100  C   UNK N   1      21.869  13.230   9.660  0.00  0.00     0.000 C 
BRANCH 100 101
HETATM  101  C   UNK N   1      21.914  12.570   8.299  0.00  0.00    -0.000 C 
BRANCH 101 102
HETATM  102  C   UNK N   1      23.072  11.599   8.236  0.00  0.00    -0.005 C 
HETATM  103  C   UNK N   1      24.349  12.323   8.605  0.00  0.00     0.005 C 
ENDBRANCH 101 102
ENDBRANCH 100 101
ENDBRANCH  99 100
ENDBRANCH  98  99
ENDBRANCH  97  98
ENDBRANCH  96  97
ENDBRANCH  95  96
ENDBRANCH  94  95
ENDBRANCH  93  94
ENDBRANCH  92  93
ENDBRANCH  91  92
ENDBRANCH  90  91
ENDBRANCH  89  90
ENDBRANCH  88  89
ENDBRANCH  87  88
ENDBRANCH  85  87
ENDBRANCH  84  85
ENDBRANCH  62  84
ENDBRANCH  61  62
ENDBRANCH  60  61
ENDBRANCH  56  60
ENDBRANCH  55  56
ENDBRANCH  54  55
ENDBRANCH   1  54
TORSDOF 89
ENDMDL
