MODEL 1
REMARK VINA RESULT:      -4.4      0.000      0.000
REMARK  3 active torsions:
REMARK  status: ('A' for Active; 'I' for Inactive)
REMARK    1  A    between atoms: O_1  and  C_2 
REMARK    2  A    between atoms: C_2  and  C_3 
REMARK    3  A    between atoms: C_2  and  C_6 
ROOT
HETATM    1  C   UNK N   1      34.165  17.253   9.145  0.00  0.00     0.320 C 
ENDROOT
BRANCH   1   2
HETATM    2  O   UNK N   1      32.786  17.058   9.224  0.00  0.00    -0.375 OA
HETATM    3  H   UNK N   1      32.433  16.203   9.515  0.00  0.00     0.211 HD
ENDBRANCH   1   2
BRANCH   1   4
HETATM    4  C   UNK N   1      34.682  18.247   8.148  0.00  0.00     0.214 C 
HETATM    5  O   UNK N   1      35.343  19.340   8.573  0.00  0.00    -0.646 OA
HETATM    6  O   UNK N   1      34.507  18.073   6.953  0.00  0.00    -0.646 OA
ENDBRANCH   1   4
BRANCH   1   7
HETATM    7  C   UNK N   1      35.043  16.456  10.063  0.00  0.00     0.214 C 
HETATM    8  O   UNK N   1      34.710  15.190  10.373  0.00  0.00    -0.646 OA
HETATM    9  O   UNK N   1      36.057  16.947  10.531  0.00  0.00    -0.646 OA
ENDBRANCH   1   7
TORSDOF 3
ENDMDL
MODEL 2
REMARK VINA RESULT:      -4.4      0.206      3.038
REMARK  3 active torsions:
REMARK  status: ('A' for Active; 'I' for Inactive)
REMARK    1  A    between atoms: O_1  and  C_2 
REMARK    2  A    between atoms: C_2  and  C_3 
REMARK    3  A    between atoms: C_2  and  C_6 
ROOT
HETATM    1  C   UNK N   1      34.059  17.295   9.056  0.00  0.00     0.320 C 
ENDROOT
BRANCH   1   2
HETATM    2  O   UNK N   1      32.682  17.082   9.125  0.00  0.00    -0.375 OA
HETATM    3  H   UNK N   1      32.091  17.521   8.493  0.00  0.00     0.211 HD
ENDBRANCH   1   2
BRANCH   1   4
HETATM    4  C   UNK N   1      34.940  16.523   9.993  0.00  0.00     0.214 C 
HETATM    5  O   UNK N   1      35.944  17.147  10.635  0.00  0.00    -0.646 OA
HETATM    6  O   UNK N   1      34.753  15.331  10.178  0.00  0.00    -0.646 OA
ENDBRANCH   1   4
BRANCH   1   7
HETATM    7  C   UNK N   1      34.569  18.282   8.051  0.00  0.00     0.214 C 
HETATM    8  O   UNK N   1      34.416  18.038   6.736  0.00  0.00    -0.646 OA
HETATM    9  O   UNK N   1      35.123  19.306   8.415  0.00  0.00    -0.646 OA
ENDBRANCH   1   7
TORSDOF 3
ENDMDL
MODEL 3
REMARK VINA RESULT:      -4.4     14.990     16.148
REMARK  3 active torsions:
REMARK  status: ('A' for Active; 'I' for Inactive)
REMARK    1  A    between atoms: O_1  and  C_2 
REMARK    2  A    between atoms: C_2  and  C_3 
REMARK    3  A    between atoms: C_2  and  C_6 
ROOT
HETATM    1  C   UNK N   1      20.734  19.914   1.336  0.00  0.00     0.320 C 
ENDROOT
BRANCH   1   2
HETATM    2  O   UNK N   1      20.629  20.637   0.148  0.00  0.00    -0.375 OA
HETATM    3  H   UNK N   1      20.961  21.547   0.103  0.00  0.00     0.211 HD
ENDBRANCH   1   2
BRANCH   1   4
HETATM    4  C   UNK N   1      20.442  18.443   1.296  0.00  0.00     0.214 C 
HETATM    5  O   UNK N   1      20.446  17.792   0.119  0.00  0.00    -0.646 OA
HETATM    6  O   UNK N   1      20.201  17.832   2.324  0.00  0.00    -0.646 OA
ENDBRANCH   1   4
BRANCH   1   7
HETATM    7  C   UNK N   1      21.132  20.654   2.578  0.00  0.00     0.214 C 
HETATM    8  O   UNK N   1      20.283  20.716   3.621  0.00  0.00    -0.646 OA
HETATM    9  O   UNK N   1      22.220  21.202   2.650  0.00  0.00    -0.646 OA
ENDBRANCH   1   7
TORSDOF 3
ENDMDL
MODEL 4
REMARK VINA RESULT:      -4.3      1.106      2.252
REMARK  3 active torsions:
REMARK  status: ('A' for Active; 'I' for Inactive)
REMARK    1  A    between atoms: O_1  and  C_2 
REMARK    2  A    between atoms: C_2  and  C_3 
REMARK    3  A    between atoms: C_2  and  C_6 
ROOT
HETATM    1  C   UNK N   1      34.600  18.042   8.382  0.00  0.00     0.320 C 
ENDROOT
BRANCH   1   2
HETATM    2  O   UNK N   1      35.287  19.250   8.495  0.00  0.00    -0.375 OA
HETATM    3  H   UNK N   1      34.843  20.027   8.869  0.00  0.00     0.211 HD
ENDBRANCH   1   2
BRANCH   1   4
HETATM    4  C   UNK N   1      33.720  17.838   7.184  0.00  0.00     0.214 C 
HETATM    5  O   UNK N   1      32.394  17.676   7.347  0.00  0.00    -0.646 OA
HETATM    6  O   UNK N   1      34.198  17.818   6.062  0.00  0.00    -0.646 OA
ENDBRANCH   1   4
BRANCH   1   7
HETATM    7  C   UNK N   1      34.785  17.023   9.466  0.00  0.00     0.214 C 
HETATM    8  O   UNK N   1      35.594  17.294  10.507  0.00  0.00    -0.646 OA
HETATM    9  O   UNK N   1      34.207  15.950   9.412  0.00  0.00    -0.646 OA
ENDBRANCH   1   7
TORSDOF 3
ENDMDL
MODEL 5
REMARK VINA RESULT:      -4.3     14.986     16.089
REMARK  3 active torsions:
REMARK  status: ('A' for Active; 'I' for Inactive)
REMARK    1  A    between atoms: O_1  and  C_2 
REMARK    2  A    between atoms: C_2  and  C_3 
REMARK    3  A    between atoms: C_2  and  C_6 
ROOT
HETATM    1  C   UNK N   1      20.737  19.914   1.323  0.00  0.00     0.320 C 
ENDROOT
BRANCH   1   2
HETATM    2  O   UNK N   1      20.629  20.645   0.139  0.00  0.00    -0.375 OA
HETATM    3  H   UNK N   1      21.341  21.247  -0.125  0.00  0.00     0.211 HD
ENDBRANCH   1   2
BRANCH   1   4
HETATM    4  C   UNK N   1      21.135  20.646   2.571  0.00  0.00     0.214 C 
HETATM    5  O   UNK N   1      20.285  20.704   3.612  0.00  0.00    -0.646 OA
HETATM    6  O   UNK N   1      22.224  21.189   2.649  0.00  0.00    -0.646 OA
ENDBRANCH   1   4
BRANCH   1   7
HETATM    7  C   UNK N   1      20.448  18.444   1.272  0.00  0.00     0.214 C 
HETATM    8  O   UNK N   1      20.156  17.780   2.405  0.00  0.00    -0.646 OA
HETATM    9  O   UNK N   1      20.477  17.845   0.209  0.00  0.00    -0.646 OA
ENDBRANCH   1   7
TORSDOF 3
ENDMDL
MODEL 6
REMARK VINA RESULT:      -4.2      1.324      2.509
REMARK  3 active torsions:
REMARK  status: ('A' for Active; 'I' for Inactive)
REMARK    1  A    between atoms: O_1  and  C_2 
REMARK    2  A    between atoms: C_2  and  C_3 
REMARK    3  A    between atoms: C_2  and  C_6 
ROOT
HETATM    1  C   UNK N   1      33.723  17.413   8.901  0.00  0.00     0.320 C 
ENDROOT
BRANCH   1   2
HETATM    2  O   UNK N   1      34.296  16.993  10.101  0.00  0.00    -0.375 OA
HETATM    3  H   UNK N   1      34.976  16.302  10.098  0.00  0.00     0.211 HD
ENDBRANCH   1   2
BRANCH   1   4
HETATM    4  C   UNK N   1      34.537  18.293   7.999  0.00  0.00     0.214 C 
HETATM    5  O   UNK N   1      35.322  19.249   8.528  0.00  0.00    -0.646 OA
HETATM    6  O   UNK N   1      34.492  18.149   6.788  0.00  0.00    -0.646 OA
ENDBRANCH   1   4
BRANCH   1   7
HETATM    7  C   UNK N   1      32.330  16.956   8.589  0.00  0.00     0.214 C 
HETATM    8  O   UNK N   1      32.014  15.652   8.693  0.00  0.00    -0.646 OA
HETATM    9  O   UNK N   1      31.479  17.759   8.241  0.00  0.00    -0.646 OA
ENDBRANCH   1   7
TORSDOF 3
ENDMDL
MODEL 7
REMARK VINA RESULT:      -4.1      1.589      3.500
REMARK  3 active torsions:
REMARK  status: ('A' for Active; 'I' for Inactive)
REMARK    1  A    between atoms: O_1  and  C_2 
REMARK    2  A    between atoms: C_2  and  C_3 
REMARK    3  A    between atoms: C_2  and  C_6 
ROOT
HETATM    1  C   UNK N   1      33.244  17.541   8.606  0.00  0.00     0.320 C 
ENDROOT
BRANCH   1   2
HETATM    2  O   UNK N   1      33.624  16.771   9.705  0.00  0.00    -0.375 OA
HETATM    3  H   UNK N   1      33.037  16.700  10.474  0.00  0.00     0.211 HD
ENDBRANCH   1   2
BRANCH   1   4
HETATM    4  C   UNK N   1      31.784  17.625   8.273  0.00  0.00     0.214 C 
HETATM    5  O   UNK N   1      31.277  16.857   7.291  0.00  0.00    -0.646 OA
HETATM    6  O   UNK N   1      31.051  18.384   8.886  0.00  0.00    -0.646 OA
ENDBRANCH   1   4
BRANCH   1   7
HETATM    7  C   UNK N   1      34.321  18.237   7.829  0.00  0.00     0.214 C 
HETATM    8  O   UNK N   1      35.091  19.161   8.432  0.00  0.00    -0.646 OA
HETATM    9  O   UNK N   1      34.503  17.972   6.652  0.00  0.00    -0.646 OA
ENDBRANCH   1   7
TORSDOF 3
ENDMDL
MODEL 8
REMARK VINA RESULT:      -3.9      2.329      4.492
REMARK  3 active torsions:
REMARK  status: ('A' for Active; 'I' for Inactive)
REMARK    1  A    between atoms: O_1  and  C_2 
REMARK    2  A    between atoms: C_2  and  C_3 
REMARK    3  A    between atoms: C_2  and  C_6 
ROOT
HETATM    1  C   UNK N   1      34.532  15.093  11.221  0.00  0.00     0.320 C 
ENDROOT
BRANCH   1   2
HETATM    2  O   UNK N   1      33.150  15.107  11.031  0.00  0.00    -0.375 OA
HETATM    3  H   UNK N   1      32.784  15.209  10.139  0.00  0.00     0.211 HD
ENDBRANCH   1   2
BRANCH   1   4
HETATM    4  C   UNK N   1      35.133  13.923  11.942  0.00  0.00     0.214 C 
HETATM    5  O   UNK N   1      35.881  13.032  11.265  0.00  0.00    -0.646 OA
HETATM    6  O   UNK N   1      34.950  13.772  13.139  0.00  0.00    -0.646 OA
ENDBRANCH   1   4
BRANCH   1   7
HETATM    7  C   UNK N   1      35.327  16.248  10.693  0.00  0.00     0.214 C 
HETATM    8  O   UNK N   1      36.668  16.244  10.803  0.00  0.00    -0.646 OA
HETATM    9  O   UNK N   1      34.767  17.194  10.162  0.00  0.00    -0.646 OA
ENDBRANCH   1   7
TORSDOF 3
ENDMDL
MODEL 9
REMARK VINA RESULT:      -3.9      2.388      3.416
REMARK  3 active torsions:
REMARK  status: ('A' for Active; 'I' for Inactive)
REMARK    1  A    between atoms: O_1  and  C_2 
REMARK    2  A    between atoms: C_2  and  C_3 
REMARK    3  A    between atoms: C_2  and  C_6 
ROOT
HETATM    1  C   UNK N   1      34.611  15.083  11.265  0.00  0.00     0.320 C 
ENDROOT
BRANCH   1   2
HETATM    2  O   UNK N   1      33.230  15.093  11.069  0.00  0.00    -0.375 OA
HETATM    3  H   UNK N   1      32.660  15.608  11.660  0.00  0.00     0.211 HD
ENDBRANCH   1   2
BRANCH   1   4
HETATM    4  C   UNK N   1      35.406  16.244  10.748  0.00  0.00     0.214 C 
HETATM    5  O   UNK N   1      36.750  16.219  10.817  0.00  0.00    -0.646 OA
HETATM    6  O   UNK N   1      34.845  17.213  10.264  0.00  0.00    -0.646 OA
ENDBRANCH   1   4
BRANCH   1   7
HETATM    7  C   UNK N   1      35.212  13.910  11.981  0.00  0.00     0.214 C 
HETATM    8  O   UNK N   1      35.039  13.777  13.308  0.00  0.00    -0.646 OA
HETATM    9  O   UNK N   1      35.857  13.075  11.368  0.00  0.00    -0.646 OA
ENDBRANCH   1   7
TORSDOF 3
ENDMDL
