MODEL 1
REMARK VINA RESULT:      -5.9      0.000      0.000
REMARK  16 active torsions:
REMARK  status: ('A' for Active; 'I' for Inactive)
REMARK    1  A    between atoms: C_2  and  C_1 
REMARK    2  A    between atoms: C_5  and  C_1 
REMARK    3  A    between atoms: C_10  and  C_2 
REMARK    4  A    between atoms: C_11  and  C_5 
REMARK    5  A    between atoms: C_16  and  C_10 
REMARK    6  A    between atoms: C_21  and  C_11 
REMARK    7  A    between atoms: C_24  and  C_16 
REMARK    8  A    between atoms: C_18  and  C_17 
REMARK    9  A    between atoms: C_22  and  C_17 
REMARK   10  A    between atoms: C_23  and  C_18 
REMARK   11  A    between atoms: C_20  and  C_19 
REMARK   12  A    between atoms: C_23  and  C_19 
REMARK   13  A    between atoms: C_25  and  C_20 
REMARK   14  A    between atoms: C_23  and  N_26 
REMARK   15  A    between atoms: C_24  and  O_28 
REMARK   16  A    between atoms: O_30  and  C_25 
ROOT
HETATM    1  C   UNK N   1      31.835  17.877   8.710  0.00  0.00     0.111 C 
HETATM    2  N   UNK N   1      31.818  16.590   8.793  0.00  0.00    -0.370 N 
ATOM      3  HN  UNK N   1      30.946  16.142   9.078  1.00  0.00     0.161 HD
ENDROOT
BRANCH   2   4
HETATM    4  C   UNK N   1      32.960  15.738   8.507  0.00  0.00     0.084 C 
BRANCH   4   5
HETATM    5  C   UNK N   1      32.534  14.654   7.524  0.00  0.00     0.029 C 
BRANCH   5   6
HETATM    6  C   UNK N   1      31.339  15.067   6.672  0.00  0.00     0.040 C 
BRANCH   6   7
HETATM    7  C   UNK N   1      31.813  15.623   5.375  0.00  0.00    -0.058 A 
HETATM    8  C   UNK N   1      32.143  14.765   4.318  0.00  0.00     0.007 A 
HETATM    9  C   UNK N   1      32.592  15.291   3.103  0.00  0.00     0.001 A 
HETATM   10  C   UNK N   1      32.712  16.675   2.944  0.00  0.00     0.000 A 
HETATM   11  C   UNK N   1      32.379  17.533   3.997  0.00  0.00     0.001 A 
HETATM   12  C   UNK N   1      31.928  17.008   5.212  0.00  0.00     0.007 A 
ENDBRANCH   6   7
ENDBRANCH   5   6
ENDBRANCH   4   5
BRANCH   4  13
HETATM   13  C   UNK N   1      33.507  15.052   9.770  0.00  0.00     0.035 C 
BRANCH  13  14
HETATM   14  C   UNK N   1      35.029  14.963   9.805  0.00  0.00     0.112 C 
BRANCH  14  15
HETATM   15  C   UNK N   1      35.656  16.191  10.395  0.00  0.00     0.139 C 
HETATM   16  O   UNK N   1      35.023  17.233  10.423  0.00  0.00    -0.650 OA
BRANCH  15  17
HETATM   17  O   UNK N   1      36.903  16.155  10.907  0.00  0.00    -0.776 OA
HETATM   18  H   UNK N   1      37.377  16.941  11.092  0.00  0.00     0.167 HD
ENDBRANCH  15  17
ENDBRANCH  14  15
ENDBRANCH  13  14
ENDBRANCH   4  13
ENDBRANCH   2   4
BRANCH   1  19
HETATM   19  C   UNK N   1      30.588  18.648   9.046  0.00  0.00     0.083 C 
BRANCH  19  20
HETATM   20  C   UNK N   1      29.425  17.773   9.512  0.00  0.00     0.008 C 
BRANCH  20  21
HETATM   21  C   UNK N   1      28.179  17.999   8.671  0.00  0.00     0.000 C 
BRANCH  21  22
HETATM   22  C   UNK N   1      28.518  18.830   7.441  0.00  0.00     0.000 C 
BRANCH  22  23
HETATM   23  C   UNK N   1      27.590  18.522   6.279  0.00  0.00     0.005 C 
BRANCH  23  24
HETATM   24  C   UNK N   1      28.416  18.372   5.013  0.00  0.00     0.038 C 
BRANCH  24  25
HETATM   25  C   UNK N   1      28.420  16.965   4.520  0.00  0.00    -0.058 A 
HETATM   26  C   UNK N   1      28.064  15.907   5.368  0.00  0.00     0.007 A 
HETATM   27  C   UNK N   1      28.092  14.592   4.900  0.00  0.00     0.001 A 
HETATM   28  C   UNK N   1      28.488  14.328   3.587  0.00  0.00     0.000 A 
HETATM   29  C   UNK N   1      28.853  15.379   2.740  0.00  0.00     0.001 A 
HETATM   30  C   UNK N   1      28.817  16.697   3.207  0.00  0.00     0.007 A 
ENDBRANCH  24  25
ENDBRANCH  23  24
ENDBRANCH  22  23
ENDBRANCH  21  22
ENDBRANCH  20  21
ENDBRANCH  19  20
ENDBRANCH   1  19
BRANCH   1  31
HETATM   31  O   UNK N   1      32.948  18.521   8.314  0.00  0.00    -0.350 OA
HETATM   32  H   UNK N   1      33.611  18.071   7.827  0.00  0.00     0.219 HD
ENDBRANCH   1  31
TORSDOF 16
ENDMDL
MODEL 2
REMARK VINA RESULT:      -5.9     13.176     16.603
REMARK  16 active torsions:
REMARK  status: ('A' for Active; 'I' for Inactive)
REMARK    1  A    between atoms: C_2  and  C_1 
REMARK    2  A    between atoms: C_5  and  C_1 
REMARK    3  A    between atoms: C_10  and  C_2 
REMARK    4  A    between atoms: C_11  and  C_5 
REMARK    5  A    between atoms: C_16  and  C_10 
REMARK    6  A    between atoms: C_21  and  C_11 
REMARK    7  A    between atoms: C_24  and  C_16 
REMARK    8  A    between atoms: C_18  and  C_17 
REMARK    9  A    between atoms: C_22  and  C_17 
REMARK   10  A    between atoms: C_23  and  C_18 
REMARK   11  A    between atoms: C_20  and  C_19 
REMARK   12  A    between atoms: C_23  and  C_19 
REMARK   13  A    between atoms: C_25  and  C_20 
REMARK   14  A    between atoms: C_23  and  N_26 
REMARK   15  A    between atoms: C_24  and  O_28 
REMARK   16  A    between atoms: O_30  and  C_25 
ROOT
HETATM    1  C   UNK N   1      29.374  23.244  -7.656  0.00  0.00     0.111 C 
HETATM    2  N   UNK N   1      28.284  23.688  -7.129  0.00  0.00    -0.370 N 
ATOM      3  HN  UNK N   1      28.155  23.566  -6.124  1.00  0.00     0.161 HD
ENDROOT
BRANCH   2   4
HETATM    4  C   UNK N   1      27.227  24.350  -7.876  0.00  0.00     0.084 C 
BRANCH   4   5
HETATM    5  C   UNK N   1      27.364  25.857  -7.694  0.00  0.00     0.029 C 
BRANCH   5   6
HETATM    6  C   UNK N   1      26.039  26.535  -7.365  0.00  0.00     0.040 C 
BRANCH   6   7
HETATM    7  C   UNK N   1      26.205  27.415  -6.176  0.00  0.00    -0.058 A 
HETATM    8  C   UNK N   1      25.397  27.234  -5.046  0.00  0.00     0.007 A 
HETATM    9  C   UNK N   1      25.554  28.065  -3.933  0.00  0.00     0.001 A 
HETATM   10  C   UNK N   1      26.517  29.078  -3.949  0.00  0.00     0.000 A 
HETATM   11  C   UNK N   1      27.327  29.257  -5.075  0.00  0.00     0.001 A 
HETATM   12  C   UNK N   1      27.172  28.425  -6.188  0.00  0.00     0.007 A 
ENDBRANCH   6   7
ENDBRANCH   5   6
ENDBRANCH   4   5
BRANCH   4  13
HETATM   13  C   UNK N   1      25.826  23.934  -7.397  0.00  0.00     0.035 C 
BRANCH  13  14
HETATM   14  C   UNK N   1      25.772  22.524  -6.819  0.00  0.00     0.112 C 
BRANCH  14  15
HETATM   15  C   UNK N   1      24.916  21.607  -7.640  0.00  0.00     0.139 C 
HETATM   16  O   UNK N   1      25.344  20.510  -7.958  0.00  0.00    -0.650 OA
BRANCH  15  17
HETATM   17  O   UNK N   1      23.674  21.972  -8.020  0.00  0.00    -0.776 OA
HETATM   18  H   UNK N   1      23.303  22.790  -7.752  0.00  0.00     0.167 HD
ENDBRANCH  15  17
ENDBRANCH  14  15
ENDBRANCH  13  14
ENDBRANCH   4  13
ENDBRANCH   2   4
BRANCH   1  19
HETATM   19  C   UNK N   1      30.387  22.564  -6.776  0.00  0.00     0.083 C 
BRANCH  19  20
HETATM   20  C   UNK N   1      29.862  21.308  -6.082  0.00  0.00     0.008 C 
BRANCH  20  21
HETATM   21  C   UNK N   1      30.989  20.356  -5.715  0.00  0.00     0.000 C 
BRANCH  21  22
HETATM   22  C   UNK N   1      31.501  20.662  -4.314  0.00  0.00     0.000 C 
BRANCH  22  23
HETATM   23  C   UNK N   1      30.391  21.154  -3.403  0.00  0.00     0.005 C 
BRANCH  23  24
HETATM   24  C   UNK N   1      30.852  22.420  -2.701  0.00  0.00     0.038 C 
BRANCH  24  25
HETATM   25  C   UNK N   1      30.125  23.623  -3.199  0.00  0.00    -0.058 A 
HETATM   26  C   UNK N   1      28.730  23.615  -3.329  0.00  0.00     0.007 A 
HETATM   27  C   UNK N   1      28.063  24.741  -3.815  0.00  0.00     0.001 A 
HETATM   28  C   UNK N   1      28.790  25.875  -4.186  0.00  0.00     0.000 A 
HETATM   29  C   UNK N   1      30.183  25.884  -4.067  0.00  0.00     0.001 A 
HETATM   30  C   UNK N   1      30.850  24.759  -3.572  0.00  0.00     0.007 A 
ENDBRANCH  24  25
ENDBRANCH  23  24
ENDBRANCH  22  23
ENDBRANCH  21  22
ENDBRANCH  20  21
ENDBRANCH  19  20
ENDBRANCH   1  19
BRANCH   1  31
HETATM   31  O   UNK N   1      29.610  23.399  -8.972  0.00  0.00    -0.350 OA
HETATM   32  H   UNK N   1      29.765  24.251  -9.330  0.00  0.00     0.219 HD
ENDBRANCH   1  31
TORSDOF 16
ENDMDL
MODEL 3
REMARK VINA RESULT:      -5.8     13.762     16.707
REMARK  16 active torsions:
REMARK  status: ('A' for Active; 'I' for Inactive)
REMARK    1  A    between atoms: C_2  and  C_1 
REMARK    2  A    between atoms: C_5  and  C_1 
REMARK    3  A    between atoms: C_10  and  C_2 
REMARK    4  A    between atoms: C_11  and  C_5 
REMARK    5  A    between atoms: C_16  and  C_10 
REMARK    6  A    between atoms: C_21  and  C_11 
REMARK    7  A    between atoms: C_24  and  C_16 
REMARK    8  A    between atoms: C_18  and  C_17 
REMARK    9  A    between atoms: C_22  and  C_17 
REMARK   10  A    between atoms: C_23  and  C_18 
REMARK   11  A    between atoms: C_20  and  C_19 
REMARK   12  A    between atoms: C_23  and  C_19 
REMARK   13  A    between atoms: C_25  and  C_20 
REMARK   14  A    between atoms: C_23  and  N_26 
REMARK   15  A    between atoms: C_24  and  O_28 
REMARK   16  A    between atoms: O_30  and  C_25 
ROOT
HETATM    1  C   UNK N   1      25.897  24.557  -6.430  0.00  0.00     0.111 C 
HETATM    2  N   UNK N   1      26.551  25.258  -5.568  0.00  0.00    -0.370 N 
ATOM      3  HN  UNK N   1      26.954  26.142  -5.879  1.00  0.00     0.161 HD
ENDROOT
BRANCH   2   4
HETATM    4  C   UNK N   1      26.752  24.868  -4.182  0.00  0.00     0.084 C 
BRANCH   4   5
HETATM    5  C   UNK N   1      26.722  26.117  -3.309  0.00  0.00     0.029 C 
BRANCH   5   6
HETATM    6  C   UNK N   1      25.960  27.269  -3.954  0.00  0.00     0.040 C 
BRANCH   6   7
HETATM    7  C   UNK N   1      26.543  28.566  -3.517  0.00  0.00    -0.058 A 
HETATM    8  C   UNK N   1      26.223  29.749  -4.196  0.00  0.00     0.007 A 
HETATM    9  C   UNK N   1      26.777  30.965  -3.784  0.00  0.00     0.001 A 
HETATM   10  C   UNK N   1      27.651  31.000  -2.694  0.00  0.00     0.000 A 
HETATM   11  C   UNK N   1      27.967  29.821  -2.012  0.00  0.00     0.001 A 
HETATM   12  C   UNK N   1      27.413  28.604  -2.422  0.00  0.00     0.007 A 
ENDBRANCH   6   7
ENDBRANCH   5   6
ENDBRANCH   4   5
BRANCH   4  13
HETATM   13  C   UNK N   1      28.101  24.162  -3.964  0.00  0.00     0.035 C 
BRANCH  13  14
HETATM   14  C   UNK N   1      28.234  23.512  -2.591  0.00  0.00     0.112 C 
BRANCH  14  15
HETATM   15  C   UNK N   1      29.547  22.807  -2.422  0.00  0.00     0.139 C 
HETATM   16  O   UNK N   1      29.880  21.957  -3.231  0.00  0.00    -0.650 OA
BRANCH  15  17
HETATM   17  O   UNK N   1      30.369  23.109  -1.397  0.00  0.00    -0.776 OA
HETATM   18  H   UNK N   1      31.296  22.990  -1.463  0.00  0.00     0.167 HD
ENDBRANCH  15  17
ENDBRANCH  14  15
ENDBRANCH  13  14
ENDBRANCH   4  13
ENDBRANCH   2   4
BRANCH   1  19
HETATM   19  C   UNK N   1      25.771  25.064  -7.840  0.00  0.00     0.083 C 
BRANCH  19  20
HETATM   20  C   UNK N   1      26.234  26.508  -8.023  0.00  0.00     0.008 C 
BRANCH  20  21
HETATM   21  C   UNK N   1      27.477  26.595  -8.895  0.00  0.00     0.000 C 
BRANCH  21  22
HETATM   22  C   UNK N   1      28.366  27.740  -8.431  0.00  0.00     0.000 C 
BRANCH  22  23
HETATM   23  C   UNK N   1      27.926  28.286  -7.084  0.00  0.00     0.005 C 
BRANCH  23  24
HETATM   24  C   UNK N   1      28.946  29.305  -6.606  0.00  0.00     0.038 C 
BRANCH  24  25
HETATM   25  C   UNK N   1      29.727  28.799  -5.441  0.00  0.00    -0.058 A 
HETATM   26  C   UNK N   1      29.655  27.453  -5.059  0.00  0.00     0.007 A 
HETATM   27  C   UNK N   1      30.375  26.996  -3.954  0.00  0.00     0.001 A 
HETATM   28  C   UNK N   1      31.159  27.887  -3.217  0.00  0.00     0.000 A 
HETATM   29  C   UNK N   1      31.227  29.233  -3.589  0.00  0.00     0.001 A 
HETATM   30  C   UNK N   1      30.512  29.688  -4.700  0.00  0.00     0.007 A 
ENDBRANCH  24  25
ENDBRANCH  23  24
ENDBRANCH  22  23
ENDBRANCH  21  22
ENDBRANCH  20  21
ENDBRANCH  19  20
ENDBRANCH   1  19
BRANCH   1  31
HETATM   31  O   UNK N   1      25.322  23.394  -6.070  0.00  0.00    -0.350 OA
HETATM   32  H   UNK N   1      24.449  23.191  -6.343  0.00  0.00     0.219 HD
ENDBRANCH   1  31
TORSDOF 16
ENDMDL
MODEL 4
REMARK VINA RESULT:      -5.7     12.612     15.109
REMARK  16 active torsions:
REMARK  status: ('A' for Active; 'I' for Inactive)
REMARK    1  A    between atoms: C_2  and  C_1 
REMARK    2  A    between atoms: C_5  and  C_1 
REMARK    3  A    between atoms: C_10  and  C_2 
REMARK    4  A    between atoms: C_11  and  C_5 
REMARK    5  A    between atoms: C_16  and  C_10 
REMARK    6  A    between atoms: C_21  and  C_11 
REMARK    7  A    between atoms: C_24  and  C_16 
REMARK    8  A    between atoms: C_18  and  C_17 
REMARK    9  A    between atoms: C_22  and  C_17 
REMARK   10  A    between atoms: C_23  and  C_18 
REMARK   11  A    between atoms: C_20  and  C_19 
REMARK   12  A    between atoms: C_23  and  C_19 
REMARK   13  A    between atoms: C_25  and  C_20 
REMARK   14  A    between atoms: C_23  and  N_26 
REMARK   15  A    between atoms: C_24  and  O_28 
REMARK   16  A    between atoms: O_30  and  C_25 
ROOT
HETATM    1  C   UNK N   1      27.563  26.005  -3.794  0.00  0.00     0.111 C 
HETATM    2  N   UNK N   1      27.662  24.726  -3.657  0.00  0.00    -0.370 N 
ATOM      3  HN  UNK N   1      26.873  24.228  -3.243  1.00  0.00     0.161 HD
ENDROOT
BRANCH   2   4
HETATM    4  C   UNK N   1      28.826  23.950  -4.052  0.00  0.00     0.084 C 
BRANCH   4   5
HETATM    5  C   UNK N   1      28.466  23.108  -5.270  0.00  0.00     0.029 C 
BRANCH   5   6
HETATM    6  C   UNK N   1      29.304  23.454  -6.495  0.00  0.00     0.040 C 
BRANCH   6   7
HETATM    7  C   UNK N   1      29.337  22.295  -7.428  0.00  0.00    -0.058 A 
HETATM    8  C   UNK N   1      29.043  21.006  -6.962  0.00  0.00     0.007 A 
HETATM    9  C   UNK N   1      29.079  19.920  -7.841  0.00  0.00     0.001 A 
HETATM   10  C   UNK N   1      29.408  20.119  -9.185  0.00  0.00     0.000 A 
HETATM   11  C   UNK N   1      29.697  21.405  -9.651  0.00  0.00     0.001 A 
HETATM   12  C   UNK N   1      29.660  22.494  -8.774  0.00  0.00     0.007 A 
ENDBRANCH   6   7
ENDBRANCH   5   6
ENDBRANCH   4   5
BRANCH   4  13
HETATM   13  C   UNK N   1      29.302  23.003  -2.937  0.00  0.00     0.035 C 
BRANCH  13  14
HETATM   14  C   UNK N   1      30.765  23.196  -2.557  0.00  0.00     0.112 C 
BRANCH  14  15
HETATM   15  C   UNK N   1      31.629  22.067  -3.033  0.00  0.00     0.139 C 
HETATM   16  O   UNK N   1      31.704  21.831  -4.227  0.00  0.00    -0.650 OA
BRANCH  15  17
HETATM   17  O   UNK N   1      32.335  21.318  -2.161  0.00  0.00    -0.776 OA
HETATM   18  H   UNK N   1      31.909  20.796  -1.510  0.00  0.00     0.167 HD
ENDBRANCH  15  17
ENDBRANCH  14  15
ENDBRANCH  13  14
ENDBRANCH   4  13
ENDBRANCH   2   4
BRANCH   1  19
HETATM   19  C   UNK N   1      26.309  26.695  -3.333  0.00  0.00     0.083 C 
BRANCH  19  20
HETATM   20  C   UNK N   1      25.678  27.604  -4.385  0.00  0.00     0.008 C 
BRANCH  20  21
HETATM   21  C   UNK N   1      25.139  26.810  -5.564  0.00  0.00     0.000 C 
BRANCH  21  22
HETATM   22  C   UNK N   1      25.996  27.054  -6.799  0.00  0.00     0.000 C 
BRANCH  22  23
HETATM   23  C   UNK N   1      26.018  25.846  -7.718  0.00  0.00     0.005 C 
BRANCH  23  24
HETATM   24  C   UNK N   1      25.659  24.608  -6.916  0.00  0.00     0.038 C 
BRANCH  24  25
HETATM   25  C   UNK N   1      25.730  23.372  -7.748  0.00  0.00    -0.058 A 
HETATM   26  C   UNK N   1      26.099  23.436  -9.098  0.00  0.00     0.007 A 
HETATM   27  C   UNK N   1      26.142  22.275  -9.871  0.00  0.00     0.001 A 
HETATM   28  C   UNK N   1      25.804  21.045  -9.301  0.00  0.00     0.000 A 
HETATM   29  C   UNK N   1      25.427  20.977  -7.956  0.00  0.00     0.001 A 
HETATM   30  C   UNK N   1      25.391  22.140  -7.180  0.00  0.00     0.007 A 
ENDBRANCH  24  25
ENDBRANCH  23  24
ENDBRANCH  22  23
ENDBRANCH  21  22
ENDBRANCH  20  21
ENDBRANCH  19  20
ENDBRANCH   1  19
BRANCH   1  31
HETATM   31  O   UNK N   1      28.562  26.710  -4.357  0.00  0.00    -0.350 OA
HETATM   32  H   UNK N   1      28.373  27.421  -4.939  0.00  0.00     0.219 HD
ENDBRANCH   1  31
TORSDOF 16
ENDMDL
MODEL 5
REMARK VINA RESULT:      -5.6      4.721      9.157
REMARK  16 active torsions:
REMARK  status: ('A' for Active; 'I' for Inactive)
REMARK    1  A    between atoms: C_2  and  C_1 
REMARK    2  A    between atoms: C_5  and  C_1 
REMARK    3  A    between atoms: C_10  and  C_2 
REMARK    4  A    between atoms: C_11  and  C_5 
REMARK    5  A    between atoms: C_16  and  C_10 
REMARK    6  A    between atoms: C_21  and  C_11 
REMARK    7  A    between atoms: C_24  and  C_16 
REMARK    8  A    between atoms: C_18  and  C_17 
REMARK    9  A    between atoms: C_22  and  C_17 
REMARK   10  A    between atoms: C_23  and  C_18 
REMARK   11  A    between atoms: C_20  and  C_19 
REMARK   12  A    between atoms: C_23  and  C_19 
REMARK   13  A    between atoms: C_25  and  C_20 
REMARK   14  A    between atoms: C_23  and  N_26 
REMARK   15  A    between atoms: C_24  and  O_28 
REMARK   16  A    between atoms: O_30  and  C_25 
ROOT
HETATM    1  C   UNK N   1      35.059  14.211  10.963  0.00  0.00     0.111 C 
HETATM    2  N   UNK N   1      35.036  14.485   9.703  0.00  0.00    -0.370 N 
ATOM      3  HN  UNK N   1      35.919  14.454   9.192  1.00  0.00     0.161 HD
ENDROOT
BRANCH   2   4
HETATM    4  C   UNK N   1      33.834  14.838   8.966  0.00  0.00     0.084 C 
BRANCH   4   5
HETATM    5  C   UNK N   1      34.038  14.492   7.496  0.00  0.00     0.029 C 
BRANCH   5   6
HETATM    6  C   UNK N   1      32.724  14.285   6.751  0.00  0.00     0.040 C 
BRANCH   6   7
HETATM    7  C   UNK N   1      32.507  15.403   5.793  0.00  0.00    -0.058 A 
HETATM    8  C   UNK N   1      33.366  15.572   4.699  0.00  0.00     0.007 A 
HETATM    9  C   UNK N   1      33.160  16.626   3.805  0.00  0.00     0.001 A 
HETATM   10  C   UNK N   1      32.097  17.512   4.001  0.00  0.00     0.000 A 
HETATM   11  C   UNK N   1      31.235  17.341   5.089  0.00  0.00     0.001 A 
HETATM   12  C   UNK N   1      31.439  16.286   5.985  0.00  0.00     0.007 A 
ENDBRANCH   6   7
ENDBRANCH   5   6
ENDBRANCH   4   5
BRANCH   4  13
HETATM   13  C   UNK N   1      33.507  16.337   9.066  0.00  0.00     0.035 C 
BRANCH  13  14
HETATM   14  C   UNK N   1      34.736  17.218   9.259  0.00  0.00     0.112 C 
BRANCH  14  15
HETATM   15  C   UNK N   1      34.803  18.327   8.252  0.00  0.00     0.139 C 
HETATM   16  O   UNK N   1      35.308  19.392   8.565  0.00  0.00    -0.650 OA
BRANCH  15  17
HETATM   17  O   UNK N   1      34.327  18.158   7.002  0.00  0.00    -0.776 OA
HETATM   18  H   UNK N   1      33.839  18.831   6.570  0.00  0.00     0.167 HD
ENDBRANCH  15  17
ENDBRANCH  14  15
ENDBRANCH  13  14
ENDBRANCH   4  13
ENDBRANCH   2   4
BRANCH   1  19
HETATM   19  C   UNK N   1      36.373  13.873  11.614  0.00  0.00     0.083 C 
BRANCH  19  20
HETATM   20  C   UNK N   1      36.254  13.487  13.087  0.00  0.00     0.008 C 
BRANCH  20  21
HETATM   21  C   UNK N   1      36.593  12.023  13.313  0.00  0.00     0.000 C 
BRANCH  21  22
HETATM   22  C   UNK N   1      35.353  11.160  13.122  0.00  0.00     0.000 C 
BRANCH  22  23
HETATM   23  C   UNK N   1      34.338  11.379  14.229  0.00  0.00     0.005 C 
BRANCH  23  24
HETATM   24  C   UNK N   1      34.746  10.563  15.444  0.00  0.00     0.038 C 
BRANCH  24  25
HETATM   25  C   UNK N   1      34.926  11.422  16.650  0.00  0.00    -0.058 A 
HETATM   26  C   UNK N   1      34.891  12.819  16.548  0.00  0.00     0.007 A 
HETATM   27  C   UNK N   1      35.081  13.611  17.681  0.00  0.00     0.001 A 
HETATM   28  C   UNK N   1      35.320  13.010  18.919  0.00  0.00     0.000 A 
HETATM   29  C   UNK N   1      35.364  11.616  19.025  0.00  0.00     0.001 A 
HETATM   30  C   UNK N   1      35.166  10.823  17.891  0.00  0.00     0.007 A 
ENDBRANCH  24  25
ENDBRANCH  23  24
ENDBRANCH  22  23
ENDBRANCH  21  22
ENDBRANCH  20  21
ENDBRANCH  19  20
ENDBRANCH   1  19
BRANCH   1  31
HETATM   31  O   UNK N   1      33.922  14.212  11.684  0.00  0.00    -0.350 OA
HETATM   32  H   UNK N   1      33.357  13.464  11.681  0.00  0.00     0.219 HD
ENDBRANCH   1  31
TORSDOF 16
ENDMDL
MODEL 6
REMARK VINA RESULT:      -5.5     13.328     15.874
REMARK  16 active torsions:
REMARK  status: ('A' for Active; 'I' for Inactive)
REMARK    1  A    between atoms: C_2  and  C_1 
REMARK    2  A    between atoms: C_5  and  C_1 
REMARK    3  A    between atoms: C_10  and  C_2 
REMARK    4  A    between atoms: C_11  and  C_5 
REMARK    5  A    between atoms: C_16  and  C_10 
REMARK    6  A    between atoms: C_21  and  C_11 
REMARK    7  A    between atoms: C_24  and  C_16 
REMARK    8  A    between atoms: C_18  and  C_17 
REMARK    9  A    between atoms: C_22  and  C_17 
REMARK   10  A    between atoms: C_23  and  C_18 
REMARK   11  A    between atoms: C_20  and  C_19 
REMARK   12  A    between atoms: C_23  and  C_19 
REMARK   13  A    between atoms: C_25  and  C_20 
REMARK   14  A    between atoms: C_23  and  N_26 
REMARK   15  A    between atoms: C_24  and  O_28 
REMARK   16  A    between atoms: O_30  and  C_25 
ROOT
HETATM    1  C   UNK N   1      29.509  27.646  -4.417  0.00  0.00     0.111 C 
HETATM    2  N   UNK N   1      29.139  26.425  -4.226  0.00  0.00    -0.370 N 
ATOM      3  HN  UNK N   1      28.455  26.243  -3.490  1.00  0.00     0.161 HD
ENDROOT
BRANCH   2   4
HETATM    4  C   UNK N   1      29.634  25.292  -4.990  0.00  0.00     0.084 C 
BRANCH   4   5
HETATM    5  C   UNK N   1      28.452  24.426  -5.409  0.00  0.00     0.029 C 
BRANCH   5   6
HETATM    6  C   UNK N   1      28.692  23.697  -6.727  0.00  0.00     0.040 C 
BRANCH   6   7
HETATM    7  C   UNK N   1      27.471  22.938  -7.112  0.00  0.00    -0.058 A 
HETATM    8  C   UNK N   1      26.309  23.029  -6.335  0.00  0.00     0.007 A 
HETATM    9  C   UNK N   1      25.166  22.312  -6.699  0.00  0.00     0.001 A 
HETATM   10  C   UNK N   1      25.183  21.503  -7.839  0.00  0.00     0.000 A 
HETATM   11  C   UNK N   1      26.341  21.415  -8.618  0.00  0.00     0.001 A 
HETATM   12  C   UNK N   1      27.485  22.134  -8.256  0.00  0.00     0.007 A 
ENDBRANCH   6   7
ENDBRANCH   5   6
ENDBRANCH   4   5
BRANCH   4  13
HETATM   13  C   UNK N   1      30.605  24.419  -4.178  0.00  0.00     0.035 C 
BRANCH  13  14
HETATM   14  C   UNK N   1      29.947  23.194  -3.554  0.00  0.00     0.112 C 
BRANCH  14  15
HETATM   15  C   UNK N   1      30.636  22.758  -2.295  0.00  0.00     0.139 C 
HETATM   16  O   UNK N   1      30.155  23.054  -1.215  0.00  0.00    -0.650 OA
BRANCH  15  17
HETATM   17  O   UNK N   1      31.772  22.033  -2.342  0.00  0.00    -0.776 OA
HETATM   18  H   UNK N   1      31.806  21.207  -2.782  0.00  0.00     0.167 HD
ENDBRANCH  15  17
ENDBRANCH  14  15
ENDBRANCH  13  14
ENDBRANCH   4  13
ENDBRANCH   2   4
BRANCH   1  19
HETATM   19  C   UNK N   1      28.931  28.729  -3.548  0.00  0.00     0.083 C 
BRANCH  19  20
HETATM   20  C   UNK N   1      27.568  28.385  -2.952  0.00  0.00     0.008 C 
BRANCH  20  21
HETATM   21  C   UNK N   1      26.435  28.713  -3.911  0.00  0.00     0.000 C 
BRANCH  21  22
HETATM   22  C   UNK N   1      25.535  27.498  -4.097  0.00  0.00     0.000 C 
BRANCH  22  23
HETATM   23  C   UNK N   1      25.346  27.155  -5.564  0.00  0.00     0.005 C 
BRANCH  23  24
HETATM   24  C   UNK N   1      26.543  27.664  -6.349  0.00  0.00     0.038 C 
BRANCH  24  25
HETATM   25  C   UNK N   1      26.758  26.879  -7.598  0.00  0.00    -0.058 A 
HETATM   26  C   UNK N   1      27.986  26.923  -8.271  0.00  0.00     0.007 A 
HETATM   27  C   UNK N   1      28.168  26.199  -9.450  0.00  0.00     0.001 A 
HETATM   28  C   UNK N   1      27.118  25.438  -9.970  0.00  0.00     0.000 A 
HETATM   29  C   UNK N   1      25.887  25.399  -9.308  0.00  0.00     0.001 A 
HETATM   30  C   UNK N   1      25.708  26.118  -8.122  0.00  0.00     0.007 A 
ENDBRANCH  24  25
ENDBRANCH  23  24
ENDBRANCH  22  23
ENDBRANCH  21  22
ENDBRANCH  20  21
ENDBRANCH  19  20
ENDBRANCH   1  19
BRANCH   1  31
HETATM   31  O   UNK N   1      30.388  27.948  -5.391  0.00  0.00    -0.350 OA
HETATM   32  H   UNK N   1      31.054  28.591  -5.246  0.00  0.00     0.219 HD
ENDBRANCH   1  31
TORSDOF 16
ENDMDL
MODEL 7
REMARK VINA RESULT:      -5.5      3.437      8.122
REMARK  16 active torsions:
REMARK  status: ('A' for Active; 'I' for Inactive)
REMARK    1  A    between atoms: C_2  and  C_1 
REMARK    2  A    between atoms: C_5  and  C_1 
REMARK    3  A    between atoms: C_10  and  C_2 
REMARK    4  A    between atoms: C_11  and  C_5 
REMARK    5  A    between atoms: C_16  and  C_10 
REMARK    6  A    between atoms: C_21  and  C_11 
REMARK    7  A    between atoms: C_24  and  C_16 
REMARK    8  A    between atoms: C_18  and  C_17 
REMARK    9  A    between atoms: C_22  and  C_17 
REMARK   10  A    between atoms: C_23  and  C_18 
REMARK   11  A    between atoms: C_20  and  C_19 
REMARK   12  A    between atoms: C_23  and  C_19 
REMARK   13  A    between atoms: C_25  and  C_20 
REMARK   14  A    between atoms: C_23  and  N_26 
REMARK   15  A    between atoms: C_24  and  O_28 
REMARK   16  A    between atoms: O_30  and  C_25 
ROOT
HETATM    1  C   UNK N   1      32.604  14.878   9.286  0.00  0.00     0.111 C 
HETATM    2  N   UNK N   1      32.533  15.588   8.211  0.00  0.00    -0.370 N 
ATOM      3  HN  UNK N   1      33.153  15.347   7.438  1.00  0.00     0.161 HD
ENDROOT
BRANCH   2   4
HETATM    4  C   UNK N   1      31.626  16.710   8.033  0.00  0.00     0.084 C 
BRANCH   4   5
HETATM    5  C   UNK N   1      31.040  16.650   6.627  0.00  0.00     0.029 C 
BRANCH   5   6
HETATM    6  C   UNK N   1      29.523  16.493   6.625  0.00  0.00     0.040 C 
BRANCH   6   7
HETATM    7  C   UNK N   1      28.881  17.802   6.325  0.00  0.00    -0.058 A 
HETATM    8  C   UNK N   1      28.816  18.269   5.006  0.00  0.00     0.007 A 
HETATM    9  C   UNK N   1      28.215  19.501   4.729  0.00  0.00     0.001 A 
HETATM   10  C   UNK N   1      27.680  20.266   5.769  0.00  0.00     0.000 A 
HETATM   11  C   UNK N   1      27.741  19.798   7.085  0.00  0.00     0.001 A 
HETATM   12  C   UNK N   1      28.340  18.566   7.364  0.00  0.00     0.007 A 
ENDBRANCH   6   7
ENDBRANCH   5   6
ENDBRANCH   4   5
BRANCH   4  13
HETATM   13  C   UNK N   1      32.332  18.065   8.201  0.00  0.00     0.035 C 
BRANCH  13  14
HETATM   14  C   UNK N   1      33.722  18.110   7.575  0.00  0.00     0.112 C 
BRANCH  14  15
HETATM   15  C   UNK N   1      34.796  18.349   8.594  0.00  0.00     0.139 C 
HETATM   16  O   UNK N   1      35.448  19.379   8.549  0.00  0.00    -0.650 OA
BRANCH  15  17
HETATM   17  O   UNK N   1      35.041  17.448   9.567  0.00  0.00    -0.776 OA
HETATM   18  H   UNK N   1      35.879  17.395   9.984  0.00  0.00     0.167 HD
ENDBRANCH  15  17
ENDBRANCH  14  15
ENDBRANCH  13  14
ENDBRANCH   4  13
ENDBRANCH   2   4
BRANCH   1  19
HETATM   19  C   UNK N   1      33.597  13.750   9.352  0.00  0.00     0.083 C 
BRANCH  19  20
HETATM   20  C   UNK N   1      34.949  14.076   8.722  0.00  0.00     0.008 C 
BRANCH  20  21
HETATM   21  C   UNK N   1      36.045  14.189   9.769  0.00  0.00     0.000 C 
BRANCH  21  22
HETATM   22  C   UNK N   1      35.440  14.182  11.167  0.00  0.00     0.000 C 
BRANCH  22  23
HETATM   23  C   UNK N   1      36.272  13.363  12.137  0.00  0.00     0.005 C 
BRANCH  23  24
HETATM   24  C   UNK N   1      35.907  13.757  13.557  0.00  0.00     0.038 C 
BRANCH  24  25
HETATM   25  C   UNK N   1      35.418  12.590  14.346  0.00  0.00    -0.058 A 
HETATM   26  C   UNK N   1      34.405  11.760  13.847  0.00  0.00     0.007 A 
HETATM   27  C   UNK N   1      33.942  10.682  14.603  0.00  0.00     0.001 A 
HETATM   28  C   UNK N   1      34.481  10.437  15.869  0.00  0.00     0.000 A 
HETATM   29  C   UNK N   1      35.486  11.268  16.375  0.00  0.00     0.001 A 
HETATM   30  C   UNK N   1      35.954  12.342  15.614  0.00  0.00     0.007 A 
ENDBRANCH  24  25
ENDBRANCH  23  24
ENDBRANCH  22  23
ENDBRANCH  21  22
ENDBRANCH  20  21
ENDBRANCH  19  20
ENDBRANCH   1  19
BRANCH   1  31
HETATM   31  O   UNK N   1      31.793  15.134  10.329  0.00  0.00    -0.350 OA
HETATM   32  H   UNK N   1      31.795  14.575  11.082  0.00  0.00     0.219 HD
ENDBRANCH   1  31
TORSDOF 16
ENDMDL
MODEL 8
REMARK VINA RESULT:      -5.4     13.046     16.005
REMARK  16 active torsions:
REMARK  status: ('A' for Active; 'I' for Inactive)
REMARK    1  A    between atoms: C_2  and  C_1 
REMARK    2  A    between atoms: C_5  and  C_1 
REMARK    3  A    between atoms: C_10  and  C_2 
REMARK    4  A    between atoms: C_11  and  C_5 
REMARK    5  A    between atoms: C_16  and  C_10 
REMARK    6  A    between atoms: C_21  and  C_11 
REMARK    7  A    between atoms: C_24  and  C_16 
REMARK    8  A    between atoms: C_18  and  C_17 
REMARK    9  A    between atoms: C_22  and  C_17 
REMARK   10  A    between atoms: C_23  and  C_18 
REMARK   11  A    between atoms: C_20  and  C_19 
REMARK   12  A    between atoms: C_23  and  C_19 
REMARK   13  A    between atoms: C_25  and  C_20 
REMARK   14  A    between atoms: C_23  and  N_26 
REMARK   15  A    between atoms: C_24  and  O_28 
REMARK   16  A    between atoms: O_30  and  C_25 
ROOT
HETATM    1  C   UNK N   1      25.927  24.785  -6.868  0.00  0.00     0.111 C 
HETATM    2  N   UNK N   1      26.935  24.267  -7.483  0.00  0.00    -0.370 N 
ATOM      3  HN  UNK N   1      27.445  24.856  -8.142  1.00  0.00     0.161 HD
ENDROOT
BRANCH   2   4
HETATM    4  C   UNK N   1      27.391  22.899  -7.297  0.00  0.00     0.084 C 
BRANCH   4   5
HETATM    5  C   UNK N   1      28.726  22.920  -6.562  0.00  0.00     0.029 C 
BRANCH   5   6
HETATM    6  C   UNK N   1      29.333  21.530  -6.402  0.00  0.00     0.040 C 
BRANCH   6   7
HETATM    7  C   UNK N   1      30.651  21.632  -5.717  0.00  0.00    -0.058 A 
HETATM    8  C   UNK N   1      30.971  20.758  -4.670  0.00  0.00     0.007 A 
HETATM    9  C   UNK N   1      32.208  20.861  -4.027  0.00  0.00     0.001 A 
HETATM   10  C   UNK N   1      33.126  21.835  -4.429  0.00  0.00     0.000 A 
HETATM   11  C   UNK N   1      32.809  22.705  -5.478  0.00  0.00     0.001 A 
HETATM   12  C   UNK N   1      31.572  22.603  -6.123  0.00  0.00     0.007 A 
ENDBRANCH   6   7
ENDBRANCH   5   6
ENDBRANCH   4   5
BRANCH   4  13
HETATM   13  C   UNK N   1      27.590  22.163  -8.633  0.00  0.00     0.035 C 
BRANCH  13  14
HETATM   14  C   UNK N   1      26.284  21.837  -9.349  0.00  0.00     0.112 C 
BRANCH  14  15
HETATM   15  C   UNK N   1      25.202  21.423  -8.397  0.00  0.00     0.139 C 
HETATM   16  O   UNK N   1      24.269  22.179  -8.184  0.00  0.00    -0.650 OA
BRANCH  15  17
HETATM   17  O   UNK N   1      25.240  20.223  -7.784  0.00  0.00    -0.776 OA
HETATM   18  H   UNK N   1      25.556  19.459  -8.225  0.00  0.00     0.167 HD
ENDBRANCH  15  17
ENDBRANCH  14  15
ENDBRANCH  13  14
ENDBRANCH   4  13
ENDBRANCH   2   4
BRANCH   1  19
HETATM   19  C   UNK N   1      25.547  26.211  -7.159  0.00  0.00     0.083 C 
BRANCH  19  20
HETATM   20  C   UNK N   1      25.300  27.053  -5.909  0.00  0.00     0.008 C 
BRANCH  20  21
HETATM   21  C   UNK N   1      26.450  28.010  -5.639  0.00  0.00     0.000 C 
BRANCH  21  22
HETATM   22  C   UNK N   1      27.514  27.872  -6.720  0.00  0.00     0.000 C 
BRANCH  22  23
HETATM   23  C   UNK N   1      28.754  27.165  -6.204  0.00  0.00     0.005 C 
BRANCH  23  24
HETATM   24  C   UNK N   1      28.778  27.253  -4.688  0.00  0.00     0.038 C 
BRANCH  24  25
HETATM   25  C   UNK N   1      28.904  25.906  -4.059  0.00  0.00    -0.058 A 
HETATM   26  C   UNK N   1      27.766  25.143  -3.764  0.00  0.00     0.007 A 
HETATM   27  C   UNK N   1      27.897  23.893  -3.157  0.00  0.00     0.001 A 
HETATM   28  C   UNK N   1      29.165  23.406  -2.830  0.00  0.00     0.000 A 
HETATM   29  C   UNK N   1      30.302  24.168  -3.114  0.00  0.00     0.001 A 
HETATM   30  C   UNK N   1      30.172  25.416  -3.729  0.00  0.00     0.007 A 
ENDBRANCH  24  25
ENDBRANCH  23  24
ENDBRANCH  22  23
ENDBRANCH  21  22
ENDBRANCH  20  21
ENDBRANCH  19  20
ENDBRANCH   1  19
BRANCH   1  31
HETATM   31  O   UNK N   1      25.232  24.064  -5.968  0.00  0.00    -0.350 OA
HETATM   32  H   UNK N   1      24.597  24.477  -5.416  0.00  0.00     0.219 HD
ENDBRANCH   1  31
TORSDOF 16
ENDMDL
MODEL 9
REMARK VINA RESULT:      -5.4     12.773     15.831
REMARK  16 active torsions:
REMARK  status: ('A' for Active; 'I' for Inactive)
REMARK    1  A    between atoms: C_2  and  C_1 
REMARK    2  A    between atoms: C_5  and  C_1 
REMARK    3  A    between atoms: C_10  and  C_2 
REMARK    4  A    between atoms: C_11  and  C_5 
REMARK    5  A    between atoms: C_16  and  C_10 
REMARK    6  A    between atoms: C_21  and  C_11 
REMARK    7  A    between atoms: C_24  and  C_16 
REMARK    8  A    between atoms: C_18  and  C_17 
REMARK    9  A    between atoms: C_22  and  C_17 
REMARK   10  A    between atoms: C_23  and  C_18 
REMARK   11  A    between atoms: C_20  and  C_19 
REMARK   12  A    between atoms: C_23  and  C_19 
REMARK   13  A    between atoms: C_25  and  C_20 
REMARK   14  A    between atoms: C_23  and  N_26 
REMARK   15  A    between atoms: C_24  and  O_28 
REMARK   16  A    between atoms: O_30  and  C_25 
ROOT
HETATM    1  C   UNK N   1      30.600  21.264  -5.325  0.00  0.00     0.111 C 
HETATM    2  N   UNK N   1      29.462  21.409  -5.916  0.00  0.00    -0.370 N 
ATOM      3  HN  UNK N   1      28.617  21.312  -5.353  1.00  0.00     0.161 HD
ENDROOT
BRANCH   2   4
HETATM    4  C   UNK N   1      29.309  21.698  -7.332  0.00  0.00     0.084 C 
BRANCH   4   5
HETATM    5  C   UNK N   1      28.414  22.922  -7.491  0.00  0.00     0.029 C 
BRANCH   5   6
HETATM    6  C   UNK N   1      27.156  22.849  -6.633  0.00  0.00     0.040 C 
BRANCH   6   7
HETATM    7  C   UNK N   1      26.503  24.185  -6.581  0.00  0.00    -0.058 A 
HETATM    8  C   UNK N   1      25.784  24.575  -5.443  0.00  0.00     0.007 A 
HETATM    9  C   UNK N   1      25.170  25.830  -5.400  0.00  0.00     0.001 A 
HETATM   10  C   UNK N   1      25.273  26.696  -6.492  0.00  0.00     0.000 A 
HETATM   11  C   UNK N   1      25.995  26.310  -7.626  0.00  0.00     0.001 A 
HETATM   12  C   UNK N   1      26.611  25.055  -7.671  0.00  0.00     0.007 A 
ENDBRANCH   6   7
ENDBRANCH   5   6
ENDBRANCH   4   5
BRANCH   4  13
HETATM   13  C   UNK N   1      28.667  20.531  -8.101  0.00  0.00     0.035 C 
BRANCH  13  14
HETATM   14  C   UNK N   1      29.216  19.165  -7.705  0.00  0.00     0.112 C 
BRANCH  14  15
HETATM   15  C   UNK N   1      30.453  18.807  -8.473  0.00  0.00     0.139 C 
HETATM   16  O   UNK N   1      31.510  19.347  -8.194  0.00  0.00    -0.650 OA
BRANCH  15  17
HETATM   17  O   UNK N   1      30.415  17.886  -9.458  0.00  0.00    -0.776 OA
HETATM   18  H   UNK N   1      30.124  18.106 -10.321  0.00  0.00     0.167 HD
ENDBRANCH  15  17
ENDBRANCH  14  15
ENDBRANCH  13  14
ENDBRANCH   4  13
ENDBRANCH   2   4
BRANCH   1  19
HETATM   19  C   UNK N   1      30.625  20.952  -3.854  0.00  0.00     0.083 C 
BRANCH  19  20
HETATM   20  C   UNK N   1      31.525  21.878  -3.039  0.00  0.00     0.008 C 
BRANCH  20  21
HETATM   21  C   UNK N   1      30.992  23.302  -3.014  0.00  0.00     0.000 C 
BRANCH  21  22
HETATM   22  C   UNK N   1      29.529  23.309  -2.591  0.00  0.00     0.000 C 
BRANCH  22  23
HETATM   23  C   UNK N   1      28.697  24.243  -3.452  0.00  0.00     0.005 C 
BRANCH  23  24
HETATM   24  C   UNK N   1      29.584  24.845  -4.528  0.00  0.00     0.038 C 
BRANCH  24  25
HETATM   25  C   UNK N   1      29.115  26.201  -4.935  0.00  0.00    -0.058 A 
HETATM   26  C   UNK N   1      29.478  26.743  -6.175  0.00  0.00     0.007 A 
HETATM   27  C   UNK N   1      29.050  28.022  -6.535  0.00  0.00     0.001 A 
HETATM   28  C   UNK N   1      28.267  28.769  -5.651  0.00  0.00     0.000 A 
HETATM   29  C   UNK N   1      27.909  28.235  -4.409  0.00  0.00     0.001 A 
HETATM   30  C   UNK N   1      28.332  26.951  -4.052  0.00  0.00     0.007 A 
ENDBRANCH  24  25
ENDBRANCH  23  24
ENDBRANCH  22  23
ENDBRANCH  21  22
ENDBRANCH  20  21
ENDBRANCH  19  20
ENDBRANCH   1  19
BRANCH   1  31
HETATM   31  O   UNK N   1      31.749  21.406  -6.012  0.00  0.00    -0.350 OA
HETATM   32  H   UNK N   1      32.054  20.722  -6.575  0.00  0.00     0.219 HD
ENDBRANCH   1  31
TORSDOF 16
ENDMDL
