MODEL 1
REMARK VINA RESULT:      -5.6      0.000      0.000
REMARK  7 active torsions:
REMARK  status: ('A' for Active; 'I' for Inactive)
REMARK    1  A    between atoms: C_1  and  O_7 
REMARK    2  A    between atoms: C_2  and  O_8 
REMARK    3  A    between atoms: C_3  and  O_9 
REMARK    4  A    between atoms: C_4  and  O_10 
REMARK    5  A    between atoms: C_5  and  O_11 
REMARK    6  A    between atoms: C_6  and  O_15 
REMARK    7  A    between atoms: P_16  and  O_15 
ROOT
HETATM    1  C   UNK N   1      35.009  13.732  11.407  0.00  0.00     0.180 C 
HETATM    2  C   UNK N   1      33.867  13.574  10.392  0.00  0.00     0.180 C 
HETATM    3  C   UNK N   1      35.261  15.222  11.678  0.00  0.00     0.180 C 
HETATM    4  C   UNK N   1      34.227  14.291   9.079  0.00  0.00     0.181 C 
HETATM    5  C   UNK N   1      35.632  15.951  10.375  0.00  0.00     0.181 C 
HETATM    6  C   UNK N   1      34.520  15.791   9.304  0.00  0.00     0.198 C 
ENDROOT
BRANCH   6   7
HETATM    7  O   UNK N   1      34.942  16.318   8.058  0.00  0.00    -0.272 OA
BRANCH   7   8
HETATM    8  P   UNK N   1      34.153  17.837   7.660  0.00  0.00     0.422 P 
HETATM    9  O   UNK N   1      32.514  17.898   8.225  0.00  0.00    -0.617 OA
HETATM   10  O   UNK N   1      35.047  19.160   8.339  0.00  0.00    -0.617 OA
HETATM   11  O   UNK N   1      34.147  18.058   6.123  0.00  0.00    -0.617 OA
ENDBRANCH   7   8
ENDBRANCH   6   7
BRANCH   4  12
HETATM   12  O   UNK N   1      33.176  14.151   8.166  0.00  0.00    -0.390 OA
HETATM   13  H   UNK N   1      32.998  13.388   7.595  0.00  0.00     0.210 HD
ENDBRANCH   4  12
BRANCH   5  14
HETATM   14  O   UNK N   1      35.840  17.299  10.665  0.00  0.00    -0.390 OA
HETATM   15  H   UNK N   1      36.689  17.741  10.503  0.00  0.00     0.210 HD
ENDBRANCH   5  14
BRANCH   2  16
HETATM   16  O   UNK N   1      33.648  12.217  10.141  0.00  0.00    -0.390 OA
HETATM   17  H   UNK N   1      33.992  11.776   9.348  0.00  0.00     0.210 HD
ENDBRANCH   2  16
BRANCH   3  18
HETATM   18  O   UNK N   1      36.301  15.360  12.603  0.00  0.00    -0.390 OA
HETATM   19  H   UNK N   1      36.361  14.937  13.474  0.00  0.00     0.210 HD
ENDBRANCH   3  18
BRANCH   1  20
HETATM   20  O   UNK N   1      34.674  13.084  12.599  0.00  0.00    -0.390 OA
HETATM   21  H   UNK N   1      34.592  12.120  12.669  0.00  0.00     0.210 HD
ENDBRANCH   1  20
TORSDOF 7
ENDMDL
MODEL 2
REMARK VINA RESULT:      -5.5      1.727      3.158
REMARK  7 active torsions:
REMARK  status: ('A' for Active; 'I' for Inactive)
REMARK    1  A    between atoms: C_1  and  O_7 
REMARK    2  A    between atoms: C_2  and  O_8 
REMARK    3  A    between atoms: C_3  and  O_9 
REMARK    4  A    between atoms: C_4  and  O_10 
REMARK    5  A    between atoms: C_5  and  O_11 
REMARK    6  A    between atoms: C_6  and  O_15 
REMARK    7  A    between atoms: P_16  and  O_15 
ROOT
HETATM    1  C   UNK N   1      36.810  13.955  10.745  0.00  0.00     0.180 C 
HETATM    2  C   UNK N   1      36.487  15.345  11.313  0.00  0.00     0.180 C 
HETATM    3  C   UNK N   1      36.960  14.039   9.220  0.00  0.00     0.180 C 
HETATM    4  C   UNK N   1      35.188  15.881  10.688  0.00  0.00     0.181 C 
HETATM    5  C   UNK N   1      35.663  14.564   8.579  0.00  0.00     0.181 C 
HETATM    6  C   UNK N   1      35.278  15.955   9.148  0.00  0.00     0.198 C 
ENDROOT
BRANCH   6   7
HETATM    7  O   UNK N   1      34.000  16.353   8.681  0.00  0.00    -0.272 OA
BRANCH   7   8
HETATM    8  P   UNK N   1      34.013  17.947   7.939  0.00  0.00     0.422 P 
HETATM    9  O   UNK N   1      35.247  18.973   8.599  0.00  0.00    -0.617 OA
HETATM   10  O   UNK N   1      34.244  17.796   6.226  0.00  0.00    -0.617 OA
HETATM   11  O   UNK N   1      32.641  18.646   8.135  0.00  0.00    -0.617 OA
ENDBRANCH   7   8
ENDBRANCH   6   7
BRANCH   4  12
HETATM   12  O   UNK N   1      34.910  17.151  11.204  0.00  0.00    -0.390 OA
HETATM   13  H   UNK N   1      34.777  17.386  12.135  0.00  0.00     0.210 HD
ENDBRANCH   4  12
BRANCH   5  14
HETATM   14  O   UNK N   1      35.848  14.635   7.199  0.00  0.00    -0.390 OA
HETATM   15  H   UNK N   1      35.131  14.874   6.590  0.00  0.00     0.210 HD
ENDBRANCH   5  14
BRANCH   2  16
HETATM   16  O   UNK N   1      36.342  15.261  12.700  0.00  0.00    -0.390 OA
HETATM   17  H   UNK N   1      36.062  16.019  13.237  0.00  0.00     0.210 HD
ENDBRANCH   2  16
BRANCH   3  18
HETATM   18  O   UNK N   1      37.254  12.771   8.708  0.00  0.00    -0.390 OA
HETATM   19  H   UNK N   1      37.378  12.538   7.773  0.00  0.00     0.210 HD
ENDBRANCH   3  18
BRANCH   1  20
HETATM   20  O   UNK N   1      37.994  13.476  11.311  0.00  0.00    -0.390 OA
HETATM   21  H   UNK N   1      38.165  13.491  12.266  0.00  0.00     0.210 HD
ENDBRANCH   1  20
TORSDOF 7
ENDMDL
MODEL 3
REMARK VINA RESULT:      -5.5      4.442      6.046
REMARK  7 active torsions:
REMARK  status: ('A' for Active; 'I' for Inactive)
REMARK    1  A    between atoms: C_1  and  O_7 
REMARK    2  A    between atoms: C_2  and  O_8 
REMARK    3  A    between atoms: C_3  and  O_9 
REMARK    4  A    between atoms: C_4  and  O_10 
REMARK    5  A    between atoms: C_5  and  O_11 
REMARK    6  A    between atoms: C_6  and  O_15 
REMARK    7  A    between atoms: P_16  and  O_15 
ROOT
HETATM    1  C   UNK N   1      28.478  17.821   8.508  0.00  0.00     0.180 C 
HETATM    2  C   UNK N   1      28.461  17.858   6.972  0.00  0.00     0.180 C 
HETATM    3  C   UNK N   1      29.863  18.240   9.023  0.00  0.00     0.180 C 
HETATM    4  C   UNK N   1      29.536  16.911   6.411  0.00  0.00     0.181 C 
HETATM    5  C   UNK N   1      30.948  17.295   8.477  0.00  0.00     0.181 C 
HETATM    6  C   UNK N   1      30.947  17.273   6.926  0.00  0.00     0.198 C 
ENDROOT
BRANCH   6   7
HETATM    7  O   UNK N   1      31.830  16.278   6.436  0.00  0.00    -0.272 OA
BRANCH   7   8
HETATM    8  P   UNK N   1      33.119  16.942   5.443  0.00  0.00     0.422 P 
HETATM    9  O   UNK N   1      32.514  17.849   4.094  0.00  0.00    -0.617 OA
HETATM   10  O   UNK N   1      34.142  17.958   6.409  0.00  0.00    -0.617 OA
HETATM   11  O   UNK N   1      34.024  15.804   4.899  0.00  0.00    -0.617 OA
ENDBRANCH   7   8
ENDBRANCH   6   7
BRANCH   4  12
HETATM   12  O   UNK N   1      29.519  16.962   5.013  0.00  0.00    -0.390 OA
HETATM   13  H   UNK N   1      29.726  16.239   4.402  0.00  0.00     0.210 HD
ENDBRANCH   4  12
BRANCH   5  14
HETATM   14  O   UNK N   1      32.186  17.718   8.959  0.00  0.00    -0.390 OA
HETATM   15  H   UNK N   1      32.951  17.123   9.020  0.00  0.00     0.210 HD
ENDBRANCH   5  14
BRANCH   2  16
HETATM   16  O   UNK N   1      27.202  17.466   6.510  0.00  0.00    -0.390 OA
HETATM   17  H   UNK N   1      26.710  16.732   6.910  0.00  0.00     0.210 HD
ENDBRANCH   2  16
BRANCH   3  18
HETATM   18  O   UNK N   1      29.873  18.205  10.421  0.00  0.00    -0.390 OA
HETATM   19  H   UNK N   1      29.940  17.414  10.979  0.00  0.00     0.210 HD
ENDBRANCH   3  18
BRANCH   1  20
HETATM   20  O   UNK N   1      27.505  18.687   9.013  0.00  0.00    -0.390 OA
HETATM   21  H   UNK N   1      27.722  19.490   9.511  0.00  0.00     0.210 HD
ENDBRANCH   1  20
TORSDOF 7
ENDMDL
MODEL 4
REMARK VINA RESULT:      -5.5     15.034     16.589
REMARK  7 active torsions:
REMARK  status: ('A' for Active; 'I' for Inactive)
REMARK    1  A    between atoms: C_1  and  O_7 
REMARK    2  A    between atoms: C_2  and  O_8 
REMARK    3  A    between atoms: C_3  and  O_9 
REMARK    4  A    between atoms: C_4  and  O_10 
REMARK    5  A    between atoms: C_5  and  O_11 
REMARK    6  A    between atoms: C_6  and  O_15 
REMARK    7  A    between atoms: P_16  and  O_15 
ROOT
HETATM    1  C   UNK N   1      20.930  19.386   1.503  0.00  0.00     0.180 C 
HETATM    2  C   UNK N   1      20.745  19.969   2.912  0.00  0.00     0.180 C 
HETATM    3  C   UNK N   1      20.084  18.114   1.351  0.00  0.00     0.180 C 
HETATM    4  C   UNK N   1      21.164  18.932   3.969  0.00  0.00     0.181 C 
HETATM    5  C   UNK N   1      20.499  17.064   2.396  0.00  0.00     0.181 C 
HETATM    6  C   UNK N   1      20.360  17.619   3.838  0.00  0.00     0.198 C 
ENDROOT
BRANCH   6   7
HETATM    7  O   UNK N   1      20.901  16.711   4.781  0.00  0.00    -0.272 OA
BRANCH   7   8
HETATM    8  P   UNK N   1      19.672  15.970   5.795  0.00  0.00     0.422 P 
HETATM    9  O   UNK N   1      19.969  14.282   6.068  0.00  0.00    -0.617 OA
HETATM   10  O   UNK N   1      19.592  16.795   7.320  0.00  0.00    -0.617 OA
HETATM   11  O   UNK N   1      18.271  16.119   5.144  0.00  0.00    -0.617 OA
ENDBRANCH   7   8
ENDBRANCH   6   7
BRANCH   4  12
HETATM   12  O   UNK N   1      20.980  19.469   5.248  0.00  0.00    -0.390 OA
HETATM   13  H   UNK N   1      20.929  20.407   5.485  0.00  0.00     0.210 HD
ENDBRANCH   4  12
BRANCH   5  14
HETATM   14  O   UNK N   1      19.699  15.934   2.229  0.00  0.00    -0.390 OA
HETATM   15  H   UNK N   1      20.041  15.033   2.348  0.00  0.00     0.210 HD
ENDBRANCH   5  14
BRANCH   2  16
HETATM   16  O   UNK N   1      21.525  21.120   3.049  0.00  0.00    -0.390 OA
HETATM   17  H   UNK N   1      21.858  21.612   2.282  0.00  0.00     0.210 HD
ENDBRANCH   2  16
BRANCH   3  18
HETATM   18  O   UNK N   1      20.256  17.589   0.066  0.00  0.00    -0.390 OA
HETATM   19  H   UNK N   1      19.984  18.002  -0.769  0.00  0.00     0.210 HD
ENDBRANCH   3  18
BRANCH   1  20
HETATM   20  O   UNK N   1      20.543  20.329   0.547  0.00  0.00    -0.390 OA
HETATM   21  H   UNK N   1      20.432  21.271   0.752  0.00  0.00     0.210 HD
ENDBRANCH   1  20
TORSDOF 7
ENDMDL
MODEL 5
REMARK VINA RESULT:      -5.5     15.247     16.587
REMARK  7 active torsions:
REMARK  status: ('A' for Active; 'I' for Inactive)
REMARK    1  A    between atoms: C_1  and  O_7 
REMARK    2  A    between atoms: C_2  and  O_8 
REMARK    3  A    between atoms: C_3  and  O_9 
REMARK    4  A    between atoms: C_4  and  O_10 
REMARK    5  A    between atoms: C_5  and  O_11 
REMARK    6  A    between atoms: C_6  and  O_15 
REMARK    7  A    between atoms: P_16  and  O_15 
ROOT
HETATM    1  C   UNK N   1      20.685  20.314   2.526  0.00  0.00     0.180 C 
HETATM    2  C   UNK N   1      20.928  19.721   1.130  0.00  0.00     0.180 C 
HETATM    3  C   UNK N   1      21.142  19.318   3.601  0.00  0.00     0.180 C 
HETATM    4  C   UNK N   1      20.158  18.398   0.979  0.00  0.00     0.181 C 
HETATM    5  C   UNK N   1      20.373  17.992   3.469  0.00  0.00     0.181 C 
HETATM    6  C   UNK N   1      20.561  17.370   2.060  0.00  0.00     0.198 C 
ENDROOT
BRANCH   6   7
HETATM    7  O   UNK N   1      19.718  16.243   1.891  0.00  0.00    -0.272 OA
BRANCH   7   8
HETATM    8  P   UNK N   1      20.613  14.735   1.778  0.00  0.00     0.422 P 
HETATM    9  O   UNK N   1      21.954  14.842   0.683  0.00  0.00    -0.617 OA
HETATM   10  O   UNK N   1      21.187  14.273   3.349  0.00  0.00    -0.617 OA
HETATM   11  O   UNK N   1      19.682  13.588   1.300  0.00  0.00    -0.617 OA
ENDBRANCH   7   8
ENDBRANCH   6   7
BRANCH   4  12
HETATM   12  O   UNK N   1      20.396  17.861  -0.290  0.00  0.00    -0.390 OA
HETATM   13  H   UNK N   1      20.023  18.166  -1.132  0.00  0.00     0.210 HD
ENDBRANCH   4  12
BRANCH   5  14
HETATM   14  O   UNK N   1      20.827  17.116   4.454  0.00  0.00    -0.390 OA
HETATM   15  H   UNK N   1      20.955  16.168   4.288  0.00  0.00     0.210 HD
ENDBRANCH   5  14
BRANCH   2  16
HETATM   16  O   UNK N   1      20.501  20.627   0.156  0.00  0.00    -0.390 OA
HETATM   17  H   UNK N   1      19.945  20.357  -0.592  0.00  0.00     0.210 HD
ENDBRANCH   2  16
BRANCH   3  18
HETATM   18  O   UNK N   1      20.919  19.863   4.870  0.00  0.00    -0.390 OA
HETATM   19  H   UNK N   1      20.082  19.863   5.361  0.00  0.00     0.210 HD
ENDBRANCH   3  18
BRANCH   1  20
HETATM   20  O   UNK N   1      21.391  21.512   2.660  0.00  0.00    -0.390 OA
HETATM   21  H   UNK N   1      21.059  22.264   3.176  0.00  0.00     0.210 HD
ENDBRANCH   1  20
TORSDOF 7
ENDMDL
MODEL 6
REMARK VINA RESULT:      -5.4      2.137      4.918
REMARK  7 active torsions:
REMARK  status: ('A' for Active; 'I' for Inactive)
REMARK    1  A    between atoms: C_1  and  O_7 
REMARK    2  A    between atoms: C_2  and  O_8 
REMARK    3  A    between atoms: C_3  and  O_9 
REMARK    4  A    between atoms: C_4  and  O_10 
REMARK    5  A    between atoms: C_5  and  O_11 
REMARK    6  A    between atoms: C_6  and  O_15 
REMARK    7  A    between atoms: P_16  and  O_15 
ROOT
HETATM    1  C   UNK N   1      33.714  17.401   7.224  0.00  0.00     0.180 C 
HETATM    2  C   UNK N   1      33.547  15.881   7.083  0.00  0.00     0.180 C 
HETATM    3  C   UNK N   1      34.849  17.711   8.210  0.00  0.00     0.180 C 
HETATM    4  C   UNK N   1      33.235  15.256   8.454  0.00  0.00     0.181 C 
HETATM    5  C   UNK N   1      34.546  17.100   9.589  0.00  0.00     0.181 C 
HETATM    6  C   UNK N   1      34.337  15.566   9.492  0.00  0.00     0.198 C 
ENDROOT
BRANCH   6   7
HETATM    7  O   UNK N   1      33.894  15.038  10.730  0.00  0.00    -0.272 OA
BRANCH   7   8
HETATM    8  P   UNK N   1      35.034  13.900  11.432  0.00  0.00     0.422 P 
HETATM    9  O   UNK N   1      34.667  13.533  13.088  0.00  0.00    -0.617 OA
HETATM   10  O   UNK N   1      35.046  12.433  10.506  0.00  0.00    -0.617 OA
HETATM   11  O   UNK N   1      36.477  14.469  11.367  0.00  0.00    -0.617 OA
ENDBRANCH   7   8
ENDBRANCH   6   7
BRANCH   4  12
HETATM   12  O   UNK N   1      33.098  13.870   8.315  0.00  0.00    -0.390 OA
HETATM   13  H   UNK N   1      33.050  13.215   9.028  0.00  0.00     0.210 HD
ENDBRANCH   4  12
BRANCH   5  14
HETATM   14  O   UNK N   1      35.605  17.395  10.447  0.00  0.00    -0.390 OA
HETATM   15  H   UNK N   1      36.138  16.704  10.872  0.00  0.00     0.210 HD
ENDBRANCH   5  14
BRANCH   2  16
HETATM   16  O   UNK N   1      32.506  15.605   6.193  0.00  0.00    -0.390 OA
HETATM   17  H   UNK N   1      31.666  15.218   6.485  0.00  0.00     0.210 HD
ENDBRANCH   2  16
BRANCH   3  18
HETATM   18  O   UNK N   1      34.996  19.096   8.335  0.00  0.00    -0.390 OA
HETATM   19  H   UNK N   1      35.828  19.582   8.449  0.00  0.00     0.210 HD
ENDBRANCH   3  18
BRANCH   1  20
HETATM   20  O   UNK N   1      34.002  17.963   5.978  0.00  0.00    -0.390 OA
HETATM   21  H   UNK N   1      34.077  17.436   5.167  0.00  0.00     0.210 HD
ENDBRANCH   1  20
TORSDOF 7
ENDMDL
MODEL 7
REMARK VINA RESULT:      -5.4     14.161     16.315
REMARK  7 active torsions:
REMARK  status: ('A' for Active; 'I' for Inactive)
REMARK    1  A    between atoms: C_1  and  O_7 
REMARK    2  A    between atoms: C_2  and  O_8 
REMARK    3  A    between atoms: C_3  and  O_9 
REMARK    4  A    between atoms: C_4  and  O_10 
REMARK    5  A    between atoms: C_5  and  O_11 
REMARK    6  A    between atoms: C_6  and  O_15 
REMARK    7  A    between atoms: P_16  and  O_15 
ROOT
HETATM    1  C   UNK N   1      31.715  20.921  -4.312  0.00  0.00     0.180 C 
HETATM    2  C   UNK N   1      30.477  20.973  -5.220  0.00  0.00     0.180 C 
HETATM    3  C   UNK N   1      31.342  21.384  -2.897  0.00  0.00     0.180 C 
HETATM    4  C   UNK N   1      29.921  22.407  -5.269  0.00  0.00     0.181 C 
HETATM    5  C   UNK N   1      30.793  22.821  -2.929  0.00  0.00     0.181 C 
HETATM    6  C   UNK N   1      29.558  22.932  -3.862  0.00  0.00     0.198 C 
ENDROOT
BRANCH   6   7
HETATM    7  O   UNK N   1      29.164  24.284  -4.018  0.00  0.00    -0.272 OA
BRANCH   7   8
HETATM    8  P   UNK N   1      27.454  24.536  -3.698  0.00  0.00     0.422 P 
HETATM    9  O   UNK N   1      27.055  26.215  -3.522  0.00  0.00    -0.617 OA
HETATM   10  O   UNK N   1      26.508  23.849  -4.981  0.00  0.00    -0.617 OA
HETATM   11  O   UNK N   1      27.031  23.795  -2.400  0.00  0.00    -0.617 OA
ENDBRANCH   7   8
ENDBRANCH   6   7
BRANCH   4  12
HETATM   12  O   UNK N   1      28.788  22.440  -6.089  0.00  0.00    -0.390 OA
HETATM   13  H   UNK N   1      27.879  22.639  -5.818  0.00  0.00     0.210 HD
ENDBRANCH   4  12
BRANCH   5  14
HETATM   14  O   UNK N   1      30.456  23.196  -1.628  0.00  0.00    -0.390 OA
HETATM   15  H   UNK N   1      29.672  23.732  -1.428  0.00  0.00     0.210 HD
ENDBRANCH   5  14
BRANCH   2  16
HETATM   16  O   UNK N   1      30.825  20.560  -6.509  0.00  0.00    -0.390 OA
HETATM   17  H   UNK N   1      30.370  20.892  -7.298  0.00  0.00     0.210 HD
ENDBRANCH   2  16
BRANCH   3  18
HETATM   18  O   UNK N   1      32.472  21.335  -2.074  0.00  0.00    -0.390 OA
HETATM   19  H   UNK N   1      32.665  20.667  -1.397  0.00  0.00     0.210 HD
ENDBRANCH   3  18
BRANCH   1  20
HETATM   20  O   UNK N   1      32.213  19.616  -4.266  0.00  0.00    -0.390 OA
HETATM   21  H   UNK N   1      33.004  19.372  -3.761  0.00  0.00     0.210 HD
ENDBRANCH   1  20
TORSDOF 7
ENDMDL
MODEL 8
REMARK VINA RESULT:      -5.3      4.399      6.560
REMARK  7 active torsions:
REMARK  status: ('A' for Active; 'I' for Inactive)
REMARK    1  A    between atoms: C_1  and  O_7 
REMARK    2  A    between atoms: C_2  and  O_8 
REMARK    3  A    between atoms: C_3  and  O_9 
REMARK    4  A    between atoms: C_4  and  O_10 
REMARK    5  A    between atoms: C_5  and  O_11 
REMARK    6  A    between atoms: C_6  and  O_15 
REMARK    7  A    between atoms: P_16  and  O_15 
ROOT
HETATM    1  C   UNK N   1      28.082  17.387   7.185  0.00  0.00     0.180 C 
HETATM    2  C   UNK N   1      28.457  17.454   8.674  0.00  0.00     0.180 C 
HETATM    3  C   UNK N   1      29.182  16.654   6.404  0.00  0.00     0.180 C 
HETATM    4  C   UNK N   1      29.798  18.187   8.846  0.00  0.00     0.181 C 
HETATM    5  C   UNK N   1      30.529  17.382   6.560  0.00  0.00     0.181 C 
HETATM    6  C   UNK N   1      30.934  17.503   8.053  0.00  0.00     0.198 C 
ENDROOT
BRANCH   6   7
HETATM    7  O   UNK N   1      32.084  18.319   8.197  0.00  0.00    -0.272 OA
BRANCH   7   8
HETATM    8  P   UNK N   1      33.583  17.409   8.076  0.00  0.00     0.422 P 
HETATM    9  O   UNK N   1      34.656  17.725   9.402  0.00  0.00    -0.617 OA
HETATM   10  O   UNK N   1      33.236  15.710   8.007  0.00  0.00    -0.617 OA
HETATM   11  O   UNK N   1      34.323  17.758   6.756  0.00  0.00    -0.617 OA
ENDBRANCH   7   8
ENDBRANCH   6   7
BRANCH   4  12
HETATM   12  O   UNK N   1      30.135  18.231  10.203  0.00  0.00    -0.390 OA
HETATM   13  H   UNK N   1      29.528  18.342  10.951  0.00  0.00     0.210 HD
ENDBRANCH   4  12
BRANCH   5  14
HETATM   14  O   UNK N   1      31.498  16.677   5.847  0.00  0.00    -0.390 OA
HETATM   15  H   UNK N   1      31.285  16.150   5.060  0.00  0.00     0.210 HD
ENDBRANCH   5  14
BRANCH   2  16
HETATM   16  O   UNK N   1      27.457  18.130   9.377  0.00  0.00    -0.390 OA
HETATM   17  H   UNK N   1      26.874  17.680  10.008  0.00  0.00     0.210 HD
ENDBRANCH   2  16
BRANCH   3  18
HETATM   18  O   UNK N   1      28.836  16.596   5.051  0.00  0.00    -0.390 OA
HETATM   19  H   UNK N   1      29.254  17.087   4.325  0.00  0.00     0.210 HD
ENDBRANCH   3  18
BRANCH   1  20
HETATM   20  O   UNK N   1      26.866  16.715   7.033  0.00  0.00    -0.390 OA
HETATM   21  H   UNK N   1      26.566  16.357   6.183  0.00  0.00     0.210 HD
ENDBRANCH   1  20
TORSDOF 7
ENDMDL
MODEL 9
REMARK VINA RESULT:      -5.3      2.542      3.544
REMARK  7 active torsions:
REMARK  status: ('A' for Active; 'I' for Inactive)
REMARK    1  A    between atoms: C_1  and  O_7 
REMARK    2  A    between atoms: C_2  and  O_8 
REMARK    3  A    between atoms: C_3  and  O_9 
REMARK    4  A    between atoms: C_4  and  O_10 
REMARK    5  A    between atoms: C_5  and  O_11 
REMARK    6  A    between atoms: C_6  and  O_15 
REMARK    7  A    between atoms: P_16  and  O_15 
ROOT
HETATM    1  C   UNK N   1      33.604  15.155   9.592  0.00  0.00     0.180 C 
HETATM    2  C   UNK N   1      32.547  14.439   8.737  0.00  0.00     0.180 C 
HETATM    3  C   UNK N   1      33.856  16.564   9.037  0.00  0.00     0.180 C 
HETATM    4  C   UNK N   1      33.024  14.350   7.277  0.00  0.00     0.181 C 
HETATM    5  C   UNK N   1      34.343  16.489   7.580  0.00  0.00     0.181 C 
HETATM    6  C   UNK N   1      33.321  15.744   6.681  0.00  0.00     0.198 C 
ENDROOT
BRANCH   6   7
HETATM    7  O   UNK N   1      33.851  15.532   5.384  0.00  0.00    -0.272 OA
BRANCH   7   8
HETATM    8  P   UNK N   1      32.910  16.321   4.127  0.00  0.00     0.422 P 
HETATM    9  O   UNK N   1      33.518  15.985   2.537  0.00  0.00    -0.617 OA
HETATM   10  O   UNK N   1      31.253  15.816   4.229  0.00  0.00    -0.617 OA
HETATM   11  O   UNK N   1      32.911  17.859   4.334  0.00  0.00    -0.617 OA
ENDBRANCH   7   8
ENDBRANCH   6   7
BRANCH   4  12
HETATM   12  O   UNK N   1      32.050  13.708   6.505  0.00  0.00    -0.390 OA
HETATM   13  H   UNK N   1      31.466  12.986   6.786  0.00  0.00     0.210 HD
ENDBRANCH   4  12
BRANCH   5  14
HETATM   14  O   UNK N   1      34.547  17.788   7.114  0.00  0.00    -0.390 OA
HETATM   15  H   UNK N   1      35.434  18.154   6.964  0.00  0.00     0.210 HD
ENDBRANCH   5  14
BRANCH   2  16
HETATM   16  O   UNK N   1      32.330  13.154   9.240  0.00  0.00    -0.390 OA
HETATM   17  H   UNK N   1      31.575  12.944   9.812  0.00  0.00     0.210 HD
ENDBRANCH   2  16
BRANCH   3  18
HETATM   18  O   UNK N   1      34.818  17.210   9.819  0.00  0.00    -0.390 OA
HETATM   19  H   UNK N   1      34.679  17.615  10.690  0.00  0.00     0.210 HD
ENDBRANCH   3  18
BRANCH   1  20
HETATM   20  O   UNK N   1      33.163  15.239  10.915  0.00  0.00    -0.390 OA
HETATM   21  H   UNK N   1      32.269  15.528  11.155  0.00  0.00     0.210 HD
ENDBRANCH   1  20
TORSDOF 7
ENDMDL
