REMARK  9 active torsions:
REMARK  status: ('A' for Active; 'I' for Inactive)
REMARK    1  A    between atoms: C_3  and  C_2 
REMARK    2  A    between atoms: O_21  and  C_2 
REMARK    3  A    between atoms: O_13  and  C_4 
REMARK    4  A    between atoms: C_6  and  O_15 
REMARK    5  A    between atoms: C_7  and  O_16 
REMARK    6  A    between atoms: C_8  and  N_12 
REMARK    7  A    between atoms: P_23  and  O_18 
REMARK    8  A    between atoms: P_23  and  O_19 
REMARK    9  A    between atoms: P_23  and  O_21 
ROOT
HETATM    1  C   UNK N   1       1.775   3.541  -0.816  0.00  0.00     0.180 C 
HETATM    2  C   UNK N   1       1.077   4.524   0.152  0.00  0.00     0.182 C 
HETATM    3  C   UNK N   1      -0.286   3.881   0.314  0.00  0.00     0.199 C 
HETATM    4  C   UNK N   1       0.180   2.432   0.290  0.00  0.00     0.267 C 
HETATM    5  O   UNK N   1       0.969   2.384  -0.875  0.00  0.00    -0.353 OA
ENDROOT
BRANCH   4   6
HETATM    6  N   UNK N   1      -0.768   1.303   0.294  0.00  0.00    -0.239 N 
HETATM    7  C   UNK N   1      -2.133   1.451   0.352  0.00  0.00     0.237 A 
HETATM    8  C   UNK N   1      -3.036   0.252   0.384  0.00  0.00     0.187 A 
HETATM    9  O   UNK N   1      -2.653   2.553   0.385  0.00  0.00    -0.272 OA
HETATM   10  C   UNK N   1      -2.283  -1.043   0.349  0.00  0.00     0.128 A 
HETATM   11  N   UNK N   1      -1.001  -1.075   0.291  0.00  0.00    -0.292 N 
HETATM   12  C   UNK N   1      -0.222   0.037   0.263  0.00  0.00     0.333 A 
ATOM     13  HN  UNK N   1      -0.542  -1.985   0.265  1.00  0.00     0.172 HD
HETATM   14  O   UNK N   1       0.991  -0.110   0.217  0.00  0.00    -0.246 OA
BRANCH  10  15
HETATM   15  O   UNK N   1      -2.968  -2.200   0.380  0.00  0.00    -0.349 OA
HETATM   16  H   UNK N   1      -3.905  -2.191   0.401  0.00  0.00     0.219 HD
ENDBRANCH  10  15
ENDBRANCH   4   6
BRANCH   3  17
HETATM   17  O   UNK N   1      -0.895   4.260   1.514  0.00  0.00    -0.388 OA
HETATM   18  H   UNK N   1      -0.879   4.758   2.346  0.00  0.00     0.210 HD
ENDBRANCH   3  17
BRANCH   2  19
HETATM   19  O   UNK N   1       0.997   5.826  -0.348  0.00  0.00    -0.390 OA
HETATM   20  H   UNK N   1       1.753   6.326  -0.695  0.00  0.00     0.210 HD
ENDBRANCH   2  19
BRANCH   1  21
HETATM   21  C   UNK N   1       3.128   3.034  -0.319  0.00  0.00     0.215 C 
BRANCH  21  22
HETATM   22  O   UNK N   1       3.989   4.029   0.149  0.00  0.00    -0.294 OA
BRANCH  22  23
HETATM   23  P   UNK N   1       5.475   3.791  -0.728  0.00  0.00     0.390 P 
HETATM   24  O   UNK N   1       5.574   5.269  -0.268  0.00  0.00    -0.632 OA
BRANCH  23  25
HETATM   25  O   UNK N   1       7.028   3.880   0.038  0.00  0.00    -0.307 OA
HETATM   26  H   UNK N   1       7.506   3.153   0.467  0.00  0.00     0.222 HD
ENDBRANCH  23  25
BRANCH  23  27
HETATM   27  O   UNK N   1       5.581   2.758   0.673  0.00  0.00    -0.307 OA
HETATM   28  H   UNK N   1       5.113   2.419   1.452  0.00  0.00     0.222 HD
ENDBRANCH  23  27
ENDBRANCH  22  23
ENDBRANCH  21  22
ENDBRANCH   1  21
TORSDOF 9
