MODEL 1
REMARK VINA RESULT:      -7.0      0.000      0.000
REMARK  18 active torsions:
REMARK  status: ('A' for Active; 'I' for Inactive)
REMARK    1  A    between atoms: C_6  and  C_5 
REMARK    2  A    between atoms: C_12  and  C_5 
REMARK    3  A    between atoms: C_14  and  C_6 
REMARK    4  A    between atoms: C_15  and  C_7 
REMARK    5  A    between atoms: N_19  and  C_7 
REMARK    6  A    between atoms: C_10  and  C_8 
REMARK    7  A    between atoms: S_32  and  C_8 
REMARK    8  A    between atoms: C_13  and  C_9 
REMARK    9  A    between atoms: S_32  and  C_9 
REMARK   10  A    between atoms: N_23  and  C_11 
REMARK   11  A    between atoms: C_17  and  C_12 
REMARK   12  A    between atoms: C_12  and  N_18 
REMARK   13  A    between atoms: C_16  and  C_13 
REMARK   14  A    between atoms: C_13  and  N_21 
REMARK   15  A    between atoms: C_14  and  O_24 
REMARK   16  A    between atoms: O_26  and  C_15 
REMARK   17  A    between atoms: O_27  and  C_16 
REMARK   18  A    between atoms: O_29  and  C_17 
ROOT
HETATM    1  C   UNK N   1      21.004  16.109   5.774  0.00  0.00     0.167 C 
ENDROOT
BRANCH   1   2
HETATM    2  C   UNK N   1      22.181  15.168   5.946  0.00  0.00     0.107 C 
BRANCH   2   3
HETATM    3  S   UNK N   1      21.818  13.404   6.190  0.00  0.00    -0.162 SA
BRANCH   3   4
HETATM    4  C   UNK N   1      23.487  13.225   6.910  0.00  0.00     0.112 C 
BRANCH   4   5
HETATM    5  C   UNK N   1      23.380  12.946   8.372  0.00  0.00    -0.049 A 
HETATM    6  C   UNK N   1      22.132  12.779   8.972  0.00  0.00     0.010 A 
HETATM    7  C   UNK N   1      22.054  12.469  10.335  0.00  0.00     0.036 A 
HETATM    8  C   UNK N   1      23.227  12.308  11.096  0.00  0.00     0.102 A 
HETATM    9  C   UNK N   1      24.470  12.496  10.487  0.00  0.00     0.036 A 
HETATM   10  C   UNK N   1      24.539  12.825   9.144  0.00  0.00     0.010 A 
BRANCH   8  11
HETATM   11  N   UNK N   1      23.167  11.943  12.467  0.00  0.00    -0.116 N 
HETATM   12  O   UNK N   1      22.157  11.511  12.932  0.00  0.00    -0.532 OA
HETATM   13  O   UNK N   1      24.121  12.096  13.171  0.00  0.00    -0.532 OA
ENDBRANCH   8  11
ENDBRANCH   4   5
ENDBRANCH   3   4
ENDBRANCH   2   3
ENDBRANCH   1   2
BRANCH   1  14
HETATM   14  C   UNK N   1      20.758  17.232   6.766  0.00  0.00     0.136 C 
HETATM   15  N   UNK N   1      19.912  17.001   7.708  0.00  0.00    -0.363 N 
ATOM     16  HN  UNK N   1      19.430  16.103   7.677  1.00  0.00     0.161 HD
BRANCH  15  17
HETATM   17  C   UNK N   1      19.572  17.875   8.800  0.00  0.00     0.231 C 
BRANCH  17  18
HETATM   18  C   UNK N   1      18.184  17.518   9.278  0.00  0.00     0.158 C 
HETATM   19  O   UNK N   1      17.614  16.521   8.855  0.00  0.00    -0.649 OA
BRANCH  18  20
HETATM   20  O   UNK N   1      17.568  18.290  10.191  0.00  0.00    -0.775 OA
HETATM   21  H   UNK N   1      16.654  18.176  10.363  0.00  0.00     0.167 HD
ENDBRANCH  18  20
ENDBRANCH  17  18
ENDBRANCH  15  17
BRANCH  14  22
HETATM   22  O   UNK N   1      21.435  18.399   6.711  0.00  0.00    -0.348 OA
HETATM   23  H   UNK N   1      21.391  19.046   7.387  0.00  0.00     0.219 HD
ENDBRANCH  14  22
ENDBRANCH   1  14
BRANCH   1  24
HETATM   24  N   UNK N   1      20.962  16.586   4.410  0.00  0.00    -0.362 N 
HETATM   25  C   UNK N   1      19.854  16.687   3.765  0.00  0.00     0.111 C 
ATOM     26  HN  UNK N   1      21.832  16.848   3.947  1.00  0.00     0.162 HD
BRANCH  25  27
HETATM   27  C   UNK N   1      19.856  17.074   2.334  0.00  0.00     0.086 C 
BRANCH  27  28
HETATM   28  C   UNK N   1      20.888  18.181   2.258  0.00  0.00     0.043 C 
BRANCH  28  29
HETATM   29  C   UNK N   1      20.337  19.591   2.049  0.00  0.00     0.173 C 
BRANCH  29  30
HETATM   30  C   UNK N   1      20.784  20.676   3.013  0.00  0.00     0.163 C 
HETATM   31  O   UNK N   1      20.403  20.633   4.171  0.00  0.00    -0.648 OA
BRANCH  30  32
HETATM   32  O   UNK N   1      21.580  21.691   2.628  0.00  0.00    -0.775 OA
HETATM   33  H   UNK N   1      21.728  22.445   3.163  0.00  0.00     0.167 HD
ENDBRANCH  30  32
ENDBRANCH  29  30
BRANCH  29  34
HETATM   34  N   UNK N   1      20.634  20.003   0.691  0.00  0.00    -0.418 N 
HETATM   35  H   UNK N   1      20.874  20.900   0.269  0.00  0.00     0.150 HD
HETATM   36  H   UNK N   1      20.592  19.238   0.018  0.00  0.00     0.150 HD
ENDBRANCH  29  34
ENDBRANCH  28  29
ENDBRANCH  27  28
ENDBRANCH  25  27
BRANCH  25  37
HETATM   37  O   UNK N   1      18.684  16.344   4.351  0.00  0.00    -0.350 OA
HETATM   38  H   UNK N   1      18.235  15.553   4.574  0.00  0.00     0.219 HD
ENDBRANCH  25  37
ENDBRANCH   1  24
TORSDOF 18
ENDMDL
MODEL 2
REMARK VINA RESULT:      -6.9      2.015      8.554
REMARK  18 active torsions:
REMARK  status: ('A' for Active; 'I' for Inactive)
REMARK    1  A    between atoms: C_6  and  C_5 
REMARK    2  A    between atoms: C_12  and  C_5 
REMARK    3  A    between atoms: C_14  and  C_6 
REMARK    4  A    between atoms: C_15  and  C_7 
REMARK    5  A    between atoms: N_19  and  C_7 
REMARK    6  A    between atoms: C_10  and  C_8 
REMARK    7  A    between atoms: S_32  and  C_8 
REMARK    8  A    between atoms: C_13  and  C_9 
REMARK    9  A    between atoms: S_32  and  C_9 
REMARK   10  A    between atoms: N_23  and  C_11 
REMARK   11  A    between atoms: C_17  and  C_12 
REMARK   12  A    between atoms: C_12  and  N_18 
REMARK   13  A    between atoms: C_16  and  C_13 
REMARK   14  A    between atoms: C_13  and  N_21 
REMARK   15  A    between atoms: C_14  and  O_24 
REMARK   16  A    between atoms: O_26  and  C_15 
REMARK   17  A    between atoms: O_27  and  C_16 
REMARK   18  A    between atoms: O_29  and  C_17 
ROOT
HETATM    1  C   UNK N   1      20.715  14.367   7.059  0.00  0.00     0.167 C 
ENDROOT
BRANCH   1   2
HETATM    2  C   UNK N   1      19.941  13.878   5.849  0.00  0.00     0.107 C 
BRANCH   2   3
HETATM    3  S   UNK N   1      20.483  14.459   4.214  0.00  0.00    -0.162 SA
BRANCH   3   4
HETATM    4  C   UNK N   1      19.453  15.945   4.470  0.00  0.00     0.112 C 
BRANCH   4   5
HETATM    5  C   UNK N   1      20.091  17.123   3.812  0.00  0.00    -0.049 A 
HETATM    6  C   UNK N   1      19.701  17.518   2.533  0.00  0.00     0.010 A 
HETATM    7  C   UNK N   1      20.276  18.655   1.952  0.00  0.00     0.036 A 
HETATM    8  C   UNK N   1      21.232  19.409   2.660  0.00  0.00     0.102 A 
HETATM    9  C   UNK N   1      21.627  18.991   3.934  0.00  0.00     0.036 A 
HETATM   10  C   UNK N   1      21.071  17.853   4.492  0.00  0.00     0.010 A 
BRANCH   8  11
HETATM   11  N   UNK N   1      21.787  20.593   2.107  0.00  0.00    -0.116 N 
HETATM   12  O   UNK N   1      21.811  20.751   0.925  0.00  0.00    -0.532 OA
HETATM   13  O   UNK N   1      22.261  21.425   2.824  0.00  0.00    -0.532 OA
ENDBRANCH   8  11
ENDBRANCH   4   5
ENDBRANCH   3   4
ENDBRANCH   2   3
ENDBRANCH   1   2
BRANCH   1  14
HETATM   14  C   UNK N   1      20.015  15.120   8.175  0.00  0.00     0.136 C 
HETATM   15  N   UNK N   1      19.832  16.383   7.998  0.00  0.00    -0.363 N 
ATOM     16  HN  UNK N   1      20.227  16.786   7.149  1.00  0.00     0.161 HD
BRANCH  15  17
HETATM   17  C   UNK N   1      19.132  17.287   8.872  0.00  0.00     0.231 C 
BRANCH  17  18
HETATM   18  C   UNK N   1      19.905  18.584   8.930  0.00  0.00     0.158 C 
HETATM   19  O   UNK N   1      20.564  18.962   7.971  0.00  0.00    -0.649 OA
BRANCH  18  20
HETATM   20  O   UNK N   1      19.859  19.345  10.037  0.00  0.00    -0.775 OA
HETATM   21  H   UNK N   1      20.297  20.173  10.056  0.00  0.00     0.167 HD
ENDBRANCH  18  20
ENDBRANCH  17  18
ENDBRANCH  15  17
BRANCH  14  22
HETATM   22  O   UNK N   1      19.543  14.498   9.276  0.00  0.00    -0.348 OA
HETATM   23  H   UNK N   1      19.557  13.567   9.381  0.00  0.00     0.219 HD
ENDBRANCH  14  22
ENDBRANCH   1  14
BRANCH   1  24
HETATM   24  N   UNK N   1      21.532  13.291   7.574  0.00  0.00    -0.362 N 
HETATM   25  C   UNK N   1      22.789  13.214   7.311  0.00  0.00     0.111 C 
ATOM     26  HN  UNK N   1      21.102  12.576   8.162  1.00  0.00     0.162 HD
BRANCH  25  27
HETATM   27  C   UNK N   1      23.575  12.041   7.764  0.00  0.00     0.086 C 
BRANCH  27  28
HETATM   28  C   UNK N   1      24.618  12.638   8.687  0.00  0.00     0.043 C 
BRANCH  28  29
HETATM   29  C   UNK N   1      24.154  12.931  10.113  0.00  0.00     0.173 C 
BRANCH  29  30
HETATM   30  C   UNK N   1      22.865  12.282  10.585  0.00  0.00     0.163 C 
HETATM   31  O   UNK N   1      21.847  12.952  10.633  0.00  0.00    -0.648 OA
BRANCH  30  32
HETATM   32  O   UNK N   1      22.811  10.990  10.962  0.00  0.00    -0.775 OA
HETATM   33  H   UNK N   1      22.429  10.719  11.773  0.00  0.00     0.167 HD
ENDBRANCH  30  32
ENDBRANCH  29  30
BRANCH  29  34
HETATM   34  N   UNK N   1      25.227  12.586  11.025  0.00  0.00    -0.418 N 
HETATM   35  H   UNK N   1      26.119  13.025  11.255  0.00  0.00     0.150 HD
HETATM   36  H   UNK N   1      25.056  11.724  11.544  0.00  0.00     0.150 HD
ENDBRANCH  29  34
ENDBRANCH  28  29
ENDBRANCH  27  28
ENDBRANCH  25  27
BRANCH  25  37
HETATM   37  O   UNK N   1      23.386  14.144   6.533  0.00  0.00    -0.350 OA
HETATM   38  H   UNK N   1      23.665  15.034   6.618  0.00  0.00     0.219 HD
ENDBRANCH  25  37
ENDBRANCH   1  24
TORSDOF 18
ENDMDL
MODEL 3
REMARK VINA RESULT:      -6.8      2.707      4.593
REMARK  18 active torsions:
REMARK  status: ('A' for Active; 'I' for Inactive)
REMARK    1  A    between atoms: C_6  and  C_5 
REMARK    2  A    between atoms: C_12  and  C_5 
REMARK    3  A    between atoms: C_14  and  C_6 
REMARK    4  A    between atoms: C_15  and  C_7 
REMARK    5  A    between atoms: N_19  and  C_7 
REMARK    6  A    between atoms: C_10  and  C_8 
REMARK    7  A    between atoms: S_32  and  C_8 
REMARK    8  A    between atoms: C_13  and  C_9 
REMARK    9  A    between atoms: S_32  and  C_9 
REMARK   10  A    between atoms: N_23  and  C_11 
REMARK   11  A    between atoms: C_17  and  C_12 
REMARK   12  A    between atoms: C_12  and  N_18 
REMARK   13  A    between atoms: C_16  and  C_13 
REMARK   14  A    between atoms: C_13  and  N_21 
REMARK   15  A    between atoms: C_14  and  O_24 
REMARK   16  A    between atoms: O_26  and  C_15 
REMARK   17  A    between atoms: O_27  and  C_16 
REMARK   18  A    between atoms: O_29  and  C_17 
ROOT
HETATM    1  C   UNK N   1      21.544  17.047   4.592  0.00  0.00     0.167 C 
ENDROOT
BRANCH   1   2
HETATM    2  C   UNK N   1      21.401  17.042   6.102  0.00  0.00     0.107 C 
BRANCH   2   3
HETATM    3  S   UNK N   1      20.479  15.668   6.855  0.00  0.00    -0.162 SA
BRANCH   3   4
HETATM    4  C   UNK N   1      21.969  14.634   6.642  0.00  0.00     0.112 C 
BRANCH   4   5
HETATM    5  C   UNK N   1      22.367  14.046   7.955  0.00  0.00    -0.049 A 
HETATM    6  C   UNK N   1      21.430  13.896   8.977  0.00  0.00     0.010 A 
HETATM    7  C   UNK N   1      21.811  13.295  10.184  0.00  0.00     0.036 A 
HETATM    8  C   UNK N   1      23.127  12.827  10.361  0.00  0.00     0.102 A 
HETATM    9  C   UNK N   1      24.059  13.000   9.336  0.00  0.00     0.036 A 
HETATM   10  C   UNK N   1      23.683  13.615   8.154  0.00  0.00     0.010 A 
BRANCH   8  11
HETATM   11  N   UNK N   1      23.515  12.170  11.559  0.00  0.00    -0.116 N 
HETATM   12  O   UNK N   1      24.663  11.915  11.761  0.00  0.00    -0.532 OA
HETATM   13  O   UNK N   1      22.688  11.843  12.358  0.00  0.00    -0.532 OA
ENDBRANCH   8  11
ENDBRANCH   4   5
ENDBRANCH   3   4
ENDBRANCH   2   3
ENDBRANCH   1   2
BRANCH   1  14
HETATM   14  C   UNK N   1      20.489  17.695   3.715  0.00  0.00     0.136 C 
HETATM   15  N   UNK N   1      20.887  18.628   2.921  0.00  0.00    -0.363 N 
ATOM     16  HN  UNK N   1      21.867  18.898   2.990  1.00  0.00     0.161 HD
BRANCH  15  17
HETATM   17  C   UNK N   1      20.094  19.333   1.948  0.00  0.00     0.231 C 
BRANCH  17  18
HETATM   18  C   UNK N   1      20.884  20.529   1.469  0.00  0.00     0.158 C 
HETATM   19  O   UNK N   1      21.268  20.600   0.310  0.00  0.00    -0.649 OA
BRANCH  18  20
HETATM   20  O   UNK N   1      21.156  21.537   2.316  0.00  0.00    -0.775 OA
HETATM   21  H   UNK N   1      21.218  21.373   3.237  0.00  0.00     0.167 HD
ENDBRANCH  18  20
ENDBRANCH  17  18
ENDBRANCH  15  17
BRANCH  14  22
HETATM   22  O   UNK N   1      19.205  17.279   3.709  0.00  0.00    -0.348 OA
HETATM   23  H   UNK N   1      18.834  16.759   4.395  0.00  0.00     0.219 HD
ENDBRANCH  14  22
ENDBRANCH   1  14
BRANCH   1  24
HETATM   24  N   UNK N   1      22.876  17.485   4.236  0.00  0.00    -0.362 N 
HETATM   25  C   UNK N   1      23.756  16.665   3.781  0.00  0.00     0.111 C 
ATOM     26  HN  UNK N   1      23.122  18.468   4.347  1.00  0.00     0.162 HD
BRANCH  25  27
HETATM   27  C   UNK N   1      25.143  17.124   3.528  0.00  0.00     0.086 C 
BRANCH  27  28
HETATM   28  C   UNK N   1      25.330  18.269   4.503  0.00  0.00     0.043 C 
BRANCH  28  29
HETATM   29  C   UNK N   1      25.722  19.610   3.885  0.00  0.00     0.173 C 
BRANCH  29  30
HETATM   30  C   UNK N   1      24.674  20.348   3.071  0.00  0.00     0.163 C 
HETATM   31  O   UNK N   1      25.012  20.914   2.045  0.00  0.00    -0.648 OA
BRANCH  30  32
HETATM   32  O   UNK N   1      23.383  20.406   3.451  0.00  0.00    -0.775 OA
HETATM   33  H   UNK N   1      22.871  19.638   3.607  0.00  0.00     0.167 HD
ENDBRANCH  30  32
ENDBRANCH  29  30
BRANCH  29  34
HETATM   34  N   UNK N   1      26.207  20.478   4.942  0.00  0.00    -0.418 N 
HETATM   35  H   UNK N   1      25.939  20.609   5.918  0.00  0.00     0.150 HD
HETATM   36  H   UNK N   1      26.973  21.083   4.649  0.00  0.00     0.150 HD
ENDBRANCH  29  34
ENDBRANCH  28  29
ENDBRANCH  27  28
ENDBRANCH  25  27
BRANCH  25  37
HETATM   37  O   UNK N   1      23.459  15.355   3.625  0.00  0.00    -0.350 OA
HETATM   38  H   UNK N   1      23.853  14.533   3.837  0.00  0.00     0.219 HD
ENDBRANCH  25  37
ENDBRANCH   1  24
TORSDOF 18
ENDMDL
MODEL 4
REMARK VINA RESULT:      -6.8      1.331      1.930
REMARK  18 active torsions:
REMARK  status: ('A' for Active; 'I' for Inactive)
REMARK    1  A    between atoms: C_6  and  C_5 
REMARK    2  A    between atoms: C_12  and  C_5 
REMARK    3  A    between atoms: C_14  and  C_6 
REMARK    4  A    between atoms: C_15  and  C_7 
REMARK    5  A    between atoms: N_19  and  C_7 
REMARK    6  A    between atoms: C_10  and  C_8 
REMARK    7  A    between atoms: S_32  and  C_8 
REMARK    8  A    between atoms: C_13  and  C_9 
REMARK    9  A    between atoms: S_32  and  C_9 
REMARK   10  A    between atoms: N_23  and  C_11 
REMARK   11  A    between atoms: C_17  and  C_12 
REMARK   12  A    between atoms: C_12  and  N_18 
REMARK   13  A    between atoms: C_16  and  C_13 
REMARK   14  A    between atoms: C_13  and  N_21 
REMARK   15  A    between atoms: C_14  and  O_24 
REMARK   16  A    between atoms: O_26  and  C_15 
REMARK   17  A    between atoms: O_27  and  C_16 
REMARK   18  A    between atoms: O_29  and  C_17 
ROOT
HETATM    1  C   UNK N   1      22.070  15.483   5.756  0.00  0.00     0.167 C 
ENDROOT
BRANCH   1   2
HETATM    2  C   UNK N   1      23.460  15.415   6.361  0.00  0.00     0.107 C 
BRANCH   2   3
HETATM    3  S   UNK N   1      24.501  13.993   5.917  0.00  0.00    -0.162 SA
BRANCH   3   4
HETATM    4  C   UNK N   1      23.128  12.906   6.434  0.00  0.00     0.112 C 
BRANCH   4   5
HETATM    5  C   UNK N   1      23.162  12.718   7.914  0.00  0.00    -0.049 A 
HETATM    6  C   UNK N   1      21.985  12.494   8.628  0.00  0.00     0.010 A 
HETATM    7  C   UNK N   1      22.043  12.270  10.009  0.00  0.00     0.036 A 
HETATM    8  C   UNK N   1      23.284  12.253  10.675  0.00  0.00     0.102 A 
HETATM    9  C   UNK N   1      24.453  12.497   9.951  0.00  0.00     0.036 A 
HETATM   10  C   UNK N   1      24.386  12.739   8.590  0.00  0.00     0.010 A 
BRANCH   8  11
HETATM   11  N   UNK N   1      23.365  11.977  12.066  0.00  0.00    -0.116 N 
HETATM   12  O   UNK N   1      22.372  11.813  12.706  0.00  0.00    -0.532 OA
HETATM   13  O   UNK N   1      24.430  11.935  12.608  0.00  0.00    -0.532 OA
ENDBRANCH   8  11
ENDBRANCH   4   5
ENDBRANCH   3   4
ENDBRANCH   2   3
ENDBRANCH   1   2
BRANCH   1  14
HETATM   14  C   UNK N   1      20.841  15.560   6.643  0.00  0.00     0.136 C 
HETATM   15  N   UNK N   1      21.013  16.015   7.836  0.00  0.00    -0.363 N 
ATOM     16  HN  UNK N   1      21.971  16.230   8.108  1.00  0.00     0.161 HD
BRANCH  15  17
HETATM   17  C   UNK N   1      19.996  16.251   8.826  0.00  0.00     0.231 C 
BRANCH  17  18
HETATM   18  C   UNK N   1      19.589  17.704   8.751  0.00  0.00     0.158 C 
HETATM   19  O   UNK N   1      20.374  18.553   8.352  0.00  0.00    -0.649 OA
BRANCH  18  20
HETATM   20  O   UNK N   1      18.347  18.074   9.109  0.00  0.00    -0.775 OA
HETATM   21  H   UNK N   1      17.613  17.827   8.581  0.00  0.00     0.167 HD
ENDBRANCH  18  20
ENDBRANCH  17  18
ENDBRANCH  15  17
BRANCH  14  22
HETATM   22  O   UNK N   1      19.611  15.232   6.196  0.00  0.00    -0.348 OA
HETATM   23  H   UNK N   1      19.330  15.386   5.315  0.00  0.00     0.219 HD
ENDBRANCH  14  22
ENDBRANCH   1  14
BRANCH   1  24
HETATM   24  N   UNK N   1      22.044  16.492   4.721  0.00  0.00    -0.362 N 
HETATM   25  C   UNK N   1      22.207  17.739   4.992  0.00  0.00     0.111 C 
ATOM     26  HN  UNK N   1      21.893  16.210   3.753  1.00  0.00     0.162 HD
BRANCH  25  27
HETATM   27  C   UNK N   1      22.065  18.759   3.925  0.00  0.00     0.086 C 
BRANCH  27  28
HETATM   28  C   UNK N   1      20.580  18.771   3.629  0.00  0.00     0.043 C 
BRANCH  28  29
HETATM   29  C   UNK N   1      20.164  19.486   2.344  0.00  0.00     0.173 C 
BRANCH  29  30
HETATM   30  C   UNK N   1      21.036  20.630   1.857  0.00  0.00     0.163 C 
HETATM   31  O   UNK N   1      21.504  20.581   0.732  0.00  0.00    -0.648 OA
BRANCH  30  32
HETATM   32  O   UNK N   1      21.317  21.694   2.632  0.00  0.00    -0.775 OA
HETATM   33  H   UNK N   1      22.097  21.747   3.149  0.00  0.00     0.167 HD
ENDBRANCH  30  32
ENDBRANCH  29  30
BRANCH  29  34
HETATM   34  N   UNK N   1      20.036  18.497   1.290  0.00  0.00    -0.418 N 
HETATM   35  H   UNK N   1      19.575  17.589   1.235  0.00  0.00     0.150 HD
HETATM   36  H   UNK N   1      20.505  18.765   0.425  0.00  0.00     0.150 HD
ENDBRANCH  29  34
ENDBRANCH  28  29
ENDBRANCH  27  28
ENDBRANCH  25  27
BRANCH  25  37
HETATM   37  O   UNK N   1      22.406  18.145   6.266  0.00  0.00    -0.350 OA
HETATM   38  H   UNK N   1      22.066  18.806   6.837  0.00  0.00     0.219 HD
ENDBRANCH  25  37
ENDBRANCH   1  24
TORSDOF 18
ENDMDL
MODEL 5
REMARK VINA RESULT:      -6.7      9.244     12.498
REMARK  18 active torsions:
REMARK  status: ('A' for Active; 'I' for Inactive)
REMARK    1  A    between atoms: C_6  and  C_5 
REMARK    2  A    between atoms: C_12  and  C_5 
REMARK    3  A    between atoms: C_14  and  C_6 
REMARK    4  A    between atoms: C_15  and  C_7 
REMARK    5  A    between atoms: N_19  and  C_7 
REMARK    6  A    between atoms: C_10  and  C_8 
REMARK    7  A    between atoms: S_32  and  C_8 
REMARK    8  A    between atoms: C_13  and  C_9 
REMARK    9  A    between atoms: S_32  and  C_9 
REMARK   10  A    between atoms: N_23  and  C_11 
REMARK   11  A    between atoms: C_17  and  C_12 
REMARK   12  A    between atoms: C_12  and  N_18 
REMARK   13  A    between atoms: C_16  and  C_13 
REMARK   14  A    between atoms: C_13  and  N_21 
REMARK   15  A    between atoms: C_14  and  O_24 
REMARK   16  A    between atoms: O_26  and  C_15 
REMARK   17  A    between atoms: O_27  and  C_16 
REMARK   18  A    between atoms: O_29  and  C_17 
ROOT
HETATM    1  C   UNK N   1      31.971  17.303   8.090  0.00  0.00     0.167 C 
ENDROOT
BRANCH   1   2
HETATM    2  C   UNK N   1      30.545  17.719   8.393  0.00  0.00     0.107 C 
BRANCH   2   3
HETATM    3  S   UNK N   1      29.274  17.328   7.154  0.00  0.00    -0.162 SA
BRANCH   3   4
HETATM    4  C   UNK N   1      28.523  18.956   7.502  0.00  0.00     0.112 C 
BRANCH   4   5
HETATM    5  C   UNK N   1      27.679  19.381   6.347  0.00  0.00    -0.049 A 
HETATM    6  C   UNK N   1      27.584  18.582   5.207  0.00  0.00     0.010 A 
HETATM    7  C   UNK N   1      26.748  18.973   4.154  0.00  0.00     0.036 A 
HETATM    8  C   UNK N   1      25.992  20.157   4.248  0.00  0.00     0.102 A 
HETATM    9  C   UNK N   1      26.111  20.957   5.388  0.00  0.00     0.036 A 
HETATM   10  C   UNK N   1      26.956  20.576   6.415  0.00  0.00     0.010 A 
BRANCH   8  11
HETATM   11  N   UNK N   1      25.101  20.542   3.211  0.00  0.00    -0.116 N 
HETATM   12  O   UNK N   1      23.929  20.614   3.420  0.00  0.00    -0.532 OA
HETATM   13  O   UNK N   1      25.520  20.768   2.114  0.00  0.00    -0.532 OA
ENDBRANCH   8  11
ENDBRANCH   4   5
ENDBRANCH   3   4
ENDBRANCH   2   3
ENDBRANCH   1   2
BRANCH   1  14
HETATM   14  C   UNK N   1      32.610  16.134   8.818  0.00  0.00     0.136 C 
HETATM   15  N   UNK N   1      33.643  16.395   9.542  0.00  0.00    -0.363 N 
ATOM     16  HN  UNK N   1      33.984  17.355   9.519  1.00  0.00     0.161 HD
BRANCH  15  17
HETATM   17  C   UNK N   1      34.367  15.475  10.379  0.00  0.00     0.231 C 
BRANCH  17  18
HETATM   18  C   UNK N   1      35.596  16.180  10.905  0.00  0.00     0.158 C 
HETATM   19  O   UNK N   1      36.347  15.622  11.693  0.00  0.00    -0.649 OA
BRANCH  18  20
HETATM   20  O   UNK N   1      35.883  17.428  10.495  0.00  0.00    -0.775 OA
HETATM   21  H   UNK N   1      35.447  18.161  10.884  0.00  0.00     0.167 HD
ENDBRANCH  18  20
ENDBRANCH  17  18
ENDBRANCH  15  17
BRANCH  14  22
HETATM   22  O   UNK N   1      32.092  14.888   8.770  0.00  0.00    -0.348 OA
HETATM   23  H   UNK N   1      32.622  14.116   8.744  0.00  0.00     0.219 HD
ENDBRANCH  14  22
ENDBRANCH   1  14
BRANCH   1  24
HETATM   24  N   UNK N   1      32.149  17.198   6.658  0.00  0.00    -0.362 N 
HETATM   25  C   UNK N   1      33.250  17.543   6.089  0.00  0.00     0.111 C 
ATOM     26  HN  UNK N   1      31.384  16.842   6.086  1.00  0.00     0.162 HD
BRANCH  25  27
HETATM   27  C   UNK N   1      33.363  17.527   4.611  0.00  0.00     0.086 C 
BRANCH  27  28
HETATM   28  C   UNK N   1      31.928  17.631   4.136  0.00  0.00     0.043 C 
BRANCH  28  29
HETATM   29  C   UNK N   1      31.462  16.533   3.182  0.00  0.00     0.173 C 
BRANCH  29  30
HETATM   30  C   UNK N   1      31.411  15.111   3.710  0.00  0.00     0.163 C 
HETATM   31  O   UNK N   1      31.053  14.919   4.860  0.00  0.00    -0.648 OA
BRANCH  30  32
HETATM   32  O   UNK N   1      31.759  14.054   2.952  0.00  0.00    -0.775 OA
HETATM   33  H   UNK N   1      31.191  13.693   2.302  0.00  0.00     0.167 HD
ENDBRANCH  30  32
ENDBRANCH  29  30
BRANCH  29  34
HETATM   34  N   UNK N   1      30.158  16.900   2.662  0.00  0.00    -0.418 N 
HETATM   35  H   UNK N   1      29.237  16.997   3.090  0.00  0.00     0.150 HD
HETATM   36  H   UNK N   1      30.162  17.100   1.663  0.00  0.00     0.150 HD
ENDBRANCH  29  34
ENDBRANCH  28  29
ENDBRANCH  27  28
ENDBRANCH  25  27
BRANCH  25  37
HETATM   37  O   UNK N   1      34.282  18.021   6.821  0.00  0.00    -0.350 OA
HETATM   38  H   UNK N   1      34.867  18.752   6.786  0.00  0.00     0.219 HD
ENDBRANCH  25  37
ENDBRANCH   1  24
TORSDOF 18
ENDMDL
MODEL 6
REMARK VINA RESULT:      -6.7      2.170      9.075
REMARK  18 active torsions:
REMARK  status: ('A' for Active; 'I' for Inactive)
REMARK    1  A    between atoms: C_6  and  C_5 
REMARK    2  A    between atoms: C_12  and  C_5 
REMARK    3  A    between atoms: C_14  and  C_6 
REMARK    4  A    between atoms: C_15  and  C_7 
REMARK    5  A    between atoms: N_19  and  C_7 
REMARK    6  A    between atoms: C_10  and  C_8 
REMARK    7  A    between atoms: S_32  and  C_8 
REMARK    8  A    between atoms: C_13  and  C_9 
REMARK    9  A    between atoms: S_32  and  C_9 
REMARK   10  A    between atoms: N_23  and  C_11 
REMARK   11  A    between atoms: C_17  and  C_12 
REMARK   12  A    between atoms: C_12  and  N_18 
REMARK   13  A    between atoms: C_16  and  C_13 
REMARK   14  A    between atoms: C_13  and  N_21 
REMARK   15  A    between atoms: C_14  and  O_24 
REMARK   16  A    between atoms: O_26  and  C_15 
REMARK   17  A    between atoms: O_27  and  C_16 
REMARK   18  A    between atoms: O_29  and  C_17 
ROOT
HETATM    1  C   UNK N   1      20.483  16.759   8.074  0.00  0.00     0.167 C 
ENDROOT
BRANCH   1   2
HETATM    2  C   UNK N   1      20.985  17.420   6.804  0.00  0.00     0.107 C 
BRANCH   2   3
HETATM    3  S   UNK N   1      21.846  16.371   5.595  0.00  0.00    -0.162 SA
BRANCH   3   4
HETATM    4  C   UNK N   1      22.938  17.791   5.235  0.00  0.00     0.112 C 
BRANCH   4   5
HETATM    5  C   UNK N   1      22.420  18.540   4.053  0.00  0.00    -0.049 A 
HETATM    6  C   UNK N   1      21.218  18.169   3.450  0.00  0.00     0.010 A 
HETATM    7  C   UNK N   1      20.723  18.915   2.373  0.00  0.00     0.036 A 
HETATM    8  C   UNK N   1      21.423  20.046   1.910  0.00  0.00     0.102 A 
HETATM    9  C   UNK N   1      22.635  20.395   2.512  0.00  0.00     0.036 A 
HETATM   10  C   UNK N   1      23.129  19.640   3.561  0.00  0.00     0.010 A 
BRANCH   8  11
HETATM   11  N   UNK N   1      20.910  20.843   0.853  0.00  0.00    -0.116 N 
HETATM   12  O   UNK N   1      20.588  21.974   1.052  0.00  0.00    -0.532 OA
HETATM   13  O   UNK N   1      20.770  20.373  -0.238  0.00  0.00    -0.532 OA
ENDBRANCH   8  11
ENDBRANCH   4   5
ENDBRANCH   3   4
ENDBRANCH   2   3
ENDBRANCH   1   2
BRANCH   1  14
HETATM   14  C   UNK N   1      19.034  16.905   8.503  0.00  0.00     0.136 C 
HETATM   15  N   UNK N   1      18.806  17.632   9.542  0.00  0.00    -0.363 N 
ATOM     16  HN  UNK N   1      19.623  18.001  10.027  1.00  0.00     0.161 HD
BRANCH  15  17
HETATM   17  C   UNK N   1      17.522  17.977  10.092  0.00  0.00     0.231 C 
BRANCH  17  18
HETATM   18  C   UNK N   1      17.740  18.923  11.249  0.00  0.00     0.158 C 
HETATM   19  O   UNK N   1      16.938  18.976  12.172  0.00  0.00    -0.649 OA
BRANCH  18  20
HETATM   20  O   UNK N   1      18.833  19.705  11.281  0.00  0.00    -0.775 OA
HETATM   21  H   UNK N   1      18.982  20.274  12.012  0.00  0.00     0.167 HD
ENDBRANCH  18  20
ENDBRANCH  17  18
ENDBRANCH  15  17
BRANCH  14  22
HETATM   22  O   UNK N   1      18.019  16.357   7.802  0.00  0.00    -0.348 OA
HETATM   23  H   UNK N   1      17.407  16.867   7.309  0.00  0.00     0.219 HD
ENDBRANCH  14  22
ENDBRANCH   1  14
BRANCH   1  24
HETATM   24  N   UNK N   1      20.909  15.378   8.099  0.00  0.00    -0.362 N 
HETATM   25  C   UNK N   1      20.387  14.527   8.911  0.00  0.00     0.111 C 
ATOM     26  HN  UNK N   1      21.639  15.070   7.458  1.00  0.00     0.162 HD
BRANCH  25  27
HETATM   27  C   UNK N   1      20.921  13.146   8.987  0.00  0.00     0.086 C 
BRANCH  27  28
HETATM   28  C   UNK N   1      22.017  13.237  10.030  0.00  0.00     0.043 C 
BRANCH  28  29
HETATM   29  C   UNK N   1      22.151  12.032  10.960  0.00  0.00     0.173 C 
BRANCH  29  30
HETATM   30  C   UNK N   1      23.292  12.035  11.962  0.00  0.00     0.163 C 
HETATM   31  O   UNK N   1      23.091  11.616  13.090  0.00  0.00    -0.648 OA
BRANCH  30  32
HETATM   32  O   UNK N   1      24.517  12.497  11.649  0.00  0.00    -0.775 OA
HETATM   33  H   UNK N   1      24.781  12.664  10.766  0.00  0.00     0.167 HD
ENDBRANCH  30  32
ENDBRANCH  29  30
BRANCH  29  34
HETATM   34  N   UNK N   1      20.895  11.852  11.663  0.00  0.00    -0.418 N 
HETATM   35  H   UNK N   1      20.033  11.354  11.439  0.00  0.00     0.150 HD
HETATM   36  H   UNK N   1      20.866  12.323  12.567  0.00  0.00     0.150 HD
ENDBRANCH  29  34
ENDBRANCH  28  29
ENDBRANCH  27  28
ENDBRANCH  25  27
BRANCH  25  37
HETATM   37  O   UNK N   1      19.419  14.905   9.775  0.00  0.00    -0.350 OA
HETATM   38  H   UNK N   1      19.091  15.708  10.129  0.00  0.00     0.219 HD
ENDBRANCH  25  37
ENDBRANCH   1  24
TORSDOF 18
ENDMDL
MODEL 7
REMARK VINA RESULT:      -6.7      8.665     12.497
REMARK  18 active torsions:
REMARK  status: ('A' for Active; 'I' for Inactive)
REMARK    1  A    between atoms: C_6  and  C_5 
REMARK    2  A    between atoms: C_12  and  C_5 
REMARK    3  A    between atoms: C_14  and  C_6 
REMARK    4  A    between atoms: C_15  and  C_7 
REMARK    5  A    between atoms: N_19  and  C_7 
REMARK    6  A    between atoms: C_10  and  C_8 
REMARK    7  A    between atoms: S_32  and  C_8 
REMARK    8  A    between atoms: C_13  and  C_9 
REMARK    9  A    between atoms: S_32  and  C_9 
REMARK   10  A    between atoms: N_23  and  C_11 
REMARK   11  A    between atoms: C_17  and  C_12 
REMARK   12  A    between atoms: C_12  and  N_18 
REMARK   13  A    between atoms: C_16  and  C_13 
REMARK   14  A    between atoms: C_13  and  N_21 
REMARK   15  A    between atoms: C_14  and  O_24 
REMARK   16  A    between atoms: O_26  and  C_15 
REMARK   17  A    between atoms: O_27  and  C_16 
REMARK   18  A    between atoms: O_29  and  C_17 
ROOT
HETATM    1  C   UNK N   1      31.978  17.085   7.106  0.00  0.00     0.167 C 
ENDROOT
BRANCH   1   2
HETATM    2  C   UNK N   1      31.364  16.375   5.914  0.00  0.00     0.107 C 
BRANCH   2   3
HETATM    3  S   UNK N   1      30.560  17.401   4.647  0.00  0.00    -0.162 SA
BRANCH   3   4
HETATM    4  C   UNK N   1      28.984  17.153   5.536  0.00  0.00     0.112 C 
BRANCH   4   5
HETATM    5  C   UNK N   1      27.923  18.011   4.932  0.00  0.00    -0.049 A 
HETATM    6  C   UNK N   1      28.148  19.371   4.717  0.00  0.00     0.010 A 
HETATM    7  C   UNK N   1      27.158  20.148   4.103  0.00  0.00     0.036 A 
HETATM    8  C   UNK N   1      25.948  19.561   3.687  0.00  0.00     0.102 A 
HETATM    9  C   UNK N   1      25.729  18.202   3.925  0.00  0.00     0.036 A 
HETATM   10  C   UNK N   1      26.702  17.444   4.552  0.00  0.00     0.010 A 
BRANCH   8  11
HETATM   11  N   UNK N   1      24.956  20.325   3.017  0.00  0.00    -0.116 N 
HETATM   12  O   UNK N   1      25.228  20.928   2.025  0.00  0.00    -0.532 OA
HETATM   13  O   UNK N   1      23.848  20.390   3.463  0.00  0.00    -0.532 OA
ENDBRANCH   8  11
ENDBRANCH   4   5
ENDBRANCH   3   4
ENDBRANCH   2   3
ENDBRANCH   1   2
BRANCH   1  14
HETATM   14  C   UNK N   1      31.222  17.194   8.418  0.00  0.00     0.136 C 
HETATM   15  N   UNK N   1      30.486  18.238   8.579  0.00  0.00    -0.363 N 
ATOM     16  HN  UNK N   1      30.517  18.937   7.838  1.00  0.00     0.161 HD
BRANCH  15  17
HETATM   17  C   UNK N   1      29.624  18.525   9.695  0.00  0.00     0.231 C 
BRANCH  17  18
HETATM   18  C   UNK N   1      28.212  18.149   9.313  0.00  0.00     0.158 C 
HETATM   19  O   UNK N   1      27.747  17.062   9.628  0.00  0.00    -0.649 OA
BRANCH  18  20
HETATM   20  O   UNK N   1      27.445  19.020   8.633  0.00  0.00    -0.775 OA
HETATM   21  H   UNK N   1      27.633  19.208   7.734  0.00  0.00     0.167 HD
ENDBRANCH  18  20
ENDBRANCH  17  18
ENDBRANCH  15  17
BRANCH  14  22
HETATM   22  O   UNK N   1      31.261  16.220   9.351  0.00  0.00    -0.348 OA
HETATM   23  H   UNK N   1      30.814  16.282  10.172  0.00  0.00     0.219 HD
ENDBRANCH  14  22
ENDBRANCH   1  14
BRANCH   1  24
HETATM   24  N   UNK N   1      33.328  16.608   7.308  0.00  0.00    -0.362 N 
HETATM   25  C   UNK N   1      33.579  15.364   7.514  0.00  0.00     0.111 C 
ATOM     26  HN  UNK N   1      34.100  17.274   7.286  1.00  0.00     0.162 HD
BRANCH  25  27
HETATM   27  C   UNK N   1      34.960  14.923   7.825  0.00  0.00     0.086 C 
BRANCH  27  28
HETATM   28  C   UNK N   1      34.801  14.083   9.076  0.00  0.00     0.043 C 
BRANCH  28  29
HETATM   29  C   UNK N   1      34.711  14.857  10.390  0.00  0.00     0.173 C 
BRANCH  29  30
HETATM   30  C   UNK N   1      35.318  16.248  10.435  0.00  0.00     0.163 C 
HETATM   31  O   UNK N   1      36.492  16.372  10.741  0.00  0.00    -0.648 OA
BRANCH  30  32
HETATM   32  O   UNK N   1      34.598  17.352  10.156  0.00  0.00    -0.775 OA
HETATM   33  H   UNK N   1      33.716  17.464  10.450  0.00  0.00     0.167 HD
ENDBRANCH  30  32
ENDBRANCH  29  30
BRANCH  29  34
HETATM   34  N   UNK N   1      33.317  14.928  10.786  0.00  0.00    -0.418 N 
HETATM   35  H   UNK N   1      32.575  15.607  10.615  0.00  0.00     0.150 HD
HETATM   36  H   UNK N   1      33.018  14.137  11.356  0.00  0.00     0.150 HD
ENDBRANCH  29  34
ENDBRANCH  28  29
ENDBRANCH  27  28
ENDBRANCH  25  27
BRANCH  25  37
HETATM   37  O   UNK N   1      32.577  14.457   7.552  0.00  0.00    -0.350 OA
HETATM   38  H   UNK N   1      32.271  13.797   8.142  0.00  0.00     0.219 HD
ENDBRANCH  25  37
ENDBRANCH   1  24
TORSDOF 18
ENDMDL
MODEL 8
REMARK VINA RESULT:      -6.6      2.487      8.492
REMARK  18 active torsions:
REMARK  status: ('A' for Active; 'I' for Inactive)
REMARK    1  A    between atoms: C_6  and  C_5 
REMARK    2  A    between atoms: C_12  and  C_5 
REMARK    3  A    between atoms: C_14  and  C_6 
REMARK    4  A    between atoms: C_15  and  C_7 
REMARK    5  A    between atoms: N_19  and  C_7 
REMARK    6  A    between atoms: C_10  and  C_8 
REMARK    7  A    between atoms: S_32  and  C_8 
REMARK    8  A    between atoms: C_13  and  C_9 
REMARK    9  A    between atoms: S_32  and  C_9 
REMARK   10  A    between atoms: N_23  and  C_11 
REMARK   11  A    between atoms: C_17  and  C_12 
REMARK   12  A    between atoms: C_12  and  N_18 
REMARK   13  A    between atoms: C_16  and  C_13 
REMARK   14  A    between atoms: C_13  and  N_21 
REMARK   15  A    between atoms: C_14  and  O_24 
REMARK   16  A    between atoms: O_26  and  C_15 
REMARK   17  A    between atoms: O_27  and  C_16 
REMARK   18  A    between atoms: O_29  and  C_17 
ROOT
HETATM    1  C   UNK N   1      21.408  15.858   7.390  0.00  0.00     0.167 C 
ENDROOT
BRANCH   1   2
HETATM    2  C   UNK N   1      21.787  15.487   5.969  0.00  0.00     0.107 C 
BRANCH   2   3
HETATM    3  S   UNK N   1      23.239  16.307   5.245  0.00  0.00    -0.162 SA
BRANCH   3   4
HETATM    4  C   UNK N   1      22.465  17.908   5.665  0.00  0.00     0.112 C 
BRANCH   4   5
HETATM    5  C   UNK N   1      22.048  18.610   4.416  0.00  0.00    -0.049 A 
HETATM    6  C   UNK N   1      20.756  18.456   3.914  0.00  0.00     0.010 A 
HETATM    7  C   UNK N   1      20.368  19.163   2.769  0.00  0.00     0.036 A 
HETATM    8  C   UNK N   1      21.269  20.039   2.135  0.00  0.00     0.102 A 
HETATM    9  C   UNK N   1      22.566  20.170   2.638  0.00  0.00     0.036 A 
HETATM   10  C   UNK N   1      22.950  19.452   3.756  0.00  0.00     0.010 A 
BRANCH   8  11
HETATM   11  N   UNK N   1      20.875  20.802   1.003  0.00  0.00    -0.116 N 
HETATM   12  O   UNK N   1      20.846  20.302  -0.079  0.00  0.00    -0.532 OA
HETATM   13  O   UNK N   1      20.597  21.958   1.127  0.00  0.00    -0.532 OA
ENDBRANCH   8  11
ENDBRANCH   4   5
ENDBRANCH   3   4
ENDBRANCH   2   3
ENDBRANCH   1   2
BRANCH   1  14
HETATM   14  C   UNK N   1      20.006  16.337   7.718  0.00  0.00     0.136 C 
HETATM   15  N   UNK N   1      19.871  17.055   8.779  0.00  0.00    -0.363 N 
ATOM     16  HN  UNK N   1      20.707  17.193   9.346  1.00  0.00     0.161 HD
BRANCH  15  17
HETATM   17  C   UNK N   1      18.665  17.682   9.252  0.00  0.00     0.231 C 
BRANCH  17  18
HETATM   18  C   UNK N   1      19.049  18.905  10.052  0.00  0.00     0.158 C 
HETATM   19  O   UNK N   1      20.170  19.387   9.958  0.00  0.00    -0.649 OA
BRANCH  18  20
HETATM   20  O   UNK N   1      18.150  19.485  10.866  0.00  0.00    -0.775 OA
HETATM   21  H   UNK N   1      17.367  19.028  11.102  0.00  0.00     0.167 HD
ENDBRANCH  18  20
ENDBRANCH  17  18
ENDBRANCH  15  17
BRANCH  14  22
HETATM   22  O   UNK N   1      18.953  16.085   6.912  0.00  0.00    -0.348 OA
HETATM   23  H   UNK N   1      18.460  15.289   6.950  0.00  0.00     0.219 HD
ENDBRANCH  14  22
ENDBRANCH   1  14
BRANCH   1  24
HETATM   24  N   UNK N   1      21.838  14.812   8.292  0.00  0.00    -0.362 N 
HETATM   25  C   UNK N   1      21.275  13.656   8.299  0.00  0.00     0.111 C 
ATOM     26  HN  UNK N   1      22.606  14.996   8.937  1.00  0.00     0.162 HD
BRANCH  25  27
HETATM   27  C   UNK N   1      21.665  12.643   9.309  0.00  0.00     0.086 C 
BRANCH  27  28
HETATM   28  C   UNK N   1      22.883  13.248   9.979  0.00  0.00     0.043 C 
BRANCH  28  29
HETATM   29  C   UNK N   1      24.232  12.684   9.539  0.00  0.00     0.173 C 
BRANCH  29  30
HETATM   30  C   UNK N   1      24.707  13.001   8.132  0.00  0.00     0.163 C 
HETATM   31  O   UNK N   1      24.728  12.110   7.299  0.00  0.00    -0.648 OA
BRANCH  30  32
HETATM   32  O   UNK N   1      25.117  14.233   7.776  0.00  0.00    -0.775 OA
HETATM   33  H   UNK N   1      24.764  14.686   7.037  0.00  0.00     0.167 HD
ENDBRANCH  30  32
ENDBRANCH  29  30
BRANCH  29  34
HETATM   34  N   UNK N   1      25.240  13.108  10.493  0.00  0.00    -0.418 N 
HETATM   35  H   UNK N   1      26.219  13.380  10.402  0.00  0.00     0.150 HD
HETATM   36  H   UNK N   1      24.900  13.138  11.454  0.00  0.00     0.150 HD
ENDBRANCH  29  34
ENDBRANCH  28  29
ENDBRANCH  27  28
ENDBRANCH  25  27
BRANCH  25  37
HETATM   37  O   UNK N   1      20.252  13.384   7.458  0.00  0.00    -0.350 OA
HETATM   38  H   UNK N   1      19.327  13.530   7.432  0.00  0.00     0.219 HD
ENDBRANCH  25  37
ENDBRANCH   1  24
TORSDOF 18
ENDMDL
MODEL 9
REMARK VINA RESULT:      -6.4      4.091      6.082
REMARK  18 active torsions:
REMARK  status: ('A' for Active; 'I' for Inactive)
REMARK    1  A    between atoms: C_6  and  C_5 
REMARK    2  A    between atoms: C_12  and  C_5 
REMARK    3  A    between atoms: C_14  and  C_6 
REMARK    4  A    between atoms: C_15  and  C_7 
REMARK    5  A    between atoms: N_19  and  C_7 
REMARK    6  A    between atoms: C_10  and  C_8 
REMARK    7  A    between atoms: S_32  and  C_8 
REMARK    8  A    between atoms: C_13  and  C_9 
REMARK    9  A    between atoms: S_32  and  C_9 
REMARK   10  A    between atoms: N_23  and  C_11 
REMARK   11  A    between atoms: C_17  and  C_12 
REMARK   12  A    between atoms: C_12  and  N_18 
REMARK   13  A    between atoms: C_16  and  C_13 
REMARK   14  A    between atoms: C_13  and  N_21 
REMARK   15  A    between atoms: C_14  and  O_24 
REMARK   16  A    between atoms: O_26  and  C_15 
REMARK   17  A    between atoms: O_27  and  C_16 
REMARK   18  A    between atoms: O_29  and  C_17 
ROOT
HETATM    1  C   UNK N   1      24.794  17.455   4.281  0.00  0.00     0.167 C 
ENDROOT
BRANCH   1   2
HETATM    2  C   UNK N   1      25.093  16.323   3.316  0.00  0.00     0.107 C 
BRANCH   2   3
HETATM    3  S   UNK N   1      25.164  14.638   3.994  0.00  0.00    -0.162 SA
BRANCH   3   4
HETATM    4  C   UNK N   1      23.638  14.266   3.061  0.00  0.00     0.112 C 
BRANCH   4   5
HETATM    5  C   UNK N   1      22.447  14.715   3.841  0.00  0.00    -0.049 A 
HETATM    6  C   UNK N   1      21.297  15.158   3.187  0.00  0.00     0.010 A 
HETATM    7  C   UNK N   1      20.173  15.527   3.935  0.00  0.00     0.036 A 
HETATM    8  C   UNK N   1      20.192  15.437   5.340  0.00  0.00     0.102 A 
HETATM    9  C   UNK N   1      21.357  15.010   5.983  0.00  0.00     0.036 A 
HETATM   10  C   UNK N   1      22.472  14.667   5.239  0.00  0.00     0.010 A 
BRANCH   8  11
HETATM   11  N   UNK N   1      19.044  15.759   6.111  0.00  0.00    -0.116 N 
HETATM   12  O   UNK N   1      19.128  15.884   7.294  0.00  0.00    -0.532 OA
HETATM   13  O   UNK N   1      17.980  15.879   5.579  0.00  0.00    -0.532 OA
ENDBRANCH   8  11
ENDBRANCH   4   5
ENDBRANCH   3   4
ENDBRANCH   2   3
ENDBRANCH   1   2
BRANCH   1  14
HETATM   14  C   UNK N   1      25.840  18.513   4.583  0.00  0.00     0.136 C 
HETATM   15  N   UNK N   1      26.290  18.559   5.789  0.00  0.00    -0.363 N 
ATOM     16  HN  UNK N   1      25.863  17.920   6.458  1.00  0.00     0.161 HD
BRANCH  15  17
HETATM   17  C   UNK N   1      27.329  19.416   6.293  0.00  0.00     0.231 C 
BRANCH  17  18
HETATM   18  C   UNK N   1      26.711  20.744   6.664  0.00  0.00     0.158 C 
HETATM   19  O   UNK N   1      26.720  21.679   5.875  0.00  0.00    -0.649 OA
BRANCH  18  20
HETATM   20  O   UNK N   1      26.129  20.902   7.865  0.00  0.00    -0.775 OA
HETATM   21  H   UNK N   1      26.655  21.058   8.625  0.00  0.00     0.167 HD
ENDBRANCH  18  20
ENDBRANCH  17  18
ENDBRANCH  15  17
BRANCH  14  22
HETATM   22  O   UNK N   1      26.331  19.331   3.627  0.00  0.00    -0.348 OA
HETATM   23  H   UNK N   1      26.045  19.303   2.736  0.00  0.00     0.219 HD
ENDBRANCH  14  22
ENDBRANCH   1  14
BRANCH   1  24
HETATM   24  N   UNK N   1      23.518  18.049   3.948  0.00  0.00    -0.362 N 
HETATM   25  C   UNK N   1      22.664  18.364   4.856  0.00  0.00     0.111 C 
ATOM     26  HN  UNK N   1      23.290  18.222   2.969  1.00  0.00     0.162 HD
BRANCH  25  27
HETATM   27  C   UNK N   1      21.323  18.868   4.476  0.00  0.00     0.086 C 
BRANCH  27  28
HETATM   28  C   UNK N   1      21.602  19.805   3.318  0.00  0.00     0.043 C 
BRANCH  28  29
HETATM   29  C   UNK N   1      20.385  20.223   2.493  0.00  0.00     0.173 C 
BRANCH  29  30
HETATM   30  C   UNK N   1      20.620  20.659   1.058  0.00  0.00     0.163 C 
HETATM   31  O   UNK N   1      20.791  21.843   0.819  0.00  0.00    -0.648 OA
BRANCH  30  32
HETATM   32  O   UNK N   1      20.634  19.781   0.037  0.00  0.00    -0.775 OA
HETATM   33  H   UNK N   1      20.287  19.987  -0.808  0.00  0.00     0.167 HD
ENDBRANCH  30  32
ENDBRANCH  29  30
BRANCH  29  34
HETATM   34  N   UNK N   1      19.422  19.138   2.515  0.00  0.00    -0.418 N 
HETATM   35  H   UNK N   1      18.403  19.107   2.480  0.00  0.00     0.150 HD
HETATM   36  H   UNK N   1      19.853  18.216   2.579  0.00  0.00     0.150 HD
ENDBRANCH  29  34
ENDBRANCH  28  29
ENDBRANCH  27  28
ENDBRANCH  25  27
BRANCH  25  37
HETATM   37  O   UNK N   1      22.937  18.143   6.162  0.00  0.00    -0.350 OA
HETATM   38  H   UNK N   1      22.673  17.537   6.825  0.00  0.00     0.219 HD
ENDBRANCH  25  37
ENDBRANCH   1  24
TORSDOF 18
ENDMDL
