MODEL 1
REMARK VINA RESULT:      -4.8      0.000      0.000
REMARK  6 active torsions:
REMARK  status: ('A' for Active; 'I' for Inactive)
REMARK    1  A    between atoms: S_1  and  C_2 
REMARK    2  A    between atoms: C_2  and  C_3 
REMARK    3  A    between atoms: C_3  and  C_4 
REMARK    4  A    between atoms: C_4  and  N_5 
REMARK    5  A    between atoms: C_4  and  C_6 
REMARK    6  A    between atoms: C_6  and  O_7 
ROOT
HETATM    1  C   UNK N   1      22.838  11.567  10.629  0.00  0.00     0.174 C 
ENDROOT
BRANCH   1   2
HETATM    2  C   UNK N   1      21.608  12.456  10.446  0.00  0.00     0.050 C 
BRANCH   2   3
HETATM    3  C   UNK N   1      21.996  13.783   9.814  0.00  0.00     0.142 C 
BRANCH   3   4
HETATM    4  S   UNK N   1      20.592  14.593   8.997  0.00  0.00     0.140 S 
HETATM    5  O   UNK N   1      20.243  13.807   7.724  0.00  0.00    -0.228 OA
HETATM    6  O   UNK N   1      19.377  14.162   9.832  0.00  0.00    -0.228 OA
HETATM    7  C   UNK N   1      20.332  16.358   8.668  0.00  0.00     0.161 C 
ENDBRANCH   3   4
ENDBRANCH   2   3
ENDBRANCH   1   2
BRANCH   1   8
HETATM    8  N   UNK N   1      23.628  11.590   9.409  0.00  0.00    -0.418 N 
HETATM    9  H   UNK N   1      24.306  10.858   9.202  0.00  0.00     0.150 HD
HETATM   10  H   UNK N   1      23.500  12.355   8.746  0.00  0.00     0.150 HD
ENDBRANCH   1   8
BRANCH   1  11
HETATM   11  C   UNK N   1      23.681  11.971  11.813  0.00  0.00     0.163 C 
HETATM   12  O   UNK N   1      23.209  11.939  12.940  0.00  0.00    -0.648 OA
BRANCH  11  13
HETATM   13  O   UNK N   1      24.968  12.333  11.648  0.00  0.00    -0.775 OA
HETATM   14  H   UNK N   1      25.262  13.111  11.216  0.00  0.00     0.167 HD
ENDBRANCH  11  13
ENDBRANCH   1  11
TORSDOF 6
ENDMDL
MODEL 2
REMARK VINA RESULT:      -4.7     12.719     13.918
REMARK  6 active torsions:
REMARK  status: ('A' for Active; 'I' for Inactive)
REMARK    1  A    between atoms: S_1  and  C_2 
REMARK    2  A    between atoms: C_2  and  C_3 
REMARK    3  A    between atoms: C_3  and  C_4 
REMARK    4  A    between atoms: C_4  and  N_5 
REMARK    5  A    between atoms: C_4  and  C_6 
REMARK    6  A    between atoms: C_6  and  O_7 
ROOT
HETATM    1  C   UNK N   1      34.329  17.128   9.119  0.00  0.00     0.174 C 
ENDROOT
BRANCH   1   2
HETATM    2  C   UNK N   1      34.654  15.745   8.555  0.00  0.00     0.050 C 
BRANCH   2   3
HETATM    3  C   UNK N   1      33.861  14.671   9.282  0.00  0.00     0.142 C 
BRANCH   3   4
HETATM    4  S   UNK N   1      34.845  13.835  10.558  0.00  0.00     0.140 S 
HETATM    5  O   UNK N   1      36.276  14.392  10.519  0.00  0.00    -0.228 OA
HETATM    6  O   UNK N   1      34.408  14.511  11.867  0.00  0.00    -0.228 OA
HETATM    7  C   UNK N   1      34.930  12.066  10.951  0.00  0.00     0.161 C 
ENDBRANCH   3   4
ENDBRANCH   2   3
ENDBRANCH   1   2
BRANCH   1   8
HETATM    8  N   UNK N   1      35.009  17.295  10.393  0.00  0.00    -0.418 N 
HETATM    9  H   UNK N   1      34.607  16.943  11.260  0.00  0.00     0.150 HD
HETATM   10  H   UNK N   1      35.909  17.776  10.418  0.00  0.00     0.150 HD
ENDBRANCH   1   8
BRANCH   1  11
HETATM   11  C   UNK N   1      34.692  18.246   8.173  0.00  0.00     0.163 C 
HETATM   12  O   UNK N   1      35.294  19.226   8.587  0.00  0.00    -0.648 OA
BRANCH  11  13
HETATM   13  O   UNK N   1      34.391  18.162   6.863  0.00  0.00    -0.775 OA
HETATM   14  H   UNK N   1      34.996  18.289   6.158  0.00  0.00     0.167 HD
ENDBRANCH  11  13
ENDBRANCH   1  11
TORSDOF 6
ENDMDL
MODEL 3
REMARK VINA RESULT:      -4.6     10.345     11.194
REMARK  6 active torsions:
REMARK  status: ('A' for Active; 'I' for Inactive)
REMARK    1  A    between atoms: S_1  and  C_2 
REMARK    2  A    between atoms: C_2  and  C_3 
REMARK    3  A    between atoms: C_3  and  C_4 
REMARK    4  A    between atoms: C_4  and  N_5 
REMARK    5  A    between atoms: C_4  and  C_6 
REMARK    6  A    between atoms: C_6  and  O_7 
ROOT
HETATM    1  C   UNK N   1      33.055  17.812   8.726  0.00  0.00     0.174 C 
ENDROOT
BRANCH   1   2
HETATM    2  C   UNK N   1      31.777  17.586   7.919  0.00  0.00     0.050 C 
BRANCH   2   3
HETATM    3  C   UNK N   1      30.726  16.887   8.767  0.00  0.00     0.142 C 
BRANCH   3   4
HETATM    4  S   UNK N   1      29.255  17.918   9.026  0.00  0.00     0.140 S 
HETATM    5  O   UNK N   1      28.213  17.102   9.805  0.00  0.00    -0.228 OA
HETATM    6  O   UNK N   1      29.658  18.862  10.169  0.00  0.00    -0.228 OA
HETATM    7  C   UNK N   1      28.382  18.971   7.835  0.00  0.00     0.161 C 
ENDBRANCH   3   4
ENDBRANCH   2   3
ENDBRANCH   1   2
BRANCH   1   8
HETATM    8  N   UNK N   1      33.424  16.574   9.393  0.00  0.00    -0.418 N 
HETATM    9  H   UNK N   1      34.275  16.502   9.949  0.00  0.00     0.150 HD
HETATM   10  H   UNK N   1      32.817  15.759   9.303  0.00  0.00     0.150 HD
ENDBRANCH   1   8
BRANCH   1  11
HETATM   11  C   UNK N   1      34.199  18.320   7.883  0.00  0.00     0.163 C 
HETATM   12  O   UNK N   1      35.015  19.093   8.361  0.00  0.00    -0.648 OA
BRANCH  11  13
HETATM   13  O   UNK N   1      34.353  17.900   6.612  0.00  0.00    -0.775 OA
HETATM   14  H   UNK N   1      33.981  17.120   6.249  0.00  0.00     0.167 HD
ENDBRANCH  11  13
ENDBRANCH   1  11
TORSDOF 6
ENDMDL
MODEL 4
REMARK VINA RESULT:      -4.6     11.449     12.533
REMARK  6 active torsions:
REMARK  status: ('A' for Active; 'I' for Inactive)
REMARK    1  A    between atoms: S_1  and  C_2 
REMARK    2  A    between atoms: C_2  and  C_3 
REMARK    3  A    between atoms: C_3  and  C_4 
REMARK    4  A    between atoms: C_4  and  N_5 
REMARK    5  A    between atoms: C_4  and  C_6 
REMARK    6  A    between atoms: C_6  and  O_7 
ROOT
HETATM    1  C   UNK N   1      34.015  17.250   9.070  0.00  0.00     0.174 C 
ENDROOT
BRANCH   1   2
HETATM    2  C   UNK N   1      33.856  15.857   8.461  0.00  0.00     0.050 C 
BRANCH   2   3
HETATM    3  C   UNK N   1      32.384  15.508   8.304  0.00  0.00     0.142 C 
BRANCH   3   4
HETATM    4  S   UNK N   1      31.799  15.744   6.602  0.00  0.00     0.140 S 
HETATM    5  O   UNK N   1      31.545  17.241   6.373  0.00  0.00    -0.228 OA
HETATM    6  O   UNK N   1      33.073  15.629   5.751  0.00  0.00    -0.228 OA
HETATM    7  C   UNK N   1      30.542  14.804   5.692  0.00  0.00     0.161 C 
ENDBRANCH   3   4
ENDBRANCH   2   3
ENDBRANCH   1   2
BRANCH   1   8
HETATM    8  N   UNK N   1      34.839  17.157  10.264  0.00  0.00    -0.418 N 
HETATM    9  H   UNK N   1      35.565  17.844  10.465  0.00  0.00     0.150 HD
HETATM   10  H   UNK N   1      34.687  16.387  10.916  0.00  0.00     0.150 HD
ENDBRANCH   1   8
BRANCH   1  11
HETATM   11  C   UNK N   1      34.598  18.250   8.102  0.00  0.00     0.163 C 
HETATM   12  O   UNK N   1      35.258  19.191   8.517  0.00  0.00    -0.648 OA
BRANCH  11  13
HETATM   13  O   UNK N   1      34.430  18.097   6.774  0.00  0.00    -0.775 OA
HETATM   14  H   UNK N   1      33.899  17.441   6.366  0.00  0.00     0.167 HD
ENDBRANCH  11  13
ENDBRANCH   1  11
TORSDOF 6
ENDMDL
MODEL 5
REMARK VINA RESULT:      -4.6      7.303     10.097
REMARK  6 active torsions:
REMARK  status: ('A' for Active; 'I' for Inactive)
REMARK    1  A    between atoms: S_1  and  C_2 
REMARK    2  A    between atoms: C_2  and  C_3 
REMARK    3  A    between atoms: C_3  and  C_4 
REMARK    4  A    between atoms: C_4  and  N_5 
REMARK    5  A    between atoms: C_4  and  C_6 
REMARK    6  A    between atoms: C_6  and  O_7 
ROOT
HETATM    1  C   UNK N   1      20.445  19.178   2.142  0.00  0.00     0.174 C 
ENDROOT
BRANCH   1   2
HETATM    2  C   UNK N   1      21.085  19.152   3.529  0.00  0.00     0.050 C 
BRANCH   2   3
HETATM    3  C   UNK N   1      20.694  17.886   4.275  0.00  0.00     0.142 C 
BRANCH   3   4
HETATM    4  S   UNK N   1      21.641  17.672   5.809  0.00  0.00     0.140 S 
HETATM    5  O   UNK N   1      23.042  18.271   5.610  0.00  0.00    -0.228 OA
HETATM    6  O   UNK N   1      21.093  18.763   6.741  0.00  0.00    -0.228 OA
HETATM    7  C   UNK N   1      21.793  16.197   6.854  0.00  0.00     0.161 C 
ENDBRANCH   3   4
ENDBRANCH   2   3
ENDBRANCH   1   2
BRANCH   1   8
HETATM    8  N   UNK N   1      18.999  19.115   2.283  0.00  0.00    -0.418 N 
HETATM    9  H   UNK N   1      18.548  19.220   3.191  0.00  0.00     0.150 HD
HETATM   10  H   UNK N   1      18.423  18.961   1.455  0.00  0.00     0.150 HD
ENDBRANCH   1   8
BRANCH   1  11
HETATM   11  C   UNK N   1      20.845  20.388   1.334  0.00  0.00     0.163 C 
HETATM   12  O   UNK N   1      21.447  21.308   1.867  0.00  0.00    -0.648 OA
BRANCH  11  13
HETATM   13  O   UNK N   1      20.578  20.451   0.015  0.00  0.00    -0.775 OA
HETATM   14  H   UNK N   1      20.454  21.240  -0.476  0.00  0.00     0.167 HD
ENDBRANCH  11  13
ENDBRANCH   1  11
TORSDOF 6
ENDMDL
MODEL 6
REMARK VINA RESULT:      -4.3     13.746     14.733
REMARK  6 active torsions:
REMARK  status: ('A' for Active; 'I' for Inactive)
REMARK    1  A    between atoms: S_1  and  C_2 
REMARK    2  A    between atoms: C_2  and  C_3 
REMARK    3  A    between atoms: C_3  and  C_4 
REMARK    4  A    between atoms: C_4  and  N_5 
REMARK    5  A    between atoms: C_4  and  C_6 
REMARK    6  A    between atoms: C_6  and  O_7 
ROOT
HETATM    1  C   UNK N   1      34.773  15.244  10.062  0.00  0.00     0.174 C 
ENDROOT
BRANCH   1   2
HETATM    2  C   UNK N   1      35.480  13.959   9.632  0.00  0.00     0.050 C 
BRANCH   2   3
HETATM    3  C   UNK N   1      35.277  12.865  10.669  0.00  0.00     0.142 C 
BRANCH   3   4
HETATM    4  S   UNK N   1      36.708  12.689  11.771  0.00  0.00     0.140 S 
HETATM    5  O   UNK N   1      37.947  13.259  11.065  0.00  0.00    -0.228 OA
HETATM    6  O   UNK N   1      36.530  13.819  12.797  0.00  0.00    -0.228 OA
HETATM    7  C   UNK N   1      37.220  11.248  12.747  0.00  0.00     0.161 C 
ENDBRANCH   3   4
ENDBRANCH   2   3
ENDBRANCH   1   2
BRANCH   1   8
HETATM    8  N   UNK N   1      33.893  14.952  11.182  0.00  0.00    -0.418 N 
HETATM    9  H   UNK N   1      32.975  15.388  11.265  0.00  0.00     0.150 HD
HETATM   10  H   UNK N   1      34.201  14.297  11.901  0.00  0.00     0.150 HD
ENDBRANCH   1   8
BRANCH   1  11
HETATM   11  C   UNK N   1      35.734  16.351  10.418  0.00  0.00     0.163 C 
HETATM   12  O   UNK N   1      35.396  17.519  10.294  0.00  0.00    -0.648 OA
BRANCH  11  13
HETATM   13  O   UNK N   1      36.956  16.067  10.910  0.00  0.00    -0.775 OA
HETATM   14  H   UNK N   1      37.537  16.685  11.308  0.00  0.00     0.167 HD
ENDBRANCH  11  13
ENDBRANCH   1  11
TORSDOF 6
ENDMDL
MODEL 7
REMARK VINA RESULT:      -4.2      7.735     10.094
REMARK  6 active torsions:
REMARK  status: ('A' for Active; 'I' for Inactive)
REMARK    1  A    between atoms: S_1  and  C_2 
REMARK    2  A    between atoms: C_2  and  C_3 
REMARK    3  A    between atoms: C_3  and  C_4 
REMARK    4  A    between atoms: C_4  and  N_5 
REMARK    5  A    between atoms: C_4  and  C_6 
REMARK    6  A    between atoms: C_6  and  O_7 
ROOT
HETATM    1  C   UNK N   1      20.299  18.869   1.987  0.00  0.00     0.174 C 
ENDROOT
BRANCH   1   2
HETATM    2  C   UNK N   1      20.990  18.545   3.311  0.00  0.00     0.050 C 
BRANCH   2   3
HETATM    3  C   UNK N   1      21.529  17.123   3.298  0.00  0.00     0.142 C 
BRANCH   3   4
HETATM    4  S   UNK N   1      20.313  15.922   3.909  0.00  0.00     0.140 S 
HETATM    5  O   UNK N   1      20.752  15.441   5.300  0.00  0.00    -0.228 OA
HETATM    6  O   UNK N   1      19.130  16.789   4.366  0.00  0.00    -0.228 OA
HETATM    7  C   UNK N   1      19.557  14.524   3.033  0.00  0.00     0.161 C 
ENDBRANCH   3   4
ENDBRANCH   2   3
ENDBRANCH   1   2
BRANCH   1   8
HETATM    8  N   UNK N   1      18.863  18.936   2.203  0.00  0.00    -0.418 N 
HETATM    9  H   UNK N   1      18.315  19.739   1.894  0.00  0.00     0.150 HD
HETATM   10  H   UNK N   1      18.392  18.162   2.673  0.00  0.00     0.150 HD
ENDBRANCH   1   8
BRANCH   1  11
HETATM   11  C   UNK N   1      20.800  20.148   1.362  0.00  0.00     0.163 C 
HETATM   12  O   UNK N   1      21.445  20.943   2.029  0.00  0.00    -0.648 OA
BRANCH  11  13
HETATM   13  O   UNK N   1      20.576  20.409   0.059  0.00  0.00    -0.775 OA
HETATM   14  H   UNK N   1      21.219  20.365  -0.621  0.00  0.00     0.167 HD
ENDBRANCH  11  13
ENDBRANCH   1  11
TORSDOF 6
ENDMDL
MODEL 8
REMARK VINA RESULT:      -4.2     10.002     11.345
REMARK  6 active torsions:
REMARK  status: ('A' for Active; 'I' for Inactive)
REMARK    1  A    between atoms: S_1  and  C_2 
REMARK    2  A    between atoms: C_2  and  C_3 
REMARK    3  A    between atoms: C_3  and  C_4 
REMARK    4  A    between atoms: C_4  and  N_5 
REMARK    5  A    between atoms: C_4  and  C_6 
REMARK    6  A    between atoms: C_6  and  O_7 
ROOT
HETATM    1  C   UNK N   1      29.760  17.444   9.193  0.00  0.00     0.174 C 
ENDROOT
BRANCH   1   2
HETATM    2  C   UNK N   1      30.815  17.317   8.094  0.00  0.00     0.050 C 
BRANCH   2   3
HETATM    3  C   UNK N   1      32.032  18.169   8.422  0.00  0.00     0.142 C 
BRANCH   3   4
HETATM    4  S   UNK N   1      33.589  17.290   8.110  0.00  0.00     0.140 S 
HETATM    5  O   UNK N   1      34.461  18.147   7.180  0.00  0.00    -0.228 OA
HETATM    6  O   UNK N   1      34.403  17.505   9.395  0.00  0.00    -0.228 OA
HETATM    7  C   UNK N   1      33.843  15.545   7.683  0.00  0.00     0.161 C 
ENDBRANCH   3   4
ENDBRANCH   2   3
ENDBRANCH   1   2
BRANCH   1   8
HETATM    8  N   UNK N   1      30.049  18.619   9.998  0.00  0.00    -0.418 N 
HETATM    9  H   UNK N   1      30.767  19.288   9.724  0.00  0.00     0.150 HD
HETATM   10  H   UNK N   1      29.521  18.778  10.857  0.00  0.00     0.150 HD
ENDBRANCH   1   8
BRANCH   1  11
HETATM   11  C   UNK N   1      28.354  17.508   8.649  0.00  0.00     0.163 C 
HETATM   12  O   UNK N   1      28.075  16.940   7.604  0.00  0.00    -0.648 OA
BRANCH  11  13
HETATM   13  O   UNK N   1      27.385  18.156   9.325  0.00  0.00    -0.775 OA
HETATM   14  H   UNK N   1      26.923  18.912   9.019  0.00  0.00     0.167 HD
ENDBRANCH  11  13
ENDBRANCH   1  11
TORSDOF 6
ENDMDL
MODEL 9
REMARK VINA RESULT:      -4.1      9.144     10.058
REMARK  6 active torsions:
REMARK  status: ('A' for Active; 'I' for Inactive)
REMARK    1  A    between atoms: S_1  and  C_2 
REMARK    2  A    between atoms: C_2  and  C_3 
REMARK    3  A    between atoms: C_3  and  C_4 
REMARK    4  A    between atoms: C_4  and  N_5 
REMARK    5  A    between atoms: C_4  and  C_6 
REMARK    6  A    between atoms: C_6  and  O_7 
ROOT
HETATM    1  C   UNK N   1      20.428  18.871   2.512  0.00  0.00     0.174 C 
ENDROOT
BRANCH   1   2
HETATM    2  C   UNK N   1      21.086  17.565   2.954  0.00  0.00     0.050 C 
BRANCH   2   3
HETATM    3  C   UNK N   1      20.119  16.401   2.804  0.00  0.00     0.142 C 
BRANCH   3   4
HETATM    4  S   UNK N   1      20.442  15.429   1.306  0.00  0.00     0.140 S 
HETATM    5  O   UNK N   1      19.165  14.660   0.934  0.00  0.00    -0.228 OA
HETATM    6  O   UNK N   1      20.384  16.463   0.171  0.00  0.00    -0.228 OA
HETATM    7  C   UNK N   1      21.873  14.385   0.914  0.00  0.00     0.161 C 
ENDBRANCH   3   4
ENDBRANCH   2   3
ENDBRANCH   1   2
BRANCH   1   8
HETATM    8  N   UNK N   1      19.001  18.651   2.337  0.00  0.00    -0.418 N 
HETATM    9  H   UNK N   1      18.401  19.360   1.918  0.00  0.00     0.150 HD
HETATM   10  H   UNK N   1      18.592  17.767   2.641  0.00  0.00     0.150 HD
ENDBRANCH   1   8
BRANCH   1  11
HETATM   11  C   UNK N   1      20.674  20.007   3.474  0.00  0.00     0.163 C 
HETATM   12  O   UNK N   1      20.796  19.782   4.669  0.00  0.00    -0.648 OA
BRANCH  11  13
HETATM   13  O   UNK N   1      20.799  21.272   3.025  0.00  0.00    -0.775 OA
HETATM   14  H   UNK N   1      20.187  21.713   2.469  0.00  0.00     0.167 HD
ENDBRANCH  11  13
ENDBRANCH   1  11
TORSDOF 6
ENDMDL
