MODEL 1
REMARK VINA RESULT:      -5.0      0.000      0.000
REMARK  15 active torsions:
REMARK  status: ('A' for Active; 'I' for Inactive)
REMARK    1  A    between atoms: C_2  and  C_3 
REMARK    2  A    between atoms: C_3  and  C_4 
REMARK    3  A    between atoms: C_4  and  C_5 
REMARK    4  A    between atoms: C_5  and  C_6 
REMARK    5  A    between atoms: C_6  and  C_7 
REMARK    6  A    between atoms: C_7  and  C_8 
REMARK    7  A    between atoms: C_8  and  C_9 
REMARK    8  A    between atoms: C_10  and  C_11 
REMARK    9  A    between atoms: C_11  and  C_12 
REMARK   10  A    between atoms: C_12  and  C_13 
REMARK   11  A    between atoms: C_13  and  C_14 
REMARK   12  A    between atoms: C_14  and  C_15 
REMARK   13  A    between atoms: C_15  and  C_16 
REMARK   14  A    between atoms: C_16  and  C_17 
REMARK   15  A    between atoms: C_17  and  C_18 
REMARK       I    between atoms: C_18  and  N_19 
ROOT
HETATM    1  C   UNK N   1      27.204  24.292  -3.329  0.00  0.00     0.027 C 
ENDROOT
BRANCH   1   2
HETATM    2  C   UNK N   1      28.225  23.446  -2.656  0.00  0.00    -0.031 C 
HETATM    3  C   UNK N   1      29.497  23.577  -3.002  0.00  0.00    -0.031 C 
BRANCH   3   4
HETATM    4  C   UNK N   1      30.562  22.760  -2.365  0.00  0.00     0.027 C 
BRANCH   4   5
HETATM    5  C   UNK N   1      31.303  22.092  -3.497  0.00  0.00     0.004 C 
BRANCH   5   6
HETATM    6  C   UNK N   1      30.704  20.759  -3.878  0.00  0.00     0.000 C 
BRANCH   6   7
HETATM    7  C   UNK N   1      30.747  20.713  -5.388  0.00  0.00     0.000 C 
BRANCH   7   8
HETATM    8  C   UNK N   1      29.646  21.532  -6.017  0.00  0.00     0.000 C 
BRANCH   8   9
HETATM    9  C   UNK N   1      29.379  20.939  -7.383  0.00  0.00    -0.000 C 
BRANCH   9  10
HETATM   10  C   UNK N   1      29.512  19.435  -7.347  0.00  0.00    -0.005 C 
HETATM   11  C   UNK N   1      30.103  18.966  -8.660  0.00  0.00     0.005 C 
ENDBRANCH   9  10
ENDBRANCH   8   9
ENDBRANCH   7   8
ENDBRANCH   6   7
ENDBRANCH   5   6
ENDBRANCH   4   5
ENDBRANCH   3   4
ENDBRANCH   1   2
BRANCH   1  12
HETATM   12  C   UNK N   1      27.530  24.359  -4.797  0.00  0.00     0.004 C 
BRANCH  12  13
HETATM   13  C   UNK N   1      26.376  23.842  -5.626  0.00  0.00     0.000 C 
BRANCH  13  14
HETATM   14  C   UNK N   1      25.294  24.889  -5.544  0.00  0.00     0.000 C 
BRANCH  14  15
HETATM   15  C   UNK N   1      25.663  26.153  -6.283  0.00  0.00     0.000 C 
BRANCH  15  16
HETATM   16  C   UNK N   1      25.079  27.286  -5.473  0.00  0.00     0.009 C 
BRANCH  16  17
HETATM   17  C   UNK N   1      26.136  28.292  -5.060  0.00  0.00     0.102 C 
BRANCH  17  18
HETATM   18  C   UNK N   1      26.106  28.535  -3.577  0.00  0.00     0.215 C 
HETATM   19  N   UNK N   1      25.774  27.526  -2.749  0.00  0.00    -0.370 N 
HETATM   20  H   UNK N   1      25.751  27.674  -1.777  0.00  0.00     0.159 HD
HETATM   21  H   UNK N   1      25.554  26.639  -3.118  0.00  0.00     0.159 HD
HETATM   22  O   UNK N   1      26.377  29.631  -3.112  0.00  0.00    -0.274 OA
ENDBRANCH  17  18
ENDBRANCH  16  17
ENDBRANCH  15  16
ENDBRANCH  14  15
ENDBRANCH  13  14
ENDBRANCH  12  13
ENDBRANCH   1  12
TORSDOF 15
ENDMDL
MODEL 2
REMARK VINA RESULT:      -4.9      3.350      7.081
REMARK  15 active torsions:
REMARK  status: ('A' for Active; 'I' for Inactive)
REMARK    1  A    between atoms: C_2  and  C_3 
REMARK    2  A    between atoms: C_3  and  C_4 
REMARK    3  A    between atoms: C_4  and  C_5 
REMARK    4  A    between atoms: C_5  and  C_6 
REMARK    5  A    between atoms: C_6  and  C_7 
REMARK    6  A    between atoms: C_7  and  C_8 
REMARK    7  A    between atoms: C_8  and  C_9 
REMARK    8  A    between atoms: C_10  and  C_11 
REMARK    9  A    between atoms: C_11  and  C_12 
REMARK   10  A    between atoms: C_12  and  C_13 
REMARK   11  A    between atoms: C_13  and  C_14 
REMARK   12  A    between atoms: C_14  and  C_15 
REMARK   13  A    between atoms: C_15  and  C_16 
REMARK   14  A    between atoms: C_16  and  C_17 
REMARK   15  A    between atoms: C_17  and  C_18 
REMARK       I    between atoms: C_18  and  N_19 
ROOT
HETATM    1  C   UNK N   1      26.425  22.764  -7.080  0.00  0.00     0.027 C 
ENDROOT
BRANCH   1   2
HETATM    2  C   UNK N   1      25.799  24.110  -6.996  0.00  0.00    -0.031 C 
HETATM    3  C   UNK N   1      26.528  25.177  -7.286  0.00  0.00    -0.031 C 
BRANCH   3   4
HETATM    4  C   UNK N   1      25.958  26.548  -7.220  0.00  0.00     0.027 C 
BRANCH   4   5
HETATM    5  C   UNK N   1      26.911  27.352  -6.371  0.00  0.00     0.004 C 
BRANCH   5   6
HETATM    6  C   UNK N   1      26.203  28.184  -5.330  0.00  0.00     0.000 C 
BRANCH   6   7
HETATM    7  C   UNK N   1      25.724  27.204  -4.284  0.00  0.00     0.000 C 
BRANCH   7   8
HETATM    8  C   UNK N   1      26.867  26.487  -3.607  0.00  0.00     0.000 C 
BRANCH   8   9
HETATM    9  C   UNK N   1      26.507  25.017  -3.571  0.00  0.00    -0.000 C 
BRANCH   9  10
HETATM   10  C   UNK N   1      27.750  24.163  -3.641  0.00  0.00    -0.005 C 
HETATM   11  C   UNK N   1      28.856  24.964  -4.295  0.00  0.00     0.005 C 
ENDBRANCH   9  10
ENDBRANCH   8   9
ENDBRANCH   7   8
ENDBRANCH   6   7
ENDBRANCH   5   6
ENDBRANCH   4   5
ENDBRANCH   3   4
ENDBRANCH   1   2
BRANCH   1  12
HETATM   12  C   UNK N   1      27.868  22.931  -7.474  0.00  0.00     0.004 C 
BRANCH  12  13
HETATM   13  C   UNK N   1      28.754  22.009  -6.667  0.00  0.00     0.000 C 
BRANCH  13  14
HETATM   14  C   UNK N   1      30.173  22.433  -6.949  0.00  0.00     0.000 C 
BRANCH  14  15
HETATM   15  C   UNK N   1      31.099  22.142  -5.793  0.00  0.00     0.000 C 
BRANCH  15  16
HETATM   16  C   UNK N   1      30.219  21.605  -4.689  0.00  0.00     0.009 C 
BRANCH  16  17
HETATM   17  C   UNK N   1      30.979  20.679  -3.757  0.00  0.00     0.102 C 
BRANCH  17  18
HETATM   18  C   UNK N   1      31.854  21.455  -2.814  0.00  0.00     0.215 C 
HETATM   19  N   UNK N   1      33.123  21.055  -2.609  0.00  0.00    -0.370 N 
HETATM   20  H   UNK N   1      33.705  21.556  -1.993  0.00  0.00     0.159 HD
HETATM   21  H   UNK N   1      33.470  20.260  -3.076  0.00  0.00     0.159 HD
HETATM   22  O   UNK N   1      31.433  22.442  -2.231  0.00  0.00    -0.274 OA
ENDBRANCH  17  18
ENDBRANCH  16  17
ENDBRANCH  15  16
ENDBRANCH  14  15
ENDBRANCH  13  14
ENDBRANCH  12  13
ENDBRANCH   1  12
TORSDOF 15
ENDMDL
MODEL 3
REMARK VINA RESULT:      -4.8      3.693      6.514
REMARK  15 active torsions:
REMARK  status: ('A' for Active; 'I' for Inactive)
REMARK    1  A    between atoms: C_2  and  C_3 
REMARK    2  A    between atoms: C_3  and  C_4 
REMARK    3  A    between atoms: C_4  and  C_5 
REMARK    4  A    between atoms: C_5  and  C_6 
REMARK    5  A    between atoms: C_6  and  C_7 
REMARK    6  A    between atoms: C_7  and  C_8 
REMARK    7  A    between atoms: C_8  and  C_9 
REMARK    8  A    between atoms: C_10  and  C_11 
REMARK    9  A    between atoms: C_11  and  C_12 
REMARK   10  A    between atoms: C_12  and  C_13 
REMARK   11  A    between atoms: C_13  and  C_14 
REMARK   12  A    between atoms: C_14  and  C_15 
REMARK   13  A    between atoms: C_15  and  C_16 
REMARK   14  A    between atoms: C_16  and  C_17 
REMARK   15  A    between atoms: C_17  and  C_18 
REMARK       I    between atoms: C_18  and  N_19 
ROOT
HETATM    1  C   UNK N   1      26.709  24.657  -3.584  0.00  0.00     0.027 C 
ENDROOT
BRANCH   1   2
HETATM    2  C   UNK N   1      26.312  26.003  -4.076  0.00  0.00    -0.031 C 
HETATM    3  C   UNK N   1      26.266  27.012  -3.219  0.00  0.00    -0.031 C 
BRANCH   3   4
HETATM    4  C   UNK N   1      25.876  28.380  -3.650  0.00  0.00     0.027 C 
BRANCH   4   5
HETATM    5  C   UNK N   1      26.522  28.588  -4.997  0.00  0.00     0.004 C 
BRANCH   5   6
HETATM    6  C   UNK N   1      27.941  29.092  -4.891  0.00  0.00     0.000 C 
BRANCH   6   7
HETATM    7  C   UNK N   1      28.692  28.433  -6.025  0.00  0.00     0.000 C 
BRANCH   7   8
HETATM    8  C   UNK N   1      27.867  28.353  -7.287  0.00  0.00     0.000 C 
BRANCH   8   9
HETATM    9  C   UNK N   1      28.261  27.073  -7.993  0.00  0.00    -0.000 C 
BRANCH   9  10
HETATM   10  C   UNK N   1      27.087  26.499  -8.750  0.00  0.00    -0.005 C 
HETATM   11  C   UNK N   1      25.982  26.179  -7.766  0.00  0.00     0.005 C 
ENDBRANCH   9  10
ENDBRANCH   8   9
ENDBRANCH   7   8
ENDBRANCH   6   7
ENDBRANCH   5   6
ENDBRANCH   4   5
ENDBRANCH   3   4
ENDBRANCH   1   2
BRANCH   1  12
HETATM   12  C   UNK N   1      27.182  23.840  -4.757  0.00  0.00     0.004 C 
BRANCH  12  13
HETATM   13  C   UNK N   1      28.366  24.500  -5.427  0.00  0.00     0.000 C 
BRANCH  13  14
HETATM   14  C   UNK N   1      28.664  23.684  -6.658  0.00  0.00     0.000 C 
BRANCH  14  15
HETATM   15  C   UNK N   1      27.821  22.435  -6.737  0.00  0.00     0.000 C 
BRANCH  15  16
HETATM   16  C   UNK N   1      27.221  22.431  -8.123  0.00  0.00     0.009 C 
BRANCH  16  17
HETATM   17  C   UNK N   1      26.136  21.381  -8.269  0.00  0.00     0.102 C 
BRANCH  17  18
HETATM   18  C   UNK N   1      24.793  21.927  -7.876  0.00  0.00     0.215 C 
HETATM   19  N   UNK N   1      24.105  21.337  -6.880  0.00  0.00    -0.370 N 
HETATM   20  H   UNK N   1      23.224  21.687  -6.615  0.00  0.00     0.159 HD
HETATM   21  H   UNK N   1      24.483  20.554  -6.417  0.00  0.00     0.159 HD
HETATM   22  O   UNK N   1      24.316  22.897  -8.445  0.00  0.00    -0.274 OA
ENDBRANCH  17  18
ENDBRANCH  16  17
ENDBRANCH  15  16
ENDBRANCH  14  15
ENDBRANCH  13  14
ENDBRANCH  12  13
ENDBRANCH   1  12
TORSDOF 15
ENDMDL
MODEL 4
REMARK VINA RESULT:      -4.8      2.711      6.589
REMARK  15 active torsions:
REMARK  status: ('A' for Active; 'I' for Inactive)
REMARK    1  A    between atoms: C_2  and  C_3 
REMARK    2  A    between atoms: C_3  and  C_4 
REMARK    3  A    between atoms: C_4  and  C_5 
REMARK    4  A    between atoms: C_5  and  C_6 
REMARK    5  A    between atoms: C_6  and  C_7 
REMARK    6  A    between atoms: C_7  and  C_8 
REMARK    7  A    between atoms: C_8  and  C_9 
REMARK    8  A    between atoms: C_10  and  C_11 
REMARK    9  A    between atoms: C_11  and  C_12 
REMARK   10  A    between atoms: C_12  and  C_13 
REMARK   11  A    between atoms: C_13  and  C_14 
REMARK   12  A    between atoms: C_14  and  C_15 
REMARK   13  A    between atoms: C_15  and  C_16 
REMARK   14  A    between atoms: C_16  and  C_17 
REMARK   15  A    between atoms: C_17  and  C_18 
REMARK       I    between atoms: C_18  and  N_19 
ROOT
HETATM    1  C   UNK N   1      28.691  22.828  -7.057  0.00  0.00     0.027 C 
ENDROOT
BRANCH   1   2
HETATM    2  C   UNK N   1      27.544  23.345  -6.264  0.00  0.00    -0.031 C 
HETATM    3  C   UNK N   1      27.769  23.846  -5.059  0.00  0.00    -0.031 C 
BRANCH   3   4
HETATM    4  C   UNK N   1      26.664  24.377  -4.220  0.00  0.00     0.027 C 
BRANCH   4   5
HETATM    5  C   UNK N   1      25.586  24.810  -5.182  0.00  0.00     0.004 C 
BRANCH   5   6
HETATM    6  C   UNK N   1      25.301  26.291  -5.111  0.00  0.00     0.000 C 
BRANCH   6   7
HETATM    7  C   UNK N   1      25.365  26.786  -6.537  0.00  0.00     0.000 C 
BRANCH   7   8
HETATM    8  C   UNK N   1      26.780  26.838  -7.061  0.00  0.00     0.000 C 
BRANCH   8   9
HETATM    9  C   UNK N   1      26.715  26.523  -8.541  0.00  0.00    -0.000 C 
BRANCH   9  10
HETATM   10  C   UNK N   1      25.797  25.351  -8.796  0.00  0.00    -0.005 C 
HETATM   11  C   UNK N   1      25.256  25.455 -10.206  0.00  0.00     0.005 C 
ENDBRANCH   9  10
ENDBRANCH   8   9
ENDBRANCH   7   8
ENDBRANCH   6   7
ENDBRANCH   5   6
ENDBRANCH   4   5
ENDBRANCH   3   4
ENDBRANCH   1   2
BRANCH   1  12
HETATM   12  C   UNK N   1      28.501  21.349  -7.266  0.00  0.00     0.004 C 
BRANCH  12  13
HETATM   13  C   UNK N   1      29.759  20.592  -6.907  0.00  0.00     0.000 C 
BRANCH  13  14
HETATM   14  C   UNK N   1      30.440  21.392  -5.825  0.00  0.00     0.000 C 
BRANCH  14  15
HETATM   15  C   UNK N   1      31.500  20.596  -5.104  0.00  0.00     0.000 C 
BRANCH  15  16
HETATM   16  C   UNK N   1      31.303  20.887  -3.635  0.00  0.00     0.009 C 
BRANCH  16  17
HETATM   17  C   UNK N   1      30.109  21.791  -3.391  0.00  0.00     0.102 C 
BRANCH  17  18
HETATM   18  C   UNK N   1      30.508  23.024  -2.630  0.00  0.00     0.215 C 
HETATM   19  N   UNK N   1      30.905  24.119  -3.307  0.00  0.00    -0.370 N 
HETATM   20  H   UNK N   1      31.168  24.932  -2.819  0.00  0.00     0.159 HD
HETATM   21  H   UNK N   1      30.932  24.105  -4.292  0.00  0.00     0.159 HD
HETATM   22  O   UNK N   1      30.477  23.050  -1.410  0.00  0.00    -0.274 OA
ENDBRANCH  17  18
ENDBRANCH  16  17
ENDBRANCH  15  16
ENDBRANCH  14  15
ENDBRANCH  13  14
ENDBRANCH  12  13
ENDBRANCH   1  12
TORSDOF 15
ENDMDL
MODEL 5
REMARK VINA RESULT:      -4.7      2.696      6.921
REMARK  15 active torsions:
REMARK  status: ('A' for Active; 'I' for Inactive)
REMARK    1  A    between atoms: C_2  and  C_3 
REMARK    2  A    between atoms: C_3  and  C_4 
REMARK    3  A    between atoms: C_4  and  C_5 
REMARK    4  A    between atoms: C_5  and  C_6 
REMARK    5  A    between atoms: C_6  and  C_7 
REMARK    6  A    between atoms: C_7  and  C_8 
REMARK    7  A    between atoms: C_8  and  C_9 
REMARK    8  A    between atoms: C_10  and  C_11 
REMARK    9  A    between atoms: C_11  and  C_12 
REMARK   10  A    between atoms: C_12  and  C_13 
REMARK   11  A    between atoms: C_13  and  C_14 
REMARK   12  A    between atoms: C_14  and  C_15 
REMARK   13  A    between atoms: C_15  and  C_16 
REMARK   14  A    between atoms: C_16  and  C_17 
REMARK   15  A    between atoms: C_17  and  C_18 
REMARK       I    between atoms: C_18  and  N_19 
ROOT
HETATM    1  C   UNK N   1      28.170  23.485  -7.588  0.00  0.00     0.027 C 
ENDROOT
BRANCH   1   2
HETATM    2  C   UNK N   1      27.135  24.374  -6.998  0.00  0.00    -0.031 C 
HETATM    3  C   UNK N   1      26.564  24.026  -5.855  0.00  0.00    -0.031 C 
BRANCH   3   4
HETATM    4  C   UNK N   1      25.523  24.873  -5.217  0.00  0.00     0.027 C 
BRANCH   4   5
HETATM    5  C   UNK N   1      25.347  26.065  -6.124  0.00  0.00     0.004 C 
BRANCH   5   6
HETATM    6  C   UNK N   1      24.996  27.324  -5.369  0.00  0.00     0.000 C 
BRANCH   6   7
HETATM    7  C   UNK N   1      26.289  28.097  -5.246  0.00  0.00     0.000 C 
BRANCH   7   8
HETATM    8  C   UNK N   1      26.865  28.029  -3.852  0.00  0.00     0.000 C 
BRANCH   8   9
HETATM    9  C   UNK N   1      28.371  27.967  -3.998  0.00  0.00    -0.000 C 
BRANCH   9  10
HETATM   10  C   UNK N   1      28.826  26.545  -4.220  0.00  0.00    -0.005 C 
HETATM   11  C   UNK N   1      29.746  26.510  -5.422  0.00  0.00     0.005 C 
ENDBRANCH   9  10
ENDBRANCH   8   9
ENDBRANCH   7   8
ENDBRANCH   6   7
ENDBRANCH   5   6
ENDBRANCH   4   5
ENDBRANCH   3   4
ENDBRANCH   1   2
BRANCH   1  12
HETATM   12  C   UNK N   1      27.898  22.073  -7.145  0.00  0.00     0.004 C 
BRANCH  12  13
HETATM   13  C   UNK N   1      29.175  21.264  -7.118  0.00  0.00     0.000 C 
BRANCH  13  14
HETATM   14  C   UNK N   1      29.955  21.745  -5.920  0.00  0.00     0.000 C 
BRANCH  14  15
HETATM   15  C   UNK N   1      30.854  20.674  -5.354  0.00  0.00     0.000 C 
BRANCH  15  16
HETATM   16  C   UNK N   1      30.887  20.912  -3.863  0.00  0.00     0.009 C 
BRANCH  16  17
HETATM   17  C   UNK N   1      29.877  21.960  -3.433  0.00  0.00     0.102 C 
BRANCH  17  18
HETATM   18  C   UNK N   1      30.522  23.024  -2.590  0.00  0.00     0.215 C 
HETATM   19  N   UNK N   1      31.191  24.028  -3.190  0.00  0.00    -0.370 N 
HETATM   20  H   UNK N   1      31.617  24.729  -2.647  0.00  0.00     0.159 HD
HETATM   21  H   UNK N   1      31.252  24.060  -4.173  0.00  0.00     0.159 HD
HETATM   22  O   UNK N   1      30.451  22.992  -1.371  0.00  0.00    -0.274 OA
ENDBRANCH  17  18
ENDBRANCH  16  17
ENDBRANCH  15  16
ENDBRANCH  14  15
ENDBRANCH  13  14
ENDBRANCH  12  13
ENDBRANCH   1  12
TORSDOF 15
ENDMDL
MODEL 6
REMARK VINA RESULT:      -4.6     12.151     14.220
REMARK  15 active torsions:
REMARK  status: ('A' for Active; 'I' for Inactive)
REMARK    1  A    between atoms: C_2  and  C_3 
REMARK    2  A    between atoms: C_3  and  C_4 
REMARK    3  A    between atoms: C_4  and  C_5 
REMARK    4  A    between atoms: C_5  and  C_6 
REMARK    5  A    between atoms: C_6  and  C_7 
REMARK    6  A    between atoms: C_7  and  C_8 
REMARK    7  A    between atoms: C_8  and  C_9 
REMARK    8  A    between atoms: C_10  and  C_11 
REMARK    9  A    between atoms: C_11  and  C_12 
REMARK   10  A    between atoms: C_12  and  C_13 
REMARK   11  A    between atoms: C_13  and  C_14 
REMARK   12  A    between atoms: C_14  and  C_15 
REMARK   13  A    between atoms: C_15  and  C_16 
REMARK   14  A    between atoms: C_16  and  C_17 
REMARK   15  A    between atoms: C_17  and  C_18 
REMARK       I    between atoms: C_18  and  N_19 
ROOT
HETATM    1  C   UNK N   1      20.116  16.687   3.568  0.00  0.00     0.027 C 
ENDROOT
BRANCH   1   2
HETATM    2  C   UNK N   1      20.908  17.902   3.238  0.00  0.00    -0.031 C 
HETATM    3  C   UNK N   1      20.368  18.829   2.462  0.00  0.00    -0.031 C 
BRANCH   3   4
HETATM    4  C   UNK N   1      21.110  20.064   2.097  0.00  0.00     0.027 C 
BRANCH   4   5
HETATM    5  C   UNK N   1      22.184  20.226   3.144  0.00  0.00     0.004 C 
BRANCH   5   6
HETATM    6  C   UNK N   1      23.541  20.511   2.547  0.00  0.00     0.000 C 
BRANCH   6   7
HETATM    7  C   UNK N   1      24.540  19.903   3.504  0.00  0.00     0.000 C 
BRANCH   7   8
HETATM    8  C   UNK N   1      25.937  20.431   3.283  0.00  0.00     0.000 C 
BRANCH   8   9
HETATM    9  C   UNK N   1      26.884  19.484   3.990  0.00  0.00    -0.000 C 
BRANCH   9  10
HETATM   10  C   UNK N   1      27.869  20.252   4.840  0.00  0.00    -0.005 C 
HETATM   11  C   UNK N   1      27.128  20.866   6.009  0.00  0.00     0.005 C 
ENDBRANCH   9  10
ENDBRANCH   8   9
ENDBRANCH   7   8
ENDBRANCH   6   7
ENDBRANCH   5   6
ENDBRANCH   4   5
ENDBRANCH   3   4
ENDBRANCH   1   2
BRANCH   1  12
HETATM   12  C   UNK N   1      20.235  16.426   5.046  0.00  0.00     0.004 C 
BRANCH  12  13
HETATM   13  C   UNK N   1      21.605  16.816   5.550  0.00  0.00     0.000 C 
BRANCH  13  14
HETATM   14  C   UNK N   1      21.827  16.033   6.820  0.00  0.00     0.000 C 
BRANCH  14  15
HETATM   15  C   UNK N   1      20.544  15.463   7.374  0.00  0.00     0.000 C 
BRANCH  15  16
HETATM   16  C   UNK N   1      20.390  16.064   8.751  0.00  0.00     0.009 C 
BRANCH  16  17
HETATM   17  C   UNK N   1      19.206  17.009   8.828  0.00  0.00     0.102 C 
BRANCH  17  18
HETATM   18  C   UNK N   1      19.657  18.430   9.015  0.00  0.00     0.215 C 
HETATM   19  N   UNK N   1      19.204  19.134  10.071  0.00  0.00    -0.370 N 
HETATM   20  H   UNK N   1      19.493  20.065  10.203  0.00  0.00     0.159 HD
HETATM   21  H   UNK N   1      18.584  18.716  10.711  0.00  0.00     0.159 HD
HETATM   22  O   UNK N   1      20.426  18.957   8.226  0.00  0.00    -0.274 OA
ENDBRANCH  17  18
ENDBRANCH  16  17
ENDBRANCH  15  16
ENDBRANCH  14  15
ENDBRANCH  13  14
ENDBRANCH  12  13
ENDBRANCH   1  12
TORSDOF 15
ENDMDL
MODEL 7
REMARK VINA RESULT:      -4.6      4.015      7.755
REMARK  15 active torsions:
REMARK  status: ('A' for Active; 'I' for Inactive)
REMARK    1  A    between atoms: C_2  and  C_3 
REMARK    2  A    between atoms: C_3  and  C_4 
REMARK    3  A    between atoms: C_4  and  C_5 
REMARK    4  A    between atoms: C_5  and  C_6 
REMARK    5  A    between atoms: C_6  and  C_7 
REMARK    6  A    between atoms: C_7  and  C_8 
REMARK    7  A    between atoms: C_8  and  C_9 
REMARK    8  A    between atoms: C_10  and  C_11 
REMARK    9  A    between atoms: C_11  and  C_12 
REMARK   10  A    between atoms: C_12  and  C_13 
REMARK   11  A    between atoms: C_13  and  C_14 
REMARK   12  A    between atoms: C_14  and  C_15 
REMARK   13  A    between atoms: C_15  and  C_16 
REMARK   14  A    between atoms: C_16  and  C_17 
REMARK   15  A    between atoms: C_17  and  C_18 
REMARK       I    between atoms: C_18  and  N_19 
ROOT
HETATM    1  C   UNK N   1      28.197  24.557  -3.376  0.00  0.00     0.027 C 
ENDROOT
BRANCH   1   2
HETATM    2  C   UNK N   1      27.380  24.232  -4.576  0.00  0.00    -0.031 C 
HETATM    3  C   UNK N   1      27.930  23.536  -5.559  0.00  0.00    -0.031 C 
BRANCH   3   4
HETATM    4  C   UNK N   1      27.165  23.182  -6.782  0.00  0.00     0.027 C 
BRANCH   4   5
HETATM    5  C   UNK N   1      25.937  24.058  -6.770  0.00  0.00     0.004 C 
BRANCH   5   6
HETATM    6  C   UNK N   1      25.962  25.110  -7.853  0.00  0.00     0.000 C 
BRANCH   6   7
HETATM    7  C   UNK N   1      25.693  26.421  -7.151  0.00  0.00     0.000 C 
BRANCH   7   8
HETATM    8  C   UNK N   1      26.956  27.213  -6.916  0.00  0.00     0.000 C 
BRANCH   8   9
HETATM    9  C   UNK N   1      26.715  28.077  -5.696  0.00  0.00    -0.000 C 
BRANCH   9  10
HETATM   10  C   UNK N   1      25.483  27.619  -4.953  0.00  0.00    -0.005 C 
HETATM   11  C   UNK N   1      25.815  27.510  -3.480  0.00  0.00     0.005 C 
ENDBRANCH   9  10
ENDBRANCH   8   9
ENDBRANCH   7   8
ENDBRANCH   6   7
ENDBRANCH   5   6
ENDBRANCH   4   5
ENDBRANCH   3   4
ENDBRANCH   1   2
BRANCH   1  12
HETATM   12  C   UNK N   1      28.505  23.277  -2.646  0.00  0.00     0.004 C 
BRANCH  12  13
HETATM   13  C   UNK N   1      29.980  23.181  -2.332  0.00  0.00     0.000 C 
BRANCH  13  14
HETATM   14  C   UNK N   1      30.500  21.991  -3.099  0.00  0.00     0.000 C 
BRANCH  14  15
HETATM   15  C   UNK N   1      31.324  22.396  -4.296  0.00  0.00     0.000 C 
BRANCH  15  16
HETATM   16  C   UNK N   1      30.989  21.399  -5.380  0.00  0.00     0.009 C 
BRANCH  16  17
HETATM   17  C   UNK N   1      31.411  19.991  -5.007  0.00  0.00     0.102 C 
BRANCH  17  18
HETATM   18  C   UNK N   1      32.906  19.885  -4.890  0.00  0.00     0.215 C 
HETATM   19  N   UNK N   1      33.451  19.497  -3.721  0.00  0.00    -0.370 N 
HETATM   20  H   UNK N   1      34.428  19.424  -3.633  0.00  0.00     0.159 HD
HETATM   21  H   UNK N   1      32.871  19.286  -2.953  0.00  0.00     0.159 HD
HETATM   22  O   UNK N   1      33.633  20.145  -5.836  0.00  0.00    -0.274 OA
ENDBRANCH  17  18
ENDBRANCH  16  17
ENDBRANCH  15  16
ENDBRANCH  14  15
ENDBRANCH  13  14
ENDBRANCH  12  13
ENDBRANCH   1  12
TORSDOF 15
ENDMDL
MODEL 8
REMARK VINA RESULT:      -4.6      4.000      7.801
REMARK  15 active torsions:
REMARK  status: ('A' for Active; 'I' for Inactive)
REMARK    1  A    between atoms: C_2  and  C_3 
REMARK    2  A    between atoms: C_3  and  C_4 
REMARK    3  A    between atoms: C_4  and  C_5 
REMARK    4  A    between atoms: C_5  and  C_6 
REMARK    5  A    between atoms: C_6  and  C_7 
REMARK    6  A    between atoms: C_7  and  C_8 
REMARK    7  A    between atoms: C_8  and  C_9 
REMARK    8  A    between atoms: C_10  and  C_11 
REMARK    9  A    between atoms: C_11  and  C_12 
REMARK   10  A    between atoms: C_12  and  C_13 
REMARK   11  A    between atoms: C_13  and  C_14 
REMARK   12  A    between atoms: C_14  and  C_15 
REMARK   13  A    between atoms: C_15  and  C_16 
REMARK   14  A    between atoms: C_16  and  C_17 
REMARK   15  A    between atoms: C_17  and  C_18 
REMARK       I    between atoms: C_18  and  N_19 
ROOT
HETATM    1  C   UNK N   1      29.172  25.249  -4.152  0.00  0.00     0.027 C 
ENDROOT
BRANCH   1   2
HETATM    2  C   UNK N   1      28.871  25.777  -5.509  0.00  0.00    -0.031 C 
HETATM    3  C   UNK N   1      27.797  25.337  -6.146  0.00  0.00    -0.031 C 
BRANCH   3   4
HETATM    4  C   UNK N   1      27.444  25.828  -7.503  0.00  0.00     0.027 C 
BRANCH   4   5
HETATM    5  C   UNK N   1      26.089  26.477  -7.369  0.00  0.00     0.004 C 
BRANCH   5   6
HETATM    6  C   UNK N   1      25.345  26.024  -6.136  0.00  0.00     0.000 C 
BRANCH   6   7
HETATM    7  C   UNK N   1      24.842  27.287  -5.478  0.00  0.00     0.000 C 
BRANCH   7   8
HETATM    8  C   UNK N   1      25.568  27.589  -4.190  0.00  0.00     0.000 C 
BRANCH   8   9
HETATM    9  C   UNK N   1      26.106  29.000  -4.306  0.00  0.00    -0.000 C 
BRANCH   9  10
HETATM   10  C   UNK N   1      27.600  28.983  -4.528  0.00  0.00    -0.005 C 
HETATM   11  C   UNK N   1      27.884  29.386  -5.960  0.00  0.00     0.005 C 
ENDBRANCH   9  10
ENDBRANCH   8   9
ENDBRANCH   7   8
ENDBRANCH   6   7
ENDBRANCH   5   6
ENDBRANCH   4   5
ENDBRANCH   3   4
ENDBRANCH   1   2
BRANCH   1  12
HETATM   12  C   UNK N   1      27.900  24.710  -3.554  0.00  0.00     0.004 C 
BRANCH  12  13
HETATM   13  C   UNK N   1      28.186  23.517  -2.671  0.00  0.00     0.000 C 
BRANCH  13  14
HETATM   14  C   UNK N   1      29.680  23.317  -2.703  0.00  0.00     0.000 C 
BRANCH  14  15
HETATM   15  C   UNK N   1      30.061  21.903  -3.066  0.00  0.00     0.000 C 
BRANCH  15  16
HETATM   16  C   UNK N   1      30.863  22.009  -4.342  0.00  0.00     0.009 C 
BRANCH  16  17
HETATM   17  C   UNK N   1      32.297  22.428  -4.078  0.00  0.00     0.102 C 
BRANCH  17  18
HETATM   18  C   UNK N   1      33.165  21.238  -3.782  0.00  0.00     0.215 C 
HETATM   19  N   UNK N   1      33.320  20.833  -2.506  0.00  0.00    -0.370 N 
HETATM   20  H   UNK N   1      33.886  20.055  -2.301  0.00  0.00     0.159 HD
HETATM   21  H   UNK N   1      32.865  21.316  -1.778  0.00  0.00     0.159 HD
HETATM   22  O   UNK N   1      33.733  20.632  -4.678  0.00  0.00    -0.274 OA
ENDBRANCH  17  18
ENDBRANCH  16  17
ENDBRANCH  15  16
ENDBRANCH  14  15
ENDBRANCH  13  14
ENDBRANCH  12  13
ENDBRANCH   1  12
TORSDOF 15
ENDMDL
MODEL 9
REMARK VINA RESULT:      -4.5     15.935     17.342
REMARK  15 active torsions:
REMARK  status: ('A' for Active; 'I' for Inactive)
REMARK    1  A    between atoms: C_2  and  C_3 
REMARK    2  A    between atoms: C_3  and  C_4 
REMARK    3  A    between atoms: C_4  and  C_5 
REMARK    4  A    between atoms: C_5  and  C_6 
REMARK    5  A    between atoms: C_6  and  C_7 
REMARK    6  A    between atoms: C_7  and  C_8 
REMARK    7  A    between atoms: C_8  and  C_9 
REMARK    8  A    between atoms: C_10  and  C_11 
REMARK    9  A    between atoms: C_11  and  C_12 
REMARK   10  A    between atoms: C_12  and  C_13 
REMARK   11  A    between atoms: C_13  and  C_14 
REMARK   12  A    between atoms: C_14  and  C_15 
REMARK   13  A    between atoms: C_15  and  C_16 
REMARK   14  A    between atoms: C_16  and  C_17 
REMARK   15  A    between atoms: C_17  and  C_18 
REMARK       I    between atoms: C_18  and  N_19 
ROOT
HETATM    1  C   UNK N   1      20.227  14.715   8.826  0.00  0.00     0.027 C 
ENDROOT
BRANCH   1   2
HETATM    2  C   UNK N   1      21.211  14.150   9.787  0.00  0.00    -0.031 C 
HETATM    3  C   UNK N   1      21.083  12.889  10.172  0.00  0.00    -0.031 C 
BRANCH   3   4
HETATM    4  C   UNK N   1      22.035  12.269  11.130  0.00  0.00     0.027 C 
BRANCH   4   5
HETATM    5  C   UNK N   1      22.998  11.464  10.293  0.00  0.00     0.004 C 
BRANCH   5   6
HETATM    6  C   UNK N   1      24.250  12.233   9.945  0.00  0.00     0.000 C 
BRANCH   6   7
HETATM    7  C   UNK N   1      24.342  12.196   8.437  0.00  0.00     0.000 C 
BRANCH   7   8
HETATM    8  C   UNK N   1      24.052  13.540   7.813  0.00  0.00     0.000 C 
BRANCH   8   9
HETATM    9  C   UNK N   1      23.139  13.292   6.632  0.00  0.00    -0.000 C 
BRANCH   9  10
HETATM   10  C   UNK N   1      22.640  11.866   6.634  0.00  0.00    -0.005 C 
HETATM   11  C   UNK N   1      21.134  11.877   6.481  0.00  0.00     0.005 C 
ENDBRANCH   9  10
ENDBRANCH   8   9
ENDBRANCH   7   8
ENDBRANCH   6   7
ENDBRANCH   5   6
ENDBRANCH   4   5
ENDBRANCH   3   4
ENDBRANCH   1   2
BRANCH   1  12
HETATM   12  C   UNK N   1      20.627  16.131   8.509  0.00  0.00     0.004 C 
BRANCH  12  13
HETATM   13  C   UNK N   1      20.887  16.294   7.028  0.00  0.00     0.000 C 
BRANCH  13  14
HETATM   14  C   UNK N   1      20.025  15.271   6.333  0.00  0.00     0.000 C 
BRANCH  14  15
HETATM   15  C   UNK N   1      19.139  15.889   5.279  0.00  0.00     0.000 C 
BRANCH  15  16
HETATM   16  C   UNK N   1      19.992  15.993   4.036  0.00  0.00     0.009 C 
BRANCH  16  17
HETATM   17  C   UNK N   1      20.317  14.630   3.456  0.00  0.00     0.102 C 
BRANCH  17  18
HETATM   18  C   UNK N   1      19.283  14.205   2.451  0.00  0.00     0.215 C 
HETATM   19  N   UNK N   1      19.150  14.901   1.305  0.00  0.00    -0.370 N 
HETATM   20  H   UNK N   1      18.476  14.632   0.641  0.00  0.00     0.159 HD
HETATM   21  H   UNK N   1      19.728  15.679   1.133  0.00  0.00     0.159 HD
HETATM   22  O   UNK N   1      18.562  13.241   2.657  0.00  0.00    -0.274 OA
ENDBRANCH  17  18
ENDBRANCH  16  17
ENDBRANCH  15  16
ENDBRANCH  14  15
ENDBRANCH  13  14
ENDBRANCH  12  13
ENDBRANCH   1  12
TORSDOF 15
ENDMDL
