MODEL 1
REMARK VINA RESULT:      -5.7      0.000      0.000
REMARK  13 active torsions:
REMARK  status: ('A' for Active; 'I' for Inactive)
REMARK    1  A    between atoms: C_2  and  C_3 
REMARK    2  A    between atoms: C_3  and  C_4 
REMARK    3  A    between atoms: C_4  and  N_5 
REMARK    4  A    between atoms: C_4  and  C_22 
REMARK    5  A    between atoms: N_5  and  C_6 
REMARK    6  A    between atoms: C_6  and  C_7 
REMARK    7  A    between atoms: C_8  and  O_9 
REMARK    8  A    between atoms: C_15  and  C_16 
REMARK    9  A    between atoms: C_16  and  O_17 
REMARK   10  A    between atoms: O_17  and  P_18 
REMARK   11  A    between atoms: P_18  and  O_19 
REMARK   12  A    between atoms: P_18  and  O_20 
REMARK   13  A    between atoms: C_22  and  O_23 
ROOT
HETATM    1  C   UNK N   1      35.532  14.207   8.079  0.00  0.00     0.004 A 
HETATM    2  C   UNK N   1      36.133  14.567   6.857  0.00  0.00     0.096 A 
HETATM    3  C   UNK N   1      37.324  13.936   6.467  0.00  0.00     0.039 A 
HETATM    4  C   UNK N   1      37.992  14.302   5.186  0.00  0.00     0.071 C 
HETATM    5  N   UNK N   1      37.883  12.986   7.258  0.00  0.00    -0.367 N 
ATOM      6  HN  UNK N   1      38.745  12.531   6.956  1.00  0.00     0.165 HD
HETATM    7  C   UNK N   1      37.323  12.623   8.441  0.00  0.00     0.098 A 
HETATM    8  C   UNK N   1      36.145  13.229   8.883  0.00  0.00    -0.008 A 
ENDROOT
BRANCH   1   9
HETATM    9  C   UNK N   1      34.266  14.882   8.526  0.00  0.00     0.157 C 
BRANCH   9  10
HETATM   10  N   UNK N   1      34.545  16.129   9.230  0.00  0.00    -0.404 N 
HETATM   11  H   UNK N   1      35.243  16.247   9.964  0.00  0.00     0.154 HD
BRANCH  10  12
HETATM   12  C   UNK N   1      33.669  17.185   8.722  0.00  0.00     0.175 C 
BRANCH  12  13
HETATM   13  C   UNK N   1      32.473  16.552   8.003  0.00  0.00     0.035 C 
BRANCH  13  14
HETATM   14  C   UNK N   1      31.166  16.782   8.751  0.00  0.00    -0.002 C 
HETATM   15  C   UNK N   1      30.837  18.259   8.758  0.00  0.00     0.005 C 
ENDBRANCH  13  14
ENDBRANCH  12  13
BRANCH  12  16
HETATM   16  C   UNK N   1      34.435  18.178   7.874  0.00  0.00     0.163 C 
HETATM   17  O   UNK N   1      34.377  18.139   6.654  0.00  0.00    -0.648 OA
BRANCH  16  18
HETATM   18  O   UNK N   1      35.173  19.135   8.468  0.00  0.00    -0.775 OA
HETATM   19  H   UNK N   1      35.255  19.233   9.396  0.00  0.00     0.167 HD
ENDBRANCH  16  18
ENDBRANCH  12  16
ENDBRANCH  10  12
ENDBRANCH   9  10
ENDBRANCH   1   9
BRANCH   2  20
HETATM   20  O   UNK N   1      35.578  15.509   6.075  0.00  0.00    -0.358 OA
HETATM   21  H   UNK N   1      34.844  16.089   6.123  0.00  0.00     0.217 HD
ENDBRANCH   2  20
BRANCH   8  22
HETATM   22  C   UNK N   1      35.597  12.819  10.221  0.00  0.00     0.221 C 
BRANCH  22  23
HETATM   23  O   UNK N   1      36.547  13.008  11.233  0.00  0.00    -0.292 OA
BRANCH  23  24
HETATM   24  P   UNK N   1      36.225  14.555  11.985  0.00  0.00     0.391 P 
HETATM   25  O   UNK N   1      34.682  14.716  12.007  0.00  0.00    -0.632 OA
BRANCH  24  26
HETATM   26  O   UNK N   1      36.842  15.918  11.102  0.00  0.00    -0.307 OA
HETATM   27  H   UNK N   1      37.409  16.683  11.284  0.00  0.00     0.222 HD
ENDBRANCH  24  26
BRANCH  24  28
HETATM   28  O   UNK N   1      36.750  14.602  13.638  0.00  0.00    -0.307 OA
HETATM   29  H   UNK N   1      36.125  14.848  14.338  0.00  0.00     0.222 HD
ENDBRANCH  24  28
ENDBRANCH  23  24
ENDBRANCH  22  23
ENDBRANCH   8  22
TORSDOF 13
ENDMDL
MODEL 2
REMARK VINA RESULT:      -5.6      3.797      6.852
REMARK  13 active torsions:
REMARK  status: ('A' for Active; 'I' for Inactive)
REMARK    1  A    between atoms: C_2  and  C_3 
REMARK    2  A    between atoms: C_3  and  C_4 
REMARK    3  A    between atoms: C_4  and  N_5 
REMARK    4  A    between atoms: C_4  and  C_22 
REMARK    5  A    between atoms: N_5  and  C_6 
REMARK    6  A    between atoms: C_6  and  C_7 
REMARK    7  A    between atoms: C_8  and  O_9 
REMARK    8  A    between atoms: C_15  and  C_16 
REMARK    9  A    between atoms: C_16  and  O_17 
REMARK   10  A    between atoms: O_17  and  P_18 
REMARK   11  A    between atoms: P_18  and  O_19 
REMARK   12  A    between atoms: P_18  and  O_20 
REMARK   13  A    between atoms: C_22  and  O_23 
ROOT
HETATM    1  C   UNK N   1      31.013  16.455   7.888  0.00  0.00     0.004 A 
HETATM    2  C   UNK N   1      30.148  17.395   8.479  0.00  0.00     0.096 A 
HETATM    3  C   UNK N   1      29.063  17.889   7.739  0.00  0.00     0.039 A 
HETATM    4  C   UNK N   1      28.136  18.895   8.330  0.00  0.00     0.071 C 
HETATM    5  N   UNK N   1      28.850  17.457   6.471  0.00  0.00    -0.367 N 
ATOM      6  HN  UNK N   1      28.053  17.821   5.948  1.00  0.00     0.165 HD
HETATM    7  C   UNK N   1      29.672  16.552   5.878  0.00  0.00     0.098 A 
HETATM    8  C   UNK N   1      30.773  16.038   6.565  0.00  0.00    -0.008 A 
ENDROOT
BRANCH   1   9
HETATM    9  C   UNK N   1      32.192  15.924   8.655  0.00  0.00     0.157 C 
BRANCH   9  10
HETATM   10  N   UNK N   1      32.913  16.996   9.334  0.00  0.00    -0.404 N 
HETATM   11  H   UNK N   1      32.501  17.656   9.994  0.00  0.00     0.154 HD
BRANCH  10  12
HETATM   12  C   UNK N   1      34.316  16.981   8.922  0.00  0.00     0.175 C 
BRANCH  12  13
HETATM   13  C   UNK N   1      35.209  16.859  10.163  0.00  0.00     0.035 C 
BRANCH  13  14
HETATM   14  C   UNK N   1      35.720  15.439  10.366  0.00  0.00    -0.002 C 
HETATM   15  C   UNK N   1      35.763  14.719   9.035  0.00  0.00     0.005 C 
ENDBRANCH  13  14
ENDBRANCH  12  13
BRANCH  12  16
HETATM   16  C   UNK N   1      34.648  18.170   8.046  0.00  0.00     0.163 C 
HETATM   17  O   UNK N   1      35.198  19.158   8.509  0.00  0.00    -0.648 OA
BRANCH  16  18
HETATM   18  O   UNK N   1      34.359  18.132   6.732  0.00  0.00    -0.775 OA
HETATM   19  H   UNK N   1      34.810  18.632   6.081  0.00  0.00     0.167 HD
ENDBRANCH  16  18
ENDBRANCH  12  16
ENDBRANCH  10  12
ENDBRANCH   9  10
ENDBRANCH   1   9
BRANCH   2  20
HETATM   20  O   UNK N   1      30.360  17.822   9.736  0.00  0.00    -0.358 OA
HETATM   21  H   UNK N   1      30.709  18.590  10.145  0.00  0.00     0.217 HD
ENDBRANCH   2  20
BRANCH   8  22
HETATM   22  C   UNK N   1      31.672  15.074   5.843  0.00  0.00     0.221 C 
BRANCH  22  23
HETATM   23  O   UNK N   1      31.641  15.297   4.460  0.00  0.00    -0.292 OA
BRANCH  23  24
HETATM   24  P   UNK N   1      33.123  16.115   4.018  0.00  0.00     0.391 P 
HETATM   25  O   UNK N   1      32.849  17.633   4.188  0.00  0.00    -0.632 OA
BRANCH  24  26
HETATM   26  O   UNK N   1      33.593  15.890   2.361  0.00  0.00    -0.307 OA
HETATM   27  H   UNK N   1      34.421  15.864   1.856  0.00  0.00     0.222 HD
ENDBRANCH  24  26
BRANCH  24  28
HETATM   28  O   UNK N   1      34.430  15.726   5.089  0.00  0.00    -0.307 OA
HETATM   29  H   UNK N   1      34.358  14.964   5.687  0.00  0.00     0.222 HD
ENDBRANCH  24  28
ENDBRANCH  23  24
ENDBRANCH  22  23
ENDBRANCH   8  22
TORSDOF 13
ENDMDL
MODEL 3
REMARK VINA RESULT:      -5.5      1.375      1.851
REMARK  13 active torsions:
REMARK  status: ('A' for Active; 'I' for Inactive)
REMARK    1  A    between atoms: C_2  and  C_3 
REMARK    2  A    between atoms: C_3  and  C_4 
REMARK    3  A    between atoms: C_4  and  N_5 
REMARK    4  A    between atoms: C_4  and  C_22 
REMARK    5  A    between atoms: N_5  and  C_6 
REMARK    6  A    between atoms: C_6  and  C_7 
REMARK    7  A    between atoms: C_8  and  O_9 
REMARK    8  A    between atoms: C_15  and  C_16 
REMARK    9  A    between atoms: C_16  and  O_17 
REMARK   10  A    between atoms: O_17  and  P_18 
REMARK   11  A    between atoms: P_18  and  O_19 
REMARK   12  A    between atoms: P_18  and  O_20 
REMARK   13  A    between atoms: C_22  and  O_23 
ROOT
HETATM    1  C   UNK N   1      35.144  14.558   9.385  0.00  0.00     0.004 A 
HETATM    2  C   UNK N   1      35.793  14.478   8.137  0.00  0.00     0.096 A 
HETATM    3  C   UNK N   1      37.022  13.808   8.045  0.00  0.00     0.039 A 
HETATM    4  C   UNK N   1      37.741  13.717   6.744  0.00  0.00     0.071 C 
HETATM    5  N   UNK N   1      37.571  13.238   9.147  0.00  0.00    -0.367 N 
ATOM      6  HN  UNK N   1      38.463  12.748   9.062  1.00  0.00     0.165 HD
HETATM    7  C   UNK N   1      36.966  13.303  10.361  0.00  0.00     0.098 A 
HETATM    8  C   UNK N   1      35.748  13.969  10.511  0.00  0.00    -0.008 A 
ENDROOT
BRANCH   1   9
HETATM    9  C   UNK N   1      33.835  15.286   9.511  0.00  0.00     0.157 C 
BRANCH   9  10
HETATM   10  N   UNK N   1      34.037  16.703   9.796  0.00  0.00    -0.404 N 
HETATM   11  H   UNK N   1      34.550  17.074  10.595  0.00  0.00     0.154 HD
BRANCH  10  12
HETATM   12  C   UNK N   1      33.390  17.508   8.761  0.00  0.00     0.175 C 
BRANCH  12  13
HETATM   13  C   UNK N   1      32.418  16.629   7.965  0.00  0.00     0.035 C 
BRANCH  13  14
HETATM   14  C   UNK N   1      31.076  17.313   7.741  0.00  0.00    -0.002 C 
HETATM   15  C   UNK N   1      30.796  18.269   8.880  0.00  0.00     0.005 C 
ENDBRANCH  13  14
ENDBRANCH  12  13
BRANCH  12  16
HETATM   16  C   UNK N   1      34.409  18.224   7.900  0.00  0.00     0.163 C 
HETATM   17  O   UNK N   1      34.505  17.983   6.706  0.00  0.00    -0.648 OA
BRANCH  16  18
HETATM   18  O   UNK N   1      35.206  19.161   8.449  0.00  0.00    -0.775 OA
HETATM   19  H   UNK N   1      34.905  19.828   9.034  0.00  0.00     0.167 HD
ENDBRANCH  16  18
ENDBRANCH  12  16
ENDBRANCH  10  12
ENDBRANCH   9  10
ENDBRANCH   1   9
BRANCH   2  20
HETATM   20  O   UNK N   1      35.247  15.044   7.047  0.00  0.00    -0.358 OA
HETATM   21  H   UNK N   1      35.417  15.794   6.510  0.00  0.00     0.217 HD
ENDBRANCH   2  20
BRANCH   8  22
HETATM   22  C   UNK N   1      35.147  14.046  11.886  0.00  0.00     0.221 C 
BRANCH  22  23
HETATM   23  O   UNK N   1      36.024  14.670  12.784  0.00  0.00    -0.292 OA
BRANCH  23  24
HETATM   24  P   UNK N   1      36.294  13.570  14.118  0.00  0.00     0.391 P 
HETATM   25  O   UNK N   1      34.932  13.429  14.848  0.00  0.00    -0.632 OA
BRANCH  24  26
HETATM   26  O   UNK N   1      37.423  14.151  15.303  0.00  0.00    -0.307 OA
HETATM   27  H   UNK N   1      37.857  14.991  15.516  0.00  0.00     0.222 HD
ENDBRANCH  24  26
BRANCH  24  28
HETATM   28  O   UNK N   1      36.731  11.980  13.577  0.00  0.00    -0.307 OA
HETATM   29  H   UNK N   1      36.788  11.250  14.213  0.00  0.00     0.222 HD
ENDBRANCH  24  28
ENDBRANCH  23  24
ENDBRANCH  22  23
ENDBRANCH   8  22
TORSDOF 13
ENDMDL
MODEL 4
REMARK VINA RESULT:      -5.2     16.842     19.154
REMARK  13 active torsions:
REMARK  status: ('A' for Active; 'I' for Inactive)
REMARK    1  A    between atoms: C_2  and  C_3 
REMARK    2  A    between atoms: C_3  and  C_4 
REMARK    3  A    between atoms: C_4  and  N_5 
REMARK    4  A    between atoms: C_4  and  C_22 
REMARK    5  A    between atoms: N_5  and  C_6 
REMARK    6  A    between atoms: C_6  and  C_7 
REMARK    7  A    between atoms: C_8  and  O_9 
REMARK    8  A    between atoms: C_15  and  C_16 
REMARK    9  A    between atoms: C_16  and  O_17 
REMARK   10  A    between atoms: O_17  and  P_18 
REMARK   11  A    between atoms: P_18  and  O_19 
REMARK   12  A    between atoms: P_18  and  O_20 
REMARK   13  A    between atoms: C_22  and  O_23 
ROOT
HETATM    1  C   UNK N   1      27.225  26.746  -3.755  0.00  0.00     0.004 A 
HETATM    2  C   UNK N   1      26.587  27.982  -3.540  0.00  0.00     0.096 A 
HETATM    3  C   UNK N   1      27.351  29.159  -3.549  0.00  0.00     0.039 A 
HETATM    4  C   UNK N   1      26.710  30.483  -3.312  0.00  0.00     0.071 C 
HETATM    5  N   UNK N   1      28.689  29.101  -3.770  0.00  0.00    -0.367 N 
ATOM      6  HN  UNK N   1      29.229  29.966  -3.780  1.00  0.00     0.165 HD
HETATM    7  C   UNK N   1      29.327  27.920  -3.978  0.00  0.00     0.098 A 
HETATM    8  C   UNK N   1      28.616  26.719  -3.967  0.00  0.00    -0.008 A 
ENDROOT
BRANCH   1   9
HETATM    9  C   UNK N   1      26.429  25.471  -3.733  0.00  0.00     0.157 C 
BRANCH   9  10
HETATM   10  N   UNK N   1      25.497  25.403  -4.854  0.00  0.00    -0.404 N 
HETATM   11  H   UNK N   1      24.494  25.577  -4.796  0.00  0.00     0.154 HD
BRANCH  10  12
HETATM   12  C   UNK N   1      26.222  25.047  -6.074  0.00  0.00     0.175 C 
BRANCH  12  13
HETATM   13  C   UNK N   1      25.591  25.770  -7.270  0.00  0.00     0.035 C 
BRANCH  13  14
HETATM   14  C   UNK N   1      26.638  26.423  -8.164  0.00  0.00    -0.002 C 
HETATM   15  C   UNK N   1      27.437  27.427  -7.361  0.00  0.00     0.005 C 
ENDBRANCH  13  14
ENDBRANCH  12  13
BRANCH  12  16
HETATM   16  C   UNK N   1      26.310  23.546  -6.246  0.00  0.00     0.163 C 
HETATM   17  O   UNK N   1      27.383  22.967  -6.177  0.00  0.00    -0.648 OA
BRANCH  16  18
HETATM   18  O   UNK N   1      25.187  22.831  -6.452  0.00  0.00    -0.775 OA
HETATM   19  H   UNK N   1      24.323  23.189  -6.410  0.00  0.00     0.167 HD
ENDBRANCH  16  18
ENDBRANCH  12  16
ENDBRANCH  10  12
ENDBRANCH   9  10
ENDBRANCH   1   9
BRANCH   2  20
HETATM   20  O   UNK N   1      25.261  28.038  -3.321  0.00  0.00    -0.358 OA
HETATM   21  H   UNK N   1      24.648  28.677  -3.016  0.00  0.00     0.217 HD
ENDBRANCH   2  20
BRANCH   8  22
HETATM   22  C   UNK N   1      29.382  25.440  -4.159  0.00  0.00     0.221 C 
BRANCH  22  23
HETATM   23  O   UNK N   1      30.021  25.053  -2.973  0.00  0.00    -0.292 OA
BRANCH  23  24
HETATM   24  P   UNK N   1      29.667  23.361  -2.704  0.00  0.00     0.391 P 
HETATM   25  O   UNK N   1      30.812  22.813  -1.812  0.00  0.00    -0.632 OA
BRANCH  24  26
HETATM   26  O   UNK N   1      29.671  22.395  -4.147  0.00  0.00    -0.307 OA
HETATM   27  H   UNK N   1      29.012  22.030  -4.758  0.00  0.00     0.222 HD
ENDBRANCH  24  26
BRANCH  24  28
HETATM   28  O   UNK N   1      28.196  23.133  -1.812  0.00  0.00    -0.307 OA
HETATM   29  H   UNK N   1      28.223  22.750  -0.921  0.00  0.00     0.222 HD
ENDBRANCH  24  28
ENDBRANCH  23  24
ENDBRANCH  22  23
ENDBRANCH   8  22
TORSDOF 13
ENDMDL
MODEL 5
REMARK VINA RESULT:      -5.2     16.074     18.744
REMARK  13 active torsions:
REMARK  status: ('A' for Active; 'I' for Inactive)
REMARK    1  A    between atoms: C_2  and  C_3 
REMARK    2  A    between atoms: C_3  and  C_4 
REMARK    3  A    between atoms: C_4  and  N_5 
REMARK    4  A    between atoms: C_4  and  C_22 
REMARK    5  A    between atoms: N_5  and  C_6 
REMARK    6  A    between atoms: C_6  and  C_7 
REMARK    7  A    between atoms: C_8  and  O_9 
REMARK    8  A    between atoms: C_15  and  C_16 
REMARK    9  A    between atoms: C_16  and  O_17 
REMARK   10  A    between atoms: O_17  and  P_18 
REMARK   11  A    between atoms: P_18  and  O_19 
REMARK   12  A    between atoms: P_18  and  O_20 
REMARK   13  A    between atoms: C_22  and  O_23 
ROOT
HETATM    1  C   UNK N   1      27.599  23.822  -6.741  0.00  0.00     0.004 A 
HETATM    2  C   UNK N   1      27.234  22.598  -7.333  0.00  0.00     0.096 A 
HETATM    3  C   UNK N   1      26.052  22.526  -8.085  0.00  0.00     0.039 A 
HETATM    4  C   UNK N   1      25.630  21.243  -8.714  0.00  0.00     0.071 C 
HETATM    5  N   UNK N   1      25.277  23.628  -8.245  0.00  0.00    -0.367 N 
ATOM      6  HN  UNK N   1      24.425  23.561  -8.801  1.00  0.00     0.165 HD
HETATM    7  C   UNK N   1      25.607  24.820  -7.682  0.00  0.00     0.098 A 
HETATM    8  C   UNK N   1      26.766  24.943  -6.913  0.00  0.00    -0.008 A 
ENDROOT
BRANCH   1   9
HETATM    9  C   UNK N   1      28.852  23.919  -5.915  0.00  0.00     0.157 C 
BRANCH   9  10
HETATM   10  N   UNK N   1      28.665  23.336  -4.591  0.00  0.00    -0.404 N 
HETATM   11  H   UNK N   1      27.792  22.942  -4.240  0.00  0.00     0.154 HD
BRANCH  10  12
HETATM   12  C   UNK N   1      29.920  23.403  -3.843  0.00  0.00     0.175 C 
BRANCH  12  13
HETATM   13  C   UNK N   1      30.952  22.477  -4.497  0.00  0.00     0.035 C 
BRANCH  13  14
HETATM   14  C   UNK N   1      30.474  21.032  -4.551  0.00  0.00    -0.002 C 
HETATM   15  C   UNK N   1      31.667  20.101  -4.563  0.00  0.00     0.005 C 
ENDBRANCH  13  14
ENDBRANCH  12  13
BRANCH  12  16
HETATM   16  C   UNK N   1      29.701  23.129  -2.370  0.00  0.00     0.163 C 
HETATM   17  O   UNK N   1      30.647  23.000  -1.608  0.00  0.00    -0.648 OA
BRANCH  16  18
HETATM   18  O   UNK N   1      28.448  23.050  -1.885  0.00  0.00    -0.775 OA
HETATM   19  H   UNK N   1      28.241  22.819  -1.002  0.00  0.00     0.167 HD
ENDBRANCH  16  18
ENDBRANCH  12  16
ENDBRANCH  10  12
ENDBRANCH   9  10
ENDBRANCH   1   9
BRANCH   2  20
HETATM   20  O   UNK N   1      28.003  21.506  -7.173  0.00  0.00    -0.358 OA
HETATM   21  H   UNK N   1      28.919  21.311  -7.186  0.00  0.00     0.217 HD
ENDBRANCH   2  20
BRANCH   8  22
HETATM   22  C   UNK N   1      27.057  26.274  -6.279  0.00  0.00     0.221 C 
BRANCH  22  23
HETATM   23  O   UNK N   1      26.035  26.644  -5.394  0.00  0.00    -0.292 OA
BRANCH  23  24
HETATM   24  P   UNK N   1      26.590  26.308  -3.768  0.00  0.00     0.391 P 
HETATM   25  O   UNK N   1      28.129  26.505  -3.784  0.00  0.00    -0.632 OA
BRANCH  24  26
HETATM   26  O   UNK N   1      26.316  24.673  -3.247  0.00  0.00    -0.307 OA
HETATM   27  H   UNK N   1      25.617  24.008  -3.339  0.00  0.00     0.222 HD
ENDBRANCH  24  26
BRANCH  24  28
HETATM   28  O   UNK N   1      25.959  27.438  -2.614  0.00  0.00    -0.307 OA
HETATM   29  H   UNK N   1      26.392  27.546  -1.753  0.00  0.00     0.222 HD
ENDBRANCH  24  28
ENDBRANCH  23  24
ENDBRANCH  22  23
ENDBRANCH   8  22
TORSDOF 13
ENDMDL
MODEL 6
REMARK VINA RESULT:      -5.2     15.601     18.362
REMARK  13 active torsions:
REMARK  status: ('A' for Active; 'I' for Inactive)
REMARK    1  A    between atoms: C_2  and  C_3 
REMARK    2  A    between atoms: C_3  and  C_4 
REMARK    3  A    between atoms: C_4  and  N_5 
REMARK    4  A    between atoms: C_4  and  C_22 
REMARK    5  A    between atoms: N_5  and  C_6 
REMARK    6  A    between atoms: C_6  and  C_7 
REMARK    7  A    between atoms: C_8  and  O_9 
REMARK    8  A    between atoms: C_15  and  C_16 
REMARK    9  A    between atoms: C_16  and  O_17 
REMARK   10  A    between atoms: O_17  and  P_18 
REMARK   11  A    between atoms: P_18  and  O_19 
REMARK   12  A    between atoms: P_18  and  O_20 
REMARK   13  A    between atoms: C_22  and  O_23 
ROOT
HETATM    1  C   UNK N   1      27.903  23.660  -5.501  0.00  0.00     0.004 A 
HETATM    2  C   UNK N   1      27.484  22.807  -6.540  0.00  0.00     0.096 A 
HETATM    3  C   UNK N   1      26.127  22.776  -6.896  0.00  0.00     0.039 A 
HETATM    4  C   UNK N   1      25.647  21.875  -7.981  0.00  0.00     0.071 C 
HETATM    5  N   UNK N   1      25.235  23.567  -6.249  0.00  0.00    -0.367 N 
ATOM      6  HN  UNK N   1      24.252  23.538  -6.525  1.00  0.00     0.165 HD
HETATM    7  C   UNK N   1      25.615  24.397  -5.243  0.00  0.00     0.098 A 
HETATM    8  C   UNK N   1      26.950  24.457  -4.841  0.00  0.00    -0.008 A 
ENDROOT
BRANCH   1   9
HETATM    9  C   UNK N   1      29.349  23.697  -5.091  0.00  0.00     0.157 C 
BRANCH   9  10
HETATM   10  N   UNK N   1      29.743  22.467  -4.413  0.00  0.00    -0.404 N 
HETATM   11  H   UNK N   1      29.123  21.683  -4.209  0.00  0.00     0.154 HD
BRANCH  10  12
HETATM   12  C   UNK N   1      31.164  22.530  -4.069  0.00  0.00     0.175 C 
BRANCH  12  13
HETATM   13  C   UNK N   1      31.946  21.557  -4.959  0.00  0.00     0.035 C 
BRANCH  13  14
HETATM   14  C   UNK N   1      31.107  20.352  -5.368  0.00  0.00    -0.002 C 
HETATM   15  C   UNK N   1      31.277  20.094  -6.849  0.00  0.00     0.005 C 
ENDBRANCH  13  14
ENDBRANCH  12  13
BRANCH  12  16
HETATM   16  C   UNK N   1      31.383  22.311  -2.587  0.00  0.00     0.163 C 
HETATM   17  O   UNK N   1      30.748  22.945  -1.757  0.00  0.00    -0.648 OA
BRANCH  16  18
HETATM   18  O   UNK N   1      32.271  21.388  -2.172  0.00  0.00    -0.775 OA
HETATM   19  H   UNK N   1      32.185  20.895  -1.381  0.00  0.00     0.167 HD
ENDBRANCH  16  18
ENDBRANCH  12  16
ENDBRANCH  10  12
ENDBRANCH   9  10
ENDBRANCH   1   9
BRANCH   2  20
HETATM   20  O   UNK N   1      28.369  22.023  -7.180  0.00  0.00    -0.358 OA
HETATM   21  H   UNK N   1      28.611  21.118  -7.168  0.00  0.00     0.217 HD
ENDBRANCH   2  20
BRANCH   8  22
HETATM   22  C   UNK N   1      27.305  25.361  -3.693  0.00  0.00     0.221 C 
BRANCH  22  23
HETATM   23  O   UNK N   1      27.654  26.639  -4.150  0.00  0.00    -0.292 OA
BRANCH  23  24
HETATM   24  P   UNK N   1      26.438  27.760  -3.577  0.00  0.00     0.391 P 
HETATM   25  O   UNK N   1      25.889  27.168  -2.253  0.00  0.00    -0.632 OA
BRANCH  24  26
HETATM   26  O   UNK N   1      25.072  27.932  -4.636  0.00  0.00    -0.307 OA
HETATM   27  H   UNK N   1      24.763  27.533  -5.464  0.00  0.00     0.222 HD
ENDBRANCH  24  26
BRANCH  24  28
HETATM   28  O   UNK N   1      27.112  29.310  -3.182  0.00  0.00    -0.307 OA
HETATM   29  H   UNK N   1      28.032  29.512  -3.413  0.00  0.00     0.222 HD
ENDBRANCH  24  28
ENDBRANCH  23  24
ENDBRANCH  22  23
ENDBRANCH   8  22
TORSDOF 13
ENDMDL
MODEL 7
REMARK VINA RESULT:      -5.1     11.931     15.005
REMARK  13 active torsions:
REMARK  status: ('A' for Active; 'I' for Inactive)
REMARK    1  A    between atoms: C_2  and  C_3 
REMARK    2  A    between atoms: C_3  and  C_4 
REMARK    3  A    between atoms: C_4  and  N_5 
REMARK    4  A    between atoms: C_4  and  C_22 
REMARK    5  A    between atoms: N_5  and  C_6 
REMARK    6  A    between atoms: C_6  and  C_7 
REMARK    7  A    between atoms: C_8  and  O_9 
REMARK    8  A    between atoms: C_15  and  C_16 
REMARK    9  A    between atoms: C_16  and  O_17 
REMARK   10  A    between atoms: O_17  and  P_18 
REMARK   11  A    between atoms: P_18  and  O_19 
REMARK   12  A    between atoms: P_18  and  O_20 
REMARK   13  A    between atoms: C_22  and  O_23 
ROOT
HETATM    1  C   UNK N   1      21.835  18.852   3.757  0.00  0.00     0.004 A 
HETATM    2  C   UNK N   1      21.794  19.949   2.875  0.00  0.00     0.096 A 
HETATM    3  C   UNK N   1      20.697  20.093   2.012  0.00  0.00     0.039 A 
HETATM    4  C   UNK N   1      20.628  21.235   1.057  0.00  0.00     0.071 C 
HETATM    5  N   UNK N   1      19.687  19.188   2.036  0.00  0.00    -0.367 N 
ATOM      6  HN  UNK N   1      18.893  19.312   1.407  1.00  0.00     0.165 HD
HETATM    7  C   UNK N   1      19.705  18.121   2.876  0.00  0.00     0.098 A 
HETATM    8  C   UNK N   1      20.778  17.923   3.746  0.00  0.00    -0.008 A 
ENDROOT
BRANCH   1   9
HETATM    9  C   UNK N   1      23.008  18.667   4.678  0.00  0.00     0.157 C 
BRANCH   9  10
HETATM   10  N   UNK N   1      24.265  18.618   3.939  0.00  0.00    -0.404 N 
HETATM   11  H   UNK N   1      24.361  18.351   2.959  0.00  0.00     0.154 HD
BRANCH  10  12
HETATM   12  C   UNK N   1      25.367  19.008   4.818  0.00  0.00     0.175 C 
BRANCH  12  13
HETATM   13  C   UNK N   1      26.036  20.271   4.265  0.00  0.00     0.035 C 
BRANCH  13  14
HETATM   14  C   UNK N   1      27.134  20.789   5.185  0.00  0.00    -0.002 C 
HETATM   15  C   UNK N   1      26.519  21.332   6.456  0.00  0.00     0.005 C 
ENDBRANCH  13  14
ENDBRANCH  12  13
BRANCH  12  16
HETATM   16  C   UNK N   1      26.327  17.859   5.044  0.00  0.00     0.163 C 
HETATM   17  O   UNK N   1      26.857  17.288   4.104  0.00  0.00    -0.648 OA
BRANCH  16  18
HETATM   18  O   UNK N   1      26.623  17.474   6.301  0.00  0.00    -0.775 OA
HETATM   19  H   UNK N   1      27.481  17.516   6.673  0.00  0.00     0.167 HD
ENDBRANCH  16  18
ENDBRANCH  12  16
ENDBRANCH  10  12
ENDBRANCH   9  10
ENDBRANCH   1   9
BRANCH   2  20
HETATM   20  O   UNK N   1      22.796  20.845   2.852  0.00  0.00    -0.358 OA
HETATM   21  H   UNK N   1      22.889  21.766   2.991  0.00  0.00     0.217 HD
ENDBRANCH   2  20
BRANCH   8  22
HETATM   22  C   UNK N   1      20.764  16.701   4.622  0.00  0.00     0.221 C 
BRANCH  22  23
HETATM   23  O   UNK N   1      20.047  15.659   4.019  0.00  0.00    -0.292 OA
BRANCH  23  24
HETATM   24  P   UNK N   1      19.044  14.921   5.249  0.00  0.00     0.391 P 
HETATM   25  O   UNK N   1      18.009  15.997   5.671  0.00  0.00    -0.632 OA
BRANCH  24  26
HETATM   26  O   UNK N   1      19.901  14.478   6.694  0.00  0.00    -0.307 OA
HETATM   27  H   UNK N   1      20.780  14.139   6.921  0.00  0.00     0.222 HD
ENDBRANCH  24  26
BRANCH  24  28
HETATM   28  O   UNK N   1      18.136  13.577   4.634  0.00  0.00    -0.307 OA
HETATM   29  H   UNK N   1      18.596  12.775   4.339  0.00  0.00     0.222 HD
ENDBRANCH  24  28
ENDBRANCH  23  24
ENDBRANCH  22  23
ENDBRANCH   8  22
TORSDOF 13
ENDMDL
MODEL 8
REMARK VINA RESULT:      -5.1     16.023     18.371
REMARK  13 active torsions:
REMARK  status: ('A' for Active; 'I' for Inactive)
REMARK    1  A    between atoms: C_2  and  C_3 
REMARK    2  A    between atoms: C_3  and  C_4 
REMARK    3  A    between atoms: C_4  and  N_5 
REMARK    4  A    between atoms: C_4  and  C_22 
REMARK    5  A    between atoms: N_5  and  C_6 
REMARK    6  A    between atoms: C_6  and  C_7 
REMARK    7  A    between atoms: C_8  and  O_9 
REMARK    8  A    between atoms: C_15  and  C_16 
REMARK    9  A    between atoms: C_16  and  O_17 
REMARK   10  A    between atoms: O_17  and  P_18 
REMARK   11  A    between atoms: P_18  and  O_19 
REMARK   12  A    between atoms: P_18  and  O_20 
REMARK   13  A    between atoms: C_22  and  O_23 
ROOT
HETATM    1  C   UNK N   1      27.434  23.618  -5.267  0.00  0.00     0.004 A 
HETATM    2  C   UNK N   1      26.446  23.281  -6.212  0.00  0.00     0.096 A 
HETATM    3  C   UNK N   1      26.776  22.424  -7.273  0.00  0.00     0.039 A 
HETATM    4  C   UNK N   1      25.759  22.057  -8.297  0.00  0.00     0.071 C 
HETATM    5  N   UNK N   1      28.033  21.922  -7.378  0.00  0.00    -0.367 N 
ATOM      6  HN  UNK N   1      28.255  21.294  -8.151  1.00  0.00     0.165 HD
HETATM    7  C   UNK N   1      29.003  22.235  -6.480  0.00  0.00     0.098 A 
HETATM    8  C   UNK N   1      28.732  23.093  -5.413  0.00  0.00    -0.008 A 
ENDROOT
BRANCH   1   9
HETATM    9  C   UNK N   1      27.108  24.549  -4.132  0.00  0.00     0.157 C 
BRANCH   9  10
HETATM   10  N   UNK N   1      27.232  25.946  -4.535  0.00  0.00    -0.404 N 
HETATM   11  H   UNK N   1      28.098  26.399  -4.826  0.00  0.00     0.154 HD
BRANCH  10  12
HETATM   12  C   UNK N   1      25.924  26.597  -4.455  0.00  0.00     0.175 C 
BRANCH  12  13
HETATM   13  C   UNK N   1      25.595  27.242  -5.806  0.00  0.00     0.035 C 
BRANCH  13  14
HETATM   14  C   UNK N   1      26.798  27.266  -6.739  0.00  0.00    -0.002 C 
HETATM   15  C   UNK N   1      26.476  26.500  -8.004  0.00  0.00     0.005 C 
ENDBRANCH  13  14
ENDBRANCH  12  13
BRANCH  12  16
HETATM   16  C   UNK N   1      25.856  27.558  -3.287  0.00  0.00     0.163 C 
HETATM   17  O   UNK N   1      25.977  27.160  -2.138  0.00  0.00    -0.648 OA
BRANCH  16  18
HETATM   18  O   UNK N   1      25.686  28.874  -3.515  0.00  0.00    -0.775 OA
HETATM   19  H   UNK N   1      26.299  29.534  -3.258  0.00  0.00     0.167 HD
ENDBRANCH  16  18
ENDBRANCH  12  16
ENDBRANCH  10  12
ENDBRANCH   9  10
ENDBRANCH   1   9
BRANCH   2  20
HETATM   20  O   UNK N   1      25.202  23.779  -6.106  0.00  0.00    -0.358 OA
HETATM   21  H   UNK N   1      24.552  24.117  -6.690  0.00  0.00     0.217 HD
ENDBRANCH   2  20
BRANCH   8  22
HETATM   22  C   UNK N   1      29.856  23.437  -4.477  0.00  0.00     0.221 C 
BRANCH  22  23
HETATM   23  O   UNK N   1      29.952  22.499  -3.440  0.00  0.00    -0.292 OA
BRANCH  23  24
HETATM   24  P   UNK N   1      31.484  21.672  -3.610  0.00  0.00     0.391 P 
HETATM   25  O   UNK N   1      32.397  22.612  -4.441  0.00  0.00    -0.632 OA
BRANCH  24  26
HETATM   26  O   UNK N   1      31.393  20.178  -4.493  0.00  0.00    -0.307 OA
HETATM   27  H   UNK N   1      31.143  19.260  -4.309  0.00  0.00     0.222 HD
ENDBRANCH  24  26
BRANCH  24  28
HETATM   28  O   UNK N   1      32.275  21.439  -2.084  0.00  0.00    -0.307 OA
HETATM   29  H   UNK N   1      32.185  22.105  -1.384  0.00  0.00     0.222 HD
ENDBRANCH  24  28
ENDBRANCH  23  24
ENDBRANCH  22  23
ENDBRANCH   8  22
TORSDOF 13
ENDMDL
MODEL 9
REMARK VINA RESULT:      -5.0     16.616     19.002
REMARK  13 active torsions:
REMARK  status: ('A' for Active; 'I' for Inactive)
REMARK    1  A    between atoms: C_2  and  C_3 
REMARK    2  A    between atoms: C_3  and  C_4 
REMARK    3  A    between atoms: C_4  and  N_5 
REMARK    4  A    between atoms: C_4  and  C_22 
REMARK    5  A    between atoms: N_5  and  C_6 
REMARK    6  A    between atoms: C_6  and  C_7 
REMARK    7  A    between atoms: C_8  and  O_9 
REMARK    8  A    between atoms: C_15  and  C_16 
REMARK    9  A    between atoms: C_16  and  O_17 
REMARK   10  A    between atoms: O_17  and  P_18 
REMARK   11  A    between atoms: P_18  and  O_19 
REMARK   12  A    between atoms: P_18  and  O_20 
REMARK   13  A    between atoms: C_22  and  O_23 
ROOT
HETATM    1  C   UNK N   1      28.873  22.741  -5.954  0.00  0.00     0.004 A 
HETATM    2  C   UNK N   1      29.705  22.601  -4.826  0.00  0.00     0.096 A 
HETATM    3  C   UNK N   1      30.512  21.460  -4.706  0.00  0.00     0.039 A 
HETATM    4  C   UNK N   1      31.393  21.274  -3.519  0.00  0.00     0.071 C 
HETATM    5  N   UNK N   1      30.493  20.507  -5.673  0.00  0.00    -0.367 N 
ATOM      6  HN  UNK N   1      31.091  19.687  -5.574  1.00  0.00     0.165 HD
HETATM    7  C   UNK N   1      29.698  20.619  -6.769  0.00  0.00     0.098 A 
HETATM    8  C   UNK N   1      28.866  21.728  -6.931  0.00  0.00    -0.008 A 
ENDROOT
BRANCH   1   9
HETATM    9  C   UNK N   1      27.987  23.947  -6.096  0.00  0.00     0.157 C 
BRANCH   9  10
HETATM   10  N   UNK N   1      26.688  23.732  -5.466  0.00  0.00    -0.404 N 
HETATM   11  H   UNK N   1      26.189  22.843  -5.436  0.00  0.00     0.154 HD
BRANCH  10  12
HETATM   12  C   UNK N   1      26.211  24.987  -4.886  0.00  0.00     0.175 C 
BRANCH  12  13
HETATM   13  C   UNK N   1      26.770  26.165  -5.692  0.00  0.00     0.035 C 
BRANCH  13  14
HETATM   14  C   UNK N   1      25.700  26.840  -6.540  0.00  0.00    -0.002 C 
HETATM   15  C   UNK N   1      24.524  27.220  -5.667  0.00  0.00     0.005 C 
ENDBRANCH  13  14
ENDBRANCH  12  13
BRANCH  12  16
HETATM   16  C   UNK N   1      26.516  25.062  -3.405  0.00  0.00     0.163 C 
HETATM   17  O   UNK N   1      26.415  26.115  -2.794  0.00  0.00    -0.648 OA
BRANCH  16  18
HETATM   18  O   UNK N   1      26.880  23.948  -2.741  0.00  0.00    -0.775 OA
HETATM   19  H   UNK N   1      27.182  23.941  -1.855  0.00  0.00     0.167 HD
ENDBRANCH  16  18
ENDBRANCH  12  16
ENDBRANCH  10  12
ENDBRANCH   9  10
ENDBRANCH   1   9
BRANCH   2  20
HETATM   20  O   UNK N   1      29.721  23.546  -3.869  0.00  0.00    -0.358 OA
HETATM   21  H   UNK N   1      30.373  24.037  -3.409  0.00  0.00     0.217 HD
ENDBRANCH   2  20
BRANCH   8  22
HETATM   22  C   UNK N   1      27.977  21.775  -8.142  0.00  0.00     0.221 C 
BRANCH  22  23
HETATM   23  O   UNK N   1      26.706  21.259  -7.853  0.00  0.00    -0.292 OA
BRANCH  23  24
HETATM   24  P   UNK N   1      25.527  22.255  -8.677  0.00  0.00     0.391 P 
HETATM   25  O   UNK N   1      25.593  21.858 -10.175  0.00  0.00    -0.632 OA
BRANCH  24  26
HETATM   26  O   UNK N   1      25.861  23.958  -8.611  0.00  0.00    -0.307 OA
HETATM   27  H   UNK N   1      26.097  24.659  -9.238  0.00  0.00     0.222 HD
ENDBRANCH  24  26
BRANCH  24  28
HETATM   28  O   UNK N   1      23.907  21.923  -8.149  0.00  0.00    -0.307 OA
HETATM   29  H   UNK N   1      23.736  21.185  -7.543  0.00  0.00     0.222 HD
ENDBRANCH  24  28
ENDBRANCH  23  24
ENDBRANCH  22  23
ENDBRANCH   8  22
TORSDOF 13
ENDMDL
