MODEL 1
REMARK VINA RESULT:      -4.2      0.000      0.000
REMARK  14 active torsions:
REMARK  status: ('A' for Active; 'I' for Inactive)
REMARK    1  A    between atoms: C_2  and  C_3 
REMARK    2  A    between atoms: C_3  and  C_4 
REMARK    3  A    between atoms: C_4  and  C_5 
REMARK    4  A    between atoms: C_5  and  C_6 
REMARK    5  A    between atoms: C_6  and  C_7 
REMARK    6  A    between atoms: C_7  and  C_8 
REMARK    7  A    between atoms: C_8  and  C_9 
REMARK    8  A    between atoms: C_9  and  C_10 
REMARK    9  A    between atoms: C_10  and  C_11 
REMARK   10  A    between atoms: C_11  and  C_12 
REMARK   11  A    between atoms: C_12  and  C_13 
REMARK   12  A    between atoms: C_13  and  C_14 
REMARK   13  A    between atoms: C_14  and  C_15 
REMARK   14  A    between atoms: C_15  and  C_16 
ROOT
HETATM    1  C   UNK N   1      28.724  18.441   8.671  0.00  0.00     0.000 C 
ENDROOT
BRANCH   1   2
HETATM    2  C   UNK N   1      28.656  18.580   7.171  0.00  0.00     0.000 C 
BRANCH   2   3
HETATM    3  C   UNK N   1      27.737  17.505   6.649  0.00  0.00     0.000 C 
BRANCH   3   4
HETATM    4  C   UNK N   1      27.053  17.976   5.389  0.00  0.00     0.000 C 
BRANCH   4   5
HETATM    5  C   UNK N   1      28.029  18.848   4.640  0.00  0.00     0.000 C 
BRANCH   5   6
HETATM    6  C   UNK N   1      27.320  20.035   4.036  0.00  0.00     0.000 C 
BRANCH   6   7
HETATM    7  C   UNK N   1      26.295  20.517   5.037  0.00  0.00    -0.000 C 
BRANCH   7   8
HETATM    8  C   UNK N   1      26.903  21.563   5.941  0.00  0.00    -0.005 C 
HETATM    9  C   UNK N   1      26.260  21.459   7.307  0.00  0.00     0.005 C 
ENDBRANCH   7   8
ENDBRANCH   6   7
ENDBRANCH   5   6
ENDBRANCH   4   5
ENDBRANCH   3   4
ENDBRANCH   2   3
ENDBRANCH   1   2
BRANCH   1  10
HETATM   10  C   UNK N   1      30.158  18.535   9.127  0.00  0.00     0.000 C 
BRANCH  10  11
HETATM   11  C   UNK N   1      30.889  17.319   8.616  0.00  0.00     0.000 C 
BRANCH  11  12
HETATM   12  C   UNK N   1      32.354  17.638   8.445  0.00  0.00     0.000 C 
BRANCH  12  13
HETATM   13  C   UNK N   1      32.673  17.593   6.969  0.00  0.00     0.000 C 
BRANCH  13  14
HETATM   14  C   UNK N   1      31.694  16.690   6.261  0.00  0.00     0.007 C 
BRANCH  14  15
HETATM   15  C   UNK N   1      31.365  17.297   4.908  0.00  0.00     0.069 C 
BRANCH  15  16
HETATM   16  C   UNK N   1      32.587  17.573   4.085  0.00  0.00     0.231 C 
HETATM   17  O   UNK N   1      33.129  16.696   3.430  0.00  0.00    -0.307 OA
ENDBRANCH  15  16
ENDBRANCH  14  15
ENDBRANCH  13  14
ENDBRANCH  12  13
ENDBRANCH  11  12
ENDBRANCH  10  11
ENDBRANCH   1  10
TORSDOF 14
ENDMDL
MODEL 2
REMARK VINA RESULT:      -4.1     10.710     13.787
REMARK  14 active torsions:
REMARK  status: ('A' for Active; 'I' for Inactive)
REMARK    1  A    between atoms: C_2  and  C_3 
REMARK    2  A    between atoms: C_3  and  C_4 
REMARK    3  A    between atoms: C_4  and  C_5 
REMARK    4  A    between atoms: C_5  and  C_6 
REMARK    5  A    between atoms: C_6  and  C_7 
REMARK    6  A    between atoms: C_7  and  C_8 
REMARK    7  A    between atoms: C_8  and  C_9 
REMARK    8  A    between atoms: C_9  and  C_10 
REMARK    9  A    between atoms: C_10  and  C_11 
REMARK   10  A    between atoms: C_11  and  C_12 
REMARK   11  A    between atoms: C_12  and  C_13 
REMARK   12  A    between atoms: C_13  and  C_14 
REMARK   13  A    between atoms: C_14  and  C_15 
REMARK   14  A    between atoms: C_15  and  C_16 
ROOT
HETATM    1  C   UNK N   1      26.430  25.580  -7.543  0.00  0.00     0.000 C 
ENDROOT
BRANCH   1   2
HETATM    2  C   UNK N   1      26.202  26.958  -6.973  0.00  0.00     0.000 C 
BRANCH   2   3
HETATM    3  C   UNK N   1      25.063  26.869  -5.990  0.00  0.00     0.000 C 
BRANCH   3   4
HETATM    4  C   UNK N   1      25.341  27.746  -4.794  0.00  0.00     0.000 C 
BRANCH   4   5
HETATM    5  C   UNK N   1      26.831  27.971  -4.733  0.00  0.00     0.000 C 
BRANCH   5   6
HETATM    6  C   UNK N   1      27.268  28.222  -3.311  0.00  0.00     0.000 C 
BRANCH   6   7
HETATM    7  C   UNK N   1      28.763  28.447  -3.322  0.00  0.00    -0.000 C 
BRANCH   7   8
HETATM    8  C   UNK N   1      29.411  27.581  -4.377  0.00  0.00    -0.005 C 
HETATM    9  C   UNK N   1      30.500  26.755  -3.728  0.00  0.00     0.005 C 
ENDBRANCH   7   8
ENDBRANCH   6   7
ENDBRANCH   5   6
ENDBRANCH   4   5
ENDBRANCH   3   4
ENDBRANCH   2   3
ENDBRANCH   1   2
BRANCH   1  10
HETATM   10  C   UNK N   1      25.783  24.548  -6.654  0.00  0.00     0.000 C 
BRANCH  10  11
HETATM   11  C   UNK N   1      26.834  23.535  -6.275  0.00  0.00     0.000 C 
BRANCH  11  12
HETATM   12  C   UNK N   1      27.697  24.084  -5.166  0.00  0.00     0.000 C 
BRANCH  12  13
HETATM   13  C   UNK N   1      26.812  24.337  -3.968  0.00  0.00     0.000 C 
BRANCH  13  14
HETATM   14  C   UNK N   1      27.506  23.874  -2.711  0.00  0.00     0.007 C 
BRANCH  14  15
HETATM   15  C   UNK N   1      28.959  23.578  -3.041  0.00  0.00     0.069 C 
BRANCH  15  16
HETATM   16  C   UNK N   1      29.695  22.946  -1.898  0.00  0.00     0.231 C 
HETATM   17  O   UNK N   1      30.875  22.642  -1.987  0.00  0.00    -0.307 OA
ENDBRANCH  15  16
ENDBRANCH  14  15
ENDBRANCH  13  14
ENDBRANCH  12  13
ENDBRANCH  11  12
ENDBRANCH  10  11
ENDBRANCH   1  10
TORSDOF 14
ENDMDL
MODEL 3
REMARK VINA RESULT:      -4.1     12.411     14.849
REMARK  14 active torsions:
REMARK  status: ('A' for Active; 'I' for Inactive)
REMARK    1  A    between atoms: C_2  and  C_3 
REMARK    2  A    between atoms: C_3  and  C_4 
REMARK    3  A    between atoms: C_4  and  C_5 
REMARK    4  A    between atoms: C_5  and  C_6 
REMARK    5  A    between atoms: C_6  and  C_7 
REMARK    6  A    between atoms: C_7  and  C_8 
REMARK    7  A    between atoms: C_8  and  C_9 
REMARK    8  A    between atoms: C_9  and  C_10 
REMARK    9  A    between atoms: C_10  and  C_11 
REMARK   10  A    between atoms: C_11  and  C_12 
REMARK   11  A    between atoms: C_12  and  C_13 
REMARK   12  A    between atoms: C_13  and  C_14 
REMARK   13  A    between atoms: C_14  and  C_15 
REMARK   14  A    between atoms: C_15  and  C_16 
ROOT
HETATM    1  C   UNK N   1      26.496  26.187  -7.454  0.00  0.00     0.000 C 
ENDROOT
BRANCH   1   2
HETATM    2  C   UNK N   1      25.595  25.124  -6.876  0.00  0.00     0.000 C 
BRANCH   2   3
HETATM    3  C   UNK N   1      26.337  23.813  -6.925  0.00  0.00     0.000 C 
BRANCH   3   4
HETATM    4  C   UNK N   1      27.152  23.632  -5.669  0.00  0.00     0.000 C 
BRANCH   4   5
HETATM    5  C   UNK N   1      26.301  24.078  -4.506  0.00  0.00     0.000 C 
BRANCH   5   6
HETATM    6  C   UNK N   1      27.147  24.774  -3.469  0.00  0.00     0.000 C 
BRANCH   6   7
HETATM    7  C   UNK N   1      28.568  24.811  -3.984  0.00  0.00    -0.000 C 
BRANCH   7   8
HETATM    8  C   UNK N   1      29.049  26.240  -4.079  0.00  0.00    -0.005 C 
HETATM    9  C   UNK N   1      30.510  26.290  -3.685  0.00  0.00     0.005 C 
ENDBRANCH   7   8
ENDBRANCH   6   7
ENDBRANCH   5   6
ENDBRANCH   4   5
ENDBRANCH   3   4
ENDBRANCH   2   3
ENDBRANCH   1   2
BRANCH   1  10
HETATM   10  C   UNK N   1      26.494  27.398  -6.556  0.00  0.00     0.000 C 
BRANCH  10  11
HETATM   11  C   UNK N   1      25.259  27.335  -5.692  0.00  0.00     0.000 C 
BRANCH  11  12
HETATM   12  C   UNK N   1      25.534  27.991  -4.361  0.00  0.00     0.000 C 
BRANCH  12  13
HETATM   13  C   UNK N   1      26.598  29.041  -4.569  0.00  0.00     0.000 C 
BRANCH  13  14
HETATM   14  C   UNK N   1      26.730  29.890  -3.329  0.00  0.00     0.007 C 
BRANCH  14  15
HETATM   15  C   UNK N   1      27.724  29.228  -2.390  0.00  0.00     0.069 C 
BRANCH  15  16
HETATM   16  C   UNK N   1      28.202  30.149  -1.309  0.00  0.00     0.231 C 
HETATM   17  O   UNK N   1      28.323  29.771  -0.153  0.00  0.00    -0.307 OA
ENDBRANCH  15  16
ENDBRANCH  14  15
ENDBRANCH  13  14
ENDBRANCH  12  13
ENDBRANCH  11  12
ENDBRANCH  10  11
ENDBRANCH   1  10
TORSDOF 14
ENDMDL
MODEL 4
REMARK VINA RESULT:      -4.0     10.638     12.774
REMARK  14 active torsions:
REMARK  status: ('A' for Active; 'I' for Inactive)
REMARK    1  A    between atoms: C_2  and  C_3 
REMARK    2  A    between atoms: C_3  and  C_4 
REMARK    3  A    between atoms: C_4  and  C_5 
REMARK    4  A    between atoms: C_5  and  C_6 
REMARK    5  A    between atoms: C_6  and  C_7 
REMARK    6  A    between atoms: C_7  and  C_8 
REMARK    7  A    between atoms: C_8  and  C_9 
REMARK    8  A    between atoms: C_9  and  C_10 
REMARK    9  A    between atoms: C_10  and  C_11 
REMARK   10  A    between atoms: C_11  and  C_12 
REMARK   11  A    between atoms: C_12  and  C_13 
REMARK   12  A    between atoms: C_13  and  C_14 
REMARK   13  A    between atoms: C_14  and  C_15 
REMARK   14  A    between atoms: C_15  and  C_16 
ROOT
HETATM    1  C   UNK N   1      28.010  24.084  -3.895  0.00  0.00     0.000 C 
ENDROOT
BRANCH   1   2
HETATM    2  C   UNK N   1      26.661  24.757  -3.871  0.00  0.00     0.000 C 
BRANCH   2   3
HETATM    3  C   UNK N   1      25.805  24.114  -4.932  0.00  0.00     0.000 C 
BRANCH   3   4
HETATM    4  C   UNK N   1      26.240  24.578  -6.300  0.00  0.00     0.000 C 
BRANCH   4   5
HETATM    5  C   UNK N   1      25.635  25.940  -6.531  0.00  0.00     0.000 C 
BRANCH   5   6
HETATM    6  C   UNK N   1      26.695  26.920  -6.971  0.00  0.00     0.000 C 
BRANCH   6   7
HETATM    7  C   UNK N   1      26.835  27.964  -5.887  0.00  0.00    -0.000 C 
BRANCH   7   8
HETATM    8  C   UNK N   1      25.605  27.970  -5.009  0.00  0.00    -0.005 C 
HETATM    9  C   UNK N   1      25.981  28.514  -3.648  0.00  0.00     0.005 C 
ENDBRANCH   7   8
ENDBRANCH   6   7
ENDBRANCH   5   6
ENDBRANCH   4   5
ENDBRANCH   3   4
ENDBRANCH   2   3
ENDBRANCH   1   2
BRANCH   1  10
HETATM   10  C   UNK N   1      29.098  25.126  -3.944  0.00  0.00     0.000 C 
BRANCH  10  11
HETATM   11  C   UNK N   1      30.354  24.516  -3.374  0.00  0.00     0.000 C 
BRANCH  11  12
HETATM   12  C   UNK N   1      30.012  23.259  -2.614  0.00  0.00     0.000 C 
BRANCH  12  13
HETATM   13  C   UNK N   1      31.095  22.241  -2.881  0.00  0.00     0.000 C 
BRANCH  13  14
HETATM   14  C   UNK N   1      30.524  21.073  -3.647  0.00  0.00     0.007 C 
BRANCH  14  15
HETATM   15  C   UNK N   1      30.883  21.234  -5.115  0.00  0.00     0.069 C 
BRANCH  15  16
HETATM   16  C   UNK N   1      29.688  21.508  -5.976  0.00  0.00     0.231 C 
HETATM   17  O   UNK N   1      29.615  22.511  -6.670  0.00  0.00    -0.307 OA
ENDBRANCH  15  16
ENDBRANCH  14  15
ENDBRANCH  13  14
ENDBRANCH  12  13
ENDBRANCH  11  12
ENDBRANCH  10  11
ENDBRANCH   1  10
TORSDOF 14
ENDMDL
MODEL 5
REMARK VINA RESULT:      -4.0      8.581     12.162
REMARK  14 active torsions:
REMARK  status: ('A' for Active; 'I' for Inactive)
REMARK    1  A    between atoms: C_2  and  C_3 
REMARK    2  A    between atoms: C_3  and  C_4 
REMARK    3  A    between atoms: C_4  and  C_5 
REMARK    4  A    between atoms: C_5  and  C_6 
REMARK    5  A    between atoms: C_6  and  C_7 
REMARK    6  A    between atoms: C_7  and  C_8 
REMARK    7  A    between atoms: C_8  and  C_9 
REMARK    8  A    between atoms: C_9  and  C_10 
REMARK    9  A    between atoms: C_10  and  C_11 
REMARK   10  A    between atoms: C_11  and  C_12 
REMARK   11  A    between atoms: C_12  and  C_13 
REMARK   12  A    between atoms: C_13  and  C_14 
REMARK   13  A    between atoms: C_14  and  C_15 
REMARK   14  A    between atoms: C_15  and  C_16 
ROOT
HETATM    1  C   UNK N   1      36.918  14.103  15.460  0.00  0.00     0.000 C 
ENDROOT
BRANCH   1   2
HETATM    2  C   UNK N   1      36.128  14.304  16.728  0.00  0.00     0.000 C 
BRANCH   2   3
HETATM    3  C   UNK N   1      35.085  13.220  16.801  0.00  0.00     0.000 C 
BRANCH   3   4
HETATM    4  C   UNK N   1      35.353  12.320  17.983  0.00  0.00     0.000 C 
BRANCH   4   5
HETATM    5  C   UNK N   1      35.191  10.895  17.515  0.00  0.00     0.000 C 
BRANCH   5   6
HETATM    6  C   UNK N   1      36.059  10.634  16.310  0.00  0.00     0.000 C 
BRANCH   6   7
HETATM    7  C   UNK N   1      35.285   9.738  15.370  0.00  0.00    -0.000 C 
BRANCH   7   8
HETATM    8  C   UNK N   1      33.944  10.357  15.049  0.00  0.00    -0.005 C 
HETATM    9  C   UNK N   1      33.909  10.705  13.577  0.00  0.00     0.005 C 
ENDBRANCH   7   8
ENDBRANCH   6   7
ENDBRANCH   5   6
ENDBRANCH   4   5
ENDBRANCH   3   4
ENDBRANCH   2   3
ENDBRANCH   1   2
BRANCH   1  10
HETATM   10  C   UNK N   1      35.993  13.685  14.345  0.00  0.00     0.000 C 
BRANCH  10  11
HETATM   11  C   UNK N   1      36.834  13.121  13.228  0.00  0.00     0.000 C 
BRANCH  11  12
HETATM   12  C   UNK N   1      36.115  13.291  11.912  0.00  0.00     0.000 C 
BRANCH  12  13
HETATM   13  C   UNK N   1      35.224  14.505  12.020  0.00  0.00     0.000 C 
BRANCH  13  14
HETATM   14  C   UNK N   1      35.853  15.669  11.293  0.00  0.00     0.007 C 
BRANCH  14  15
HETATM   15  C   UNK N   1      35.395  15.640   9.845  0.00  0.00     0.069 C 
BRANCH  15  16
HETATM   16  C   UNK N   1      34.787  16.937   9.404  0.00  0.00     0.231 C 
HETATM   17  O   UNK N   1      35.331  18.007   9.627  0.00  0.00    -0.307 OA
ENDBRANCH  15  16
ENDBRANCH  14  15
ENDBRANCH  13  14
ENDBRANCH  12  13
ENDBRANCH  11  12
ENDBRANCH  10  11
ENDBRANCH   1  10
TORSDOF 14
ENDMDL
MODEL 6
REMARK VINA RESULT:      -4.0      9.419     12.811
REMARK  14 active torsions:
REMARK  status: ('A' for Active; 'I' for Inactive)
REMARK    1  A    between atoms: C_2  and  C_3 
REMARK    2  A    between atoms: C_3  and  C_4 
REMARK    3  A    between atoms: C_4  and  C_5 
REMARK    4  A    between atoms: C_5  and  C_6 
REMARK    5  A    between atoms: C_6  and  C_7 
REMARK    6  A    between atoms: C_7  and  C_8 
REMARK    7  A    between atoms: C_8  and  C_9 
REMARK    8  A    between atoms: C_9  and  C_10 
REMARK    9  A    between atoms: C_10  and  C_11 
REMARK   10  A    between atoms: C_11  and  C_12 
REMARK   11  A    between atoms: C_12  and  C_13 
REMARK   12  A    between atoms: C_13  and  C_14 
REMARK   13  A    between atoms: C_14  and  C_15 
REMARK   14  A    between atoms: C_15  and  C_16 
ROOT
HETATM    1  C   UNK N   1      34.893  13.180  16.926  0.00  0.00     0.000 C 
ENDROOT
BRANCH   1   2
HETATM    2  C   UNK N   1      35.354  12.558  18.220  0.00  0.00     0.000 C 
BRANCH   2   3
HETATM    3  C   UNK N   1      35.060  11.082  18.154  0.00  0.00     0.000 C 
BRANCH   3   4
HETATM    4  C   UNK N   1      36.339  10.292  18.290  0.00  0.00     0.000 C 
BRANCH   4   5
HETATM    5  C   UNK N   1      36.436   9.376  17.096  0.00  0.00     0.000 C 
BRANCH   5   6
HETATM    6  C   UNK N   1      35.222   9.527  16.214  0.00  0.00     0.000 C 
BRANCH   6   7
HETATM    7  C   UNK N   1      35.706   9.763  14.802  0.00  0.00    -0.000 C 
BRANCH   7   8
HETATM    8  C   UNK N   1      34.528   9.927  13.870  0.00  0.00    -0.005 C 
HETATM    9  C   UNK N   1      33.466  10.749  14.567  0.00  0.00     0.005 C 
ENDBRANCH   7   8
ENDBRANCH   6   7
ENDBRANCH   5   6
ENDBRANCH   4   5
ENDBRANCH   3   4
ENDBRANCH   2   3
ENDBRANCH   1   2
BRANCH   1  10
HETATM   10  C   UNK N   1      36.082  13.454  16.041  0.00  0.00     0.000 C 
BRANCH  10  11
HETATM   11  C   UNK N   1      35.620  13.390  14.606  0.00  0.00     0.000 C 
BRANCH  11  12
HETATM   12  C   UNK N   1      36.431  14.346  13.767  0.00  0.00     0.000 C 
BRANCH  12  13
HETATM   13  C   UNK N   1      36.263  13.953  12.318  0.00  0.00     0.000 C 
BRANCH  13  14
HETATM   14  C   UNK N   1      34.839  14.195  11.883  0.00  0.00     0.007 C 
BRANCH  14  15
HETATM   15  C   UNK N   1      34.852  14.755  10.471  0.00  0.00     0.069 C 
BRANCH  15  16
HETATM   16  C   UNK N   1      35.613  16.042  10.366  0.00  0.00     0.231 C 
HETATM   17  O   UNK N   1      35.232  17.058  10.927  0.00  0.00    -0.307 OA
ENDBRANCH  15  16
ENDBRANCH  14  15
ENDBRANCH  13  14
ENDBRANCH  12  13
ENDBRANCH  11  12
ENDBRANCH  10  11
ENDBRANCH   1  10
TORSDOF 14
ENDMDL
MODEL 7
REMARK VINA RESULT:      -4.0      2.607      4.410
REMARK  14 active torsions:
REMARK  status: ('A' for Active; 'I' for Inactive)
REMARK    1  A    between atoms: C_2  and  C_3 
REMARK    2  A    between atoms: C_3  and  C_4 
REMARK    3  A    between atoms: C_4  and  C_5 
REMARK    4  A    between atoms: C_5  and  C_6 
REMARK    5  A    between atoms: C_6  and  C_7 
REMARK    6  A    between atoms: C_7  and  C_8 
REMARK    7  A    between atoms: C_8  and  C_9 
REMARK    8  A    between atoms: C_9  and  C_10 
REMARK    9  A    between atoms: C_10  and  C_11 
REMARK   10  A    between atoms: C_11  and  C_12 
REMARK   11  A    between atoms: C_12  and  C_13 
REMARK   12  A    between atoms: C_13  and  C_14 
REMARK   13  A    between atoms: C_14  and  C_15 
REMARK   14  A    between atoms: C_15  and  C_16 
ROOT
HETATM    1  C   UNK N   1      31.501  17.100   7.124  0.00  0.00     0.000 C 
ENDROOT
BRANCH   1   2
HETATM    2  C   UNK N   1      31.950  17.912   8.313  0.00  0.00     0.000 C 
BRANCH   2   3
HETATM    3  C   UNK N   1      30.722  18.498   8.961  0.00  0.00     0.000 C 
BRANCH   3   4
HETATM    4  C   UNK N   1      29.577  17.519   8.884  0.00  0.00     0.000 C 
BRANCH   4   5
HETATM    5  C   UNK N   1      28.297  18.317   8.876  0.00  0.00     0.000 C 
BRANCH   5   6
HETATM    6  C   UNK N   1      28.158  19.078   7.581  0.00  0.00     0.000 C 
BRANCH   6   7
HETATM    7  C   UNK N   1      27.920  18.071   6.479  0.00  0.00    -0.000 C 
BRANCH   7   8
HETATM    8  C   UNK N   1      28.648  18.494   5.224  0.00  0.00    -0.005 C 
HETATM    9  C   UNK N   1      27.981  19.734   4.668  0.00  0.00     0.005 C 
ENDBRANCH   7   8
ENDBRANCH   6   7
ENDBRANCH   5   6
ENDBRANCH   4   5
ENDBRANCH   3   4
ENDBRANCH   2   3
ENDBRANCH   1   2
BRANCH   1  10
HETATM   10  C   UNK N   1      32.388  17.396   5.941  0.00  0.00     0.000 C 
BRANCH  10  11
HETATM   11  C   UNK N   1      33.822  17.276   6.393  0.00  0.00     0.000 C 
BRANCH  11  12
HETATM   12  C   UNK N   1      34.276  15.842   6.275  0.00  0.00     0.000 C 
BRANCH  12  13
HETATM   13  C   UNK N   1      35.047  15.492   7.525  0.00  0.00     0.000 C 
BRANCH  13  14
HETATM   14  C   UNK N   1      34.146  14.773   8.499  0.00  0.00     0.007 C 
BRANCH  14  15
HETATM   15  C   UNK N   1      34.111  15.559   9.798  0.00  0.00     0.069 C 
BRANCH  15  16
HETATM   16  C   UNK N   1      35.432  16.182  10.134  0.00  0.00     0.231 C 
HETATM   17  O   UNK N   1      35.526  17.364  10.430  0.00  0.00    -0.307 OA
ENDBRANCH  15  16
ENDBRANCH  14  15
ENDBRANCH  13  14
ENDBRANCH  12  13
ENDBRANCH  11  12
ENDBRANCH  10  11
ENDBRANCH   1  10
TORSDOF 14
ENDMDL
MODEL 8
REMARK VINA RESULT:      -4.0      8.025     10.341
REMARK  14 active torsions:
REMARK  status: ('A' for Active; 'I' for Inactive)
REMARK    1  A    between atoms: C_2  and  C_3 
REMARK    2  A    between atoms: C_3  and  C_4 
REMARK    3  A    between atoms: C_4  and  C_5 
REMARK    4  A    between atoms: C_5  and  C_6 
REMARK    5  A    between atoms: C_6  and  C_7 
REMARK    6  A    between atoms: C_7  and  C_8 
REMARK    7  A    between atoms: C_8  and  C_9 
REMARK    8  A    between atoms: C_9  and  C_10 
REMARK    9  A    between atoms: C_10  and  C_11 
REMARK   10  A    between atoms: C_11  and  C_12 
REMARK   11  A    between atoms: C_12  and  C_13 
REMARK   12  A    between atoms: C_13  and  C_14 
REMARK   13  A    between atoms: C_14  and  C_15 
REMARK   14  A    between atoms: C_15  and  C_16 
ROOT
HETATM    1  C   UNK N   1      21.991  12.270  10.793  0.00  0.00     0.000 C 
ENDROOT
BRANCH   1   2
HETATM    2  C   UNK N   1      23.274  12.892  10.301  0.00  0.00     0.000 C 
BRANCH   2   3
HETATM    3  C   UNK N   1      24.164  11.783   9.802  0.00  0.00     0.000 C 
BRANCH   3   4
HETATM    4  C   UNK N   1      23.566  11.154   8.568  0.00  0.00     0.000 C 
BRANCH   4   5
HETATM    5  C   UNK N   1      24.020  11.964   7.379  0.00  0.00     0.000 C 
BRANCH   5   6
HETATM    6  C   UNK N   1      22.832  12.460   6.593  0.00  0.00     0.000 C 
BRANCH   6   7
HETATM    7  C   UNK N   1      23.159  13.847   6.091  0.00  0.00    -0.000 C 
BRANCH   7   8
HETATM    8  C   UNK N   1      24.102  14.538   7.048  0.00  0.00    -0.005 C 
HETATM    9  C   UNK N   1      25.011  15.455   6.259  0.00  0.00     0.005 C 
ENDBRANCH   7   8
ENDBRANCH   6   7
ENDBRANCH   5   6
ENDBRANCH   4   5
ENDBRANCH   3   4
ENDBRANCH   2   3
ENDBRANCH   1   2
BRANCH   1  10
HETATM   10  C   UNK N   1      20.813  13.061  10.283  0.00  0.00     0.000 C 
BRANCH  10  11
HETATM   11  C   UNK N   1      21.342  14.305   9.614  0.00  0.00     0.000 C 
BRANCH  11  12
HETATM   12  C   UNK N   1      20.357  14.786   8.578  0.00  0.00     0.000 C 
BRANCH  12  13
HETATM   13  C   UNK N   1      20.507  16.283   8.450  0.00  0.00     0.000 C 
BRANCH  13  14
HETATM   14  C   UNK N   1      20.456  16.681   6.995  0.00  0.00     0.007 C 
BRANCH  14  15
HETATM   15  C   UNK N   1      19.956  15.497   6.186  0.00  0.00     0.069 C 
BRANCH  15  16
HETATM   16  C   UNK N   1      18.775  15.839   5.329  0.00  0.00     0.231 C 
HETATM   17  O   UNK N   1      17.646  15.907   5.792  0.00  0.00    -0.307 OA
ENDBRANCH  15  16
ENDBRANCH  14  15
ENDBRANCH  13  14
ENDBRANCH  12  13
ENDBRANCH  11  12
ENDBRANCH  10  11
ENDBRANCH   1  10
TORSDOF 14
ENDMDL
MODEL 9
REMARK VINA RESULT:      -3.9     12.686     14.674
REMARK  14 active torsions:
REMARK  status: ('A' for Active; 'I' for Inactive)
REMARK    1  A    between atoms: C_2  and  C_3 
REMARK    2  A    between atoms: C_3  and  C_4 
REMARK    3  A    between atoms: C_4  and  C_5 
REMARK    4  A    between atoms: C_5  and  C_6 
REMARK    5  A    between atoms: C_6  and  C_7 
REMARK    6  A    between atoms: C_7  and  C_8 
REMARK    7  A    between atoms: C_8  and  C_9 
REMARK    8  A    between atoms: C_9  and  C_10 
REMARK    9  A    between atoms: C_10  and  C_11 
REMARK   10  A    between atoms: C_11  and  C_12 
REMARK   11  A    between atoms: C_12  and  C_13 
REMARK   12  A    between atoms: C_13  and  C_14 
REMARK   13  A    between atoms: C_14  and  C_15 
REMARK   14  A    between atoms: C_15  and  C_16 
ROOT
HETATM    1  C   UNK N   1      25.731  26.773  -6.937  0.00  0.00     0.000 C 
ENDROOT
BRANCH   1   2
HETATM    2  C   UNK N   1      24.913  27.103  -5.714  0.00  0.00     0.000 C 
BRANCH   2   3
HETATM    3  C   UNK N   1      25.657  28.152  -4.929  0.00  0.00     0.000 C 
BRANCH   3   4
HETATM    4  C   UNK N   1      25.672  27.790  -3.464  0.00  0.00     0.000 C 
BRANCH   4   5
HETATM    5  C   UNK N   1      27.027  28.164  -2.918  0.00  0.00     0.000 C 
BRANCH   5   6
HETATM    6  C   UNK N   1      27.619  29.305  -3.709  0.00  0.00     0.000 C 
BRANCH   6   7
HETATM    7  C   UNK N   1      29.120  29.252  -3.540  0.00  0.00    -0.000 C 
BRANCH   7   8
HETATM    8  C   UNK N   1      29.586  30.399  -2.675  0.00  0.00    -0.005 C 
HETATM    9  C   UNK N   1      29.901  29.870  -1.293  0.00  0.00     0.005 C 
ENDBRANCH   7   8
ENDBRANCH   6   7
ENDBRANCH   5   6
ENDBRANCH   4   5
ENDBRANCH   3   4
ENDBRANCH   2   3
ENDBRANCH   1   2
BRANCH   1  10
HETATM   10  C   UNK N   1      27.067  27.468  -6.859  0.00  0.00     0.000 C 
BRANCH  10  11
HETATM   11  C   UNK N   1      28.145  26.422  -6.993  0.00  0.00     0.000 C 
BRANCH  11  12
HETATM   12  C   UNK N   1      28.782  26.170  -5.650  0.00  0.00     0.000 C 
BRANCH  12  13
HETATM   13  C   UNK N   1      28.490  24.743  -5.254  0.00  0.00     0.000 C 
BRANCH  13  14
HETATM   14  C   UNK N   1      27.694  24.719  -3.972  0.00  0.00     0.007 C 
BRANCH  14  15
HETATM   15  C   UNK N   1      26.314  24.156  -4.268  0.00  0.00     0.069 C 
BRANCH  15  16
HETATM   16  C   UNK N   1      26.246  23.461  -5.594  0.00  0.00     0.231 C 
HETATM   17  O   UNK N   1      25.187  23.318  -6.188  0.00  0.00    -0.307 OA
ENDBRANCH  15  16
ENDBRANCH  14  15
ENDBRANCH  13  14
ENDBRANCH  12  13
ENDBRANCH  11  12
ENDBRANCH  10  11
ENDBRANCH   1  10
TORSDOF 14
ENDMDL
