MODEL 1
REMARK VINA RESULT:      -4.7      0.000      0.000
REMARK WARNING: 32 MAX_TORS EXCEEDED!!!
REMARK  38 active torsions:
REMARK  status: ('A' for Active; 'I' for Inactive)
REMARK    1  A    between atoms: C_17  and  C_11 
REMARK    2  A    between atoms: C_19  and  C_11 
REMARK    3  A    between atoms: C_18  and  C_12 
REMARK    4  A    between atoms: C_20  and  C_12 
REMARK    5  A    between atoms: C_21  and  C_13 
REMARK    6  A    between atoms: C_23  and  C_13 
REMARK    7  A    between atoms: C_22  and  C_14 
REMARK    8  A    between atoms: C_24  and  C_14 
REMARK    9  A    between atoms: C_25  and  C_15 
REMARK   10  A    between atoms: C_27  and  C_15 
REMARK   11  A    between atoms: C_26  and  C_16 
REMARK   12  A    between atoms: C_28  and  C_16 
REMARK   13  A    between atoms: C_35  and  C_17 
REMARK   14  A    between atoms: C_36  and  C_18 
REMARK   15  A    between atoms: C_37  and  C_19 
REMARK   16  A    between atoms: C_38  and  C_20 
REMARK   17  A    between atoms: C_37  and  C_21 
REMARK   18  A    between atoms: C_38  and  C_22 
REMARK   19  A    between atoms: C_39  and  C_23 
REMARK   20  A    between atoms: C_40  and  C_24 
REMARK   21  A    between atoms: C_39  and  C_25 
REMARK   22  A    between atoms: C_40  and  C_26 
REMARK   23  A    between atoms: C_41  and  C_27 
REMARK   24  A    between atoms: C_42  and  C_28 
REMARK   25  A    between atoms: C_31  and  C_29 
REMARK   26  A    between atoms: C_41  and  C_29 
REMARK   27  A    between atoms: C_32  and  C_30 
REMARK   28  A    between atoms: C_42  and  C_30 
REMARK   29  A    between atoms: O_47  and  C_31 
REMARK   30  A    between atoms: O_48  and  C_32 
REMARK   31  A    between atoms: C_43  and  C_33 
REMARK   32  A    between atoms: O_47  and  C_33 
REMARK   33  A    between atoms: C_43  and  C_34 
REMARK   34  A    between atoms: O_49  and  C_34 
REMARK   35  A    between atoms: C_43  and  O_48 
REMARK   36  A    between atoms: P_50  and  O_44 
REMARK   37  A    between atoms: P_50  and  O_45 
REMARK   38  A    between atoms: P_50  and  O_49 
ROOT
HETATM    1  C   UNK N   1      19.563  17.085   3.036  0.00  0.00     0.169 C 
ENDROOT
BRANCH   1   2
HETATM    2  C   UNK N   1      20.478  16.314   2.074  0.00  0.00     0.201 C 
BRANCH   2   3
HETATM    3  O   UNK N   1      19.894  15.114   1.666  0.00  0.00    -0.389 OA
BRANCH   3   4
HETATM    4  C   UNK N   1      20.808  14.142   2.082  0.00  0.00     0.168 C 
BRANCH   4   5
HETATM    5  C   UNK N   1      21.438  13.490   0.861  0.00  0.00     0.030 C 
BRANCH   5   6
HETATM    6  C   UNK N   1      22.911  13.203   1.094  0.00  0.00    -0.017 C 
HETATM    7  C   UNK N   1      23.601  13.152  -0.252  0.00  0.00     0.010 C 
BRANCH   6   8
HETATM    8  C   UNK N   1      23.573  14.310   1.905  0.00  0.00     0.004 C 
BRANCH   8   9
HETATM    9  C   UNK N   1      25.101  14.349   1.890  0.00  0.00     0.001 C 
BRANCH   9  10
HETATM   10  C   UNK N   1      25.815  13.150   2.521  0.00  0.00     0.004 C 
BRANCH  10  11
HETATM   11  C   UNK N   1      26.686  12.267   1.619  0.00  0.00    -0.019 C 
HETATM   12  C   UNK N   1      28.159  12.604   1.794  0.00  0.00     0.010 C 
BRANCH  11  13
HETATM   13  C   UNK N   1      26.413  10.758   1.719  0.00  0.00     0.004 C 
BRANCH  13  14
HETATM   14  C   UNK N   1      25.089  10.448   2.420  0.00  0.00     0.001 C 
BRANCH  14  15
HETATM   15  C   UNK N   1      24.026   9.790   1.536  0.00  0.00     0.004 C 
BRANCH  15  16
HETATM   16  C   UNK N   1      22.734   9.330   2.231  0.00  0.00    -0.019 C 
HETATM   17  C   UNK N   1      21.491   9.887   1.557  0.00  0.00     0.010 C 
BRANCH  16  18
HETATM   18  C   UNK N   1      22.741   9.704   3.708  0.00  0.00     0.004 C 
BRANCH  18  19
HETATM   19  C   UNK N   1      21.961  10.991   3.940  0.00  0.00     0.001 C 
BRANCH  19  20
HETATM   20  C   UNK N   1      22.790  12.010   4.715  0.00  0.00     0.004 C 
BRANCH  20  21
HETATM   21  C   UNK N   1      23.637  11.391   5.832  0.00  0.00    -0.023 C 
HETATM   22  C   UNK N   1      22.969  11.517   7.191  0.00  0.00     0.009 C 
HETATM   23  C   UNK N   1      25.042  11.963   5.875  0.00  0.00     0.009 C 
ENDBRANCH  20  21
ENDBRANCH  19  20
ENDBRANCH  18  19
ENDBRANCH  16  18
ENDBRANCH  15  16
ENDBRANCH  14  15
ENDBRANCH  13  14
ENDBRANCH  11  13
ENDBRANCH  10  11
ENDBRANCH   9  10
ENDBRANCH   8   9
ENDBRANCH   6   8
ENDBRANCH   5   6
ENDBRANCH   4   5
ENDBRANCH   3   4
ENDBRANCH   2   3
ENDBRANCH   1   2
BRANCH   1  24
HETATM   24  C   UNK N   1      19.956  18.556   2.977  0.00  0.00     0.214 C 
BRANCH  24  25
HETATM   25  O   UNK N   1      20.670  18.845   1.812  0.00  0.00    -0.294 OA
BRANCH  25  26
HETATM   26  P   UNK N   1      21.011  20.547   1.942  0.00  0.00     0.390 P 
HETATM   27  O   UNK N   1      22.553  20.708   1.944  0.00  0.00    -0.632 OA
BRANCH  26  28
HETATM   28  O   UNK N   1      20.430  21.221   3.434  0.00  0.00    -0.307 OA
HETATM   29  H   UNK N   1      19.479  21.312   3.598  0.00  0.00     0.222 HD
ENDBRANCH  26  28
BRANCH  26  30
HETATM   30  O   UNK N   1      20.419  21.431   0.569  0.00  0.00    -0.307 OA
HETATM   31  H   UNK N   1      20.354  22.086  -0.143  0.00  0.00     0.222 HD
ENDBRANCH  26  30
ENDBRANCH  25  26
ENDBRANCH  24  25
ENDBRANCH   1  24
BRANCH   1  32
HETATM   32  O   UNK N   1      19.552  16.563   4.358  0.00  0.00    -0.382 OA
BRANCH  32  33
HETATM   33  C   UNK N   1      20.795  16.813   4.970  0.00  0.00     0.168 C 
BRANCH  33  34
HETATM   34  C   UNK N   1      21.471  15.536   5.469  0.00  0.00     0.030 C 
BRANCH  34  35
HETATM   35  C   UNK N   1      22.152  15.697   6.823  0.00  0.00    -0.017 C 
HETATM   36  C   UNK N   1      21.424  14.876   7.871  0.00  0.00     0.010 C 
BRANCH  35  37
HETATM   37  C   UNK N   1      23.584  15.201   6.742  0.00  0.00     0.004 C 
BRANCH  37  38
HETATM   38  C   UNK N   1      24.192  15.411   5.355  0.00  0.00     0.001 C 
BRANCH  38  39
HETATM   39  C   UNK N   1      24.997  16.718   5.224  0.00  0.00     0.004 C 
BRANCH  39  40
HETATM   40  C   UNK N   1      24.541  17.685   4.120  0.00  0.00    -0.019 C 
HETATM   41  C   UNK N   1      23.681  18.802   4.704  0.00  0.00     0.010 C 
BRANCH  40  42
HETATM   42  C   UNK N   1      25.737  18.165   3.293  0.00  0.00     0.004 C 
BRANCH  42  43
HETATM   43  C   UNK N   1      26.025  19.665   3.344  0.00  0.00     0.001 C 
BRANCH  43  44
HETATM   44  C   UNK N   1      27.269  20.004   4.174  0.00  0.00     0.004 C 
BRANCH  44  45
HETATM   45  C   UNK N   1      27.076  20.024   5.696  0.00  0.00    -0.019 C 
HETATM   46  C   UNK N   1      27.425  21.407   6.227  0.00  0.00     0.010 C 
BRANCH  45  47
HETATM   47  C   UNK N   1      27.932  18.943   6.375  0.00  0.00     0.004 C 
BRANCH  47  48
HETATM   48  C   UNK N   1      28.733  18.018   5.455  0.00  0.00     0.001 C 
BRANCH  48  49
HETATM   49  C   UNK N   1      28.738  16.555   5.874  0.00  0.00     0.004 C 
BRANCH  49  50
HETATM   50  C   UNK N   1      28.217  15.701   4.730  0.00  0.00    -0.023 C 
HETATM   51  C   UNK N   1      28.826  16.155   3.416  0.00  0.00     0.009 C 
HETATM   52  C   UNK N   1      28.570  14.250   4.970  0.00  0.00     0.009 C 
ENDBRANCH  49  50
ENDBRANCH  48  49
ENDBRANCH  47  48
ENDBRANCH  45  47
ENDBRANCH  44  45
ENDBRANCH  43  44
ENDBRANCH  42  43
ENDBRANCH  40  42
ENDBRANCH  39  40
ENDBRANCH  38  39
ENDBRANCH  37  38
ENDBRANCH  35  37
ENDBRANCH  34  35
ENDBRANCH  33  34
ENDBRANCH  32  33
ENDBRANCH   1  32
TORSDOF 38
ENDMDL
MODEL 2
REMARK VINA RESULT:      -4.6      2.024      5.071
REMARK WARNING: 32 MAX_TORS EXCEEDED!!!
REMARK  38 active torsions:
REMARK  status: ('A' for Active; 'I' for Inactive)
REMARK    1  A    between atoms: C_17  and  C_11 
REMARK    2  A    between atoms: C_19  and  C_11 
REMARK    3  A    between atoms: C_18  and  C_12 
REMARK    4  A    between atoms: C_20  and  C_12 
REMARK    5  A    between atoms: C_21  and  C_13 
REMARK    6  A    between atoms: C_23  and  C_13 
REMARK    7  A    between atoms: C_22  and  C_14 
REMARK    8  A    between atoms: C_24  and  C_14 
REMARK    9  A    between atoms: C_25  and  C_15 
REMARK   10  A    between atoms: C_27  and  C_15 
REMARK   11  A    between atoms: C_26  and  C_16 
REMARK   12  A    between atoms: C_28  and  C_16 
REMARK   13  A    between atoms: C_35  and  C_17 
REMARK   14  A    between atoms: C_36  and  C_18 
REMARK   15  A    between atoms: C_37  and  C_19 
REMARK   16  A    between atoms: C_38  and  C_20 
REMARK   17  A    between atoms: C_37  and  C_21 
REMARK   18  A    between atoms: C_38  and  C_22 
REMARK   19  A    between atoms: C_39  and  C_23 
REMARK   20  A    between atoms: C_40  and  C_24 
REMARK   21  A    between atoms: C_39  and  C_25 
REMARK   22  A    between atoms: C_40  and  C_26 
REMARK   23  A    between atoms: C_41  and  C_27 
REMARK   24  A    between atoms: C_42  and  C_28 
REMARK   25  A    between atoms: C_31  and  C_29 
REMARK   26  A    between atoms: C_41  and  C_29 
REMARK   27  A    between atoms: C_32  and  C_30 
REMARK   28  A    between atoms: C_42  and  C_30 
REMARK   29  A    between atoms: O_47  and  C_31 
REMARK   30  A    between atoms: O_48  and  C_32 
REMARK   31  A    between atoms: C_43  and  C_33 
REMARK   32  A    between atoms: O_47  and  C_33 
REMARK   33  A    between atoms: C_43  and  C_34 
REMARK   34  A    between atoms: O_49  and  C_34 
REMARK   35  A    between atoms: C_43  and  O_48 
REMARK   36  A    between atoms: P_50  and  O_44 
REMARK   37  A    between atoms: P_50  and  O_45 
REMARK   38  A    between atoms: P_50  and  O_49 
ROOT
HETATM    1  C   UNK N   1      21.513  16.966   4.193  0.00  0.00     0.169 C 
ENDROOT
BRANCH   1   2
HETATM    2  C   UNK N   1      20.360  17.250   5.164  0.00  0.00     0.201 C 
BRANCH   2   3
HETATM    3  O   UNK N   1      20.810  17.330   6.482  0.00  0.00    -0.389 OA
BRANCH   3   4
HETATM    4  C   UNK N   1      19.879  16.573   7.198  0.00  0.00     0.168 C 
BRANCH   4   5
HETATM    5  C   UNK N   1      20.478  16.178   8.539  0.00  0.00     0.030 C 
BRANCH   5   6
HETATM    6  C   UNK N   1      20.392  14.677   8.754  0.00  0.00    -0.017 C 
HETATM    7  C   UNK N   1      20.700  13.993   7.440  0.00  0.00     0.010 C 
BRANCH   6   8
HETATM    8  C   UNK N   1      21.422  14.199   9.771  0.00  0.00     0.004 C 
BRANCH   8   9
HETATM    9  C   UNK N   1      21.215  12.799  10.349  0.00  0.00     0.001 C 
BRANCH   9  10
HETATM   10  C   UNK N   1      22.421  11.857  10.286  0.00  0.00     0.004 C 
BRANCH  10  11
HETATM   11  C   UNK N   1      23.507  12.135   9.240  0.00  0.00    -0.019 C 
HETATM   12  C   UNK N   1      24.832  12.462   9.912  0.00  0.00     0.010 C 
BRANCH  11  13
HETATM   13  C   UNK N   1      23.651  11.066   8.146  0.00  0.00     0.004 C 
BRANCH  13  14
HETATM   14  C   UNK N   1      24.114  11.653   6.812  0.00  0.00     0.001 C 
BRANCH  14  15
HETATM   15  C   UNK N   1      23.004  11.873   5.780  0.00  0.00     0.004 C 
BRANCH  15  16
HETATM   16  C   UNK N   1      23.377  11.659   4.304  0.00  0.00    -0.019 C 
HETATM   17  C   UNK N   1      22.569  10.542   3.664  0.00  0.00     0.010 C 
BRANCH  16  18
HETATM   18  C   UNK N   1      24.867  11.384   4.147  0.00  0.00     0.004 C 
BRANCH  18  19
HETATM   19  C   UNK N   1      25.571  12.579   3.518  0.00  0.00     0.001 C 
BRANCH  19  20
HETATM   20  C   UNK N   1      25.490  12.531   1.995  0.00  0.00     0.004 C 
BRANCH  20  21
HETATM   21  C   UNK N   1      24.400  13.434   1.409  0.00  0.00    -0.023 C 
HETATM   22  C   UNK N   1      23.736  12.812   0.193  0.00  0.00     0.009 C 
HETATM   23  C   UNK N   1      24.918  14.823   1.079  0.00  0.00     0.009 C 
ENDBRANCH  20  21
ENDBRANCH  19  20
ENDBRANCH  18  19
ENDBRANCH  16  18
ENDBRANCH  15  16
ENDBRANCH  14  15
ENDBRANCH  13  14
ENDBRANCH  11  13
ENDBRANCH  10  11
ENDBRANCH   9  10
ENDBRANCH   8   9
ENDBRANCH   6   8
ENDBRANCH   5   6
ENDBRANCH   4   5
ENDBRANCH   3   4
ENDBRANCH   2   3
ENDBRANCH   1   2
BRANCH   1  24
HETATM   24  C   UNK N   1      21.102  17.472   2.816  0.00  0.00     0.214 C 
BRANCH  24  25
HETATM   25  O   UNK N   1      19.829  17.016   2.467  0.00  0.00    -0.294 OA
BRANCH  25  26
HETATM   26  P   UNK N   1      19.995  16.548   0.798  0.00  0.00     0.390 P 
HETATM   27  O   UNK N   1      21.208  15.586   0.710  0.00  0.00    -0.632 OA
BRANCH  26  28
HETATM   28  O   UNK N   1      20.348  17.901  -0.232  0.00  0.00    -0.307 OA
HETATM   29  H   UNK N   1      21.039  18.538   0.008  0.00  0.00     0.222 HD
ENDBRANCH  26  28
BRANCH  26  30
HETATM   30  O   UNK N   1      18.612  15.660   0.236  0.00  0.00    -0.307 OA
HETATM   31  H   UNK N   1      18.026  14.923   0.006  0.00  0.00     0.222 HD
ENDBRANCH  26  30
ENDBRANCH  25  26
ENDBRANCH  24  25
ENDBRANCH   1  24
BRANCH   1  32
HETATM   32  O   UNK N   1      21.936  15.609   4.184  0.00  0.00    -0.382 OA
BRANCH  32  33
HETATM   33  C   UNK N   1      23.342  15.557   4.254  0.00  0.00     0.168 C 
BRANCH  33  34
HETATM   34  C   UNK N   1      23.854  15.454   5.691  0.00  0.00     0.030 C 
BRANCH  34  35
HETATM   35  C   UNK N   1      25.289  15.940   5.862  0.00  0.00    -0.017 C 
HETATM   36  C   UNK N   1      26.047  15.004   6.784  0.00  0.00     0.010 C 
BRANCH  35  37
HETATM   37  C   UNK N   1      25.992  15.955   4.517  0.00  0.00     0.004 C 
BRANCH  37  38
HETATM   38  C   UNK N   1      26.885  17.184   4.344  0.00  0.00     0.001 C 
BRANCH  38  39
HETATM   39  C   UNK N   1      26.189  18.511   4.704  0.00  0.00     0.004 C 
BRANCH  39  40
HETATM   40  C   UNK N   1      26.982  19.793   4.407  0.00  0.00    -0.019 C 
HETATM   41  C   UNK N   1      26.416  20.505   3.183  0.00  0.00     0.010 C 
BRANCH  40  42
HETATM   42  C   UNK N   1      27.091  20.664   5.661  0.00  0.00     0.004 C 
BRANCH  42  43
HETATM   43  C   UNK N   1      27.156  19.915   6.991  0.00  0.00     0.001 C 
BRANCH  43  44
HETATM   44  C   UNK N   1      28.465  19.138   7.174  0.00  0.00     0.004 C 
BRANCH  44  45
HETATM   45  C   UNK N   1      28.321  17.676   7.616  0.00  0.00    -0.019 C 
HETATM   46  C   UNK N   1      28.325  17.609   9.136  0.00  0.00     0.010 C 
BRANCH  45  47
HETATM   47  C   UNK N   1      29.443  16.808   7.025  0.00  0.00     0.004 C 
BRANCH  47  48
HETATM   48  C   UNK N   1      30.542  17.536   6.248  0.00  0.00     0.001 C 
BRANCH  48  49
HETATM   49  C   UNK N   1      30.573  17.232   4.757  0.00  0.00     0.004 C 
BRANCH  49  50
HETATM   50  C   UNK N   1      31.916  17.653   4.184  0.00  0.00    -0.023 C 
HETATM   51  C   UNK N   1      33.005  17.499   5.229  0.00  0.00     0.009 C 
HETATM   52  C   UNK N   1      32.252  16.799   2.982  0.00  0.00     0.009 C 
ENDBRANCH  49  50
ENDBRANCH  48  49
ENDBRANCH  47  48
ENDBRANCH  45  47
ENDBRANCH  44  45
ENDBRANCH  43  44
ENDBRANCH  42  43
ENDBRANCH  40  42
ENDBRANCH  39  40
ENDBRANCH  38  39
ENDBRANCH  37  38
ENDBRANCH  35  37
ENDBRANCH  34  35
ENDBRANCH  33  34
ENDBRANCH  32  33
ENDBRANCH   1  32
TORSDOF 38
ENDMDL
MODEL 3
REMARK VINA RESULT:      -4.6      2.067      4.726
REMARK WARNING: 32 MAX_TORS EXCEEDED!!!
REMARK  38 active torsions:
REMARK  status: ('A' for Active; 'I' for Inactive)
REMARK    1  A    between atoms: C_17  and  C_11 
REMARK    2  A    between atoms: C_19  and  C_11 
REMARK    3  A    between atoms: C_18  and  C_12 
REMARK    4  A    between atoms: C_20  and  C_12 
REMARK    5  A    between atoms: C_21  and  C_13 
REMARK    6  A    between atoms: C_23  and  C_13 
REMARK    7  A    between atoms: C_22  and  C_14 
REMARK    8  A    between atoms: C_24  and  C_14 
REMARK    9  A    between atoms: C_25  and  C_15 
REMARK   10  A    between atoms: C_27  and  C_15 
REMARK   11  A    between atoms: C_26  and  C_16 
REMARK   12  A    between atoms: C_28  and  C_16 
REMARK   13  A    between atoms: C_35  and  C_17 
REMARK   14  A    between atoms: C_36  and  C_18 
REMARK   15  A    between atoms: C_37  and  C_19 
REMARK   16  A    between atoms: C_38  and  C_20 
REMARK   17  A    between atoms: C_37  and  C_21 
REMARK   18  A    between atoms: C_38  and  C_22 
REMARK   19  A    between atoms: C_39  and  C_23 
REMARK   20  A    between atoms: C_40  and  C_24 
REMARK   21  A    between atoms: C_39  and  C_25 
REMARK   22  A    between atoms: C_40  and  C_26 
REMARK   23  A    between atoms: C_41  and  C_27 
REMARK   24  A    between atoms: C_42  and  C_28 
REMARK   25  A    between atoms: C_31  and  C_29 
REMARK   26  A    between atoms: C_41  and  C_29 
REMARK   27  A    between atoms: C_32  and  C_30 
REMARK   28  A    between atoms: C_42  and  C_30 
REMARK   29  A    between atoms: O_47  and  C_31 
REMARK   30  A    between atoms: O_48  and  C_32 
REMARK   31  A    between atoms: C_43  and  C_33 
REMARK   32  A    between atoms: O_47  and  C_33 
REMARK   33  A    between atoms: C_43  and  C_34 
REMARK   34  A    between atoms: O_49  and  C_34 
REMARK   35  A    between atoms: C_43  and  O_48 
REMARK   36  A    between atoms: P_50  and  O_44 
REMARK   37  A    between atoms: P_50  and  O_45 
REMARK   38  A    between atoms: P_50  and  O_49 
ROOT
HETATM    1  C   UNK N   1      19.975  15.462   7.302  0.00  0.00     0.169 C 
ENDROOT
BRANCH   1   2
HETATM    2  C   UNK N   1      20.053  14.451   6.150  0.00  0.00     0.201 C 
BRANCH   2   3
HETATM    3  O   UNK N   1      18.901  14.484   5.363  0.00  0.00    -0.389 OA
BRANCH   3   4
HETATM    4  C   UNK N   1      19.317  15.129   4.194  0.00  0.00     0.168 C 
BRANCH   4   5
HETATM    5  C   UNK N   1      19.794  14.090   3.190  0.00  0.00     0.030 C 
BRANCH   5   6
HETATM    6  C   UNK N   1      19.556  14.559   1.765  0.00  0.00    -0.017 C 
HETATM    7  C   UNK N   1      20.316  15.850   1.560  0.00  0.00     0.010 C 
BRANCH   6   8
HETATM    8  C   UNK N   1      20.082  13.551   0.751  0.00  0.00     0.004 C 
BRANCH   8   9
HETATM    9  C   UNK N   1      19.986  12.076   1.139  0.00  0.00     0.001 C 
BRANCH   9  10
HETATM   10  C   UNK N   1      21.296  11.283   1.114  0.00  0.00     0.004 C 
BRANCH  10  11
HETATM   11  C   UNK N   1      22.399  11.671   2.106  0.00  0.00    -0.019 C 
HETATM   12  C   UNK N   1      22.365  10.770   3.331  0.00  0.00     0.010 C 
BRANCH  11  13
HETATM   13  C   UNK N   1      23.807  11.793   1.505  0.00  0.00     0.004 C 
BRANCH  13  14
HETATM   14  C   UNK N   1      23.868  12.795   0.352  0.00  0.00     0.001 C 
BRANCH  14  15
HETATM   15  C   UNK N   1      23.865  14.268   0.772  0.00  0.00     0.004 C 
BRANCH  15  16
HETATM   16  C   UNK N   1      24.477  14.599   2.143  0.00  0.00    -0.019 C 
HETATM   17  C   UNK N   1      23.445  15.146   3.115  0.00  0.00     0.010 C 
BRANCH  16  18
HETATM   18  C   UNK N   1      25.637  15.577   2.006  0.00  0.00     0.004 C 
BRANCH  18  19
HETATM   19  C   UNK N   1      26.957  14.830   1.868  0.00  0.00     0.001 C 
BRANCH  19  20
HETATM   20  C   UNK N   1      27.399  14.235   3.201  0.00  0.00     0.004 C 
BRANCH  20  21
HETATM   21  C   UNK N   1      27.461  12.704   3.201  0.00  0.00    -0.023 C 
HETATM   22  C   UNK N   1      27.380  12.130   1.797  0.00  0.00     0.009 C 
HETATM   23  C   UNK N   1      26.399  12.084   4.091  0.00  0.00     0.009 C 
ENDBRANCH  20  21
ENDBRANCH  19  20
ENDBRANCH  18  19
ENDBRANCH  16  18
ENDBRANCH  15  16
ENDBRANCH  14  15
ENDBRANCH  13  14
ENDBRANCH  11  13
ENDBRANCH  10  11
ENDBRANCH   9  10
ENDBRANCH   8   9
ENDBRANCH   6   8
ENDBRANCH   5   6
ENDBRANCH   4   5
ENDBRANCH   3   4
ENDBRANCH   2   3
ENDBRANCH   1   2
BRANCH   1  24
HETATM   24  C   UNK N   1      21.292  16.226   7.343  0.00  0.00     0.214 C 
BRANCH  24  25
HETATM   25  O   UNK N   1      21.925  16.217   6.098  0.00  0.00    -0.294 OA
BRANCH  25  26
HETATM   26  P   UNK N   1      22.048  17.902   5.679  0.00  0.00     0.390 P 
HETATM   27  O   UNK N   1      21.381  18.709   6.823  0.00  0.00    -0.632 OA
BRANCH  26  28
HETATM   28  O   UNK N   1      21.183  18.282   4.221  0.00  0.00    -0.307 OA
HETATM   29  H   UNK N   1      21.246  19.165   3.825  0.00  0.00     0.222 HD
ENDBRANCH  26  28
BRANCH  26  30
HETATM   30  O   UNK N   1      23.701  18.427   5.596  0.00  0.00    -0.307 OA
HETATM   31  H   UNK N   1      24.612  18.638   5.854  0.00  0.00     0.222 HD
ENDBRANCH  26  30
ENDBRANCH  25  26
ENDBRANCH  24  25
ENDBRANCH   1  24
BRANCH   1  32
HETATM   32  O   UNK N   1      19.627  14.882   8.552  0.00  0.00    -0.382 OA
BRANCH  32  33
HETATM   33  C   UNK N   1      20.791  14.701   9.323  0.00  0.00     0.168 C 
BRANCH  33  34
HETATM   34  C   UNK N   1      20.970  13.255   9.785  0.00  0.00     0.030 C 
BRANCH  34  35
HETATM   35  C   UNK N   1      22.297  12.638   9.358  0.00  0.00    -0.017 C 
HETATM   36  C   UNK N   1      22.726  11.585  10.362  0.00  0.00     0.010 C 
BRANCH  35  37
HETATM   37  C   UNK N   1      22.143  11.969   8.004  0.00  0.00     0.004 C 
BRANCH  37  38
HETATM   38  C   UNK N   1      23.448  11.964   7.210  0.00  0.00     0.001 C 
BRANCH  38  39
HETATM   39  C   UNK N   1      23.696  13.262   6.417  0.00  0.00     0.004 C 
BRANCH  39  40
HETATM   40  C   UNK N   1      24.501  14.353   7.141  0.00  0.00    -0.019 C 
HETATM   41  C   UNK N   1      25.311  13.754   8.285  0.00  0.00     0.010 C 
BRANCH  40  42
HETATM   42  C   UNK N   1      25.318  15.175   6.140  0.00  0.00     0.004 C 
BRANCH  42  43
HETATM   43  C   UNK N   1      26.817  15.268   6.420  0.00  0.00     0.001 C 
BRANCH  43  44
HETATM   44  C   UNK N   1      27.223  16.602   7.057  0.00  0.00     0.004 C 
BRANCH  44  45
HETATM   45  C   UNK N   1      28.658  17.070   6.778  0.00  0.00    -0.019 C 
HETATM   46  C   UNK N   1      28.886  18.416   7.452  0.00  0.00     0.010 C 
BRANCH  45  47
HETATM   47  C   UNK N   1      28.925  17.160   5.267  0.00  0.00     0.004 C 
BRANCH  47  48
HETATM   48  C   UNK N   1      27.796  17.719   4.399  0.00  0.00     0.001 C 
BRANCH  48  49
HETATM   49  C   UNK N   1      27.936  19.193   4.049  0.00  0.00     0.004 C 
BRANCH  49  50
HETATM   50  C   UNK N   1      26.633  19.911   4.356  0.00  0.00    -0.023 C 
HETATM   51  C   UNK N   1      26.843  20.935   5.456  0.00  0.00     0.009 C 
HETATM   52  C   UNK N   1      26.124  20.607   3.114  0.00  0.00     0.009 C 
ENDBRANCH  49  50
ENDBRANCH  48  49
ENDBRANCH  47  48
ENDBRANCH  45  47
ENDBRANCH  44  45
ENDBRANCH  43  44
ENDBRANCH  42  43
ENDBRANCH  40  42
ENDBRANCH  39  40
ENDBRANCH  38  39
ENDBRANCH  37  38
ENDBRANCH  35  37
ENDBRANCH  34  35
ENDBRANCH  33  34
ENDBRANCH  32  33
ENDBRANCH   1  32
TORSDOF 38
ENDMDL
MODEL 4
REMARK VINA RESULT:      -4.6      1.724      4.980
REMARK WARNING: 32 MAX_TORS EXCEEDED!!!
REMARK  38 active torsions:
REMARK  status: ('A' for Active; 'I' for Inactive)
REMARK    1  A    between atoms: C_17  and  C_11 
REMARK    2  A    between atoms: C_19  and  C_11 
REMARK    3  A    between atoms: C_18  and  C_12 
REMARK    4  A    between atoms: C_20  and  C_12 
REMARK    5  A    between atoms: C_21  and  C_13 
REMARK    6  A    between atoms: C_23  and  C_13 
REMARK    7  A    between atoms: C_22  and  C_14 
REMARK    8  A    between atoms: C_24  and  C_14 
REMARK    9  A    between atoms: C_25  and  C_15 
REMARK   10  A    between atoms: C_27  and  C_15 
REMARK   11  A    between atoms: C_26  and  C_16 
REMARK   12  A    between atoms: C_28  and  C_16 
REMARK   13  A    between atoms: C_35  and  C_17 
REMARK   14  A    between atoms: C_36  and  C_18 
REMARK   15  A    between atoms: C_37  and  C_19 
REMARK   16  A    between atoms: C_38  and  C_20 
REMARK   17  A    between atoms: C_37  and  C_21 
REMARK   18  A    between atoms: C_38  and  C_22 
REMARK   19  A    between atoms: C_39  and  C_23 
REMARK   20  A    between atoms: C_40  and  C_24 
REMARK   21  A    between atoms: C_39  and  C_25 
REMARK   22  A    between atoms: C_40  and  C_26 
REMARK   23  A    between atoms: C_41  and  C_27 
REMARK   24  A    between atoms: C_42  and  C_28 
REMARK   25  A    between atoms: C_31  and  C_29 
REMARK   26  A    between atoms: C_41  and  C_29 
REMARK   27  A    between atoms: C_32  and  C_30 
REMARK   28  A    between atoms: C_42  and  C_30 
REMARK   29  A    between atoms: O_47  and  C_31 
REMARK   30  A    between atoms: O_48  and  C_32 
REMARK   31  A    between atoms: C_43  and  C_33 
REMARK   32  A    between atoms: O_47  and  C_33 
REMARK   33  A    between atoms: C_43  and  C_34 
REMARK   34  A    between atoms: O_49  and  C_34 
REMARK   35  A    between atoms: C_43  and  O_48 
REMARK   36  A    between atoms: P_50  and  O_44 
REMARK   37  A    between atoms: P_50  and  O_45 
REMARK   38  A    between atoms: P_50  and  O_49 
ROOT
HETATM    1  C   UNK N   1      22.079  17.677   5.033  0.00  0.00     0.169 C 
ENDROOT
BRANCH   1   2
HETATM    2  C   UNK N   1      20.832  17.773   5.923  0.00  0.00     0.201 C 
BRANCH   2   3
HETATM    3  O   UNK N   1      21.125  17.450   7.249  0.00  0.00    -0.389 OA
BRANCH   3   4
HETATM    4  C   UNK N   1      20.309  16.346   7.510  0.00  0.00     0.168 C 
BRANCH   4   5
HETATM    5  C   UNK N   1      20.733  15.708   8.824  0.00  0.00     0.030 C 
BRANCH   5   6
HETATM    6  C   UNK N   1      21.530  14.438   8.581  0.00  0.00    -0.017 C 
HETATM    7  C   UNK N   1      21.343  13.528   9.775  0.00  0.00     0.010 C 
BRANCH   6   8
HETATM    8  C   UNK N   1      21.027  13.689   7.353  0.00  0.00     0.004 C 
BRANCH   8   9
HETATM    9  C   UNK N   1      21.450  12.227   7.221  0.00  0.00     0.001 C 
BRANCH   9  10
HETATM   10  C   UNK N   1      22.134  11.836   5.908  0.00  0.00     0.004 C 
BRANCH  10  11
HETATM   11  C   UNK N   1      21.252  11.395   4.733  0.00  0.00    -0.019 C 
HETATM   12  C   UNK N   1      19.965  10.756   5.234  0.00  0.00     0.010 C 
BRANCH  11  13
HETATM   13  C   UNK N   1      20.998  12.470   3.665  0.00  0.00     0.004 C 
BRANCH  13  14
HETATM   14  C   UNK N   1      20.759  11.873   2.278  0.00  0.00     0.001 C 
BRANCH  14  15
HETATM   15  C   UNK N   1      21.045  12.818   1.107  0.00  0.00     0.004 C 
BRANCH  15  16
HETATM   16  C   UNK N   1      21.863  14.082   1.420  0.00  0.00    -0.019 C 
HETATM   17  C   UNK N   1      21.089  15.355   1.123  0.00  0.00     0.010 C 
BRANCH  16  18
HETATM   18  C   UNK N   1      23.184  14.083   0.660  0.00  0.00     0.004 C 
BRANCH  18  19
HETATM   19  C   UNK N   1      24.350  14.328   1.609  0.00  0.00     0.001 C 
BRANCH  19  20
HETATM   20  C   UNK N   1      24.462  13.215   2.647  0.00  0.00     0.004 C 
BRANCH  20  21
HETATM   21  C   UNK N   1      25.801  12.472   2.608  0.00  0.00    -0.023 C 
HETATM   22  C   UNK N   1      25.928  11.587   1.380  0.00  0.00     0.009 C 
HETATM   23  C   UNK N   1      26.051  11.667   3.871  0.00  0.00     0.009 C 
ENDBRANCH  20  21
ENDBRANCH  19  20
ENDBRANCH  18  19
ENDBRANCH  16  18
ENDBRANCH  15  16
ENDBRANCH  14  15
ENDBRANCH  13  14
ENDBRANCH  11  13
ENDBRANCH  10  11
ENDBRANCH   9  10
ENDBRANCH   8   9
ENDBRANCH   6   8
ENDBRANCH   5   6
ENDBRANCH   4   5
ENDBRANCH   3   4
ENDBRANCH   2   3
ENDBRANCH   1   2
BRANCH   1  24
HETATM   24  C   UNK N   1      22.071  18.870   4.086  0.00  0.00     0.214 C 
BRANCH  24  25
HETATM   25  O   UNK N   1      21.736  18.485   2.786  0.00  0.00    -0.294 OA
BRANCH  25  26
HETATM   26  P   UNK N   1      20.625  19.717   2.258  0.00  0.00     0.390 P 
HETATM   27  O   UNK N   1      20.885  19.954   0.748  0.00  0.00    -0.632 OA
BRANCH  26  28
HETATM   28  O   UNK N   1      20.896  21.234   3.061  0.00  0.00    -0.307 OA
HETATM   29  H   UNK N   1      20.739  21.322   4.014  0.00  0.00     0.222 HD
ENDBRANCH  26  28
BRANCH  26  30
HETATM   30  O   UNK N   1      18.973  19.203   2.405  0.00  0.00    -0.307 OA
HETATM   31  H   UNK N   1      18.183  18.723   2.700  0.00  0.00     0.222 HD
ENDBRANCH  26  30
ENDBRANCH  25  26
ENDBRANCH  24  25
ENDBRANCH   1  24
BRANCH   1  32
HETATM   32  O   UNK N   1      22.208  16.431   4.360  0.00  0.00    -0.382 OA
BRANCH  32  33
HETATM   33  C   UNK N   1      23.093  15.603   5.077  0.00  0.00     0.168 C 
BRANCH  33  34
HETATM   34  C   UNK N   1      24.322  16.357   5.584  0.00  0.00     0.030 C 
BRANCH  34  35
HETATM   35  C   UNK N   1      25.422  15.443   6.114  0.00  0.00    -0.017 C 
HETATM   36  C   UNK N   1      24.837  14.097   6.498  0.00  0.00     0.010 C 
BRANCH  35  37
HETATM   37  C   UNK N   1      26.467  15.217   5.037  0.00  0.00     0.004 C 
BRANCH  37  38
HETATM   38  C   UNK N   1      26.384  16.259   3.922  0.00  0.00     0.001 C 
BRANCH  38  39
HETATM   39  C   UNK N   1      27.672  16.373   3.083  0.00  0.00     0.004 C 
BRANCH  39  40
HETATM   40  C   UNK N   1      28.588  15.139   3.081  0.00  0.00    -0.019 C 
HETATM   41  C   UNK N   1      28.628  14.501   1.696  0.00  0.00     0.010 C 
BRANCH  40  42
HETATM   42  C   UNK N   1      29.960  15.483   3.666  0.00  0.00     0.004 C 
BRANCH  42  43
HETATM   43  C   UNK N   1      30.058  16.820   4.398  0.00  0.00     0.001 C 
BRANCH  43  44
HETATM   44  C   UNK N   1      31.032  16.782   5.581  0.00  0.00     0.004 C 
BRANCH  44  45
HETATM   45  C   UNK N   1      30.494  17.324   6.912  0.00  0.00    -0.019 C 
HETATM   46  C   UNK N   1      31.222  16.642   8.062  0.00  0.00     0.010 C 
BRANCH  45  47
HETATM   47  C   UNK N   1      28.975  17.112   7.020  0.00  0.00     0.004 C 
BRANCH  47  48
HETATM   48  C   UNK N   1      28.126  18.347   7.326  0.00  0.00     0.001 C 
BRANCH  48  49
HETATM   49  C   UNK N   1      27.207  18.782   6.194  0.00  0.00     0.004 C 
BRANCH  49  50
HETATM   50  C   UNK N   1      27.837  19.948   5.452  0.00  0.00    -0.023 C 
HETATM   51  C   UNK N   1      27.379  19.959   4.005  0.00  0.00     0.009 C 
HETATM   52  C   UNK N   1      27.444  21.251   6.112  0.00  0.00     0.009 C 
ENDBRANCH  49  50
ENDBRANCH  48  49
ENDBRANCH  47  48
ENDBRANCH  45  47
ENDBRANCH  44  45
ENDBRANCH  43  44
ENDBRANCH  42  43
ENDBRANCH  40  42
ENDBRANCH  39  40
ENDBRANCH  38  39
ENDBRANCH  37  38
ENDBRANCH  35  37
ENDBRANCH  34  35
ENDBRANCH  33  34
ENDBRANCH  32  33
ENDBRANCH   1  32
TORSDOF 38
ENDMDL
MODEL 5
REMARK VINA RESULT:      -4.6      4.449      8.374
REMARK WARNING: 32 MAX_TORS EXCEEDED!!!
REMARK  38 active torsions:
REMARK  status: ('A' for Active; 'I' for Inactive)
REMARK    1  A    between atoms: C_17  and  C_11 
REMARK    2  A    between atoms: C_19  and  C_11 
REMARK    3  A    between atoms: C_18  and  C_12 
REMARK    4  A    between atoms: C_20  and  C_12 
REMARK    5  A    between atoms: C_21  and  C_13 
REMARK    6  A    between atoms: C_23  and  C_13 
REMARK    7  A    between atoms: C_22  and  C_14 
REMARK    8  A    between atoms: C_24  and  C_14 
REMARK    9  A    between atoms: C_25  and  C_15 
REMARK   10  A    between atoms: C_27  and  C_15 
REMARK   11  A    between atoms: C_26  and  C_16 
REMARK   12  A    between atoms: C_28  and  C_16 
REMARK   13  A    between atoms: C_35  and  C_17 
REMARK   14  A    between atoms: C_36  and  C_18 
REMARK   15  A    between atoms: C_37  and  C_19 
REMARK   16  A    between atoms: C_38  and  C_20 
REMARK   17  A    between atoms: C_37  and  C_21 
REMARK   18  A    between atoms: C_38  and  C_22 
REMARK   19  A    between atoms: C_39  and  C_23 
REMARK   20  A    between atoms: C_40  and  C_24 
REMARK   21  A    between atoms: C_39  and  C_25 
REMARK   22  A    between atoms: C_40  and  C_26 
REMARK   23  A    between atoms: C_41  and  C_27 
REMARK   24  A    between atoms: C_42  and  C_28 
REMARK   25  A    between atoms: C_31  and  C_29 
REMARK   26  A    between atoms: C_41  and  C_29 
REMARK   27  A    between atoms: C_32  and  C_30 
REMARK   28  A    between atoms: C_42  and  C_30 
REMARK   29  A    between atoms: O_47  and  C_31 
REMARK   30  A    between atoms: O_48  and  C_32 
REMARK   31  A    between atoms: C_43  and  C_33 
REMARK   32  A    between atoms: O_47  and  C_33 
REMARK   33  A    between atoms: C_43  and  C_34 
REMARK   34  A    between atoms: O_49  and  C_34 
REMARK   35  A    between atoms: C_43  and  O_48 
REMARK   36  A    between atoms: P_50  and  O_44 
REMARK   37  A    between atoms: P_50  and  O_45 
REMARK   38  A    between atoms: P_50  and  O_49 
ROOT
HETATM    1  C   UNK N   1      29.463  16.508   5.784  0.00  0.00     0.169 C 
ENDROOT
BRANCH   1   2
HETATM    2  C   UNK N   1      29.249  17.907   5.190  0.00  0.00     0.201 C 
BRANCH   2   3
HETATM    3  O   UNK N   1      28.223  18.589   5.846  0.00  0.00    -0.389 OA
BRANCH   3   4
HETATM    4  C   UNK N   1      27.095  17.799   5.608  0.00  0.00     0.168 C 
BRANCH   4   5
HETATM    5  C   UNK N   1      26.499  18.170   4.258  0.00  0.00     0.030 C 
BRANCH   5   6
HETATM    6  C   UNK N   1      25.049  18.599   4.401  0.00  0.00    -0.017 C 
HETATM    7  C   UNK N   1      24.794  19.731   3.430  0.00  0.00     0.010 C 
BRANCH   6   8
HETATM    8  C   UNK N   1      24.094  17.467   4.045  0.00  0.00     0.004 C 
BRANCH   8   9
HETATM    9  C   UNK N   1      23.579  16.616   5.205  0.00  0.00     0.001 C 
BRANCH   9  10
HETATM   10  C   UNK N   1      23.190  15.174   4.866  0.00  0.00     0.004 C 
BRANCH  10  11
HETATM   11  C   UNK N   1      23.611  14.061   5.834  0.00  0.00    -0.019 C 
HETATM   12  C   UNK N   1      23.998  12.802   5.072  0.00  0.00     0.010 C 
BRANCH  11  13
HETATM   13  C   UNK N   1      24.664  14.463   6.877  0.00  0.00     0.004 C 
BRANCH  13  14
HETATM   14  C   UNK N   1      25.178  13.269   7.681  0.00  0.00     0.001 C 
BRANCH  14  15
HETATM   15  C   UNK N   1      24.514  13.072   9.047  0.00  0.00     0.004 C 
BRANCH  15  16
HETATM   16  C   UNK N   1      23.611  11.839   9.208  0.00  0.00    -0.019 C 
HETATM   17  C   UNK N   1      23.885  10.785   8.148  0.00  0.00     0.010 C 
BRANCH  16  18
HETATM   18  C   UNK N   1      22.138  12.230   9.190  0.00  0.00     0.004 C 
BRANCH  18  19
HETATM   19  C   UNK N   1      21.870  13.361  10.173  0.00  0.00     0.001 C 
BRANCH  19  20
HETATM   20  C   UNK N   1      20.678  14.205   9.735  0.00  0.00     0.004 C 
BRANCH  20  21
HETATM   21  C   UNK N   1      20.969  15.098   8.524  0.00  0.00    -0.023 C 
HETATM   22  C   UNK N   1      20.440  16.509   8.715  0.00  0.00     0.009 C 
HETATM   23  C   UNK N   1      20.443  14.504   7.230  0.00  0.00     0.009 C 
ENDBRANCH  20  21
ENDBRANCH  19  20
ENDBRANCH  18  19
ENDBRANCH  16  18
ENDBRANCH  15  16
ENDBRANCH  14  15
ENDBRANCH  13  14
ENDBRANCH  11  13
ENDBRANCH  10  11
ENDBRANCH   9  10
ENDBRANCH   8   9
ENDBRANCH   6   8
ENDBRANCH   5   6
ENDBRANCH   4   5
ENDBRANCH   3   4
ENDBRANCH   2   3
ENDBRANCH   1   2
BRANCH   1  24
HETATM   24  C   UNK N   1      30.472  16.630   6.917  0.00  0.00     0.214 C 
BRANCH  24  25
HETATM   25  O   UNK N   1      31.383  17.661   6.678  0.00  0.00    -0.294 OA
BRANCH  25  26
HETATM   26  P   UNK N   1      32.868  16.831   6.309  0.00  0.00     0.390 P 
HETATM   27  O   UNK N   1      33.064  15.737   7.391  0.00  0.00    -0.632 OA
BRANCH  26  28
HETATM   28  O   UNK N   1      34.248  17.882   6.397  0.00  0.00    -0.307 OA
HETATM   29  H   UNK N   1      35.092  17.561   6.753  0.00  0.00     0.222 HD
ENDBRANCH  26  28
BRANCH  26  30
HETATM   30  O   UNK N   1      32.786  16.011   4.780  0.00  0.00    -0.307 OA
HETATM   31  H   UNK N   1      32.483  15.736   3.901  0.00  0.00     0.222 HD
ENDBRANCH  26  30
ENDBRANCH  25  26
ENDBRANCH  24  25
ENDBRANCH   1  24
BRANCH   1  32
HETATM   32  O   UNK N   1      29.821  15.525   4.821  0.00  0.00    -0.382 OA
BRANCH  32  33
HETATM   33  C   UNK N   1      29.238  14.292   5.174  0.00  0.00     0.168 C 
BRANCH  33  34
HETATM   34  C   UNK N   1      27.751  14.226   4.830  0.00  0.00     0.030 C 
BRANCH  34  35
HETATM   35  C   UNK N   1      27.477  13.972   3.352  0.00  0.00    -0.017 C 
HETATM   36  C   UNK N   1      27.129  12.512   3.133  0.00  0.00     0.010 C 
BRANCH  35  37
HETATM   37  C   UNK N   1      26.302  14.815   2.892  0.00  0.00     0.004 C 
BRANCH  37  38
HETATM   38  C   UNK N   1      25.574  14.192   1.701  0.00  0.00     0.001 C 
BRANCH  38  39
HETATM   39  C   UNK N   1      24.171  14.779   1.457  0.00  0.00     0.004 C 
BRANCH  39  40
HETATM   40  C   UNK N   1      23.137  13.826   0.837  0.00  0.00    -0.019 C 
HETATM   41  C   UNK N   1      23.201  12.456   1.505  0.00  0.00     0.010 C 
BRANCH  40  42
HETATM   42  C   UNK N   1      21.747  14.468   0.827  0.00  0.00     0.004 C 
BRANCH  42  43
HETATM   43  C   UNK N   1      20.566  13.501   0.756  0.00  0.00     0.001 C 
BRANCH  43  44
HETATM   44  C   UNK N   1      19.546  13.724   1.880  0.00  0.00     0.004 C 
BRANCH  44  45
HETATM   45  C   UNK N   1      20.128  14.107   3.247  0.00  0.00    -0.019 C 
HETATM   46  C   UNK N   1      20.350  12.844   4.068  0.00  0.00     0.010 C 
BRANCH  45  47
HETATM   47  C   UNK N   1      19.202  15.086   3.986  0.00  0.00     0.004 C 
BRANCH  47  48
HETATM   48  C   UNK N   1      19.762  16.481   4.274  0.00  0.00     0.001 C 
BRANCH  48  49
HETATM   49  C   UNK N   1      20.516  17.114   3.114  0.00  0.00     0.004 C 
BRANCH  49  50
HETATM   50  C   UNK N   1      20.234  18.607   3.082  0.00  0.00    -0.023 C 
HETATM   51  C   UNK N   1      21.021  19.312   4.171  0.00  0.00     0.009 C 
HETATM   52  C   UNK N   1      20.622  19.175   1.736  0.00  0.00     0.009 C 
ENDBRANCH  49  50
ENDBRANCH  48  49
ENDBRANCH  47  48
ENDBRANCH  45  47
ENDBRANCH  44  45
ENDBRANCH  43  44
ENDBRANCH  42  43
ENDBRANCH  40  42
ENDBRANCH  39  40
ENDBRANCH  38  39
ENDBRANCH  37  38
ENDBRANCH  35  37
ENDBRANCH  34  35
ENDBRANCH  33  34
ENDBRANCH  32  33
ENDBRANCH   1  32
TORSDOF 38
ENDMDL
MODEL 6
REMARK VINA RESULT:      -4.5      3.708      8.333
REMARK WARNING: 32 MAX_TORS EXCEEDED!!!
REMARK  38 active torsions:
REMARK  status: ('A' for Active; 'I' for Inactive)
REMARK    1  A    between atoms: C_17  and  C_11 
REMARK    2  A    between atoms: C_19  and  C_11 
REMARK    3  A    between atoms: C_18  and  C_12 
REMARK    4  A    between atoms: C_20  and  C_12 
REMARK    5  A    between atoms: C_21  and  C_13 
REMARK    6  A    between atoms: C_23  and  C_13 
REMARK    7  A    between atoms: C_22  and  C_14 
REMARK    8  A    between atoms: C_24  and  C_14 
REMARK    9  A    between atoms: C_25  and  C_15 
REMARK   10  A    between atoms: C_27  and  C_15 
REMARK   11  A    between atoms: C_26  and  C_16 
REMARK   12  A    between atoms: C_28  and  C_16 
REMARK   13  A    between atoms: C_35  and  C_17 
REMARK   14  A    between atoms: C_36  and  C_18 
REMARK   15  A    between atoms: C_37  and  C_19 
REMARK   16  A    between atoms: C_38  and  C_20 
REMARK   17  A    between atoms: C_37  and  C_21 
REMARK   18  A    between atoms: C_38  and  C_22 
REMARK   19  A    between atoms: C_39  and  C_23 
REMARK   20  A    between atoms: C_40  and  C_24 
REMARK   21  A    between atoms: C_39  and  C_25 
REMARK   22  A    between atoms: C_40  and  C_26 
REMARK   23  A    between atoms: C_41  and  C_27 
REMARK   24  A    between atoms: C_42  and  C_28 
REMARK   25  A    between atoms: C_31  and  C_29 
REMARK   26  A    between atoms: C_41  and  C_29 
REMARK   27  A    between atoms: C_32  and  C_30 
REMARK   28  A    between atoms: C_42  and  C_30 
REMARK   29  A    between atoms: O_47  and  C_31 
REMARK   30  A    between atoms: O_48  and  C_32 
REMARK   31  A    between atoms: C_43  and  C_33 
REMARK   32  A    between atoms: O_47  and  C_33 
REMARK   33  A    between atoms: C_43  and  C_34 
REMARK   34  A    between atoms: O_49  and  C_34 
REMARK   35  A    between atoms: C_43  and  O_48 
REMARK   36  A    between atoms: P_50  and  O_44 
REMARK   37  A    between atoms: P_50  and  O_45 
REMARK   38  A    between atoms: P_50  and  O_49 
ROOT
HETATM    1  C   UNK N   1      21.739  13.561   8.205  0.00  0.00     0.169 C 
ENDROOT
BRANCH   1   2
HETATM    2  C   UNK N   1      22.264  14.489   7.101  0.00  0.00     0.201 C 
BRANCH   2   3
HETATM    3  O   UNK N   1      21.720  15.769   7.209  0.00  0.00    -0.389 OA
BRANCH   3   4
HETATM    4  C   UNK N   1      21.280  16.053   5.913  0.00  0.00     0.168 C 
BRANCH   4   5
HETATM    5  C   UNK N   1      22.312  15.556   4.913  0.00  0.00     0.030 C 
BRANCH   5   6
HETATM    6  C   UNK N   1      22.866  16.702   4.085  0.00  0.00    -0.017 C 
HETATM    7  C   UNK N   1      21.701  17.474   3.507  0.00  0.00     0.010 C 
BRANCH   6   8
HETATM    8  C   UNK N   1      23.676  17.668   4.940  0.00  0.00     0.004 C 
BRANCH   8   9
HETATM    9  C   UNK N   1      25.192  17.654   4.741  0.00  0.00     0.001 C 
BRANCH   9  10
HETATM   10  C   UNK N   1      25.710  18.281   3.444  0.00  0.00     0.004 C 
BRANCH  10  11
HETATM   11  C   UNK N   1      26.013  19.785   3.434  0.00  0.00    -0.019 C 
HETATM   12  C   UNK N   1      24.962  20.541   2.635  0.00  0.00     0.010 C 
BRANCH  11  13
HETATM   13  C   UNK N   1      26.266  20.411   4.814  0.00  0.00     0.004 C 
BRANCH  13  14
HETATM   14  C   UNK N   1      27.689  20.165   5.317  0.00  0.00     0.001 C 
BRANCH  14  15
HETATM   15  C   UNK N   1      27.785  19.567   6.723  0.00  0.00     0.004 C 
BRANCH  15  16
HETATM   16  C   UNK N   1      28.230  18.098   6.823  0.00  0.00    -0.019 C 
HETATM   17  C   UNK N   1      29.204  17.871   7.968  0.00  0.00     0.010 C 
BRANCH  16  18
HETATM   18  C   UNK N   1      28.841  17.618   5.513  0.00  0.00     0.004 C 
BRANCH  18  19
HETATM   19  C   UNK N   1      30.361  17.608   5.599  0.00  0.00     0.001 C 
BRANCH  19  20
HETATM   20  C   UNK N   1      30.940  16.315   5.036  0.00  0.00     0.004 C 
BRANCH  20  21
HETATM   21  C   UNK N   1      32.291  16.499   4.337  0.00  0.00    -0.023 C 
HETATM   22  C   UNK N   1      33.241  17.361   5.150  0.00  0.00     0.009 C 
HETATM   23  C   UNK N   1      32.142  17.052   2.931  0.00  0.00     0.009 C 
ENDBRANCH  20  21
ENDBRANCH  19  20
ENDBRANCH  18  19
ENDBRANCH  16  18
ENDBRANCH  15  16
ENDBRANCH  14  15
ENDBRANCH  13  14
ENDBRANCH  11  13
ENDBRANCH  10  11
ENDBRANCH   9  10
ENDBRANCH   8   9
ENDBRANCH   6   8
ENDBRANCH   5   6
ENDBRANCH   4   5
ENDBRANCH   3   4
ENDBRANCH   2   3
ENDBRANCH   1   2
BRANCH   1  24
HETATM   24  C   UNK N   1      22.848  13.383   9.234  0.00  0.00     0.214 C 
BRANCH  24  25
HETATM   25  O   UNK N   1      22.332  13.317  10.530  0.00  0.00    -0.294 OA
BRANCH  25  26
HETATM   26  P   UNK N   1      23.219  12.013  11.267  0.00  0.00     0.390 P 
HETATM   27  O   UNK N   1      23.196  10.823  10.273  0.00  0.00    -0.632 OA
BRANCH  26  28
HETATM   28  O   UNK N   1      22.476  11.460  12.736  0.00  0.00    -0.307 OA
HETATM   29  H   UNK N   1      22.965  10.894  13.354  0.00  0.00     0.222 HD
ENDBRANCH  26  28
BRANCH  26  30
HETATM   30  O   UNK N   1      24.889  12.426  11.512  0.00  0.00    -0.307 OA
HETATM   31  H   UNK N   1      25.850  12.475  11.391  0.00  0.00     0.222 HD
ENDBRANCH  26  30
ENDBRANCH  25  26
ENDBRANCH  24  25
ENDBRANCH   1  24
BRANCH   1  32
HETATM   32  O   UNK N   1      21.225  12.327   7.720  0.00  0.00    -0.382 OA
BRANCH  32  33
HETATM   33  C   UNK N   1      22.255  11.611   7.080  0.00  0.00     0.168 C 
BRANCH  33  34
HETATM   34  C   UNK N   1      21.797  10.967   5.772  0.00  0.00     0.030 C 
BRANCH  34  35
HETATM   35  C   UNK N   1      22.255  11.722   4.529  0.00  0.00    -0.017 C 
HETATM   36  C   UNK N   1      23.367  10.956   3.838  0.00  0.00     0.010 C 
BRANCH  35  37
HETATM   37  C   UNK N   1      21.099  11.862   3.555  0.00  0.00     0.004 C 
BRANCH  37  38
HETATM   38  C   UNK N   1      20.020  12.814   4.070  0.00  0.00     0.001 C 
BRANCH  38  39
HETATM   39  C   UNK N   1      19.065  13.320   2.973  0.00  0.00     0.004 C 
BRANCH  39  40
HETATM   40  C   UNK N   1      19.626  13.336   1.542  0.00  0.00    -0.019 C 
HETATM   41  C   UNK N   1      18.686  12.608   0.587  0.00  0.00     0.010 C 
BRANCH  40  42
HETATM   42  C   UNK N   1      19.988  14.762   1.119  0.00  0.00     0.004 C 
BRANCH  42  43
HETATM   43  C   UNK N   1      21.476  15.041   0.916  0.00  0.00     0.001 C 
BRANCH  43  44
HETATM   44  C   UNK N   1      22.361  13.842   1.275  0.00  0.00     0.004 C 
BRANCH  44  45
HETATM   45  C   UNK N   1      23.786  13.866   0.706  0.00  0.00    -0.019 C 
HETATM   46  C   UNK N   1      24.286  12.437   0.547  0.00  0.00     0.010 C 
BRANCH  45  47
HETATM   47  C   UNK N   1      24.728  14.680   1.609  0.00  0.00     0.004 C 
BRANCH  47  48
HETATM   48  C   UNK N   1      25.226  13.994   2.882  0.00  0.00     0.001 C 
BRANCH  48  49
HETATM   49  C   UNK N   1      26.406  14.681   3.553  0.00  0.00     0.004 C 
BRANCH  49  50
HETATM   50  C   UNK N   1      26.873  13.845   4.734  0.00  0.00    -0.023 C 
HETATM   51  C   UNK N   1      28.382  13.699   4.710  0.00  0.00     0.009 C 
HETATM   52  C   UNK N   1      26.453  14.504   6.028  0.00  0.00     0.009 C 
ENDBRANCH  49  50
ENDBRANCH  48  49
ENDBRANCH  47  48
ENDBRANCH  45  47
ENDBRANCH  44  45
ENDBRANCH  43  44
ENDBRANCH  42  43
ENDBRANCH  40  42
ENDBRANCH  39  40
ENDBRANCH  38  39
ENDBRANCH  37  38
ENDBRANCH  35  37
ENDBRANCH  34  35
ENDBRANCH  33  34
ENDBRANCH  32  33
ENDBRANCH   1  32
TORSDOF 38
ENDMDL
MODEL 7
REMARK VINA RESULT:      -4.5      2.171      6.969
REMARK WARNING: 32 MAX_TORS EXCEEDED!!!
REMARK  38 active torsions:
REMARK  status: ('A' for Active; 'I' for Inactive)
REMARK    1  A    between atoms: C_17  and  C_11 
REMARK    2  A    between atoms: C_19  and  C_11 
REMARK    3  A    between atoms: C_18  and  C_12 
REMARK    4  A    between atoms: C_20  and  C_12 
REMARK    5  A    between atoms: C_21  and  C_13 
REMARK    6  A    between atoms: C_23  and  C_13 
REMARK    7  A    between atoms: C_22  and  C_14 
REMARK    8  A    between atoms: C_24  and  C_14 
REMARK    9  A    between atoms: C_25  and  C_15 
REMARK   10  A    between atoms: C_27  and  C_15 
REMARK   11  A    between atoms: C_26  and  C_16 
REMARK   12  A    between atoms: C_28  and  C_16 
REMARK   13  A    between atoms: C_35  and  C_17 
REMARK   14  A    between atoms: C_36  and  C_18 
REMARK   15  A    between atoms: C_37  and  C_19 
REMARK   16  A    between atoms: C_38  and  C_20 
REMARK   17  A    between atoms: C_37  and  C_21 
REMARK   18  A    between atoms: C_38  and  C_22 
REMARK   19  A    between atoms: C_39  and  C_23 
REMARK   20  A    between atoms: C_40  and  C_24 
REMARK   21  A    between atoms: C_39  and  C_25 
REMARK   22  A    between atoms: C_40  and  C_26 
REMARK   23  A    between atoms: C_41  and  C_27 
REMARK   24  A    between atoms: C_42  and  C_28 
REMARK   25  A    between atoms: C_31  and  C_29 
REMARK   26  A    between atoms: C_41  and  C_29 
REMARK   27  A    between atoms: C_32  and  C_30 
REMARK   28  A    between atoms: C_42  and  C_30 
REMARK   29  A    between atoms: O_47  and  C_31 
REMARK   30  A    between atoms: O_48  and  C_32 
REMARK   31  A    between atoms: C_43  and  C_33 
REMARK   32  A    between atoms: O_47  and  C_33 
REMARK   33  A    between atoms: C_43  and  C_34 
REMARK   34  A    between atoms: O_49  and  C_34 
REMARK   35  A    between atoms: C_43  and  O_48 
REMARK   36  A    between atoms: P_50  and  O_44 
REMARK   37  A    between atoms: P_50  and  O_45 
REMARK   38  A    between atoms: P_50  and  O_49 
ROOT
HETATM    1  C   UNK N   1      22.444  17.649   4.701  0.00  0.00     0.169 C 
ENDROOT
BRANCH   1   2
HETATM    2  C   UNK N   1      23.780  18.079   4.081  0.00  0.00     0.201 C 
BRANCH   2   3
HETATM    3  O   UNK N   1      24.387  19.091   4.827  0.00  0.00    -0.389 OA
BRANCH   3   4
HETATM    4  C   UNK N   1      25.752  18.816   4.711  0.00  0.00     0.168 C 
BRANCH   4   5
HETATM    5  C   UNK N   1      25.954  17.697   3.701  0.00  0.00     0.030 C 
BRANCH   5   6
HETATM    6  C   UNK N   1      27.181  16.869   4.041  0.00  0.00    -0.017 C 
HETATM    7  C   UNK N   1      28.373  17.798   4.113  0.00  0.00     0.010 C 
BRANCH   6   8
HETATM    8  C   UNK N   1      27.041  16.197   5.401  0.00  0.00     0.004 C 
BRANCH   8   9
HETATM    9  C   UNK N   1      27.473  14.734   5.490  0.00  0.00     0.001 C 
BRANCH   9  10
HETATM   10  C   UNK N   1      27.375  13.919   4.197  0.00  0.00     0.004 C 
BRANCH  10  11
HETATM   11  C   UNK N   1      28.677  13.483   3.513  0.00  0.00    -0.019 C 
HETATM   12  C   UNK N   1      28.778  14.079   2.117  0.00  0.00     0.010 C 
BRANCH  11  13
HETATM   13  C   UNK N   1      29.954  13.698   4.338  0.00  0.00     0.004 C 
BRANCH  13  14
HETATM   14  C   UNK N   1      30.843  14.803   3.765  0.00  0.00     0.001 C 
BRANCH  14  15
HETATM   15  C   UNK N   1      32.273  14.834   4.313  0.00  0.00     0.004 C 
BRANCH  15  16
HETATM   16  C   UNK N   1      32.503  15.629   5.608  0.00  0.00    -0.019 C 
HETATM   17  C   UNK N   1      32.495  14.737   6.838  0.00  0.00     0.010 C 
BRANCH  16  18
HETATM   18  C   UNK N   1      31.472  16.741   5.761  0.00  0.00     0.004 C 
BRANCH  18  19
HETATM   19  C   UNK N   1      31.314  17.129   7.224  0.00  0.00     0.001 C 
BRANCH  19  20
HETATM   20  C   UNK N   1      29.845  17.155   7.635  0.00  0.00     0.004 C 
BRANCH  20  21
HETATM   21  C   UNK N   1      29.402  18.487   8.249  0.00  0.00    -0.023 C 
HETATM   22  C   UNK N   1      29.439  18.457   9.767  0.00  0.00     0.009 C 
HETATM   23  C   UNK N   1      28.031  18.919   7.759  0.00  0.00     0.009 C 
ENDBRANCH  20  21
ENDBRANCH  19  20
ENDBRANCH  18  19
ENDBRANCH  16  18
ENDBRANCH  15  16
ENDBRANCH  14  15
ENDBRANCH  13  14
ENDBRANCH  11  13
ENDBRANCH  10  11
ENDBRANCH   9  10
ENDBRANCH   8   9
ENDBRANCH   6   8
ENDBRANCH   5   6
ENDBRANCH   4   5
ENDBRANCH   3   4
ENDBRANCH   2   3
ENDBRANCH   1   2
BRANCH   1  24
HETATM   24  C   UNK N   1      21.378  18.637   4.248  0.00  0.00     0.214 C 
BRANCH  24  25
HETATM   25  O   UNK N   1      21.346  18.749   2.856  0.00  0.00    -0.294 OA
BRANCH  25  26
HETATM   26  P   UNK N   1      21.055  20.442   2.579  0.00  0.00     0.390 P 
HETATM   27  O   UNK N   1      20.094  20.931   3.694  0.00  0.00    -0.632 OA
BRANCH  26  28
HETATM   28  O   UNK N   1      20.259  20.733   1.063  0.00  0.00    -0.307 OA
HETATM   29  H   UNK N   1      20.524  21.476   0.500  0.00  0.00     0.222 HD
ENDBRANCH  26  28
BRANCH  26  30
HETATM   30  O   UNK N   1      22.509  21.380   2.726  0.00  0.00    -0.307 OA
HETATM   31  H   UNK N   1      23.449  21.616   2.781  0.00  0.00     0.222 HD
ENDBRANCH  26  30
ENDBRANCH  25  26
ENDBRANCH  24  25
ENDBRANCH   1  24
BRANCH   1  32
HETATM   32  O   UNK N   1      22.492  17.488   6.113  0.00  0.00    -0.382 OA
BRANCH  32  33
HETATM   33  C   UNK N   1      21.342  16.799   6.544  0.00  0.00     0.168 C 
BRANCH  33  34
HETATM   34  C   UNK N   1      21.672  15.462   7.207  0.00  0.00     0.030 C 
BRANCH  34  35
HETATM   35  C   UNK N   1      21.123  15.333   8.624  0.00  0.00    -0.017 C 
HETATM   36  C   UNK N   1      19.918  16.238   8.798  0.00  0.00     0.010 C 
BRANCH  35  37
HETATM   37  C   UNK N   1      20.684  13.903   8.879  0.00  0.00     0.004 C 
BRANCH  37  38
HETATM   38  C   UNK N   1      21.207  13.366  10.211  0.00  0.00     0.001 C 
BRANCH  38  39
HETATM   39  C   UNK N   1      22.366  12.361  10.061  0.00  0.00     0.004 C 
BRANCH  39  40
HETATM   40  C   UNK N   1      23.781  12.960  10.049  0.00  0.00    -0.019 C 
HETATM   41  C   UNK N   1      24.730  12.115  10.893  0.00  0.00     0.010 C 
BRANCH  40  42
HETATM   42  C   UNK N   1      24.252  13.206   8.613  0.00  0.00     0.004 C 
BRANCH  42  43
HETATM   43  C   UNK N   1      24.102  12.030   7.650  0.00  0.00     0.001 C 
BRANCH  43  44
HETATM   44  C   UNK N   1      24.797  12.269   6.304  0.00  0.00     0.004 C 
BRANCH  44  45
HETATM   45  C   UNK N   1      24.232  11.489   5.109  0.00  0.00    -0.019 C 
HETATM   46  C   UNK N   1      25.374  10.794   4.380  0.00  0.00     0.010 C 
BRANCH  45  47
HETATM   47  C   UNK N   1      23.459  12.419   4.160  0.00  0.00     0.004 C 
BRANCH  47  48
HETATM   48  C   UNK N   1      23.719  13.920   4.301  0.00  0.00     0.001 C 
BRANCH  48  49
HETATM   49  C   UNK N   1      23.958  14.648   2.986  0.00  0.00     0.004 C 
BRANCH  49  50
HETATM   50  C   UNK N   1      22.981  14.137   1.940  0.00  0.00    -0.023 C 
HETATM   51  C   UNK N   1      21.863  15.141   1.731  0.00  0.00     0.009 C 
HETATM   52  C   UNK N   1      23.702  13.909   0.631  0.00  0.00     0.009 C 
ENDBRANCH  49  50
ENDBRANCH  48  49
ENDBRANCH  47  48
ENDBRANCH  45  47
ENDBRANCH  44  45
ENDBRANCH  43  44
ENDBRANCH  42  43
ENDBRANCH  40  42
ENDBRANCH  39  40
ENDBRANCH  38  39
ENDBRANCH  37  38
ENDBRANCH  35  37
ENDBRANCH  34  35
ENDBRANCH  33  34
ENDBRANCH  32  33
ENDBRANCH   1  32
TORSDOF 38
ENDMDL
MODEL 8
REMARK VINA RESULT:      -4.4      6.494      9.597
REMARK WARNING: 32 MAX_TORS EXCEEDED!!!
REMARK  38 active torsions:
REMARK  status: ('A' for Active; 'I' for Inactive)
REMARK    1  A    between atoms: C_17  and  C_11 
REMARK    2  A    between atoms: C_19  and  C_11 
REMARK    3  A    between atoms: C_18  and  C_12 
REMARK    4  A    between atoms: C_20  and  C_12 
REMARK    5  A    between atoms: C_21  and  C_13 
REMARK    6  A    between atoms: C_23  and  C_13 
REMARK    7  A    between atoms: C_22  and  C_14 
REMARK    8  A    between atoms: C_24  and  C_14 
REMARK    9  A    between atoms: C_25  and  C_15 
REMARK   10  A    between atoms: C_27  and  C_15 
REMARK   11  A    between atoms: C_26  and  C_16 
REMARK   12  A    between atoms: C_28  and  C_16 
REMARK   13  A    between atoms: C_35  and  C_17 
REMARK   14  A    between atoms: C_36  and  C_18 
REMARK   15  A    between atoms: C_37  and  C_19 
REMARK   16  A    between atoms: C_38  and  C_20 
REMARK   17  A    between atoms: C_37  and  C_21 
REMARK   18  A    between atoms: C_38  and  C_22 
REMARK   19  A    between atoms: C_39  and  C_23 
REMARK   20  A    between atoms: C_40  and  C_24 
REMARK   21  A    between atoms: C_39  and  C_25 
REMARK   22  A    between atoms: C_40  and  C_26 
REMARK   23  A    between atoms: C_41  and  C_27 
REMARK   24  A    between atoms: C_42  and  C_28 
REMARK   25  A    between atoms: C_31  and  C_29 
REMARK   26  A    between atoms: C_41  and  C_29 
REMARK   27  A    between atoms: C_32  and  C_30 
REMARK   28  A    between atoms: C_42  and  C_30 
REMARK   29  A    between atoms: O_47  and  C_31 
REMARK   30  A    between atoms: O_48  and  C_32 
REMARK   31  A    between atoms: C_43  and  C_33 
REMARK   32  A    between atoms: O_47  and  C_33 
REMARK   33  A    between atoms: C_43  and  C_34 
REMARK   34  A    between atoms: O_49  and  C_34 
REMARK   35  A    between atoms: C_43  and  O_48 
REMARK   36  A    between atoms: P_50  and  O_44 
REMARK   37  A    between atoms: P_50  and  O_45 
REMARK   38  A    between atoms: P_50  and  O_49 
ROOT
HETATM    1  C   UNK N   1      33.917  17.615   8.431  0.00  0.00     0.169 C 
ENDROOT
BRANCH   1   2
HETATM    2  C   UNK N   1      33.984  16.780   7.145  0.00  0.00     0.201 C 
BRANCH   2   3
HETATM    3  O   UNK N   1      34.545  17.506   6.094  0.00  0.00    -0.389 OA
BRANCH   3   4
HETATM    4  C   UNK N   1      33.641  17.323   5.044  0.00  0.00     0.168 C 
BRANCH   4   5
HETATM    5  C   UNK N   1      32.904  16.007   5.240  0.00  0.00     0.030 C 
BRANCH   5   6
HETATM    6  C   UNK N   1      31.459  16.117   4.784  0.00  0.00    -0.017 C 
HETATM    7  C   UNK N   1      31.237  17.515   4.251  0.00  0.00     0.010 C 
BRANCH   6   8
HETATM    8  C   UNK N   1      31.156  15.143   3.653  0.00  0.00     0.004 C 
BRANCH   8   9
HETATM    9  C   UNK N   1      29.969  14.201   3.859  0.00  0.00     0.001 C 
BRANCH   9  10
HETATM   10  C   UNK N   1      29.164  14.400   5.147  0.00  0.00     0.004 C 
BRANCH  10  11
HETATM   11  C   UNK N   1      27.675  14.749   5.026  0.00  0.00    -0.019 C 
HETATM   12  C   UNK N   1      27.469  15.900   4.052  0.00  0.00     0.010 C 
BRANCH  11  13
HETATM   13  C   UNK N   1      26.745  13.561   4.737  0.00  0.00     0.004 C 
BRANCH  13  14
HETATM   14  C   UNK N   1      26.021  13.066   5.990  0.00  0.00     0.001 C 
BRANCH  14  15
HETATM   15  C   UNK N   1      25.420  14.167   6.869  0.00  0.00     0.004 C 
BRANCH  15  16
HETATM   16  C   UNK N   1      24.195  13.787   7.716  0.00  0.00    -0.019 C 
HETATM   17  C   UNK N   1      24.576  12.969   8.939  0.00  0.00     0.010 C 
BRANCH  16  18
HETATM   18  C   UNK N   1      23.163  13.036   6.884  0.00  0.00     0.004 C 
BRANCH  18  19
HETATM   19  C   UNK N   1      21.754  13.498   7.232  0.00  0.00     0.001 C 
BRANCH  19  20
HETATM   20  C   UNK N   1      21.700  15.009   7.435  0.00  0.00     0.004 C 
BRANCH  20  21
HETATM   21  C   UNK N   1      21.111  15.426   8.786  0.00  0.00    -0.023 C 
HETATM   22  C   UNK N   1      20.498  14.252   9.530  0.00  0.00     0.009 C 
HETATM   23  C   UNK N   1      20.104  16.555   8.652  0.00  0.00     0.009 C 
ENDBRANCH  20  21
ENDBRANCH  19  20
ENDBRANCH  18  19
ENDBRANCH  16  18
ENDBRANCH  15  16
ENDBRANCH  14  15
ENDBRANCH  13  14
ENDBRANCH  11  13
ENDBRANCH  10  11
ENDBRANCH   9  10
ENDBRANCH   8   9
ENDBRANCH   6   8
ENDBRANCH   5   6
ENDBRANCH   4   5
ENDBRANCH   3   4
ENDBRANCH   2   3
ENDBRANCH   1   2
BRANCH   1  24
HETATM   24  C   UNK N   1      34.274  16.705   9.599  0.00  0.00     0.214 C 
BRANCH  24  25
HETATM   25  O   UNK N   1      35.510  17.048  10.152  0.00  0.00    -0.294 OA
BRANCH  25  26
HETATM   26  P   UNK N   1      36.126  15.542  10.769  0.00  0.00     0.390 P 
HETATM   27  O   UNK N   1      35.165  14.422  10.290  0.00  0.00    -0.632 OA
BRANCH  26  28
HETATM   28  O   UNK N   1      36.131  15.495  12.505  0.00  0.00    -0.307 OA
HETATM   29  H   UNK N   1      35.682  14.779  12.981  0.00  0.00     0.222 HD
ENDBRANCH  26  28
BRANCH  26  30
HETATM   30  O   UNK N   1      37.691  15.168  10.115  0.00  0.00    -0.307 OA
HETATM   31  H   UNK N   1      38.411  14.696   9.668  0.00  0.00     0.222 HD
ENDBRANCH  26  30
ENDBRANCH  25  26
ENDBRANCH  24  25
ENDBRANCH   1  24
BRANCH   1  32
HETATM   32  O   UNK N   1      32.681  18.294   8.611  0.00  0.00    -0.382 OA
BRANCH  32  33
HETATM   33  C   UNK N   1      31.624  17.453   8.214  0.00  0.00     0.168 C 
BRANCH  33  34
HETATM   34  C   UNK N   1      30.410  17.561   9.136  0.00  0.00     0.030 C 
BRANCH  34  35
HETATM   35  C   UNK N   1      29.090  17.238   8.445  0.00  0.00    -0.017 C 
HETATM   36  C   UNK N   1      27.934  17.815   9.240  0.00  0.00     0.010 C 
BRANCH  35  37
HETATM   37  C   UNK N   1      29.068  17.855   7.059  0.00  0.00     0.004 C 
BRANCH  37  38
HETATM   38  C   UNK N   1      28.149  19.073   6.982  0.00  0.00     0.001 C 
BRANCH  38  39
HETATM   39  C   UNK N   1      27.257  19.098   5.726  0.00  0.00     0.004 C 
BRANCH  39  40
HETATM   40  C   UNK N   1      26.324  20.311   5.582  0.00  0.00    -0.019 C 
HETATM   41  C   UNK N   1      27.025  21.586   6.041  0.00  0.00     0.010 C 
BRANCH  40  42
HETATM   42  C   UNK N   1      25.737  20.378   4.170  0.00  0.00     0.004 C 
BRANCH  42  43
HETATM   43  C   UNK N   1      25.053  19.106   3.670  0.00  0.00     0.001 C 
BRANCH  43  44
HETATM   44  C   UNK N   1      23.797  18.751   4.474  0.00  0.00     0.004 C 
BRANCH  44  45
HETATM   45  C   UNK N   1      23.030  17.507   4.004  0.00  0.00    -0.019 C 
HETATM   46  C   UNK N   1      21.643  17.507   4.632  0.00  0.00     0.010 C 
BRANCH  45  47
HETATM   47  C   UNK N   1      23.794  16.221   4.360  0.00  0.00     0.004 C 
BRANCH  47  48
HETATM   48  C   UNK N   1      23.356  14.940   3.647  0.00  0.00     0.001 C 
BRANCH  48  49
HETATM   49  C   UNK N   1      24.185  14.580   2.423  0.00  0.00     0.004 C 
BRANCH  49  50
HETATM   50  C   UNK N   1      23.943  13.125   2.058  0.00  0.00    -0.023 C 
HETATM   51  C   UNK N   1      25.198  12.516   1.462  0.00  0.00     0.009 C 
HETATM   52  C   UNK N   1      23.545  12.345   3.292  0.00  0.00     0.009 C 
ENDBRANCH  49  50
ENDBRANCH  48  49
ENDBRANCH  47  48
ENDBRANCH  45  47
ENDBRANCH  44  45
ENDBRANCH  43  44
ENDBRANCH  42  43
ENDBRANCH  40  42
ENDBRANCH  39  40
ENDBRANCH  38  39
ENDBRANCH  37  38
ENDBRANCH  35  37
ENDBRANCH  34  35
ENDBRANCH  33  34
ENDBRANCH  32  33
ENDBRANCH   1  32
TORSDOF 38
ENDMDL
MODEL 9
REMARK VINA RESULT:      -4.4      3.114      7.806
REMARK WARNING: 32 MAX_TORS EXCEEDED!!!
REMARK  38 active torsions:
REMARK  status: ('A' for Active; 'I' for Inactive)
REMARK    1  A    between atoms: C_17  and  C_11 
REMARK    2  A    between atoms: C_19  and  C_11 
REMARK    3  A    between atoms: C_18  and  C_12 
REMARK    4  A    between atoms: C_20  and  C_12 
REMARK    5  A    between atoms: C_21  and  C_13 
REMARK    6  A    between atoms: C_23  and  C_13 
REMARK    7  A    between atoms: C_22  and  C_14 
REMARK    8  A    between atoms: C_24  and  C_14 
REMARK    9  A    between atoms: C_25  and  C_15 
REMARK   10  A    between atoms: C_27  and  C_15 
REMARK   11  A    between atoms: C_26  and  C_16 
REMARK   12  A    between atoms: C_28  and  C_16 
REMARK   13  A    between atoms: C_35  and  C_17 
REMARK   14  A    between atoms: C_36  and  C_18 
REMARK   15  A    between atoms: C_37  and  C_19 
REMARK   16  A    between atoms: C_38  and  C_20 
REMARK   17  A    between atoms: C_37  and  C_21 
REMARK   18  A    between atoms: C_38  and  C_22 
REMARK   19  A    between atoms: C_39  and  C_23 
REMARK   20  A    between atoms: C_40  and  C_24 
REMARK   21  A    between atoms: C_39  and  C_25 
REMARK   22  A    between atoms: C_40  and  C_26 
REMARK   23  A    between atoms: C_41  and  C_27 
REMARK   24  A    between atoms: C_42  and  C_28 
REMARK   25  A    between atoms: C_31  and  C_29 
REMARK   26  A    between atoms: C_41  and  C_29 
REMARK   27  A    between atoms: C_32  and  C_30 
REMARK   28  A    between atoms: C_42  and  C_30 
REMARK   29  A    between atoms: O_47  and  C_31 
REMARK   30  A    between atoms: O_48  and  C_32 
REMARK   31  A    between atoms: C_43  and  C_33 
REMARK   32  A    between atoms: O_47  and  C_33 
REMARK   33  A    between atoms: C_43  and  C_34 
REMARK   34  A    between atoms: O_49  and  C_34 
REMARK   35  A    between atoms: C_43  and  O_48 
REMARK   36  A    between atoms: P_50  and  O_44 
REMARK   37  A    between atoms: P_50  and  O_45 
REMARK   38  A    between atoms: P_50  and  O_49 
ROOT
HETATM    1  C   UNK N   1      20.483  15.072   7.628  0.00  0.00     0.169 C 
ENDROOT
BRANCH   1   2
HETATM    2  C   UNK N   1      21.870  15.543   7.170  0.00  0.00     0.201 C 
BRANCH   2   3
HETATM    3  O   UNK N   1      21.835  16.858   6.705  0.00  0.00    -0.389 OA
BRANCH   3   4
HETATM    4  C   UNK N   1      22.760  16.865   5.657  0.00  0.00     0.168 C 
BRANCH   4   5
HETATM    5  C   UNK N   1      23.008  18.299   5.216  0.00  0.00     0.030 C 
BRANCH   5   6
HETATM    6  C   UNK N   1      24.401  18.456   4.630  0.00  0.00    -0.017 C 
HETATM    7  C   UNK N   1      24.711  17.222   3.812  0.00  0.00     0.010 C 
BRANCH   6   8
HETATM    8  C   UNK N   1      24.480  19.656   3.695  0.00  0.00     0.004 C 
BRANCH   8   9
HETATM    9  C   UNK N   1      25.684  20.582   3.869  0.00  0.00     0.001 C 
BRANCH   9  10
HETATM   10  C   UNK N   1      27.063  19.919   3.798  0.00  0.00     0.004 C 
BRANCH  10  11
HETATM   11  C   UNK N   1      27.919  19.884   5.070  0.00  0.00    -0.019 C 
HETATM   12  C   UNK N   1      27.480  20.965   6.046  0.00  0.00     0.010 C 
BRANCH  11  13
HETATM   13  C   UNK N   1      28.044  18.505   5.737  0.00  0.00     0.004 C 
BRANCH  13  14
HETATM   14  C   UNK N   1      28.012  18.588   7.263  0.00  0.00     0.001 C 
BRANCH  14  15
HETATM   15  C   UNK N   1      28.421  17.304   7.991  0.00  0.00     0.004 C 
BRANCH  15  16
HETATM   16  C   UNK N   1      29.586  17.413   8.989  0.00  0.00    -0.019 C 
HETATM   17  C   UNK N   1      29.941  18.858   9.300  0.00  0.00     0.010 C 
BRANCH  16  18
HETATM   18  C   UNK N   1      30.815  16.669   8.483  0.00  0.00     0.004 C 
BRANCH  18  19
HETATM   19  C   UNK N   1      31.472  17.431   7.340  0.00  0.00     0.001 C 
BRANCH  19  20
HETATM   20  C   UNK N   1      31.418  16.634   6.040  0.00  0.00     0.004 C 
BRANCH  20  21
HETATM   21  C   UNK N   1      32.700  16.733   5.206  0.00  0.00    -0.023 C 
HETATM   22  C   UNK N   1      33.853  17.324   5.998  0.00  0.00     0.009 C 
HETATM   23  C   UNK N   1      32.490  17.506   3.916  0.00  0.00     0.009 C 
ENDBRANCH  20  21
ENDBRANCH  19  20
ENDBRANCH  18  19
ENDBRANCH  16  18
ENDBRANCH  15  16
ENDBRANCH  14  15
ENDBRANCH  13  14
ENDBRANCH  11  13
ENDBRANCH  10  11
ENDBRANCH   9  10
ENDBRANCH   8   9
ENDBRANCH   6   8
ENDBRANCH   5   6
ENDBRANCH   4   5
ENDBRANCH   3   4
ENDBRANCH   2   3
ENDBRANCH   1   2
BRANCH   1  24
HETATM   24  C   UNK N   1      20.296  15.503   9.076  0.00  0.00     0.214 C 
BRANCH  24  25
HETATM   25  O   UNK N   1      18.951  15.459   9.450  0.00  0.00    -0.294 OA
BRANCH  25  26
HETATM   26  P   UNK N   1      18.347  17.036   9.026  0.00  0.00     0.390 P 
HETATM   27  O   UNK N   1      17.400  16.853   7.812  0.00  0.00    -0.632 OA
BRANCH  26  28
HETATM   28  O   UNK N   1      19.614  18.112   8.522  0.00  0.00    -0.307 OA
HETATM   29  H   UNK N   1      19.422  18.860   7.935  0.00  0.00     0.222 HD
ENDBRANCH  26  28
BRANCH  26  30
HETATM   30  O   UNK N   1      17.394  17.727  10.303  0.00  0.00    -0.307 OA
HETATM   31  H   UNK N   1      16.668  18.166  10.773  0.00  0.00     0.222 HD
ENDBRANCH  26  30
ENDBRANCH  25  26
ENDBRANCH  24  25
ENDBRANCH   1  24
BRANCH   1  32
HETATM   32  O   UNK N   1      20.253  13.683   7.425  0.00  0.00    -0.382 OA
BRANCH  32  33
HETATM   33  C   UNK N   1      20.696  13.320   6.138  0.00  0.00     0.168 C 
BRANCH  33  34
HETATM   34  C   UNK N   1      19.699  13.703   5.045  0.00  0.00     0.030 C 
BRANCH  34  35
HETATM   35  C   UNK N   1      19.828  12.861   3.780  0.00  0.00    -0.017 C 
HETATM   36  C   UNK N   1      18.567  12.045   3.569  0.00  0.00     0.010 C 
BRANCH  35  37
HETATM   37  C   UNK N   1      20.016  13.766   2.576  0.00  0.00     0.004 C 
BRANCH  37  38
HETATM   38  C   UNK N   1      20.781  15.043   2.926  0.00  0.00     0.001 C 
BRANCH  38  39
HETATM   39  C   UNK N   1      22.275  14.993   2.550  0.00  0.00     0.004 C 
BRANCH  39  40
HETATM   40  C   UNK N   1      22.795  13.644   2.028  0.00  0.00    -0.019 C 
HETATM   41  C   UNK N   1      23.578  13.834   0.733  0.00  0.00     0.010 C 
BRANCH  40  42
HETATM   42  C   UNK N   1      23.553  12.895   3.128  0.00  0.00     0.004 C 
BRANCH  42  43
HETATM   43  C   UNK N   1      23.868  13.699   4.388  0.00  0.00     0.001 C 
BRANCH  43  44
HETATM   44  C   UNK N   1      25.305  13.494   4.882  0.00  0.00     0.004 C 
BRANCH  44  45
HETATM   45  C   UNK N   1      25.943  14.688   5.605  0.00  0.00    -0.019 C 
HETATM   46  C   UNK N   1      27.459  14.578   5.513  0.00  0.00     0.010 C 
BRANCH  45  47
HETATM   47  C   UNK N   1      25.485  14.755   7.070  0.00  0.00     0.004 C 
BRANCH  47  48
HETATM   48  C   UNK N   1      25.105  13.430   7.735  0.00  0.00     0.001 C 
BRANCH  48  49
HETATM   49  C   UNK N   1      25.115  13.458   9.256  0.00  0.00     0.004 C 
BRANCH  49  50
HETATM   50  C   UNK N   1      23.795  12.916   9.780  0.00  0.00    -0.023 C 
HETATM   51  C   UNK N   1      23.120  12.065   8.722  0.00  0.00     0.009 C 
HETATM   52  C   UNK N   1      24.036  12.080  11.017  0.00  0.00     0.009 C 
ENDBRANCH  49  50
ENDBRANCH  48  49
ENDBRANCH  47  48
ENDBRANCH  45  47
ENDBRANCH  44  45
ENDBRANCH  43  44
ENDBRANCH  42  43
ENDBRANCH  40  42
ENDBRANCH  39  40
ENDBRANCH  38  39
ENDBRANCH  37  38
ENDBRANCH  35  37
ENDBRANCH  34  35
ENDBRANCH  33  34
ENDBRANCH  32  33
ENDBRANCH   1  32
TORSDOF 38
ENDMDL
