REMARK  11 active torsions:
REMARK  status: ('A' for Active; 'I' for Inactive)
REMARK    1  A    between atoms: C_6  and  C_3 
REMARK    2  A    between atoms: O_19  and  C_3 
REMARK    3  A    between atoms: O_20  and  C_4 
REMARK    4  A    between atoms: C_5  and  N_18 
REMARK    5  A    between atoms: C_9  and  C_6 
REMARK    6  A    between atoms: C_6  and  O_21 
REMARK    7  A    between atoms: C_7  and  C_11 
REMARK    8  A    between atoms: C_8  and  N_16 
REMARK    9  A    between atoms: C_10  and  C_9 
REMARK   10  A    between atoms: C_9  and  O_22 
REMARK   11  A    between atoms: O_24  and  C_11 
REMARK       I    between atoms: N_15  and  C_12 
REMARK       I    between atoms: N_18  and  C_12 
ROOT
HETATM    1  C   UNK N   1       2.425   0.957   0.361  0.00  0.00     0.071 C 
HETATM    2  C   UNK N   1       1.241   1.934   0.296  0.00  0.00     0.127 C 
HETATM    3  C   UNK N   1       2.107  -0.406  -0.252  0.00  0.00     0.221 C 
HETATM    4  C   UNK N   1       0.024   1.286  -0.421  0.00  0.00     0.138 C 
HETATM    5  C   UNK N   1      -0.227  -0.092   0.289  0.00  0.00     0.178 C 
HETATM    6  O   UNK N   1       0.922  -0.949   0.309  0.00  0.00    -0.365 OA
ENDROOT
BRANCH   2   7
HETATM    7  N   UNK N   1       1.655   3.156  -0.365  0.00  0.00    -0.220 N 
HETATM    8  C   UNK N   1       2.706   3.978   0.130  0.00  0.00     0.665 C 
HETATM    9  N   UNK N   1       2.926   5.118  -0.413  0.00  0.00    -0.235 N 
HETATM   10  N   UNK N   1       3.482   3.576   1.241  0.00  0.00    -0.235 N 
HETATM   11  H   UNK N   1       3.768   5.410  -0.830  0.00  0.00     0.174 HD
ATOM     12  HN  UNK N   1       2.155   5.786  -0.413  1.00  0.00     0.174 HD
HETATM   13  H   UNK N   1       3.510   2.967   2.015  0.00  0.00     0.174 HD
HETATM   14  H   UNK N   1       4.311   4.106   1.241  0.00  0.00     0.174 HD
HETATM   15  H   UNK N   1       1.190   3.428  -1.189  0.00  0.00     0.178 HD
ENDBRANCH   2   7
BRANCH   4  16
HETATM   16  N   UNK N   1      -1.214   2.072  -0.485  0.00  0.00    -0.366 N 
HETATM   17  C   UNK N   1      -1.569   3.208   0.030  0.00  0.00     0.107 C 
HETATM   18  C   UNK N   1      -0.704   4.024   0.929  0.00  0.00     0.097 C 
ATOM     19  HN  UNK N   1      -1.943   1.637  -1.050  1.00  0.00     0.161 HD
BRANCH  17  20
HETATM   20  O   UNK N   1      -2.800   3.678  -0.244  0.00  0.00    -0.350 OA
HETATM   21  H   UNK N   1      -2.945   4.584  -0.435  0.00  0.00     0.219 HD
ENDBRANCH  17  20
ENDBRANCH   4  16
BRANCH   3  22
HETATM   22  C   UNK N   1       3.257  -1.337   0.006  0.00  0.00     0.170 C 
HETATM   23  O   UNK N   1       4.376  -1.053  -0.392  0.00  0.00    -0.648 OA
BRANCH  22  24
HETATM   24  O   UNK N   1       3.060  -2.498   0.661  0.00  0.00    -0.774 OA
HETATM   25  H   UNK N   1       2.292  -2.783   1.117  0.00  0.00     0.167 HD
ENDBRANCH  22  24
ENDBRANCH   3  22
BRANCH   5  26
HETATM   26  C   UNK N   1      -1.437  -0.908  -0.257  0.00  0.00     0.180 C 
BRANCH  26  27
HETATM   27  C   UNK N   1      -1.693  -2.175   0.602  0.00  0.00     0.173 C 
BRANCH  27  28
HETATM   28  C   UNK N   1      -2.939  -2.935   0.153  0.00  0.00     0.198 C 
BRANCH  28  29
HETATM   29  O   UNK N   1      -2.766  -3.466  -1.126  0.00  0.00    -0.398 OA
HETATM   30  H   UNK N   1      -3.025  -3.754  -2.015  0.00  0.00     0.209 HD
ENDBRANCH  28  29
ENDBRANCH  27  28
BRANCH  27  31
HETATM   31  O   UNK N   1      -0.601  -3.045   0.565  0.00  0.00    -0.391 OA
HETATM   32  H   UNK N   1      -0.745  -4.004   0.540  0.00  0.00     0.210 HD
ENDBRANCH  27  31
ENDBRANCH  26  27
BRANCH  26  33
HETATM   33  O   UNK N   1      -2.598  -0.129  -0.218  0.00  0.00    -0.390 OA
HETATM   34  H   UNK N   1      -2.533   0.838  -0.192  0.00  0.00     0.210 HD
ENDBRANCH  26  33
ENDBRANCH   5  26
TORSDOF 11
