REMARK  3 active torsions:
REMARK  status: ('A' for Active; 'I' for Inactive)
REMARK    1  A    between atoms: C_3  and  O_7 
REMARK    2  A    between atoms: C_4  and  O_8 
REMARK    3  A    between atoms: C_6  and  O_10 
ROOT
HETATM    1  C   UNK N   1       3.134   1.574  -0.417  0.00  0.00     0.042 C 
HETATM    2  C   UNK N   1       1.769   0.917  -0.512  0.00  0.00     0.152 C 
HETATM    3  C   UNK N   1       0.718   1.788   0.221  0.00  0.00     0.178 C 
HETATM    4  C   UNK N   1      -0.615   1.033   0.450  0.00  0.00     0.182 C 
HETATM    5  C   UNK N   1      -0.655  -0.283  -0.328  0.00  0.00     0.204 C 
HETATM    6  C   UNK N   1       0.607  -1.087   0.084  0.00  0.00     0.288 C 
HETATM    7  O   UNK N   1      -0.679  -0.046  -1.707  0.00  0.00    -0.388 OA
HETATM    8  O   UNK N   1       1.855  -0.399   0.016  0.00  0.00    -0.351 OA
HETATM    9  H   UNK N   1      -0.545   0.051  -2.662  0.00  0.00     0.210 HD
ENDROOT
BRANCH   4  10
HETATM   10  O   UNK N   1      -1.728   1.828   0.161  0.00  0.00    -0.390 OA
HETATM   11  H   UNK N   1      -1.636   2.772  -0.039  0.00  0.00     0.210 HD
ENDBRANCH   4  10
BRANCH   6  12
HETATM   12  O   UNK N   1       0.676  -2.268  -0.661  0.00  0.00    -0.369 OA
HETATM   13  H   UNK N   1      -0.010  -2.719  -1.178  0.00  0.00     0.212 HD
ENDBRANCH   6  12
BRANCH   3  14
HETATM   14  O   UNK N   1       0.512   2.958  -0.521  0.00  0.00    -0.390 OA
HETATM   15  H   UNK N   1       1.142   3.487  -1.035  0.00  0.00     0.210 HD
ENDBRANCH   3  14
TORSDOF 3
