MODEL 1
REMARK VINA RESULT:      -5.2      0.000      0.000
REMARK  12 active torsions:
REMARK  status: ('A' for Active; 'I' for Inactive)
REMARK    1  A    between atoms: C_3  and  C_1 
REMARK    2  A    between atoms: O_6  and  C_1 
REMARK    3  A    between atoms: C_4  and  C_2 
REMARK    4  A    between atoms: O_13  and  C_2 
REMARK    5  A    between atoms: C_5  and  C_3 
REMARK    6  A    between atoms: C_3  and  O_7 
REMARK    7  A    between atoms: C_5  and  C_4 
REMARK    8  A    between atoms: C_4  and  O_8 
REMARK    9  A    between atoms: C_5  and  O_9 
REMARK   10  A    between atoms: P_14  and  O_10 
REMARK   11  A    between atoms: P_14  and  O_11 
REMARK   12  A    between atoms: P_14  and  O_13 
ROOT
HETATM    1  C   UNK N   1      35.910  16.005  11.268  0.00  0.00     0.173 C 
ENDROOT
BRANCH   1   2
HETATM    2  C   UNK N   1      34.954  16.877  10.461  0.00  0.00     0.214 C 
BRANCH   2   3
HETATM    3  O   UNK N   1      34.993  16.478   9.120  0.00  0.00    -0.294 OA
BRANCH   3   4
HETATM    4  P   UNK N   1      34.436  17.819   8.152  0.00  0.00     0.390 P 
HETATM    5  O   UNK N   1      32.936  18.097   8.450  0.00  0.00    -0.632 OA
BRANCH   4   6
HETATM    6  O   UNK N   1      35.300  19.263   8.574  0.00  0.00    -0.307 OA
HETATM    7  H   UNK N   1      35.136  20.205   8.734  0.00  0.00     0.222 HD
ENDBRANCH   4   6
BRANCH   4   8
HETATM    8  O   UNK N   1      34.588  17.493   6.454  0.00  0.00    -0.307 OA
HETATM    9  H   UNK N   1      34.460  16.729   5.870  0.00  0.00     0.222 HD
ENDBRANCH   4   8
ENDBRANCH   3   4
ENDBRANCH   2   3
ENDBRANCH   1   2
BRANCH   1  10
HETATM   10  C   UNK N   1      35.400  14.555  11.393  0.00  0.00     0.179 C 
BRANCH  10  11
HETATM   11  C   UNK N   1      36.010  13.837  12.617  0.00  0.00     0.173 C 
BRANCH  11  12
HETATM   12  C   UNK N   1      36.978  12.747  12.176  0.00  0.00     0.198 C 
BRANCH  12  13
HETATM   13  O   UNK N   1      38.042  13.305  11.463  0.00  0.00    -0.398 OA
HETATM   14  H   UNK N   1      38.834  12.849  11.138  0.00  0.00     0.209 HD
ENDBRANCH  12  13
ENDBRANCH  11  12
BRANCH  11  15
HETATM   15  O   UNK N   1      36.700  14.746  13.425  0.00  0.00    -0.391 OA
HETATM   16  H   UNK N   1      36.217  15.279  14.076  0.00  0.00     0.210 HD
ENDBRANCH  11  15
ENDBRANCH  10  11
BRANCH  10  17
HETATM   17  O   UNK N   1      34.007  14.573  11.526  0.00  0.00    -0.390 OA
HETATM   18  H   UNK N   1      33.538  15.418  11.609  0.00  0.00     0.210 HD
ENDBRANCH  10  17
ENDBRANCH   1  10
BRANCH   1  19
HETATM   19  O   UNK N   1      37.162  16.029  10.643  0.00  0.00    -0.391 OA
HETATM   20  H   UNK N   1      37.531  16.870  10.329  0.00  0.00     0.210 HD
ENDBRANCH   1  19
TORSDOF 12
ENDMDL
MODEL 2
REMARK VINA RESULT:      -5.2      0.984      1.811
REMARK  12 active torsions:
REMARK  status: ('A' for Active; 'I' for Inactive)
REMARK    1  A    between atoms: C_3  and  C_1 
REMARK    2  A    between atoms: O_6  and  C_1 
REMARK    3  A    between atoms: C_4  and  C_2 
REMARK    4  A    between atoms: O_13  and  C_2 
REMARK    5  A    between atoms: C_5  and  C_3 
REMARK    6  A    between atoms: C_3  and  O_7 
REMARK    7  A    between atoms: C_5  and  C_4 
REMARK    8  A    between atoms: C_4  and  O_8 
REMARK    9  A    between atoms: C_5  and  O_9 
REMARK   10  A    between atoms: P_14  and  O_10 
REMARK   11  A    between atoms: P_14  and  O_11 
REMARK   12  A    between atoms: P_14  and  O_13 
ROOT
HETATM    1  C   UNK N   1      35.884  15.949  11.175  0.00  0.00     0.173 C 
ENDROOT
BRANCH   1   2
HETATM    2  C   UNK N   1      35.175  17.052  10.397  0.00  0.00     0.214 C 
BRANCH   2   3
HETATM    3  O   UNK N   1      34.783  16.553   9.150  0.00  0.00    -0.294 OA
BRANCH   3   4
HETATM    4  P   UNK N   1      34.352  17.913   8.146  0.00  0.00     0.390 P 
HETATM    5  O   UNK N   1      34.603  17.567   6.652  0.00  0.00    -0.632 OA
BRANCH   4   6
HETATM    6  O   UNK N   1      32.657  18.255   8.295  0.00  0.00    -0.307 OA
HETATM    7  H   UNK N   1      31.922  18.604   7.768  0.00  0.00     0.222 HD
ENDBRANCH   4   6
BRANCH   4   8
HETATM    8  O   UNK N   1      35.293  19.321   8.529  0.00  0.00    -0.307 OA
HETATM    9  H   UNK N   1      35.225  20.275   8.371  0.00  0.00     0.222 HD
ENDBRANCH   4   8
ENDBRANCH   3   4
ENDBRANCH   2   3
ENDBRANCH   1   2
BRANCH   1  10
HETATM   10  C   UNK N   1      35.077  14.635  11.174  0.00  0.00     0.179 C 
BRANCH  10  11
HETATM   11  C   UNK N   1      35.513  13.693  12.317  0.00  0.00     0.173 C 
BRANCH  11  12
HETATM   12  C   UNK N   1      36.142  14.483  13.458  0.00  0.00     0.198 C 
BRANCH  12  13
HETATM   13  O   UNK N   1      37.053  13.684  14.152  0.00  0.00    -0.398 OA
HETATM   14  H   UNK N   1      37.033  12.719  14.251  0.00  0.00     0.209 HD
ENDBRANCH  12  13
ENDBRANCH  11  12
BRANCH  11  15
HETATM   15  O   UNK N   1      34.414  12.987  12.816  0.00  0.00    -0.391 OA
HETATM   16  H   UNK N   1      33.874  13.368  13.526  0.00  0.00     0.210 HD
ENDBRANCH  11  15
ENDBRANCH  10  11
BRANCH  10  17
HETATM   17  O   UNK N   1      33.718  14.934  11.326  0.00  0.00    -0.390 OA
HETATM   18  H   UNK N   1      33.404  15.844  11.199  0.00  0.00     0.210 HD
ENDBRANCH  10  17
ENDBRANCH   1  10
BRANCH   1  19
HETATM   19  O   UNK N   1      37.145  15.748  10.604  0.00  0.00    -0.391 OA
HETATM   20  H   UNK N   1      37.725  15.047  10.942  0.00  0.00     0.210 HD
ENDBRANCH   1  19
TORSDOF 12
ENDMDL
MODEL 3
REMARK VINA RESULT:      -5.2      1.018      1.914
REMARK  12 active torsions:
REMARK  status: ('A' for Active; 'I' for Inactive)
REMARK    1  A    between atoms: C_3  and  C_1 
REMARK    2  A    between atoms: O_6  and  C_1 
REMARK    3  A    between atoms: C_4  and  C_2 
REMARK    4  A    between atoms: O_13  and  C_2 
REMARK    5  A    between atoms: C_5  and  C_3 
REMARK    6  A    between atoms: C_3  and  O_7 
REMARK    7  A    between atoms: C_5  and  C_4 
REMARK    8  A    between atoms: C_4  and  O_8 
REMARK    9  A    between atoms: C_5  and  O_9 
REMARK   10  A    between atoms: P_14  and  O_10 
REMARK   11  A    between atoms: P_14  and  O_11 
REMARK   12  A    between atoms: P_14  and  O_13 
ROOT
HETATM    1  C   UNK N   1      34.593  15.235  10.673  0.00  0.00     0.173 C 
ENDROOT
BRANCH   1   2
HETATM    2  C   UNK N   1      34.728  16.586   9.980  0.00  0.00     0.214 C 
BRANCH   2   3
HETATM    3  O   UNK N   1      34.617  16.404   8.597  0.00  0.00    -0.294 OA
BRANCH   3   4
HETATM    4  P   UNK N   1      34.197  17.944   7.891  0.00  0.00     0.390 P 
HETATM    5  O   UNK N   1      32.753  18.338   8.306  0.00  0.00    -0.632 OA
BRANCH   4   6
HETATM    6  O   UNK N   1      35.244  19.188   8.498  0.00  0.00    -0.307 OA
HETATM    7  H   UNK N   1      36.075  19.284   8.988  0.00  0.00     0.222 HD
ENDBRANCH   4   6
BRANCH   4   8
HETATM    8  O   UNK N   1      34.255  17.894   6.157  0.00  0.00    -0.307 OA
HETATM    9  H   UNK N   1      34.037  17.250   5.464  0.00  0.00     0.222 HD
ENDBRANCH   4   8
ENDBRANCH   3   4
ENDBRANCH   2   3
ENDBRANCH   1   2
BRANCH   1  10
HETATM   10  C   UNK N   1      35.589  15.087  11.841  0.00  0.00     0.179 C 
BRANCH  10  11
HETATM   11  C   UNK N   1      35.651  13.633  12.360  0.00  0.00     0.173 C 
BRANCH  11  12
HETATM   12  C   UNK N   1      36.612  13.520  13.536  0.00  0.00     0.198 C 
BRANCH  12  13
HETATM   13  O   UNK N   1      36.841  14.778  14.096  0.00  0.00    -0.398 OA
HETATM   14  H   UNK N   1      36.319  15.585  13.961  0.00  0.00     0.209 HD
ENDBRANCH  12  13
ENDBRANCH  11  12
BRANCH  11  15
HETATM   15  O   UNK N   1      34.385  13.207  12.775  0.00  0.00    -0.391 OA
HETATM   16  H   UNK N   1      34.114  13.321  13.699  0.00  0.00     0.210 HD
ENDBRANCH  11  15
ENDBRANCH  10  11
BRANCH  10  17
HETATM   17  O   UNK N   1      36.864  15.467  11.404  0.00  0.00    -0.390 OA
HETATM   18  H   UNK N   1      37.148  16.391  11.483  0.00  0.00     0.210 HD
ENDBRANCH  10  17
ENDBRANCH   1  10
BRANCH   1  19
HETATM   19  O   UNK N   1      33.279  15.105  11.133  0.00  0.00    -0.391 OA
HETATM   20  H   UNK N   1      33.110  14.824  12.046  0.00  0.00     0.210 HD
ENDBRANCH   1  19
TORSDOF 12
ENDMDL
MODEL 4
REMARK VINA RESULT:      -4.9      1.227      2.372
REMARK  12 active torsions:
REMARK  status: ('A' for Active; 'I' for Inactive)
REMARK    1  A    between atoms: C_3  and  C_1 
REMARK    2  A    between atoms: O_6  and  C_1 
REMARK    3  A    between atoms: C_4  and  C_2 
REMARK    4  A    between atoms: O_13  and  C_2 
REMARK    5  A    between atoms: C_5  and  C_3 
REMARK    6  A    between atoms: C_3  and  O_7 
REMARK    7  A    between atoms: C_5  and  C_4 
REMARK    8  A    between atoms: C_4  and  O_8 
REMARK    9  A    between atoms: C_5  and  O_9 
REMARK   10  A    between atoms: P_14  and  O_10 
REMARK   11  A    between atoms: P_14  and  O_11 
REMARK   12  A    between atoms: P_14  and  O_13 
ROOT
HETATM    1  C   UNK N   1      34.756  15.124  10.538  0.00  0.00     0.173 C 
ENDROOT
BRANCH   1   2
HETATM    2  C   UNK N   1      34.620  16.536   9.980  0.00  0.00     0.214 C 
BRANCH   2   3
HETATM    3  O   UNK N   1      34.856  16.507   8.602  0.00  0.00    -0.294 OA
BRANCH   3   4
HETATM    4  P   UNK N   1      34.196  17.972   7.920  0.00  0.00     0.390 P 
HETATM    5  O   UNK N   1      35.045  19.193   8.371  0.00  0.00    -0.632 OA
BRANCH   4   6
HETATM    6  O   UNK N   1      34.285  17.921   6.188  0.00  0.00    -0.307 OA
HETATM    7  H   UNK N   1      33.710  18.014   5.413  0.00  0.00     0.222 HD
ENDBRANCH   4   6
BRANCH   4   8
HETATM    8  O   UNK N   1      32.561  18.244   8.437  0.00  0.00    -0.307 OA
HETATM    9  H   UNK N   1      31.892  18.936   8.318  0.00  0.00     0.222 HD
ENDBRANCH   4   8
ENDBRANCH   3   4
ENDBRANCH   2   3
ENDBRANCH   1   2
BRANCH   1  10
HETATM   10  C   UNK N   1      36.106  14.915  11.254  0.00  0.00     0.179 C 
BRANCH  10  11
HETATM   11  C   UNK N   1      36.734  13.548  10.904  0.00  0.00     0.173 C 
BRANCH  11  12
HETATM   12  C   UNK N   1      36.746  13.328   9.397  0.00  0.00     0.198 C 
BRANCH  12  13
HETATM   13  O   UNK N   1      37.834  13.986   8.821  0.00  0.00    -0.398 OA
HETATM   14  H   UNK N   1      38.282  14.781   9.151  0.00  0.00     0.209 HD
ENDBRANCH  12  13
ENDBRANCH  11  12
BRANCH  11  15
HETATM   15  O   UNK N   1      38.049  13.479  11.375  0.00  0.00    -0.391 OA
HETATM   16  H   UNK N   1      38.755  13.146  10.799  0.00  0.00     0.210 HD
ENDBRANCH  11  15
ENDBRANCH  10  11
BRANCH  10  17
HETATM   17  O   UNK N   1      36.988  15.931  10.869  0.00  0.00    -0.390 OA
HETATM   18  H   UNK N   1      37.894  15.945  11.216  0.00  0.00     0.210 HD
ENDBRANCH  10  17
ENDBRANCH   1  10
BRANCH   1  19
HETATM   19  O   UNK N   1      33.695  14.896  11.422  0.00  0.00    -0.391 OA
HETATM   20  H   UNK N   1      33.136  15.635  11.709  0.00  0.00     0.210 HD
ENDBRANCH   1  19
TORSDOF 12
ENDMDL
MODEL 5
REMARK VINA RESULT:      -4.6      4.701      7.603
REMARK  12 active torsions:
REMARK  status: ('A' for Active; 'I' for Inactive)
REMARK    1  A    between atoms: C_3  and  C_1 
REMARK    2  A    between atoms: O_6  and  C_1 
REMARK    3  A    between atoms: C_4  and  C_2 
REMARK    4  A    between atoms: O_13  and  C_2 
REMARK    5  A    between atoms: C_5  and  C_3 
REMARK    6  A    between atoms: C_3  and  O_7 
REMARK    7  A    between atoms: C_5  and  C_4 
REMARK    8  A    between atoms: C_4  and  O_8 
REMARK    9  A    between atoms: C_5  and  O_9 
REMARK   10  A    between atoms: P_14  and  O_10 
REMARK   11  A    between atoms: P_14  and  O_11 
REMARK   12  A    between atoms: P_14  and  O_13 
ROOT
HETATM    1  C   UNK N   1      30.452  18.247   8.879  0.00  0.00     0.173 C 
ENDROOT
BRANCH   1   2
HETATM    2  C   UNK N   1      31.732  17.459   8.627  0.00  0.00     0.214 C 
BRANCH   2   3
HETATM    3  O   UNK N   1      32.590  18.223   7.828  0.00  0.00    -0.294 OA
BRANCH   3   4
HETATM    4  P   UNK N   1      34.228  17.826   8.279  0.00  0.00     0.390 P 
HETATM    5  O   UNK N   1      35.089  19.119   8.331  0.00  0.00    -0.632 OA
BRANCH   4   6
HETATM    6  O   UNK N   1      34.264  17.145   9.874  0.00  0.00    -0.307 OA
HETATM    7  H   UNK N   1      33.659  16.777  10.537  0.00  0.00     0.222 HD
ENDBRANCH   4   6
BRANCH   4   8
HETATM    8  O   UNK N   1      34.965  16.744   7.139  0.00  0.00    -0.307 OA
HETATM    9  H   UNK N   1      35.371  15.863   7.167  0.00  0.00     0.222 HD
ENDBRANCH   4   8
ENDBRANCH   3   4
ENDBRANCH   2   3
ENDBRANCH   1   2
BRANCH   1  10
HETATM   10  C   UNK N   1      29.342  17.879   7.874  0.00  0.00     0.179 C 
BRANCH  10  11
HETATM   11  C   UNK N   1      28.312  19.018   7.714  0.00  0.00     0.173 C 
BRANCH  11  12
HETATM   12  C   UNK N   1      27.558  18.885   6.397  0.00  0.00     0.198 C 
BRANCH  12  13
HETATM   13  O   UNK N   1      26.932  17.639   6.323  0.00  0.00    -0.398 OA
HETATM   14  H   UNK N   1      25.998  17.440   6.497  0.00  0.00     0.209 HD
ENDBRANCH  12  13
ENDBRANCH  11  12
BRANCH  11  15
HETATM   15  O   UNK N   1      27.387  18.993   8.763  0.00  0.00    -0.391 OA
HETATM   16  H   UNK N   1      26.448  19.164   8.586  0.00  0.00     0.210 HD
ENDBRANCH  11  15
ENDBRANCH  10  11
BRANCH  10  17
HETATM   17  O   UNK N   1      29.925  17.617   6.628  0.00  0.00    -0.390 OA
HETATM   18  H   UNK N   1      30.331  16.753   6.455  0.00  0.00     0.210 HD
ENDBRANCH  10  17
ENDBRANCH   1  10
BRANCH   1  19
HETATM   19  O   UNK N   1      30.028  17.993  10.188  0.00  0.00    -0.391 OA
HETATM   20  H   UNK N   1      29.815  18.730  10.781  0.00  0.00     0.210 HD
ENDBRANCH   1  19
TORSDOF 12
ENDMDL
MODEL 6
REMARK VINA RESULT:      -4.5      1.627      2.288
REMARK  12 active torsions:
REMARK  status: ('A' for Active; 'I' for Inactive)
REMARK    1  A    between atoms: C_3  and  C_1 
REMARK    2  A    between atoms: O_6  and  C_1 
REMARK    3  A    between atoms: C_4  and  C_2 
REMARK    4  A    between atoms: O_13  and  C_2 
REMARK    5  A    between atoms: C_5  and  C_3 
REMARK    6  A    between atoms: C_3  and  O_7 
REMARK    7  A    between atoms: C_5  and  C_4 
REMARK    8  A    between atoms: C_4  and  O_8 
REMARK    9  A    between atoms: C_5  and  O_9 
REMARK   10  A    between atoms: P_14  and  O_10 
REMARK   11  A    between atoms: P_14  and  O_11 
REMARK   12  A    between atoms: P_14  and  O_13 
ROOT
HETATM    1  C   UNK N   1      34.991  15.283   9.270  0.00  0.00     0.173 C 
ENDROOT
BRANCH   1   2
HETATM    2  C   UNK N   1      33.752  15.076   8.406  0.00  0.00     0.214 C 
BRANCH   2   3
HETATM    3  O   UNK N   1      33.118  16.309   8.214  0.00  0.00    -0.294 OA
BRANCH   3   4
HETATM    4  P   UNK N   1      33.867  17.082   6.841  0.00  0.00     0.390 P 
HETATM    5  O   UNK N   1      34.626  18.357   7.302  0.00  0.00    -0.632 OA
BRANCH   4   6
HETATM    6  O   UNK N   1      35.052  16.030   6.133  0.00  0.00    -0.307 OA
HETATM    7  H   UNK N   1      36.010  15.981   5.993  0.00  0.00     0.222 HD
ENDBRANCH   4   6
BRANCH   4   8
HETATM    8  O   UNK N   1      32.695  17.563   5.654  0.00  0.00    -0.307 OA
HETATM    9  H   UNK N   1      32.538  18.341   5.096  0.00  0.00     0.222 HD
ENDBRANCH   4   8
ENDBRANCH   3   4
ENDBRANCH   2   3
ENDBRANCH   1   2
BRANCH   1  10
HETATM   10  C   UNK N   1      34.759  14.834  10.727  0.00  0.00     0.179 C 
BRANCH  10  11
HETATM   11  C   UNK N   1      35.680  15.585  11.712  0.00  0.00     0.173 C 
BRANCH  11  12
HETATM   12  C   UNK N   1      36.115  14.671  12.850  0.00  0.00     0.198 C 
BRANCH  12  13
HETATM   13  O   UNK N   1      37.123  13.808  12.418  0.00  0.00    -0.398 OA
HETATM   14  H   UNK N   1      37.158  13.317  11.582  0.00  0.00     0.209 HD
ENDBRANCH  12  13
ENDBRANCH  11  12
BRANCH  11  15
HETATM   15  O   UNK N   1      36.823  16.053  11.054  0.00  0.00    -0.391 OA
HETATM   16  H   UNK N   1      37.070  15.687  10.191  0.00  0.00     0.210 HD
ENDBRANCH  11  15
ENDBRANCH  10  11
BRANCH  10  17
HETATM   17  O   UNK N   1      33.426  15.083  11.073  0.00  0.00    -0.390 OA
HETATM   18  H   UNK N   1      33.023  15.941  10.866  0.00  0.00     0.210 HD
ENDBRANCH  10  17
ENDBRANCH   1  10
BRANCH   1  19
HETATM   19  O   UNK N   1      36.048  14.564   8.701  0.00  0.00    -0.391 OA
HETATM   20  H   UNK N   1      36.386  14.810   7.825  0.00  0.00     0.210 HD
ENDBRANCH   1  19
TORSDOF 12
ENDMDL
MODEL 7
REMARK VINA RESULT:      -4.4     16.297     18.026
REMARK  12 active torsions:
REMARK  status: ('A' for Active; 'I' for Inactive)
REMARK    1  A    between atoms: C_3  and  C_1 
REMARK    2  A    between atoms: O_6  and  C_1 
REMARK    3  A    between atoms: C_4  and  C_2 
REMARK    4  A    between atoms: O_13  and  C_2 
REMARK    5  A    between atoms: C_5  and  C_3 
REMARK    6  A    between atoms: C_3  and  O_7 
REMARK    7  A    between atoms: C_5  and  C_4 
REMARK    8  A    between atoms: C_4  and  O_8 
REMARK    9  A    between atoms: C_5  and  O_9 
REMARK   10  A    between atoms: P_14  and  O_10 
REMARK   11  A    between atoms: P_14  and  O_11 
REMARK   12  A    between atoms: P_14  and  O_13 
ROOT
HETATM    1  C   UNK N   1      20.225  17.784   3.736  0.00  0.00     0.173 C 
ENDROOT
BRANCH   1   2
HETATM    2  C   UNK N   1      20.864  16.400   3.726  0.00  0.00     0.214 C 
BRANCH   2   3
HETATM    3  O   UNK N   1      20.590  15.760   4.939  0.00  0.00    -0.294 OA
BRANCH   3   4
HETATM    4  P   UNK N   1      19.164  14.780   4.712  0.00  0.00     0.390 P 
HETATM    5  O   UNK N   1      17.918  15.524   5.269  0.00  0.00    -0.632 OA
BRANCH   4   6
HETATM    6  O   UNK N   1      18.873  14.528   3.020  0.00  0.00    -0.307 OA
HETATM    7  H   UNK N   1      19.045  14.954   2.167  0.00  0.00     0.222 HD
ENDBRANCH   4   6
BRANCH   4   8
HETATM    8  O   UNK N   1      19.288  13.260   5.541  0.00  0.00    -0.307 OA
HETATM    9  H   UNK N   1      18.688  12.675   6.030  0.00  0.00     0.222 HD
ENDBRANCH   4   8
ENDBRANCH   3   4
ENDBRANCH   2   3
ENDBRANCH   1   2
BRANCH   1  10
HETATM   10  C   UNK N   1      21.065  18.811   2.951  0.00  0.00     0.179 C 
BRANCH  10  11
HETATM   11  C   UNK N   1      20.298  19.367   1.732  0.00  0.00     0.173 C 
BRANCH  11  12
HETATM   12  C   UNK N   1      20.854  20.722   1.315  0.00  0.00     0.198 C 
BRANCH  12  13
HETATM   13  O   UNK N   1      20.772  20.872  -0.071  0.00  0.00    -0.398 OA
HETATM   14  H   UNK N   1      20.004  20.695  -0.637  0.00  0.00     0.209 HD
ENDBRANCH  12  13
ENDBRANCH  11  12
BRANCH  11  15
HETATM   15  O   UNK N   1      20.400  18.490   0.647  0.00  0.00    -0.391 OA
HETATM   16  H   UNK N   1      21.238  18.408   0.166  0.00  0.00     0.210 HD
ENDBRANCH  11  15
ENDBRANCH  10  11
BRANCH  10  17
HETATM   17  O   UNK N   1      21.397  19.873   3.801  0.00  0.00    -0.390 OA
HETATM   18  H   UNK N   1      20.703  20.324   4.308  0.00  0.00     0.210 HD
ENDBRANCH  10  17
ENDBRANCH   1  10
BRANCH   1  19
HETATM   19  O   UNK N   1      18.943  17.680   3.187  0.00  0.00    -0.391 OA
HETATM   20  H   UNK N   1      18.538  16.808   3.060  0.00  0.00     0.210 HD
ENDBRANCH   1  19
TORSDOF 12
ENDMDL
MODEL 8
REMARK VINA RESULT:      -4.4      4.054      5.669
REMARK  12 active torsions:
REMARK  status: ('A' for Active; 'I' for Inactive)
REMARK    1  A    between atoms: C_3  and  C_1 
REMARK    2  A    between atoms: O_6  and  C_1 
REMARK    3  A    between atoms: C_4  and  C_2 
REMARK    4  A    between atoms: O_13  and  C_2 
REMARK    5  A    between atoms: C_5  and  C_3 
REMARK    6  A    between atoms: C_3  and  O_7 
REMARK    7  A    between atoms: C_5  and  C_4 
REMARK    8  A    between atoms: C_4  and  O_8 
REMARK    9  A    between atoms: C_5  and  O_9 
REMARK   10  A    between atoms: P_14  and  O_10 
REMARK   11  A    between atoms: P_14  and  O_11 
REMARK   12  A    between atoms: P_14  and  O_13 
ROOT
HETATM    1  C   UNK N   1      31.537  16.336   7.359  0.00  0.00     0.173 C 
ENDROOT
BRANCH   1   2
HETATM    2  C   UNK N   1      30.500  17.454   7.340  0.00  0.00     0.214 C 
BRANCH   2   3
HETATM    3  O   UNK N   1      29.243  16.917   7.640  0.00  0.00    -0.294 OA
BRANCH   3   4
HETATM    4  P   UNK N   1      28.590  17.813   8.987  0.00  0.00     0.390 P 
HETATM    5  O   UNK N   1      27.715  16.879   9.868  0.00  0.00    -0.632 OA
BRANCH   4   6
HETATM    6  O   UNK N   1      29.874  18.390  10.002  0.00  0.00    -0.307 OA
HETATM    7  H   UNK N   1      30.800  18.669   9.940  0.00  0.00     0.222 HD
ENDBRANCH   4   6
BRANCH   4   8
HETATM    8  O   UNK N   1      27.592  19.132   8.460  0.00  0.00    -0.307 OA
HETATM    9  H   UNK N   1      27.298  19.495   7.609  0.00  0.00     0.222 HD
ENDBRANCH   4   8
ENDBRANCH   3   4
ENDBRANCH   2   3
ENDBRANCH   1   2
BRANCH   1  10
HETATM   10  C   UNK N   1      31.989  15.996   8.794  0.00  0.00     0.179 C 
BRANCH  10  11
HETATM   11  C   UNK N   1      32.936  14.776   8.822  0.00  0.00     0.173 C 
BRANCH  11  12
HETATM   12  C   UNK N   1      33.975  14.924   9.926  0.00  0.00     0.198 C 
BRANCH  12  13
HETATM   13  O   UNK N   1      33.353  14.937  11.176  0.00  0.00    -0.398 OA
HETATM   14  H   UNK N   1      33.545  14.361  11.934  0.00  0.00     0.209 HD
ENDBRANCH  12  13
ENDBRANCH  11  12
BRANCH  11  15
HETATM   15  O   UNK N   1      32.213  13.600   9.044  0.00  0.00    -0.391 OA
HETATM   16  H   UNK N   1      31.378  13.629   9.536  0.00  0.00     0.210 HD
ENDBRANCH  11  15
ENDBRANCH  10  11
BRANCH  10  17
HETATM   17  O   UNK N   1      32.656  17.101   9.335  0.00  0.00    -0.390 OA
HETATM   18  H   UNK N   1      32.182  17.937   9.468  0.00  0.00     0.210 HD
ENDBRANCH  10  17
ENDBRANCH   1  10
BRANCH   1  19
HETATM   19  O   UNK N   1      30.981  15.210   6.743  0.00  0.00    -0.391 OA
HETATM   20  H   UNK N   1      30.018  15.117   6.679  0.00  0.00     0.210 HD
ENDBRANCH   1  19
TORSDOF 12
ENDMDL
MODEL 9
REMARK VINA RESULT:      -4.4      3.446      6.280
REMARK  12 active torsions:
REMARK  status: ('A' for Active; 'I' for Inactive)
REMARK    1  A    between atoms: C_3  and  C_1 
REMARK    2  A    between atoms: O_6  and  C_1 
REMARK    3  A    between atoms: C_4  and  C_2 
REMARK    4  A    between atoms: O_13  and  C_2 
REMARK    5  A    between atoms: C_5  and  C_3 
REMARK    6  A    between atoms: C_3  and  O_7 
REMARK    7  A    between atoms: C_5  and  C_4 
REMARK    8  A    between atoms: C_4  and  O_8 
REMARK    9  A    between atoms: C_5  and  O_9 
REMARK   10  A    between atoms: P_14  and  O_10 
REMARK   11  A    between atoms: P_14  and  O_11 
REMARK   12  A    between atoms: P_14  and  O_13 
ROOT
HETATM    1  C   UNK N   1      36.535  13.072  12.236  0.00  0.00     0.173 C 
ENDROOT
BRANCH   1   2
HETATM    2  C   UNK N   1      36.573  12.643  13.698  0.00  0.00     0.214 C 
BRANCH   2   3
HETATM    3  O   UNK N   1      36.162  11.309  13.794  0.00  0.00    -0.294 OA
BRANCH   3   4
HETATM    4  P   UNK N   1      34.559  11.296  14.483  0.00  0.00     0.390 P 
HETATM    5  O   UNK N   1      34.141  12.741  14.874  0.00  0.00    -0.632 OA
BRANCH   4   6
HETATM    6  O   UNK N   1      33.406  10.749  13.308  0.00  0.00    -0.307 OA
HETATM    7  H   UNK N   1      33.145  10.918  12.389  0.00  0.00     0.222 HD
ENDBRANCH   4   6
BRANCH   4   8
HETATM    8  O   UNK N   1      34.481  10.316  15.914  0.00  0.00    -0.307 OA
HETATM    9  H   UNK N   1      33.792   9.838  16.401  0.00  0.00     0.222 HD
ENDBRANCH   4   8
ENDBRANCH   3   4
ENDBRANCH   2   3
ENDBRANCH   1   2
BRANCH   1  10
HETATM   10  C   UNK N   1      35.755  14.388  12.042  0.00  0.00     0.179 C 
BRANCH  10  11
HETATM   11  C   UNK N   1      36.094  15.063  10.696  0.00  0.00     0.173 C 
BRANCH  11  12
HETATM   12  C   UNK N   1      34.883  15.802  10.141  0.00  0.00     0.198 C 
BRANCH  12  13
HETATM   13  O   UNK N   1      34.752  17.047  10.759  0.00  0.00    -0.398 OA
HETATM   14  H   UNK N   1      34.544  17.894  10.335  0.00  0.00     0.209 HD
ENDBRANCH  12  13
ENDBRANCH  11  12
BRANCH  11  15
HETATM   15  O   UNK N   1      37.140  15.978  10.857  0.00  0.00    -0.391 OA
HETATM   16  H   UNK N   1      37.444  16.217  11.746  0.00  0.00     0.210 HD
ENDBRANCH  11  15
ENDBRANCH  10  11
BRANCH  10  17
HETATM   17  O   UNK N   1      34.383  14.113  12.079  0.00  0.00    -0.390 OA
HETATM   18  H   UNK N   1      33.765  14.775  12.429  0.00  0.00     0.210 HD
ENDBRANCH  10  17
ENDBRANCH   1  10
BRANCH   1  19
HETATM   19  O   UNK N   1      37.852  13.215  11.785  0.00  0.00    -0.391 OA
HETATM   20  H   UNK N   1      38.045  13.791  11.028  0.00  0.00     0.210 HD
ENDBRANCH   1  19
TORSDOF 12
ENDMDL
