REMARK  5 active torsions:
REMARK  status: ('A' for Active; 'I' for Inactive)
REMARK    1  A    between atoms: O_1  and  S_2 
REMARK    2  A    between atoms: S_2  and  C_5 
REMARK    3  A    between atoms: C_5  and  C_6 
REMARK    4  A    between atoms: C_6  and  C_7 
REMARK    5  A    between atoms: C_7  and  N_8 
ROOT
HETATM    1  C   UNK N   1      -1.077  -0.432  -0.150  0.00  0.00     0.047 C 
ENDROOT
BRANCH   1   2
HETATM    2  C   UNK N   1      -2.226  -0.886   0.726  0.00  0.00     0.157 C 
BRANCH   2   3
HETATM    3  S   UNK N   1      -3.146  -2.193  -0.129  0.00  0.00     0.094 S 
HETATM    4  O   UNK N   1      -2.229  -3.304  -0.661  0.00  0.00    -0.601 OA
HETATM    5  O   UNK N   1      -3.802  -1.683  -1.420  0.00  0.00    -0.601 OA
BRANCH   3   6
HETATM    6  O   UNK N   1      -4.397  -3.019   0.707  0.00  0.00    -0.296 OA
HETATM    7  H   UNK N   1      -5.155  -2.639   1.179  0.00  0.00     0.232 HD
ENDBRANCH   3   6
ENDBRANCH   2   3
ENDBRANCH   1   2
BRANCH   1   8
HETATM    8  C   UNK N   1       0.231  -0.659   0.582  0.00  0.00     0.273 C 
BRANCH   8   9
HETATM    9  N   UNK N   1       1.082  -1.573  -0.161  0.00  0.00     0.092 N 
HETATM   10  C   UNK N   1       2.461  -1.249   0.205  0.00  0.00     0.298 C 
HETATM   11  C   UNK N   1       3.407  -2.323  -0.337  0.00  0.00     0.198 C 
HETATM   12  O   UNK N   1       3.074  -3.563   0.236  0.00  0.00    -0.388 OA
HETATM   13  C   UNK N   1       1.812  -3.911  -0.273  0.00  0.00     0.198 C 
HETATM   14  C   UNK N   1       0.762  -2.939   0.273  0.00  0.00     0.298 C 
ENDBRANCH   8   9
ENDBRANCH   1   8
TORSDOF 5
