MODEL 1
REMARK VINA RESULT:      -4.9      0.000      0.000
REMARK  5 active torsions:
REMARK  status: ('A' for Active; 'I' for Inactive)
REMARK    1  A    between atoms: C_2  and  N_1 
REMARK    2  A    between atoms: C_2  and  C_3 
REMARK    3  A    between atoms: C_2  and  C_9 
REMARK    4  A    between atoms: C_3  and  C_4 
REMARK    5  A    between atoms: C_9  and  O_10 
ROOT
HETATM    1  C   UNK N   1      33.970  17.193   8.937  0.00  0.00     0.178 C 
ENDROOT
BRANCH   1   2
HETATM    2  N   UNK N   1      34.628  17.080  10.227  0.00  0.00    -0.417 N 
HETATM    3  H   UNK N   1      35.043  16.192  10.511  0.00  0.00     0.150 HD
HETATM    4  H   UNK N   1      34.676  17.887  10.848  0.00  0.00     0.150 HD
ENDBRANCH   1   2
BRANCH   1   5
HETATM    5  C   UNK N   1      32.774  16.301   8.562  0.00  0.00     0.081 C 
BRANCH   5   6
HETATM    6  C   UNK N   1      31.468  16.961   8.208  0.00  0.00    -0.015 A 
HETATM    7  C   UNK N   1      30.875  17.971   8.961  0.00  0.00     0.015 A 
HETATM    8  C   UNK N   1      29.641  18.426   8.412  0.00  0.00     0.008 A 
HETATM    9  C   UNK N   1      29.265  17.776   7.229  0.00  0.00     0.050 A 
HETATM   10  S   UNK N   1      30.465  16.677   6.919  0.00  0.00    -0.106 SA
ENDBRANCH   5   6
ENDBRANCH   1   5
BRANCH   1  11
HETATM   11  C   UNK N   1      34.513  18.218   7.994  0.00  0.00     0.163 C 
HETATM   12  O   UNK N   1      35.077  19.210   8.422  0.00  0.00    -0.648 OA
BRANCH  11  13
HETATM   13  O   UNK N   1      34.378  18.045   6.665  0.00  0.00    -0.775 OA
HETATM   14  H   UNK N   1      33.648  18.424   6.215  0.00  0.00     0.167 HD
ENDBRANCH  11  13
ENDBRANCH   1  11
TORSDOF 5
ENDMDL
MODEL 2
REMARK VINA RESULT:      -4.8     11.091     11.612
REMARK  5 active torsions:
REMARK  status: ('A' for Active; 'I' for Inactive)
REMARK    1  A    between atoms: C_2  and  N_1 
REMARK    2  A    between atoms: C_2  and  C_3 
REMARK    3  A    between atoms: C_2  and  C_9 
REMARK    4  A    between atoms: C_3  and  C_4 
REMARK    5  A    between atoms: C_9  and  O_10 
ROOT
HETATM    1  C   UNK N   1      23.774  12.013  11.198  0.00  0.00     0.178 C 
ENDROOT
BRANCH   1   2
HETATM    2  N   UNK N   1      25.106  12.584  11.099  0.00  0.00    -0.417 N 
HETATM    3  H   UNK N   1      25.762  12.230  10.402  0.00  0.00     0.150 HD
HETATM    4  H   UNK N   1      25.385  13.339  11.725  0.00  0.00     0.150 HD
ENDBRANCH   1   2
BRANCH   1   5
HETATM    5  C   UNK N   1      22.992  11.574   9.948  0.00  0.00     0.081 C 
BRANCH   5   6
HETATM    6  C   UNK N   1      22.120  12.585   9.253  0.00  0.00    -0.015 A 
HETATM    7  C   UNK N   1      21.573  13.703   9.877  0.00  0.00     0.015 A 
HETATM    8  C   UNK N   1      20.786  14.503   8.999  0.00  0.00     0.008 A 
HETATM    9  C   UNK N   1      20.715  14.016   7.687  0.00  0.00     0.050 A 
HETATM   10  S   UNK N   1      21.620  12.630   7.673  0.00  0.00    -0.106 SA
ENDBRANCH   5   6
ENDBRANCH   1   5
BRANCH   1  11
HETATM   11  C   UNK N   1      23.204  11.873  12.572  0.00  0.00     0.163 C 
HETATM   12  O   UNK N   1      23.879  12.149  13.550  0.00  0.00    -0.648 OA
BRANCH  11  13
HETATM   13  O   UNK N   1      21.939  11.440  12.733  0.00  0.00    -0.775 OA
HETATM   14  H   UNK N   1      21.227  12.047  12.684  0.00  0.00     0.167 HD
ENDBRANCH  11  13
ENDBRANCH   1  11
TORSDOF 5
ENDMDL
MODEL 3
REMARK VINA RESULT:      -4.6     10.833     12.597
REMARK  5 active torsions:
REMARK  status: ('A' for Active; 'I' for Inactive)
REMARK    1  A    between atoms: C_2  and  N_1 
REMARK    2  A    between atoms: C_2  and  C_3 
REMARK    3  A    between atoms: C_2  and  C_9 
REMARK    4  A    between atoms: C_3  and  C_4 
REMARK    5  A    between atoms: C_9  and  O_10 
ROOT
HETATM    1  C   UNK N   1      20.770  19.511   2.072  0.00  0.00     0.178 C 
ENDROOT
BRANCH   1   2
HETATM    2  N   UNK N   1      20.102  18.286   1.669  0.00  0.00    -0.417 N 
HETATM    3  H   UNK N   1      19.085  18.220   1.719  0.00  0.00     0.150 HD
HETATM    4  H   UNK N   1      20.649  17.492   1.336  0.00  0.00     0.150 HD
ENDBRANCH   1   2
BRANCH   1   5
HETATM    5  C   UNK N   1      21.471  19.634   3.436  0.00  0.00     0.081 C 
BRANCH   5   6
HETATM    6  C   UNK N   1      22.972  19.538   3.484  0.00  0.00    -0.015 A 
HETATM    7  C   UNK N   1      23.833  20.509   2.977  0.00  0.00     0.015 A 
HETATM    8  C   UNK N   1      25.209  20.179   3.148  0.00  0.00     0.008 A 
HETATM    9  C   UNK N   1      25.430  18.952   3.788  0.00  0.00     0.050 A 
HETATM   10  S   UNK N   1      23.927  18.336   4.111  0.00  0.00    -0.106 SA
ENDBRANCH   5   6
ENDBRANCH   1   5
BRANCH   1  11
HETATM   11  C   UNK N   1      20.742  20.643   1.097  0.00  0.00     0.163 C 
HETATM   12  O   UNK N   1      20.869  21.792   1.483  0.00  0.00    -0.648 OA
BRANCH  11  13
HETATM   13  O   UNK N   1      20.577  20.392  -0.217  0.00  0.00    -0.775 OA
HETATM   14  H   UNK N   1      21.292  20.061  -0.724  0.00  0.00     0.167 HD
ENDBRANCH  11  13
ENDBRANCH   1  11
TORSDOF 5
ENDMDL
MODEL 4
REMARK VINA RESULT:      -4.6     11.080     11.517
REMARK  5 active torsions:
REMARK  status: ('A' for Active; 'I' for Inactive)
REMARK    1  A    between atoms: C_2  and  N_1 
REMARK    2  A    between atoms: C_2  and  C_3 
REMARK    3  A    between atoms: C_2  and  C_9 
REMARK    4  A    between atoms: C_3  and  C_4 
REMARK    5  A    between atoms: C_9  and  O_10 
ROOT
HETATM    1  C   UNK N   1      22.521  11.983  11.307  0.00  0.00     0.178 C 
ENDROOT
BRANCH   1   2
HETATM    2  N   UNK N   1      21.257  11.708  11.967  0.00  0.00    -0.417 N 
HETATM    3  H   UNK N   1      20.905  12.347  12.681  0.00  0.00     0.150 HD
HETATM    4  H   UNK N   1      20.720  10.877  11.718  0.00  0.00     0.150 HD
ENDBRANCH   1   2
BRANCH   1   5
HETATM    5  C   UNK N   1      22.618  12.119   9.778  0.00  0.00     0.081 C 
BRANCH   5   6
HETATM    6  C   UNK N   1      22.090  13.372   9.133  0.00  0.00    -0.015 A 
HETATM    7  C   UNK N   1      21.106  14.184   9.694  0.00  0.00     0.015 A 
HETATM    8  C   UNK N   1      20.783  15.310   8.883  0.00  0.00     0.008 A 
HETATM    9  C   UNK N   1      21.510  15.384   7.687  0.00  0.00     0.050 A 
HETATM   10  S   UNK N   1      22.511  14.065   7.687  0.00  0.00    -0.106 SA
ENDBRANCH   5   6
ENDBRANCH   1   5
BRANCH   1  11
HETATM   11  C   UNK N   1      23.721  12.125  12.187  0.00  0.00     0.163 C 
HETATM   12  O   UNK N   1      23.608  12.056  13.399  0.00  0.00    -0.648 OA
BRANCH  11  13
HETATM   13  O   UNK N   1      24.934  12.332  11.639  0.00  0.00    -0.775 OA
HETATM   14  H   UNK N   1      25.642  12.638  12.171  0.00  0.00     0.167 HD
ENDBRANCH  11  13
ENDBRANCH   1  11
TORSDOF 5
ENDMDL
MODEL 5
REMARK VINA RESULT:      -4.4      3.430      4.905
REMARK  5 active torsions:
REMARK  status: ('A' for Active; 'I' for Inactive)
REMARK    1  A    between atoms: C_2  and  N_1 
REMARK    2  A    between atoms: C_2  and  C_3 
REMARK    3  A    between atoms: C_2  and  C_9 
REMARK    4  A    between atoms: C_3  and  C_4 
REMARK    5  A    between atoms: C_9  and  O_10 
ROOT
HETATM    1  C   UNK N   1      34.279  17.252   9.190  0.00  0.00     0.178 C 
ENDROOT
BRANCH   1   2
HETATM    2  N   UNK N   1      32.923  16.743   9.078  0.00  0.00    -0.417 N 
HETATM    3  H   UNK N   1      32.474  16.305   9.883  0.00  0.00     0.150 HD
HETATM    4  H   UNK N   1      32.419  16.824   8.194  0.00  0.00     0.150 HD
ENDBRANCH   1   2
BRANCH   1   5
HETATM    5  C   UNK N   1      35.236  16.757  10.288  0.00  0.00     0.081 C 
BRANCH   5   6
HETATM    6  C   UNK N   1      35.393  15.273  10.489  0.00  0.00    -0.015 A 
HETATM    7  C   UNK N   1      34.773  14.554  11.508  0.00  0.00     0.015 A 
HETATM    8  C   UNK N   1      35.085  13.163  11.479  0.00  0.00     0.008 A 
HETATM    9  C   UNK N   1      35.949  12.791  10.440  0.00  0.00     0.050 A 
HETATM   10  S   UNK N   1      36.284  14.184   9.612  0.00  0.00    -0.106 SA
ENDBRANCH   5   6
ENDBRANCH   1   5
BRANCH   1  11
HETATM   11  C   UNK N   1      34.695  18.278   8.188  0.00  0.00     0.163 C 
HETATM   12  O   UNK N   1      35.305  19.273   8.541  0.00  0.00    -0.648 OA
BRANCH  11  13
HETATM   13  O   UNK N   1      34.396  18.104   6.885  0.00  0.00    -0.775 OA
HETATM   14  H   UNK N   1      34.361  17.240   6.525  0.00  0.00     0.167 HD
ENDBRANCH  11  13
ENDBRANCH   1  11
TORSDOF 5
ENDMDL
MODEL 6
REMARK VINA RESULT:      -4.3      9.679     10.652
REMARK  5 active torsions:
REMARK  status: ('A' for Active; 'I' for Inactive)
REMARK    1  A    between atoms: C_2  and  N_1 
REMARK    2  A    between atoms: C_2  and  C_3 
REMARK    3  A    between atoms: C_2  and  C_9 
REMARK    4  A    between atoms: C_3  and  C_4 
REMARK    5  A    between atoms: C_9  and  O_10 
ROOT
HETATM    1  C   UNK N   1      36.592  13.212  15.200  0.00  0.00     0.178 C 
ENDROOT
BRANCH   1   2
HETATM    2  N   UNK N   1      37.494  12.198  14.682  0.00  0.00    -0.417 N 
HETATM    3  H   UNK N   1      37.700  12.161  13.683  0.00  0.00     0.150 HD
HETATM    4  H   UNK N   1      37.923  11.524  15.317  0.00  0.00     0.150 HD
ENDBRANCH   1   2
BRANCH   1   5
HETATM    5  C   UNK N   1      35.260  12.836  15.871  0.00  0.00     0.081 C 
BRANCH   5   6
HETATM    6  C   UNK N   1      35.273  12.433  17.322  0.00  0.00    -0.015 A 
HETATM    7  C   UNK N   1      35.177  13.332  18.382  0.00  0.00     0.015 A 
HETATM    8  C   UNK N   1      35.213  12.697  19.657  0.00  0.00     0.008 A 
HETATM    9  C   UNK N   1      35.338  11.302  19.600  0.00  0.00     0.050 A 
HETATM   10  S   UNK N   1      35.397  10.921  17.990  0.00  0.00    -0.106 SA
ENDBRANCH   5   6
ENDBRANCH   1   5
BRANCH   1  11
HETATM   11  C   UNK N   1      37.023  14.634  15.049  0.00  0.00     0.163 C 
HETATM   12  O   UNK N   1      37.578  15.211  15.968  0.00  0.00    -0.648 OA
BRANCH  11  13
HETATM   13  O   UNK N   1      36.796  15.284  13.890  0.00  0.00    -0.775 OA
HETATM   14  H   UNK N   1      36.307  14.867  13.208  0.00  0.00     0.167 HD
ENDBRANCH  11  13
ENDBRANCH   1  11
TORSDOF 5
ENDMDL
MODEL 7
REMARK VINA RESULT:      -4.3      9.826     10.896
REMARK  5 active torsions:
REMARK  status: ('A' for Active; 'I' for Inactive)
REMARK    1  A    between atoms: C_2  and  N_1 
REMARK    2  A    between atoms: C_2  and  C_3 
REMARK    3  A    between atoms: C_2  and  C_9 
REMARK    4  A    between atoms: C_3  and  C_4 
REMARK    5  A    between atoms: C_9  and  O_10 
ROOT
HETATM    1  C   UNK N   1      22.796  11.825  11.027  0.00  0.00     0.178 C 
ENDROOT
BRANCH   1   2
HETATM    2  N   UNK N   1      21.413  11.917  11.461  0.00  0.00    -0.417 N 
HETATM    3  H   UNK N   1      20.677  11.462  10.919  0.00  0.00     0.150 HD
HETATM    4  H   UNK N   1      21.176  12.435  12.307  0.00  0.00     0.150 HD
ENDBRANCH   1   2
BRANCH   1   5
HETATM    5  C   UNK N   1      23.162  11.501   9.569  0.00  0.00     0.081 C 
BRANCH   5   6
HETATM    6  C   UNK N   1      23.447  12.641   8.628  0.00  0.00    -0.015 A 
HETATM    7  C   UNK N   1      24.727  13.037   8.247  0.00  0.00     0.015 A 
HETATM    8  C   UNK N   1      24.725  14.142   7.348  0.00  0.00     0.008 A 
HETATM    9  C   UNK N   1      23.447  14.614   7.022  0.00  0.00     0.050 A 
HETATM   10  S   UNK N   1      22.386  13.652   7.853  0.00  0.00    -0.106 SA
ENDBRANCH   5   6
ENDBRANCH   1   5
BRANCH   1  11
HETATM   11  C   UNK N   1      23.843  12.062  12.067  0.00  0.00     0.163 C 
HETATM   12  O   UNK N   1      23.554  12.024  13.251  0.00  0.00    -0.648 OA
BRANCH  11  13
HETATM   13  O   UNK N   1      25.112  12.319  11.695  0.00  0.00    -0.775 OA
HETATM   14  H   UNK N   1      25.316  12.457  10.791  0.00  0.00     0.167 HD
ENDBRANCH  11  13
ENDBRANCH   1  11
TORSDOF 5
ENDMDL
MODEL 8
REMARK VINA RESULT:      -4.2     13.315     14.056
REMARK  5 active torsions:
REMARK  status: ('A' for Active; 'I' for Inactive)
REMARK    1  A    between atoms: C_2  and  N_1 
REMARK    2  A    between atoms: C_2  and  C_3 
REMARK    3  A    between atoms: C_2  and  C_9 
REMARK    4  A    between atoms: C_3  and  C_4 
REMARK    5  A    between atoms: C_9  and  O_10 
ROOT
HETATM    1  C   UNK N   1      20.180  19.031   2.348  0.00  0.00     0.178 C 
ENDROOT
BRANCH   1   2
HETATM    2  N   UNK N   1      18.727  19.018   2.320  0.00  0.00    -0.417 N 
HETATM    3  H   UNK N   1      18.235  18.933   1.430  0.00  0.00     0.150 HD
HETATM    4  H   UNK N   1      18.199  19.094   3.190  0.00  0.00     0.150 HD
ENDBRANCH   1   2
BRANCH   1   5
HETATM    5  C   UNK N   1      20.988  17.783   2.742  0.00  0.00     0.081 C 
BRANCH   5   6
HETATM    6  C   UNK N   1      20.469  16.431   2.332  0.00  0.00    -0.015 A 
HETATM    7  C   UNK N   1      20.394  15.991   1.013  0.00  0.00     0.015 A 
HETATM    8  C   UNK N   1      19.866  14.673   0.893  0.00  0.00     0.008 A 
HETATM    9  C   UNK N   1      19.527  14.077   2.115  0.00  0.00     0.050 A 
HETATM   10  S   UNK N   1      19.892  15.198   3.278  0.00  0.00    -0.106 SA
ENDBRANCH   5   6
ENDBRANCH   1   5
BRANCH   1  11
HETATM   11  C   UNK N   1      20.846  20.316   1.975  0.00  0.00     0.163 C 
HETATM   12  O   UNK N   1      21.270  20.485   0.845  0.00  0.00    -0.648 OA
BRANCH  11  13
HETATM   13  O   UNK N   1      20.980  21.293   2.894  0.00  0.00    -0.775 OA
HETATM   14  H   UNK N   1      21.685  21.907   2.824  0.00  0.00     0.167 HD
ENDBRANCH  11  13
ENDBRANCH   1  11
TORSDOF 5
ENDMDL
MODEL 9
REMARK VINA RESULT:      -4.1      3.729      5.004
REMARK  5 active torsions:
REMARK  status: ('A' for Active; 'I' for Inactive)
REMARK    1  A    between atoms: C_2  and  N_1 
REMARK    2  A    between atoms: C_2  and  C_3 
REMARK    3  A    between atoms: C_2  and  C_9 
REMARK    4  A    between atoms: C_3  and  C_4 
REMARK    5  A    between atoms: C_9  and  O_10 
ROOT
HETATM    1  C   UNK N   1      29.547  18.091   9.038  0.00  0.00     0.178 C 
ENDROOT
BRANCH   1   2
HETATM    2  N   UNK N   1      30.110  18.746  10.206  0.00  0.00    -0.417 N 
HETATM    3  H   UNK N   1      30.813  18.267  10.771  0.00  0.00     0.150 HD
HETATM    4  H   UNK N   1      29.803  19.685  10.462  0.00  0.00     0.150 HD
ENDBRANCH   1   2
BRANCH   1   5
HETATM    5  C   UNK N   1      30.443  17.513   7.930  0.00  0.00     0.081 C 
BRANCH   5   6
HETATM    6  C   UNK N   1      31.885  17.221   8.249  0.00  0.00    -0.015 A 
HETATM    7  C   UNK N   1      32.923  18.133   8.072  0.00  0.00     0.015 A 
HETATM    8  C   UNK N   1      34.195  17.612   8.449  0.00  0.00     0.008 A 
HETATM    9  C   UNK N   1      34.157  16.294   8.922  0.00  0.00     0.050 A 
HETATM   10  S   UNK N   1      32.567  15.836   8.853  0.00  0.00    -0.106 SA
ENDBRANCH   5   6
ENDBRANCH   1   5
BRANCH   1  11
HETATM   11  C   UNK N   1      28.057  18.007   8.969  0.00  0.00     0.163 C 
HETATM   12  O   UNK N   1      27.481  16.984   9.299  0.00  0.00    -0.648 OA
BRANCH  11  13
HETATM   13  O   UNK N   1      27.345  19.068   8.540  0.00  0.00    -0.775 OA
HETATM   14  H   UNK N   1      26.631  18.943   7.946  0.00  0.00     0.167 HD
ENDBRANCH  11  13
ENDBRANCH   1  11
TORSDOF 5
ENDMDL
