MODEL 1
REMARK VINA RESULT:      -5.3      0.000      0.000
REMARK  9 active torsions:
REMARK  status: ('A' for Active; 'I' for Inactive)
REMARK    1  A    between atoms: C_2  and  N_1 
REMARK    2  A    between atoms: C_2  and  C_3 
REMARK    3  A    between atoms: C_2  and  C_11 
REMARK    4  A    between atoms: C_3  and  C_4 
REMARK    5  A    between atoms: C_4  and  O_6 
REMARK    6  A    between atoms: O_6  and  C_7 
REMARK    7  A    between atoms: C_7  and  C_8 
REMARK    8  A    between atoms: C_8  and  O_9 
REMARK    9  A    between atoms: C_11  and  O_12 
ROOT
HETATM    1  C   UNK N   1      34.890  15.043  11.335  0.00  0.00     0.146 C 
ENDROOT
BRANCH   1   2
HETATM    2  C   UNK N   1      35.777  14.198  12.256  0.00  0.00     0.182 C 
BRANCH   2   3
HETATM    3  N   UNK N   1      36.414  15.039  13.258  0.00  0.00    -0.417 N 
HETATM    4  H   UNK N   1      36.376  14.886  14.265  0.00  0.00     0.150 HD
HETATM    5  H   UNK N   1      36.941  15.848  12.925  0.00  0.00     0.150 HD
ENDBRANCH   2   3
BRANCH   2   6
HETATM    6  C   UNK N   1      34.968  13.127  12.942  0.00  0.00     0.163 C 
HETATM    7  O   UNK N   1      34.733  13.197  14.139  0.00  0.00    -0.648 OA
BRANCH   6   8
HETATM    8  O   UNK N   1      34.464  12.100  12.230  0.00  0.00    -0.775 OA
HETATM    9  H   UNK N   1      33.805  12.255  11.583  0.00  0.00     0.167 HD
ENDBRANCH   6   8
ENDBRANCH   2   6
ENDBRANCH   1   2
BRANCH   1  10
HETATM   10  C   UNK N   1      35.553  16.237  10.703  0.00  0.00     0.261 C 
HETATM   11  O   UNK N   1      36.775  16.321  10.652  0.00  0.00    -0.265 OA
BRANCH  10  12
HETATM   12  O   UNK N   1      34.775  17.252  10.260  0.00  0.00    -0.311 OA
BRANCH  12  13
HETATM   13  C   UNK N   1      34.098  17.211   9.061  0.00  0.00     0.288 C 
BRANCH  13  14
HETATM   14  C   UNK N   1      34.650  18.229   8.109  0.00  0.00     0.165 C 
HETATM   15  O   UNK N   1      34.488  18.107   6.905  0.00  0.00    -0.648 OA
BRANCH  14  16
HETATM   16  O   UNK N   1      35.330  19.288   8.586  0.00  0.00    -0.775 OA
HETATM   17  H   UNK N   1      35.833  19.823   8.004  0.00  0.00     0.167 HD
ENDBRANCH  14  16
ENDBRANCH  13  14
ENDBRANCH  12  13
ENDBRANCH  10  12
ENDBRANCH   1  10
TORSDOF 9
ENDMDL
MODEL 2
REMARK VINA RESULT:      -5.1      2.874      5.575
REMARK  9 active torsions:
REMARK  status: ('A' for Active; 'I' for Inactive)
REMARK    1  A    between atoms: C_2  and  N_1 
REMARK    2  A    between atoms: C_2  and  C_3 
REMARK    3  A    between atoms: C_2  and  C_11 
REMARK    4  A    between atoms: C_3  and  C_4 
REMARK    5  A    between atoms: C_4  and  O_6 
REMARK    6  A    between atoms: O_6  and  C_7 
REMARK    7  A    between atoms: C_7  and  C_8 
REMARK    8  A    between atoms: C_8  and  O_9 
REMARK    9  A    between atoms: C_11  and  O_12 
ROOT
HETATM    1  C   UNK N   1      32.722  15.706   7.480  0.00  0.00     0.146 C 
ENDROOT
BRANCH   1   2
HETATM    2  C   UNK N   1      32.690  17.235   7.578  0.00  0.00     0.182 C 
BRANCH   2   3
HETATM    3  N   UNK N   1      32.579  17.651   8.968  0.00  0.00    -0.417 N 
HETATM    4  H   UNK N   1      31.710  17.708   9.498  0.00  0.00     0.150 HD
HETATM    5  H   UNK N   1      33.440  17.909   9.451  0.00  0.00     0.150 HD
ENDBRANCH   2   3
BRANCH   2   6
HETATM    6  C   UNK N   1      33.935  17.835   6.975  0.00  0.00     0.163 C 
HETATM    7  O   UNK N   1      34.188  17.679   5.790  0.00  0.00    -0.648 OA
BRANCH   6   8
HETATM    8  O   UNK N   1      34.761  18.582   7.733  0.00  0.00    -0.775 OA
HETATM    9  H   UNK N   1      34.580  18.707   8.644  0.00  0.00     0.167 HD
ENDBRANCH   6   8
ENDBRANCH   2   6
ENDBRANCH   1   2
BRANCH   1  10
HETATM   10  C   UNK N   1      33.064  14.976   8.751  0.00  0.00     0.261 C 
HETATM   11  O   UNK N   1      32.188  14.445   9.423  0.00  0.00    -0.265 OA
BRANCH  10  12
HETATM   12  O   UNK N   1      34.349  14.984   9.176  0.00  0.00    -0.311 OA
BRANCH  12  13
HETATM   13  C   UNK N   1      34.706  15.235  10.483  0.00  0.00     0.288 C 
BRANCH  13  14
HETATM   14  C   UNK N   1      35.714  16.343  10.550  0.00  0.00     0.165 C 
HETATM   15  O   UNK N   1      35.394  17.491  10.284  0.00  0.00    -0.648 OA
BRANCH  14  16
HETATM   16  O   UNK N   1      36.982  16.069  10.907  0.00  0.00    -0.775 OA
HETATM   17  H   UNK N   1      37.176  15.808  11.786  0.00  0.00     0.167 HD
ENDBRANCH  14  16
ENDBRANCH  13  14
ENDBRANCH  12  13
ENDBRANCH  10  12
ENDBRANCH   1  10
TORSDOF 9
ENDMDL
MODEL 3
REMARK VINA RESULT:      -4.9      4.810      6.586
REMARK  9 active torsions:
REMARK  status: ('A' for Active; 'I' for Inactive)
REMARK    1  A    between atoms: C_2  and  N_1 
REMARK    2  A    between atoms: C_2  and  C_3 
REMARK    3  A    between atoms: C_2  and  C_11 
REMARK    4  A    between atoms: C_3  and  C_4 
REMARK    5  A    between atoms: C_4  and  O_6 
REMARK    6  A    between atoms: O_6  and  C_7 
REMARK    7  A    between atoms: C_7  and  C_8 
REMARK    8  A    between atoms: C_8  and  O_9 
REMARK    9  A    between atoms: C_11  and  O_12 
ROOT
HETATM    1  C   UNK N   1      31.957  17.613   7.001  0.00  0.00     0.146 C 
ENDROOT
BRANCH   1   2
HETATM    2  C   UNK N   1      32.836  18.026   8.187  0.00  0.00     0.182 C 
BRANCH   2   3
HETATM    3  N   UNK N   1      32.790  17.012   9.229  0.00  0.00    -0.417 N 
HETATM    4  H   UNK N   1      32.154  17.015  10.026  0.00  0.00     0.150 HD
HETATM    5  H   UNK N   1      33.447  16.235   9.157  0.00  0.00     0.150 HD
ENDBRANCH   2   3
BRANCH   2   6
HETATM    6  C   UNK N   1      34.265  18.227   7.748  0.00  0.00     0.163 C 
HETATM    7  O   UNK N   1      34.707  17.630   6.778  0.00  0.00    -0.648 OA
BRANCH   6   8
HETATM    8  O   UNK N   1      35.056  19.099   8.403  0.00  0.00    -0.775 OA
HETATM    9  H   UNK N   1      35.987  19.049   8.314  0.00  0.00     0.167 HD
ENDBRANCH   6   8
ENDBRANCH   2   6
ENDBRANCH   1   2
BRANCH   1  10
HETATM   10  C   UNK N   1      31.048  16.438   7.239  0.00  0.00     0.261 C 
HETATM   11  O   UNK N   1      31.413  15.299   6.973  0.00  0.00    -0.265 OA
BRANCH  10  12
HETATM   12  O   UNK N   1      29.790  16.672   7.682  0.00  0.00    -0.311 OA
BRANCH  12  13
HETATM   13  C   UNK N   1      29.215  17.924   7.682  0.00  0.00     0.288 C 
BRANCH  13  14
HETATM   14  C   UNK N   1      28.785  18.307   9.066  0.00  0.00     0.165 C 
HETATM   15  O   UNK N   1      29.602  18.699   9.885  0.00  0.00    -0.648 OA
BRANCH  14  16
HETATM   16  O   UNK N   1      27.487  18.217   9.410  0.00  0.00    -0.775 OA
HETATM   17  H   UNK N   1      26.832  18.627   8.879  0.00  0.00     0.167 HD
ENDBRANCH  14  16
ENDBRANCH  13  14
ENDBRANCH  12  13
ENDBRANCH  10  12
ENDBRANCH   1  10
TORSDOF 9
ENDMDL
MODEL 4
REMARK VINA RESULT:      -4.9      2.716      3.542
REMARK  9 active torsions:
REMARK  status: ('A' for Active; 'I' for Inactive)
REMARK    1  A    between atoms: C_2  and  N_1 
REMARK    2  A    between atoms: C_2  and  C_3 
REMARK    3  A    between atoms: C_2  and  C_11 
REMARK    4  A    between atoms: C_3  and  C_4 
REMARK    5  A    between atoms: C_4  and  O_6 
REMARK    6  A    between atoms: O_6  and  C_7 
REMARK    7  A    between atoms: C_7  and  C_8 
REMARK    8  A    between atoms: C_8  and  O_9 
REMARK    9  A    between atoms: C_11  and  O_12 
ROOT
HETATM    1  C   UNK N   1      33.523  15.239   9.984  0.00  0.00     0.146 C 
ENDROOT
BRANCH   1   2
HETATM    2  C   UNK N   1      35.029  14.961   9.915  0.00  0.00     0.182 C 
BRANCH   2   3
HETATM    3  N   UNK N   1      35.463  14.855   8.531  0.00  0.00    -0.417 N 
HETATM    4  H   UNK N   1      35.506  13.991   7.992  0.00  0.00     0.150 HD
HETATM    5  H   UNK N   1      35.749  15.715   8.062  0.00  0.00     0.150 HD
ENDBRANCH   2   3
BRANCH   2   6
HETATM    6  C   UNK N   1      35.806  16.057  10.601  0.00  0.00     0.163 C 
HETATM    7  O   UNK N   1      35.239  17.062  11.004  0.00  0.00    -0.648 OA
BRANCH   6   8
HETATM    8  O   UNK N   1      37.130  15.920  10.805  0.00  0.00    -0.775 OA
HETATM    9  H   UNK N   1      37.486  16.013  11.667  0.00  0.00     0.167 HD
ENDBRANCH   6   8
ENDBRANCH   2   6
ENDBRANCH   1   2
BRANCH   1  10
HETATM   10  C   UNK N   1      32.792  15.199   8.669  0.00  0.00     0.261 C 
HETATM   11  O   UNK N   1      32.314  14.151   8.250  0.00  0.00    -0.265 OA
BRANCH  10  12
HETATM   12  O   UNK N   1      32.738  16.327   7.924  0.00  0.00    -0.311 OA
BRANCH  12  13
HETATM   13  C   UNK N   1      32.999  17.579   8.436  0.00  0.00     0.288 C 
BRANCH  13  14
HETATM   14  C   UNK N   1      34.195  18.185   7.765  0.00  0.00     0.165 C 
HETATM   15  O   UNK N   1      34.879  19.014   8.345  0.00  0.00    -0.648 OA
BRANCH  14  16
HETATM   16  O   UNK N   1      34.516  17.814   6.513  0.00  0.00    -0.775 OA
HETATM   17  H   UNK N   1      35.359  17.446   6.335  0.00  0.00     0.167 HD
ENDBRANCH  14  16
ENDBRANCH  13  14
ENDBRANCH  12  13
ENDBRANCH  10  12
ENDBRANCH   1  10
TORSDOF 9
ENDMDL
MODEL 5
REMARK VINA RESULT:      -4.9     16.122     17.418
REMARK  9 active torsions:
REMARK  status: ('A' for Active; 'I' for Inactive)
REMARK    1  A    between atoms: C_2  and  N_1 
REMARK    2  A    between atoms: C_2  and  C_3 
REMARK    3  A    between atoms: C_2  and  C_11 
REMARK    4  A    between atoms: C_3  and  C_4 
REMARK    5  A    between atoms: C_4  and  O_6 
REMARK    6  A    between atoms: O_6  and  C_7 
REMARK    7  A    between atoms: C_7  and  C_8 
REMARK    8  A    between atoms: C_8  and  O_9 
REMARK    9  A    between atoms: C_11  and  O_12 
ROOT
HETATM    1  C   UNK N   1      21.510  17.634   3.346  0.00  0.00     0.146 C 
ENDROOT
BRANCH   1   2
HETATM    2  C   UNK N   1      20.463  16.580   2.966  0.00  0.00     0.182 C 
BRANCH   2   3
HETATM    3  N   UNK N   1      19.235  16.793   3.716  0.00  0.00    -0.417 N 
HETATM    4  H   UNK N   1      19.183  17.122   4.680  0.00  0.00     0.150 HD
HETATM    5  H   UNK N   1      18.354  16.597   3.239  0.00  0.00     0.150 HD
ENDBRANCH   2   3
BRANCH   2   6
HETATM    6  C   UNK N   1      20.164  16.633   1.489  0.00  0.00     0.163 C 
HETATM    7  O   UNK N   1      20.776  15.924   0.705  0.00  0.00    -0.648 OA
BRANCH   6   8
HETATM    8  O   UNK N   1      19.189  17.440   1.026  0.00  0.00    -0.775 OA
HETATM    9  H   UNK N   1      18.342  17.091   0.832  0.00  0.00     0.167 HD
ENDBRANCH   6   8
ENDBRANCH   2   6
ENDBRANCH   1   2
BRANCH   1  10
HETATM   10  C   UNK N   1      20.966  18.963   3.795  0.00  0.00     0.261 C 
HETATM   11  O   UNK N   1      21.004  19.288   4.976  0.00  0.00    -0.265 OA
BRANCH  10  12
HETATM   12  O   UNK N   1      20.366  19.760   2.880  0.00  0.00    -0.311 OA
BRANCH  12  13
HETATM   13  C   UNK N   1      20.980  20.862   2.327  0.00  0.00     0.288 C 
BRANCH  13  14
HETATM   14  C   UNK N   1      20.764  20.897   0.844  0.00  0.00     0.165 C 
HETATM   15  O   UNK N   1      20.723  21.962   0.246  0.00  0.00    -0.648 OA
BRANCH  14  16
HETATM   16  O   UNK N   1      20.614  19.746   0.165  0.00  0.00    -0.775 OA
HETATM   17  H   UNK N   1      21.272  19.471  -0.443  0.00  0.00     0.167 HD
ENDBRANCH  14  16
ENDBRANCH  13  14
ENDBRANCH  12  13
ENDBRANCH  10  12
ENDBRANCH   1  10
TORSDOF 9
ENDMDL
MODEL 6
REMARK VINA RESULT:      -4.8     13.462     14.054
REMARK  9 active torsions:
REMARK  status: ('A' for Active; 'I' for Inactive)
REMARK    1  A    between atoms: C_2  and  N_1 
REMARK    2  A    between atoms: C_2  and  C_3 
REMARK    3  A    between atoms: C_2  and  C_11 
REMARK    4  A    between atoms: C_3  and  C_4 
REMARK    5  A    between atoms: C_4  and  O_6 
REMARK    6  A    between atoms: O_6  and  C_7 
REMARK    7  A    between atoms: C_7  and  C_8 
REMARK    8  A    between atoms: C_8  and  O_9 
REMARK    9  A    between atoms: C_11  and  O_12 
ROOT
HETATM    1  C   UNK N   1      22.159  13.289  10.111  0.00  0.00     0.146 C 
ENDROOT
BRANCH   1   2
HETATM    2  C   UNK N   1      22.804  11.939  10.444  0.00  0.00     0.182 C 
BRANCH   2   3
HETATM    3  N   UNK N   1      23.704  11.530   9.376  0.00  0.00    -0.417 N 
HETATM    4  H   UNK N   1      24.722  11.561   9.421  0.00  0.00     0.150 HD
HETATM    5  H   UNK N   1      23.282  11.187   8.513  0.00  0.00     0.150 HD
ENDBRANCH   2   3
BRANCH   2   6
HETATM    6  C   UNK N   1      23.568  12.017  11.741  0.00  0.00     0.163 C 
HETATM    7  O   UNK N   1      23.003  11.829  12.808  0.00  0.00    -0.648 OA
BRANCH   6   8
HETATM    8  O   UNK N   1      24.894  12.261  11.730  0.00  0.00    -0.775 OA
HETATM    9  H   UNK N   1      25.498  11.569  11.546  0.00  0.00     0.167 HD
ENDBRANCH   6   8
ENDBRANCH   2   6
ENDBRANCH   1   2
BRANCH   1  10
HETATM   10  C   UNK N   1      20.654  13.309  10.099  0.00  0.00     0.261 C 
HETATM   11  O   UNK N   1      20.013  12.646  10.906  0.00  0.00    -0.265 OA
BRANCH  10  12
HETATM   12  O   UNK N   1      20.024  14.015   9.132  0.00  0.00    -0.311 OA
BRANCH  12  13
HETATM   13  C   UNK N   1      20.578  15.123   8.528  0.00  0.00     0.288 C 
BRANCH  13  14
HETATM   14  C   UNK N   1      19.751  16.342   8.803  0.00  0.00     0.165 C 
HETATM   15  O   UNK N   1      20.259  17.453   8.795  0.00  0.00    -0.648 OA
BRANCH  14  16
HETATM   16  O   UNK N   1      18.437  16.213   9.060  0.00  0.00    -0.775 OA
HETATM   17  H   UNK N   1      18.072  15.365   9.218  0.00  0.00     0.167 HD
ENDBRANCH  14  16
ENDBRANCH  13  14
ENDBRANCH  12  13
ENDBRANCH  10  12
ENDBRANCH   1  10
TORSDOF 9
ENDMDL
MODEL 7
REMARK VINA RESULT:      -4.8      5.506      6.933
REMARK  9 active torsions:
REMARK  status: ('A' for Active; 'I' for Inactive)
REMARK    1  A    between atoms: C_2  and  N_1 
REMARK    2  A    between atoms: C_2  and  C_3 
REMARK    3  A    between atoms: C_2  and  C_11 
REMARK    4  A    between atoms: C_3  and  C_4 
REMARK    5  A    between atoms: C_4  and  O_6 
REMARK    6  A    between atoms: O_6  and  C_7 
REMARK    7  A    between atoms: C_7  and  C_8 
REMARK    8  A    between atoms: C_8  and  O_9 
REMARK    9  A    between atoms: C_11  and  O_12 
ROOT
HETATM    1  C   UNK N   1      29.720  17.016   7.240  0.00  0.00     0.146 C 
ENDROOT
BRANCH   1   2
HETATM    2  C   UNK N   1      28.997  18.316   7.610  0.00  0.00     0.182 C 
BRANCH   2   3
HETATM    3  N   UNK N   1      27.765  18.446   6.848  0.00  0.00    -0.417 N 
HETATM    4  H   UNK N   1      26.829  18.507   7.247  0.00  0.00     0.150 HD
HETATM    5  H   UNK N   1      27.844  18.476   5.831  0.00  0.00     0.150 HD
ENDBRANCH   2   3
BRANCH   2   6
HETATM    6  C   UNK N   1      28.680  18.349   9.084  0.00  0.00     0.163 C 
HETATM    7  O   UNK N   1      29.523  18.705   9.894  0.00  0.00    -0.648 OA
BRANCH   6   8
HETATM    8  O   UNK N   1      27.447  18.020   9.517  0.00  0.00    -0.775 OA
HETATM    9  H   UNK N   1      27.081  18.448  10.265  0.00  0.00     0.167 HD
ENDBRANCH   6   8
ENDBRANCH   2   6
ENDBRANCH   1   2
BRANCH   1  10
HETATM   10  C   UNK N   1      31.159  17.164   6.824  0.00  0.00     0.261 C 
HETATM   11  O   UNK N   1      31.456  17.331   5.648  0.00  0.00    -0.265 OA
BRANCH  10  12
HETATM   12  O   UNK N   1      32.121  17.032   7.766  0.00  0.00    -0.311 OA
BRANCH  12  13
HETATM   13  C   UNK N   1      32.740  18.108   8.364  0.00  0.00     0.288 C 
BRANCH  13  14
HETATM   14  C   UNK N   1      34.102  18.327   7.778  0.00  0.00     0.165 C 
HETATM   15  O   UNK N   1      34.926  19.015   8.361  0.00  0.00    -0.648 OA
BRANCH  14  16
HETATM   16  O   UNK N   1      34.419  17.761   6.600  0.00  0.00    -0.775 OA
HETATM   17  H   UNK N   1      35.290  17.835   6.263  0.00  0.00     0.167 HD
ENDBRANCH  14  16
ENDBRANCH  13  14
ENDBRANCH  12  13
ENDBRANCH  10  12
ENDBRANCH   1  10
TORSDOF 9
ENDMDL
MODEL 8
REMARK VINA RESULT:      -4.8     16.195     17.602
REMARK  9 active torsions:
REMARK  status: ('A' for Active; 'I' for Inactive)
REMARK    1  A    between atoms: C_2  and  N_1 
REMARK    2  A    between atoms: C_2  and  C_3 
REMARK    3  A    between atoms: C_2  and  C_11 
REMARK    4  A    between atoms: C_3  and  C_4 
REMARK    5  A    between atoms: C_4  and  O_6 
REMARK    6  A    between atoms: O_6  and  C_7 
REMARK    7  A    between atoms: C_7  and  C_8 
REMARK    8  A    between atoms: C_8  and  O_9 
REMARK    9  A    between atoms: C_11  and  O_12 
ROOT
HETATM    1  C   UNK N   1      21.402  18.430   2.987  0.00  0.00     0.146 C 
ENDROOT
BRANCH   1   2
HETATM    2  C   UNK N   1      20.516  19.169   1.979  0.00  0.00     0.182 C 
BRANCH   2   3
HETATM    3  N   UNK N   1      19.185  19.377   2.530  0.00  0.00    -0.417 N 
HETATM    4  H   UNK N   1      18.396  19.782   2.027  0.00  0.00     0.150 HD
HETATM    5  H   UNK N   1      19.030  19.096   3.499  0.00  0.00     0.150 HD
ENDBRANCH   2   3
BRANCH   2   6
HETATM    6  C   UNK N   1      21.120  20.502   1.614  0.00  0.00     0.163 C 
HETATM    7  O   UNK N   1      21.351  20.781   0.447  0.00  0.00    -0.648 OA
BRANCH   6   8
HETATM    8  O   UNK N   1      21.376  21.413   2.573  0.00  0.00    -0.775 OA
HETATM    9  H   UNK N   1      20.767  22.106   2.738  0.00  0.00     0.167 HD
ENDBRANCH   6   8
ENDBRANCH   2   6
ENDBRANCH   1   2
BRANCH   1  10
HETATM   10  C   UNK N   1      20.958  18.502   4.423  0.00  0.00     0.261 C 
HETATM   11  O   UNK N   1      20.992  19.562   5.037  0.00  0.00    -0.265 OA
BRANCH  10  12
HETATM   12  O   UNK N   1      20.593  17.357   5.046  0.00  0.00    -0.311 OA
BRANCH  12  13
HETATM   13  C   UNK N   1      19.700  16.459   4.504  0.00  0.00     0.288 C 
BRANCH  13  14
HETATM   14  C   UNK N   1      18.967  15.725   5.586  0.00  0.00     0.165 C 
HETATM   15  O   UNK N   1      17.778  15.925   5.778  0.00  0.00    -0.648 OA
BRANCH  14  16
HETATM   16  O   UNK N   1      19.626  14.838   6.353  0.00  0.00    -0.775 OA
HETATM   17  H   UNK N   1      19.515  14.848   7.283  0.00  0.00     0.167 HD
ENDBRANCH  14  16
ENDBRANCH  13  14
ENDBRANCH  12  13
ENDBRANCH  10  12
ENDBRANCH   1  10
TORSDOF 9
ENDMDL
MODEL 9
REMARK VINA RESULT:      -4.7     14.512     16.630
REMARK  9 active torsions:
REMARK  status: ('A' for Active; 'I' for Inactive)
REMARK    1  A    between atoms: C_2  and  N_1 
REMARK    2  A    between atoms: C_2  and  C_3 
REMARK    3  A    between atoms: C_2  and  C_11 
REMARK    4  A    between atoms: C_3  and  C_4 
REMARK    5  A    between atoms: C_4  and  O_6 
REMARK    6  A    between atoms: O_6  and  C_7 
REMARK    7  A    between atoms: C_7  and  C_8 
REMARK    8  A    between atoms: C_8  and  O_9 
REMARK    9  A    between atoms: C_11  and  O_12 
ROOT
HETATM    1  C   UNK N   1      20.600  18.230   3.512  0.00  0.00     0.146 C 
ENDROOT
BRANCH   1   2
HETATM    2  C   UNK N   1      19.577  17.865   2.430  0.00  0.00     0.182 C 
BRANCH   2   3
HETATM    3  N   UNK N   1      18.572  18.910   2.310  0.00  0.00    -0.417 N 
HETATM    4  H   UNK N   1      18.759  19.912   2.327  0.00  0.00     0.150 HD
HETATM    5  H   UNK N   1      17.600  18.616   2.201  0.00  0.00     0.150 HD
ENDBRANCH   2   3
BRANCH   2   6
HETATM    6  C   UNK N   1      20.256  17.668   1.098  0.00  0.00     0.163 C 
HETATM    7  O   UNK N   1      20.672  16.567   0.769  0.00  0.00    -0.648 OA
BRANCH   6   8
HETATM    8  O   UNK N   1      20.376  18.701   0.242  0.00  0.00    -0.775 OA
HETATM    9  H   UNK N   1      20.247  19.579   0.542  0.00  0.00     0.167 HD
ENDBRANCH   6   8
ENDBRANCH   2   6
ENDBRANCH   1   2
BRANCH   1  10
HETATM   10  C   UNK N   1      21.070  19.659   3.511  0.00  0.00     0.261 C 
HETATM   11  O   UNK N   1      20.337  20.560   3.903  0.00  0.00    -0.265 OA
BRANCH  10  12
HETATM   12  O   UNK N   1      22.291  19.939   2.997  0.00  0.00    -0.311 OA
BRANCH  12  13
HETATM   13  C   UNK N   1      23.458  19.414   3.508  0.00  0.00     0.288 C 
BRANCH  13  14
HETATM   14  C   UNK N   1      24.612  20.331   3.233  0.00  0.00     0.165 C 
HETATM   15  O   UNK N   1      24.734  20.867   2.142  0.00  0.00    -0.648 OA
BRANCH  14  16
HETATM   16  O   UNK N   1      25.522  20.563   4.196  0.00  0.00    -0.775 OA
HETATM   17  H   UNK N   1      26.432  20.623   3.977  0.00  0.00     0.167 HD
ENDBRANCH  14  16
ENDBRANCH  13  14
ENDBRANCH  12  13
ENDBRANCH  10  12
ENDBRANCH   1  10
TORSDOF 9
ENDMDL
