MODEL 1
REMARK VINA RESULT:      -6.8      0.000      0.000
REMARK  21 active torsions:
REMARK  status: ('A' for Active; 'I' for Inactive)
REMARK    1  A    between atoms: O_2  and  C_3 
REMARK    2  A    between atoms: C_6  and  C_7 
REMARK    3  A    between atoms: C_7  and  C_8 
REMARK    4  A    between atoms: C_8  and  N_9 
REMARK    5  A    between atoms: C_8  and  C_17 
REMARK       I    between atoms: N_9  and  C_10 
REMARK    6  A    between atoms: C_10  and  C_12 
REMARK    7  A    between atoms: C_12  and  C_13 
REMARK    8  A    between atoms: C_13  and  N_16 
REMARK       I    between atoms: C_17  and  N_19 
REMARK    9  A    between atoms: C_20  and  N_19 
REMARK   10  A    between atoms: C_20  and  C_21 
REMARK   11  A    between atoms: C_20  and  C_28 
REMARK   12  A    between atoms: C_21  and  C_22 
REMARK       I    between atoms: C_28  and  N_30 
REMARK   13  A    between atoms: C_31  and  N_30 
REMARK   14  A    between atoms: C_31  and  C_32 
REMARK   15  A    between atoms: C_31  and  C_39 
REMARK   16  A    between atoms: C_32  and  C_33 
REMARK   17  A    between atoms: C_39  and  O_40 
REMARK   18  A    between atoms: C_39  and  C_41 
REMARK   19  A    between atoms: C_41  and  O_42 
REMARK   20  A    between atoms: C_41  and  C_43 
REMARK   21  A    between atoms: C_43  and  C_44 
ROOT
HETATM    1  C   UNK N   1      26.072  13.732   3.746  0.00  0.00     0.182 C 
ENDROOT
BRANCH   1   2
HETATM    2  N   UNK N   1      27.387  14.334   3.876  0.00  0.00    -0.346 N 
HETATM    3  C   UNK N   1      27.712  15.510   3.287  0.00  0.00     0.241 C 
HETATM    4  O   UNK N   1      26.976  16.011   2.449  0.00  0.00    -0.271 OA
HETATM    5  H   UNK N   1      28.069  13.870   4.414  0.00  0.00     0.163 HD
BRANCH   3   6
HETATM    6  C   UNK N   1      28.900  16.275   3.796  0.00  0.00     0.180 C 
BRANCH   6   7
HETATM    7  C   UNK N   1      30.191  15.839   3.114  0.00  0.00     0.073 C 
BRANCH   7   8
HETATM    8  C   UNK N   1      31.332  16.257   3.985  0.00  0.00    -0.056 A 
HETATM    9  C   UNK N   1      31.491  15.678   5.246  0.00  0.00     0.010 A 
HETATM   10  C   UNK N   1      32.487  16.146   6.108  0.00  0.00     0.037 A 
HETATM   11  C   UNK N   1      33.328  17.203   5.712  0.00  0.00     0.068 A 
HETATM   12  C   UNK N   1      33.172  17.766   4.442  0.00  0.00     0.037 A 
HETATM   13  C   UNK N   1      32.176  17.300   3.583  0.00  0.00     0.010 A 
BRANCH  11  14
HETATM   14  O   UNK N   1      34.280  17.700   6.536  0.00  0.00    -0.356 OA
HETATM   15  C   UNK N   1      34.008  18.188   7.794  0.00  0.00     0.210 C 
ENDBRANCH  11  14
ENDBRANCH   7   8
ENDBRANCH   6   7
BRANCH   6  16
HETATM   16  N   UNK N   1      28.621  17.683   3.618  0.00  0.00    -0.347 N 
HETATM   17  C   UNK N   1      28.680  18.534   4.678  0.00  0.00     0.220 C 
HETATM   18  O   UNK N   1      29.116  18.151   5.754  0.00  0.00    -0.274 OA
HETATM   19  H   UNK N   1      28.389  18.028   2.726  0.00  0.00     0.163 HD
BRANCH  17  20
HETATM   20  C   UNK N   1      28.104  19.918   4.586  0.00  0.00     0.132 C 
BRANCH  20  21
HETATM   21  C   UNK N   1      26.870  20.191   5.434  0.00  0.00     0.024 C 
HETATM   22  C   UNK N   1      25.734  20.549   4.500  0.00  0.00     0.038 C 
HETATM   23  C   UNK N   1      27.103  21.354   6.379  0.00  0.00     0.038 C 
BRANCH  21  24
HETATM   24  N   UNK N   1      26.506  19.005   6.189  0.00  0.00    -0.422 N 
HETATM   25  H   UNK N   1      26.765  18.020   6.206  0.00  0.00     0.150 HD
HETATM   26  H   UNK N   1      25.799  19.216   6.894  0.00  0.00     0.150 HD
ENDBRANCH  21  24
ENDBRANCH  20  21
ENDBRANCH  17  20
ENDBRANCH   6  16
ENDBRANCH   3   6
ENDBRANCH   1   2
BRANCH   1  27
HETATM   27  C   UNK N   1      26.118  12.782   2.555  0.00  0.00     0.093 C 
BRANCH  27  28
HETATM   28  C   UNK N   1      24.971  13.083   1.634  0.00  0.00     0.028 A 
HETATM   29  C   UNK N   1      24.224  14.234   1.634  0.00  0.00     0.114 A 
HETATM   30  N   UNK N   1      23.333  14.144   0.628  0.00  0.00    -0.360 N 
HETATM   31  C   UNK N   1      23.554  12.949   0.042  0.00  0.00     0.180 A 
ATOM     32  HN  UNK N   1      22.634  14.839   0.364  1.00  0.00     0.166 HD
HETATM   33  N   UNK N   1      24.555  12.276   0.644  0.00  0.00    -0.354 N 
HETATM   34  H   UNK N   1      24.904  11.386   0.408  0.00  0.00     0.166 HD
ENDBRANCH  27  28
ENDBRANCH   1  27
BRANCH   1  35
HETATM   35  C   UNK N   1      25.743  13.030   5.059  0.00  0.00     0.241 C 
HETATM   36  O   UNK N   1      26.348  12.005   5.339  0.00  0.00    -0.271 OA
HETATM   37  N   UNK N   1      24.833  13.464   5.959  0.00  0.00    -0.352 N 
HETATM   38  H   UNK N   1      24.806  12.927   6.784  0.00  0.00     0.163 HD
BRANCH  37  39
HETATM   39  C   UNK N   1      23.889  14.561   5.948  0.00  0.00     0.116 C 
BRANCH  39  40
HETATM   40  C   UNK N   1      23.120  14.461   7.268  0.00  0.00     0.032 C 
BRANCH  40  41
HETATM   41  C   UNK N   1      21.622  14.214   7.030  0.00  0.00    -0.013 C 
HETATM   42  C   UNK N   1      20.928  13.646   8.268  0.00  0.00     0.005 C 
HETATM   43  C   UNK N   1      20.800  14.710   9.355  0.00  0.00     0.000 C 
HETATM   44  C   UNK N   1      20.032  15.916   8.818  0.00  0.00     0.000 C 
HETATM   45  C   UNK N   1      20.758  16.510   7.614  0.00  0.00     0.000 C 
HETATM   46  C   UNK N   1      20.901  15.461   6.514  0.00  0.00     0.005 C 
ENDBRANCH  40  41
ENDBRANCH  39  40
BRANCH  39  47
HETATM   47  C   UNK N   1      24.494  15.967   5.849  0.00  0.00     0.169 C 
BRANCH  47  48
HETATM   48  O   UNK N   1      25.817  16.082   6.282  0.00  0.00    -0.391 OA
HETATM   49  H   UNK N   1      26.669  15.801   6.654  0.00  0.00     0.210 HD
ENDBRANCH  47  48
BRANCH  47  50
HETATM   50  C   UNK N   1      24.162  16.776   4.608  0.00  0.00     0.149 C 
BRANCH  50  51
HETATM   51  O   UNK N   1      25.310  17.377   4.087  0.00  0.00    -0.393 OA
HETATM   52  H   UNK N   1      25.549  17.673   3.195  0.00  0.00     0.210 HD
ENDBRANCH  50  51
BRANCH  50  53
HETATM   53  C   UNK N   1      23.116  17.827   4.962  0.00  0.00     0.038 C 
BRANCH  53  54
HETATM   54  C   UNK N   1      22.228  18.169   3.775  0.00  0.00    -0.020 C 
HETATM   55  C   UNK N   1      21.114  19.109   4.195  0.00  0.00     0.009 C 
HETATM   56  C   UNK N   1      21.616  16.899   3.221  0.00  0.00     0.009 C 
ENDBRANCH  53  54
ENDBRANCH  50  53
ENDBRANCH  47  50
ENDBRANCH  39  47
ENDBRANCH  37  39
ENDBRANCH   1  35
TORSDOF 21
ENDMDL
MODEL 2
REMARK VINA RESULT:      -6.7      3.088      6.373
REMARK  21 active torsions:
REMARK  status: ('A' for Active; 'I' for Inactive)
REMARK    1  A    between atoms: O_2  and  C_3 
REMARK    2  A    between atoms: C_6  and  C_7 
REMARK    3  A    between atoms: C_7  and  C_8 
REMARK    4  A    between atoms: C_8  and  N_9 
REMARK    5  A    between atoms: C_8  and  C_17 
REMARK       I    between atoms: N_9  and  C_10 
REMARK    6  A    between atoms: C_10  and  C_12 
REMARK    7  A    between atoms: C_12  and  C_13 
REMARK    8  A    between atoms: C_13  and  N_16 
REMARK       I    between atoms: C_17  and  N_19 
REMARK    9  A    between atoms: C_20  and  N_19 
REMARK   10  A    between atoms: C_20  and  C_21 
REMARK   11  A    between atoms: C_20  and  C_28 
REMARK   12  A    between atoms: C_21  and  C_22 
REMARK       I    between atoms: C_28  and  N_30 
REMARK   13  A    between atoms: C_31  and  N_30 
REMARK   14  A    between atoms: C_31  and  C_32 
REMARK   15  A    between atoms: C_31  and  C_39 
REMARK   16  A    between atoms: C_32  and  C_33 
REMARK   17  A    between atoms: C_39  and  O_40 
REMARK   18  A    between atoms: C_39  and  C_41 
REMARK   19  A    between atoms: C_41  and  O_42 
REMARK   20  A    between atoms: C_41  and  C_43 
REMARK   21  A    between atoms: C_43  and  C_44 
ROOT
HETATM    1  C   UNK N   1      21.654  18.049   4.847  0.00  0.00     0.182 C 
ENDROOT
BRANCH   1   2
HETATM    2  N   UNK N   1      22.714  17.146   4.434  0.00  0.00    -0.346 N 
HETATM    3  C   UNK N   1      24.027  17.446   4.584  0.00  0.00     0.241 C 
HETATM    4  O   UNK N   1      24.376  18.580   4.883  0.00  0.00    -0.271 OA
HETATM    5  H   UNK N   1      22.470  16.282   4.031  0.00  0.00     0.163 HD
BRANCH   3   6
HETATM    6  C   UNK N   1      25.036  16.335   4.546  0.00  0.00     0.180 C 
BRANCH   6   7
HETATM    7  C   UNK N   1      24.936  15.521   3.262  0.00  0.00     0.073 C 
BRANCH   7   8
HETATM    8  C   UNK N   1      24.879  14.076   3.640  0.00  0.00    -0.056 A 
HETATM    9  C   UNK N   1      25.403  13.110   2.777  0.00  0.00     0.010 A 
HETATM   10  C   UNK N   1      25.250  11.753   3.073  0.00  0.00     0.037 A 
HETATM   11  C   UNK N   1      24.566  11.354   4.237  0.00  0.00     0.068 A 
HETATM   12  C   UNK N   1      24.059  12.327   5.103  0.00  0.00     0.037 A 
HETATM   13  C   UNK N   1      24.210  13.682   4.805  0.00  0.00     0.010 A 
BRANCH  11  14
HETATM   14  O   UNK N   1      24.373  10.048   4.534  0.00  0.00    -0.356 OA
HETATM   15  C   UNK N   1      24.394   9.557   5.820  0.00  0.00     0.210 C 
ENDBRANCH  11  14
ENDBRANCH   7   8
ENDBRANCH   6   7
BRANCH   6  16
HETATM   16  N   UNK N   1      26.343  16.927   4.732  0.00  0.00    -0.347 N 
HETATM   17  C   UNK N   1      27.228  16.377   5.608  0.00  0.00     0.220 C 
HETATM   18  O   UNK N   1      26.990  15.296   6.129  0.00  0.00    -0.274 OA
HETATM   19  H   UNK N   1      26.595  17.730   4.223  0.00  0.00     0.163 HD
BRANCH  17  20
HETATM   20  C   UNK N   1      28.450  17.133   6.044  0.00  0.00     0.132 C 
BRANCH  20  21
HETATM   21  C   UNK N   1      28.378  17.797   7.411  0.00  0.00     0.024 C 
HETATM   22  C   UNK N   1      27.974  19.241   7.205  0.00  0.00     0.038 C 
HETATM   23  C   UNK N   1      29.726  17.766   8.105  0.00  0.00     0.038 C 
BRANCH  21  24
HETATM   24  N   UNK N   1      27.381  17.140   8.238  0.00  0.00    -0.422 N 
HETATM   25  H   UNK N   1      27.299  16.824   9.204  0.00  0.00     0.150 HD
HETATM   26  H   UNK N   1      26.532  16.942   7.709  0.00  0.00     0.150 HD
ENDBRANCH  21  24
ENDBRANCH  20  21
ENDBRANCH  17  20
ENDBRANCH   6  16
ENDBRANCH   3   6
ENDBRANCH   1   2
BRANCH   1  27
HETATM   27  C   UNK N   1      20.551  17.972   3.799  0.00  0.00     0.093 C 
BRANCH  27  28
HETATM   28  C   UNK N   1      20.616  19.186   2.918  0.00  0.00     0.028 A 
HETATM   29  C   UNK N   1      20.848  20.471   3.341  0.00  0.00     0.114 A 
HETATM   30  N   UNK N   1      20.885  21.261   2.251  0.00  0.00    -0.360 N 
HETATM   31  C   UNK N   1      20.676  20.447   1.196  0.00  0.00     0.180 A 
ATOM     32  HN  UNK N   1      21.040  22.269   2.228  1.00  0.00     0.166 HD
HETATM   33  N   UNK N   1      20.505  19.166   1.580  0.00  0.00    -0.354 N 
HETATM   34  H   UNK N   1      20.336  18.386   1.003  0.00  0.00     0.166 HD
ENDBRANCH  27  28
ENDBRANCH   1  27
BRANCH   1  35
HETATM   35  C   UNK N   1      21.189  17.626   6.237  0.00  0.00     0.241 C 
HETATM   36  O   UNK N   1      21.101  18.481   7.106  0.00  0.00    -0.271 OA
HETATM   37  N   UNK N   1      20.847  16.366   6.586  0.00  0.00    -0.352 N 
HETATM   38  H   UNK N   1      20.498  16.291   7.504  0.00  0.00     0.163 HD
BRANCH  37  39
HETATM   39  C   UNK N   1      20.894  15.105   5.877  0.00  0.00     0.116 C 
BRANCH  39  40
HETATM   40  C   UNK N   1      21.020  14.026   6.955  0.00  0.00     0.032 C 
BRANCH  40  41
HETATM   41  C   UNK N   1      21.893  14.500   8.128  0.00  0.00    -0.013 C 
HETATM   42  C   UNK N   1      21.090  14.647   9.421  0.00  0.00     0.005 C 
HETATM   43  C   UNK N   1      20.704  13.280   9.979  0.00  0.00     0.000 C 
HETATM   44  C   UNK N   1      21.957  12.442  10.221  0.00  0.00     0.000 C 
HETATM   45  C   UNK N   1      22.726  12.255   8.917  0.00  0.00     0.000 C 
HETATM   46  C   UNK N   1      23.121  13.611   8.337  0.00  0.00     0.005 C 
ENDBRANCH  40  41
ENDBRANCH  39  40
BRANCH  39  47
HETATM   47  C   UNK N   1      19.674  14.776   5.009  0.00  0.00     0.169 C 
BRANCH  47  48
HETATM   48  O   UNK N   1      18.486  15.414   5.377  0.00  0.00    -0.391 OA
HETATM   49  H   UNK N   1      17.547  15.658   5.337  0.00  0.00     0.210 HD
ENDBRANCH  47  48
BRANCH  47  50
HETATM   50  C   UNK N   1      19.899  14.675   3.511  0.00  0.00     0.149 C 
BRANCH  50  51
HETATM   51  O   UNK N   1      18.729  14.275   2.860  0.00  0.00    -0.393 OA
HETATM   52  H   UNK N   1      18.114  14.738   2.270  0.00  0.00     0.210 HD
ENDBRANCH  50  51
BRANCH  50  53
HETATM   53  C   UNK N   1      21.030  13.690   3.241  0.00  0.00     0.038 C 
BRANCH  53  54
HETATM   54  C   UNK N   1      21.237  13.454   1.752  0.00  0.00    -0.020 C 
HETATM   55  C   UNK N   1      21.986  12.157   1.516  0.00  0.00     0.009 C 
HETATM   56  C   UNK N   1      22.038  14.599   1.167  0.00  0.00     0.009 C 
ENDBRANCH  53  54
ENDBRANCH  50  53
ENDBRANCH  47  50
ENDBRANCH  39  47
ENDBRANCH  37  39
ENDBRANCH   1  35
TORSDOF 21
ENDMDL
MODEL 3
REMARK VINA RESULT:      -6.6      1.351      2.046
REMARK  21 active torsions:
REMARK  status: ('A' for Active; 'I' for Inactive)
REMARK    1  A    between atoms: O_2  and  C_3 
REMARK    2  A    between atoms: C_6  and  C_7 
REMARK    3  A    between atoms: C_7  and  C_8 
REMARK    4  A    between atoms: C_8  and  N_9 
REMARK    5  A    between atoms: C_8  and  C_17 
REMARK       I    between atoms: N_9  and  C_10 
REMARK    6  A    between atoms: C_10  and  C_12 
REMARK    7  A    between atoms: C_12  and  C_13 
REMARK    8  A    between atoms: C_13  and  N_16 
REMARK       I    between atoms: C_17  and  N_19 
REMARK    9  A    between atoms: C_20  and  N_19 
REMARK   10  A    between atoms: C_20  and  C_21 
REMARK   11  A    between atoms: C_20  and  C_28 
REMARK   12  A    between atoms: C_21  and  C_22 
REMARK       I    between atoms: C_28  and  N_30 
REMARK   13  A    between atoms: C_31  and  N_30 
REMARK   14  A    between atoms: C_31  and  C_32 
REMARK   15  A    between atoms: C_31  and  C_39 
REMARK   16  A    between atoms: C_32  and  C_33 
REMARK   17  A    between atoms: C_39  and  O_40 
REMARK   18  A    between atoms: C_39  and  C_41 
REMARK   19  A    between atoms: C_41  and  O_42 
REMARK   20  A    between atoms: C_41  and  C_43 
REMARK   21  A    between atoms: C_43  and  C_44 
ROOT
HETATM    1  C   UNK N   1      26.245  13.378   3.704  0.00  0.00     0.182 C 
ENDROOT
BRANCH   1   2
HETATM    2  N   UNK N   1      27.439  14.202   3.633  0.00  0.00    -0.346 N 
HETATM    3  C   UNK N   1      27.391  15.556   3.635  0.00  0.00     0.241 C 
HETATM    4  O   UNK N   1      26.328  16.142   3.486  0.00  0.00    -0.271 OA
HETATM    5  H   UNK N   1      28.317  13.759   3.583  0.00  0.00     0.163 HD
BRANCH   3   6
HETATM    6  C   UNK N   1      28.630  16.326   3.990  0.00  0.00     0.180 C 
BRANCH   6   7
HETATM    7  C   UNK N   1      29.851  15.819   3.233  0.00  0.00     0.073 C 
BRANCH   7   8
HETATM    8  C   UNK N   1      31.067  16.238   3.994  0.00  0.00    -0.056 A 
HETATM    9  C   UNK N   1      31.252  15.796   5.307  0.00  0.00     0.010 A 
HETATM   10  C   UNK N   1      32.327  16.276   6.060  0.00  0.00     0.037 A 
HETATM   11  C   UNK N   1      33.224  17.207   5.503  0.00  0.00     0.068 A 
HETATM   12  C   UNK N   1      33.042  17.632   4.183  0.00  0.00     0.037 A 
HETATM   13  C   UNK N   1      31.966  17.154   3.433  0.00  0.00     0.010 A 
BRANCH  11  14
HETATM   14  O   UNK N   1      34.255  17.714   6.217  0.00  0.00    -0.356 OA
HETATM   15  C   UNK N   1      34.201  17.919   7.577  0.00  0.00     0.210 C 
ENDBRANCH  11  14
ENDBRANCH   7   8
ENDBRANCH   6   7
BRANCH   6  16
HETATM   16  N   UNK N   1      28.360  17.725   3.741  0.00  0.00    -0.347 N 
HETATM   17  C   UNK N   1      28.408  18.627   4.759  0.00  0.00     0.220 C 
HETATM   18  O   UNK N   1      28.828  18.294   5.859  0.00  0.00    -0.274 OA
HETATM   19  H   UNK N   1      28.141  18.028   2.830  0.00  0.00     0.163 HD
BRANCH  17  20
HETATM   20  C   UNK N   1      27.838  20.007   4.594  0.00  0.00     0.132 C 
BRANCH  20  21
HETATM   21  C   UNK N   1      26.446  20.233   5.164  0.00  0.00     0.024 C 
HETATM   22  C   UNK N   1      25.514  20.529   4.008  0.00  0.00     0.038 C 
HETATM   23  C   UNK N   1      26.429  21.415   6.113  0.00  0.00     0.038 C 
BRANCH  21  24
HETATM   24  N   UNK N   1      25.982  19.040   5.850  0.00  0.00    -0.422 N 
HETATM   25  H   UNK N   1      26.395  18.276   6.384  0.00  0.00     0.150 HD
HETATM   26  H   UNK N   1      24.970  18.939   5.779  0.00  0.00     0.150 HD
ENDBRANCH  21  24
ENDBRANCH  20  21
ENDBRANCH  17  20
ENDBRANCH   6  16
ENDBRANCH   3   6
ENDBRANCH   1   2
BRANCH   1  27
HETATM   27  C   UNK N   1      26.193  12.534   2.436  0.00  0.00     0.093 C 
BRANCH  27  28
HETATM   28  C   UNK N   1      25.067  13.013   1.566  0.00  0.00     0.028 A 
HETATM   29  C   UNK N   1      24.411  12.265   0.620  0.00  0.00     0.114 A 
HETATM   30  N   UNK N   1      23.435  13.031   0.096  0.00  0.00    -0.360 N 
HETATM   31  C   UNK N   1      23.516  14.219   0.728  0.00  0.00     0.180 A 
ATOM     32  HN  UNK N   1      22.770  12.765  -0.630  1.00  0.00     0.166 HD
HETATM   33  N   UNK N   1      24.514  14.235   1.635  0.00  0.00    -0.354 N 
HETATM   34  H   UNK N   1      24.778  14.981   2.221  0.00  0.00     0.166 HD
ENDBRANCH  27  28
ENDBRANCH   1  27
BRANCH   1  35
HETATM   35  C   UNK N   1      26.324  12.541   4.977  0.00  0.00     0.241 C 
HETATM   36  O   UNK N   1      27.356  11.928   5.206  0.00  0.00    -0.271 OA
HETATM   37  N   UNK N   1      25.336  12.433   5.892  0.00  0.00    -0.352 N 
HETATM   38  H   UNK N   1      25.590  11.912   6.688  0.00  0.00     0.163 HD
BRANCH  37  39
HETATM   39  C   UNK N   1      23.978  12.932   5.933  0.00  0.00     0.116 C 
BRANCH  39  40
HETATM   40  C   UNK N   1      23.385  12.418   7.247  0.00  0.00     0.032 C 
BRANCH  40  41
HETATM   41  C   UNK N   1      23.462  13.481   8.355  0.00  0.00    -0.013 C 
HETATM   42  C   UNK N   1      22.164  13.570   9.157  0.00  0.00     0.005 C 
HETATM   43  C   UNK N   1      21.991  12.343  10.049  0.00  0.00     0.000 C 
HETATM   44  C   UNK N   1      23.189  12.204  10.984  0.00  0.00     0.000 C 
HETATM   45  C   UNK N   1      24.475  12.062  10.176  0.00  0.00     0.000 C 
HETATM   46  C   UNK N   1      24.668  13.278   9.273  0.00  0.00     0.005 C 
ENDBRANCH  40  41
ENDBRANCH  39  40
BRANCH  39  47
HETATM   47  C   UNK N   1      23.821  14.457   5.899  0.00  0.00     0.169 C 
BRANCH  47  48
HETATM   48  O   UNK N   1      24.977  15.186   6.189  0.00  0.00    -0.391 OA
HETATM   49  H   UNK N   1      25.858  15.365   6.555  0.00  0.00     0.210 HD
ENDBRANCH  47  48
BRANCH  47  50
HETATM   50  C   UNK N   1      22.970  15.039   4.784  0.00  0.00     0.149 C 
BRANCH  50  51
HETATM   51  O   UNK N   1      23.672  16.026   4.089  0.00  0.00    -0.393 OA
HETATM   52  H   UNK N   1      23.885  16.142   3.149  0.00  0.00     0.210 HD
ENDBRANCH  50  51
BRANCH  50  53
HETATM   53  C   UNK N   1      21.688  15.609   5.381  0.00  0.00     0.038 C 
BRANCH  53  54
HETATM   54  C   UNK N   1      21.971  16.589   6.509  0.00  0.00    -0.020 C 
HETATM   55  C   UNK N   1      20.933  16.455   7.606  0.00  0.00     0.009 C 
HETATM   56  C   UNK N   1      21.936  18.004   5.970  0.00  0.00     0.009 C 
ENDBRANCH  53  54
ENDBRANCH  50  53
ENDBRANCH  47  50
ENDBRANCH  39  47
ENDBRANCH  37  39
ENDBRANCH   1  35
TORSDOF 21
ENDMDL
MODEL 4
REMARK VINA RESULT:      -6.4      3.516      6.839
REMARK  21 active torsions:
REMARK  status: ('A' for Active; 'I' for Inactive)
REMARK    1  A    between atoms: O_2  and  C_3 
REMARK    2  A    between atoms: C_6  and  C_7 
REMARK    3  A    between atoms: C_7  and  C_8 
REMARK    4  A    between atoms: C_8  and  N_9 
REMARK    5  A    between atoms: C_8  and  C_17 
REMARK       I    between atoms: N_9  and  C_10 
REMARK    6  A    between atoms: C_10  and  C_12 
REMARK    7  A    between atoms: C_12  and  C_13 
REMARK    8  A    between atoms: C_13  and  N_16 
REMARK       I    between atoms: C_17  and  N_19 
REMARK    9  A    between atoms: C_20  and  N_19 
REMARK   10  A    between atoms: C_20  and  C_21 
REMARK   11  A    between atoms: C_20  and  C_28 
REMARK   12  A    between atoms: C_21  and  C_22 
REMARK       I    between atoms: C_28  and  N_30 
REMARK   13  A    between atoms: C_31  and  N_30 
REMARK   14  A    between atoms: C_31  and  C_32 
REMARK   15  A    between atoms: C_31  and  C_39 
REMARK   16  A    between atoms: C_32  and  C_33 
REMARK   17  A    between atoms: C_39  and  O_40 
REMARK   18  A    between atoms: C_39  and  C_41 
REMARK   19  A    between atoms: C_41  and  O_42 
REMARK   20  A    between atoms: C_41  and  C_43 
REMARK   21  A    between atoms: C_43  and  C_44 
ROOT
HETATM    1  C   UNK N   1      20.781  15.594   6.845  0.00  0.00     0.182 C 
ENDROOT
BRANCH   1   2
HETATM    2  N   UNK N   1      21.812  16.342   6.147  0.00  0.00    -0.346 N 
HETATM    3  C   UNK N   1      23.062  15.858   5.957  0.00  0.00     0.241 C 
HETATM    4  O   UNK N   1      23.438  14.855   6.549  0.00  0.00    -0.271 OA
HETATM    5  H   UNK N   1      21.592  17.236   5.796  0.00  0.00     0.163 HD
BRANCH   3   6
HETATM    6  C   UNK N   1      23.923  16.464   4.887  0.00  0.00     0.180 C 
BRANCH   6   7
HETATM    7  C   UNK N   1      23.264  16.387   3.516  0.00  0.00     0.073 C 
BRANCH   7   8
HETATM    8  C   UNK N   1      23.864  15.230   2.785  0.00  0.00    -0.056 A 
HETATM    9  C   UNK N   1      23.197  14.680   1.687  0.00  0.00     0.010 A 
HETATM   10  C   UNK N   1      23.696  13.529   1.072  0.00  0.00     0.037 A 
HETATM   11  C   UNK N   1      24.868  12.917   1.557  0.00  0.00     0.068 A 
HETATM   12  C   UNK N   1      25.538  13.483   2.645  0.00  0.00     0.037 A 
HETATM   13  C   UNK N   1      25.037  14.631   3.260  0.00  0.00     0.010 A 
BRANCH  11  14
HETATM   14  O   UNK N   1      25.358  11.784   1.003  0.00  0.00    -0.356 OA
HETATM   15  C   UNK N   1      26.580  11.247   1.341  0.00  0.00     0.210 C 
ENDBRANCH  11  14
ENDBRANCH   7   8
ENDBRANCH   6   7
BRANCH   6  16
HETATM   16  N   UNK N   1      24.225  17.821   5.286  0.00  0.00    -0.347 N 
HETATM   17  C   UNK N   1      25.185  18.532   4.636  0.00  0.00     0.220 C 
HETATM   18  O   UNK N   1      25.695  18.091   3.615  0.00  0.00    -0.274 OA
HETATM   19  H   UNK N   1      23.732  18.234   6.032  0.00  0.00     0.163 HD
BRANCH  17  20
HETATM   20  C   UNK N   1      25.726  19.808   5.217  0.00  0.00     0.132 C 
BRANCH  20  21
HETATM   21  C   UNK N   1      27.235  19.878   5.397  0.00  0.00     0.024 C 
HETATM   22  C   UNK N   1      27.658  18.689   6.233  0.00  0.00     0.038 C 
HETATM   23  C   UNK N   1      27.640  21.147   6.121  0.00  0.00     0.038 C 
BRANCH  21  24
HETATM   24  N   UNK N   1      27.900  19.811   4.108  0.00  0.00    -0.422 N 
HETATM   25  H   UNK N   1      28.403  20.447   3.491  0.00  0.00     0.150 HD
HETATM   26  H   UNK N   1      27.851  18.871   3.713  0.00  0.00     0.150 HD
ENDBRANCH  21  24
ENDBRANCH  20  21
ENDBRANCH  17  20
ENDBRANCH   6  16
ENDBRANCH   3   6
ENDBRANCH   1   2
BRANCH   1  27
HETATM   27  C   UNK N   1      20.855  15.978   8.319  0.00  0.00     0.093 C 
BRANCH  27  28
HETATM   28  C   UNK N   1      21.027  14.738   9.148  0.00  0.00     0.028 A 
HETATM   29  C   UNK N   1      20.043  14.117   9.875  0.00  0.00     0.114 A 
HETATM   30  N   UNK N   1      20.578  13.013  10.430  0.00  0.00    -0.360 N 
HETATM   31  C   UNK N   1      21.867  12.986  10.034  0.00  0.00     0.180 A 
ATOM     32  HN  UNK N   1      20.105  12.336  11.030  1.00  0.00     0.166 HD
HETATM   33  N   UNK N   1      22.169  14.037   9.246  0.00  0.00    -0.354 N 
HETATM   34  H   UNK N   1      23.039  14.245   8.832  0.00  0.00     0.166 HD
ENDBRANCH  27  28
ENDBRANCH   1  27
BRANCH   1  35
HETATM   35  C   UNK N   1      19.438  15.931   6.206  0.00  0.00     0.241 C 
HETATM   36  O   UNK N   1      18.530  16.315   6.928  0.00  0.00    -0.271 OA
HETATM   37  N   UNK N   1      19.172  15.851   4.884  0.00  0.00    -0.352 N 
HETATM   38  H   UNK N   1      18.275  16.180   4.641  0.00  0.00     0.163 HD
BRANCH  37  39
HETATM   39  C   UNK N   1      19.943  15.377   3.754  0.00  0.00     0.116 C 
BRANCH  39  40
HETATM   40  C   UNK N   1      19.335  14.025   3.374  0.00  0.00     0.032 C 
BRANCH  40  41
HETATM   41  C   UNK N   1      20.415  12.939   3.241  0.00  0.00    -0.013 C 
HETATM   42  C   UNK N   1      21.285  12.837   4.494  0.00  0.00     0.005 C 
HETATM   43  C   UNK N   1      20.502  12.221   5.651  0.00  0.00     0.000 C 
HETATM   44  C   UNK N   1      19.975  10.845   5.251  0.00  0.00     0.000 C 
HETATM   45  C   UNK N   1      19.065  10.961   4.033  0.00  0.00     0.000 C 
HETATM   46  C   UNK N   1      19.827  11.578   2.862  0.00  0.00     0.005 C 
ENDBRANCH  40  41
ENDBRANCH  39  40
BRANCH  39  47
HETATM   47  C   UNK N   1      19.936  16.275   2.511  0.00  0.00     0.169 C 
BRANCH  47  48
HETATM   48  O   UNK N   1      19.184  15.800   1.433  0.00  0.00    -0.391 OA
HETATM   49  H   UNK N   1      18.983  15.281   0.638  0.00  0.00     0.210 HD
ENDBRANCH  47  48
BRANCH  47  50
HETATM   50  C   UNK N   1      19.835  17.773   2.741  0.00  0.00     0.149 C 
BRANCH  50  51
HETATM   51  O   UNK N   1      18.507  18.198   2.657  0.00  0.00    -0.393 OA
HETATM   52  H   UNK N   1      17.709  17.790   2.286  0.00  0.00     0.210 HD
ENDBRANCH  50  51
BRANCH  50  53
HETATM   53  C   UNK N   1      20.697  18.494   1.712  0.00  0.00     0.038 C 
BRANCH  53  54
HETATM   54  C   UNK N   1      21.449  19.668   2.323  0.00  0.00    -0.020 C 
HETATM   55  C   UNK N   1      21.458  19.568   3.836  0.00  0.00     0.009 C 
HETATM   56  C   UNK N   1      20.775  20.963   1.920  0.00  0.00     0.009 C 
ENDBRANCH  53  54
ENDBRANCH  50  53
ENDBRANCH  47  50
ENDBRANCH  39  47
ENDBRANCH  37  39
ENDBRANCH   1  35
TORSDOF 21
ENDMDL
MODEL 5
REMARK VINA RESULT:      -6.4      1.400      2.080
REMARK  21 active torsions:
REMARK  status: ('A' for Active; 'I' for Inactive)
REMARK    1  A    between atoms: O_2  and  C_3 
REMARK    2  A    between atoms: C_6  and  C_7 
REMARK    3  A    between atoms: C_7  and  C_8 
REMARK    4  A    between atoms: C_8  and  N_9 
REMARK    5  A    between atoms: C_8  and  C_17 
REMARK       I    between atoms: N_9  and  C_10 
REMARK    6  A    between atoms: C_10  and  C_12 
REMARK    7  A    between atoms: C_12  and  C_13 
REMARK    8  A    between atoms: C_13  and  N_16 
REMARK       I    between atoms: C_17  and  N_19 
REMARK    9  A    between atoms: C_20  and  N_19 
REMARK   10  A    between atoms: C_20  and  C_21 
REMARK   11  A    between atoms: C_20  and  C_28 
REMARK   12  A    between atoms: C_21  and  C_22 
REMARK       I    between atoms: C_28  and  N_30 
REMARK   13  A    between atoms: C_31  and  N_30 
REMARK   14  A    between atoms: C_31  and  C_32 
REMARK   15  A    between atoms: C_31  and  C_39 
REMARK   16  A    between atoms: C_32  and  C_33 
REMARK   17  A    between atoms: C_39  and  O_40 
REMARK   18  A    between atoms: C_39  and  C_41 
REMARK   19  A    between atoms: C_41  and  O_42 
REMARK   20  A    between atoms: C_41  and  C_43 
REMARK   21  A    between atoms: C_43  and  C_44 
ROOT
HETATM    1  C   UNK N   1      26.008  13.956   3.206  0.00  0.00     0.182 C 
ENDROOT
BRANCH   1   2
HETATM    2  N   UNK N   1      27.301  14.605   3.338  0.00  0.00    -0.346 N 
HETATM    3  C   UNK N   1      27.437  15.951   3.413  0.00  0.00     0.241 C 
HETATM    4  O   UNK N   1      26.493  16.687   3.162  0.00  0.00    -0.271 OA
HETATM    5  H   UNK N   1      28.110  14.045   3.376  0.00  0.00     0.163 HD
BRANCH   3   6
HETATM    6  C   UNK N   1      28.708  16.524   3.970  0.00  0.00     0.180 C 
BRANCH   6   7
HETATM    7  C   UNK N   1      29.940  15.947   3.284  0.00  0.00     0.073 C 
BRANCH   7   8
HETATM    8  C   UNK N   1      31.136  16.323   4.098  0.00  0.00    -0.056 A 
HETATM    9  C   UNK N   1      31.195  15.971   5.449  0.00  0.00     0.010 A 
HETATM   10  C   UNK N   1      32.256  16.419   6.240  0.00  0.00     0.037 A 
HETATM   11  C   UNK N   1      33.265  17.229   5.683  0.00  0.00     0.068 A 
HETATM   12  C   UNK N   1      33.206  17.563   4.327  0.00  0.00     0.037 A 
HETATM   13  C   UNK N   1      32.144  17.117   3.538  0.00  0.00     0.010 A 
BRANCH  11  14
HETATM   14  O   UNK N   1      34.287  17.704   6.431  0.00  0.00    -0.356 OA
HETATM   15  C   UNK N   1      34.187  17.937   7.784  0.00  0.00     0.210 C 
ENDBRANCH  11  14
ENDBRANCH   7   8
ENDBRANCH   6   7
BRANCH   6  16
HETATM   16  N   UNK N   1      28.626  17.963   3.853  0.00  0.00    -0.347 N 
HETATM   17  C   UNK N   1      28.560  18.741   4.967  0.00  0.00     0.220 C 
HETATM   18  O   UNK N   1      28.723  18.248   6.074  0.00  0.00    -0.274 OA
HETATM   19  H   UNK N   1      28.620  18.383   2.962  0.00  0.00     0.163 HD
BRANCH  17  20
HETATM   20  C   UNK N   1      28.168  20.188   4.874  0.00  0.00     0.132 C 
BRANCH  20  21
HETATM   21  C   UNK N   1      26.721  20.516   5.212  0.00  0.00     0.024 C 
HETATM   22  C   UNK N   1      26.030  20.936   3.931  0.00  0.00     0.038 C 
HETATM   23  C   UNK N   1      26.637  21.660   6.204  0.00  0.00     0.038 C 
BRANCH  21  24
HETATM   24  N   UNK N   1      26.051  19.345   5.748  0.00  0.00    -0.422 N 
HETATM   25  H   UNK N   1      25.521  18.553   5.385  0.00  0.00     0.150 HD
HETATM   26  H   UNK N   1      26.131  19.303   6.764  0.00  0.00     0.150 HD
ENDBRANCH  21  24
ENDBRANCH  20  21
ENDBRANCH  17  20
ENDBRANCH   6  16
ENDBRANCH   3   6
ENDBRANCH   1   2
BRANCH   1  27
HETATM   27  C   UNK N   1      26.168  12.814   2.210  0.00  0.00     0.093 C 
BRANCH  27  28
HETATM   28  C   UNK N   1      24.997  12.806   1.270  0.00  0.00     0.028 A 
HETATM   29  C   UNK N   1      24.435  11.692   0.699  0.00  0.00     0.114 A 
HETATM   30  N   UNK N   1      23.379  12.095  -0.033  0.00  0.00    -0.360 N 
HETATM   31  C   UNK N   1      23.320  13.435   0.106  0.00  0.00     0.180 A 
ATOM     32  HN  UNK N   1      22.751  11.506  -0.580  1.00  0.00     0.166 HD
HETATM   33  N   UNK N   1      24.307  13.898   0.900  0.00  0.00    -0.354 N 
HETATM   34  H   UNK N   1      24.482  14.833   1.154  0.00  0.00     0.166 HD
ENDBRANCH  27  28
ENDBRANCH   1  27
BRANCH   1  35
HETATM   35  C   UNK N   1      25.572  13.487   4.590  0.00  0.00     0.241 C 
HETATM   36  O   UNK N   1      26.258  12.654   5.165  0.00  0.00    -0.271 OA
HETATM   37  N   UNK N   1      24.481  13.935   5.248  0.00  0.00    -0.352 N 
HETATM   38  H   UNK N   1      24.395  13.578   6.162  0.00  0.00     0.163 HD
BRANCH  37  39
HETATM   39  C   UNK N   1      23.411  14.835   4.874  0.00  0.00     0.116 C 
BRANCH  39  40
HETATM   40  C   UNK N   1      22.170  14.339   5.620  0.00  0.00     0.032 C 
BRANCH  40  41
HETATM   41  C   UNK N   1      20.992  14.101   4.661  0.00  0.00    -0.013 C 
HETATM   42  C   UNK N   1      21.445  13.492   3.334  0.00  0.00     0.005 C 
HETATM   43  C   UNK N   1      21.867  12.037   3.520  0.00  0.00     0.000 C 
HETATM   44  C   UNK N   1      20.715  11.230   4.113  0.00  0.00     0.000 C 
HETATM   45  C   UNK N   1      20.304  11.812   5.462  0.00  0.00     0.000 C 
HETATM   46  C   UNK N   1      19.879  13.270   5.301  0.00  0.00     0.005 C 
ENDBRANCH  40  41
ENDBRANCH  39  40
BRANCH  39  47
HETATM   47  C   UNK N   1      23.623  16.313   5.223  0.00  0.00     0.169 C 
BRANCH  47  48
HETATM   48  O   UNK N   1      24.864  16.624   5.786  0.00  0.00    -0.391 OA
HETATM   49  H   UNK N   1      25.790  16.494   6.047  0.00  0.00     0.210 HD
ENDBRANCH  47  48
BRANCH  47  50
HETATM   50  C   UNK N   1      23.104  17.339   4.232  0.00  0.00     0.149 C 
BRANCH  50  51
HETATM   51  O   UNK N   1      24.132  18.185   3.811  0.00  0.00    -0.393 OA
HETATM   52  H   UNK N   1      24.899  18.565   4.268  0.00  0.00     0.210 HD
ENDBRANCH  50  51
BRANCH  50  53
HETATM   53  C   UNK N   1      21.981  18.138   4.882  0.00  0.00     0.038 C 
BRANCH  53  54
HETATM   54  C   UNK N   1      20.770  18.265   3.969  0.00  0.00    -0.020 C 
HETATM   55  C   UNK N   1      20.877  17.301   2.803  0.00  0.00     0.009 C 
HETATM   56  C   UNK N   1      20.689  19.679   3.432  0.00  0.00     0.009 C 
ENDBRANCH  53  54
ENDBRANCH  50  53
ENDBRANCH  47  50
ENDBRANCH  39  47
ENDBRANCH  37  39
ENDBRANCH   1  35
TORSDOF 21
ENDMDL
MODEL 6
REMARK VINA RESULT:      -6.4      2.414      8.298
REMARK  21 active torsions:
REMARK  status: ('A' for Active; 'I' for Inactive)
REMARK    1  A    between atoms: O_2  and  C_3 
REMARK    2  A    between atoms: C_6  and  C_7 
REMARK    3  A    between atoms: C_7  and  C_8 
REMARK    4  A    between atoms: C_8  and  N_9 
REMARK    5  A    between atoms: C_8  and  C_17 
REMARK       I    between atoms: N_9  and  C_10 
REMARK    6  A    between atoms: C_10  and  C_12 
REMARK    7  A    between atoms: C_12  and  C_13 
REMARK    8  A    between atoms: C_13  and  N_16 
REMARK       I    between atoms: C_17  and  N_19 
REMARK    9  A    between atoms: C_20  and  N_19 
REMARK   10  A    between atoms: C_20  and  C_21 
REMARK   11  A    between atoms: C_20  and  C_28 
REMARK   12  A    between atoms: C_21  and  C_22 
REMARK       I    between atoms: C_28  and  N_30 
REMARK   13  A    between atoms: C_31  and  N_30 
REMARK   14  A    between atoms: C_31  and  C_32 
REMARK   15  A    between atoms: C_31  and  C_39 
REMARK   16  A    between atoms: C_32  and  C_33 
REMARK   17  A    between atoms: C_39  and  O_40 
REMARK   18  A    between atoms: C_39  and  C_41 
REMARK   19  A    between atoms: C_41  and  O_42 
REMARK   20  A    between atoms: C_41  and  C_43 
REMARK   21  A    between atoms: C_43  and  C_44 
ROOT
HETATM    1  C   UNK N   1      27.554  14.041   4.512  0.00  0.00     0.182 C 
ENDROOT
BRANCH   1   2
HETATM    2  N   UNK N   1      26.103  14.043   4.566  0.00  0.00    -0.346 N 
HETATM    3  C   UNK N   1      25.417  14.236   5.718  0.00  0.00     0.241 C 
HETATM    4  O   UNK N   1      25.992  14.209   6.798  0.00  0.00    -0.271 OA
HETATM    5  H   UNK N   1      25.598  13.900   3.733  0.00  0.00     0.163 HD
BRANCH   3   6
HETATM    6  C   UNK N   1      23.976  14.651   5.646  0.00  0.00     0.180 C 
BRANCH   6   7
HETATM    7  C   UNK N   1      23.525  14.892   4.211  0.00  0.00     0.073 C 
BRANCH   7   8
HETATM    8  C   UNK N   1      23.102  16.321   4.098  0.00  0.00    -0.056 A 
HETATM    9  C   UNK N   1      21.806  16.632   3.680  0.00  0.00     0.010 A 
HETATM   10  C   UNK N   1      21.443  17.964   3.464  0.00  0.00     0.037 A 
HETATM   11  C   UNK N   1      22.380  18.996   3.662  0.00  0.00     0.068 A 
HETATM   12  C   UNK N   1      23.670  18.678   4.097  0.00  0.00     0.037 A 
HETATM   13  C   UNK N   1      24.033  17.346   4.310  0.00  0.00     0.010 A 
BRANCH  11  14
HETATM   14  O   UNK N   1      22.069  20.292   3.431  0.00  0.00    -0.356 OA
HETATM   15  C   UNK N   1      21.268  20.700   2.388  0.00  0.00     0.210 C 
ENDBRANCH  11  14
ENDBRANCH   7   8
ENDBRANCH   6   7
BRANCH   6  16
HETATM   16  N   UNK N   1      23.194  13.632   6.313  0.00  0.00    -0.347 N 
HETATM   17  C   UNK N   1      22.366  13.964   7.341  0.00  0.00     0.220 C 
HETATM   18  O   UNK N   1      22.156  15.139   7.610  0.00  0.00    -0.274 OA
HETATM   19  H   UNK N   1      23.261  12.694   6.022  0.00  0.00     0.163 HD
BRANCH  17  20
HETATM   20  C   UNK N   1      21.790  12.906   8.238  0.00  0.00     0.132 C 
BRANCH  20  21
HETATM   21  C   UNK N   1      22.653  12.482   9.418  0.00  0.00     0.024 C 
HETATM   22  C   UNK N   1      23.418  11.241   9.010  0.00  0.00     0.038 C 
HETATM   23  C   UNK N   1      21.799  12.149  10.626  0.00  0.00     0.038 C 
BRANCH  21  24
HETATM   24  N   UNK N   1      23.598  13.532   9.754  0.00  0.00    -0.422 N 
HETATM   25  H   UNK N   1      23.561  14.488  10.106  0.00  0.00     0.150 HD
HETATM   26  H   UNK N   1      24.560  13.232   9.595  0.00  0.00     0.150 HD
ENDBRANCH  21  24
ENDBRANCH  20  21
ENDBRANCH  17  20
ENDBRANCH   6  16
ENDBRANCH   3   6
ENDBRANCH   1   2
BRANCH   1  27
HETATM   27  C   UNK N   1      27.977  12.910   3.582  0.00  0.00     0.093 C 
BRANCH  27  28
HETATM   28  C   UNK N   1      29.446  12.650   3.751  0.00  0.00     0.028 A 
HETATM   29  C   UNK N   1      30.432  13.020   2.871  0.00  0.00     0.114 A 
HETATM   30  N   UNK N   1      31.614  12.658   3.405  0.00  0.00    -0.360 N 
HETATM   31  C   UNK N   1      31.326  12.078   4.588  0.00  0.00     0.180 A 
ATOM     32  HN  UNK N   1      32.539  12.794   2.996  1.00  0.00     0.166 HD
HETATM   33  N   UNK N   1      29.999  12.059   4.823  0.00  0.00    -0.354 N 
HETATM   34  H   UNK N   1      29.536  11.691   5.611  0.00  0.00     0.166 HD
ENDBRANCH  27  28
ENDBRANCH   1  27
BRANCH   1  35
HETATM   35  C   UNK N   1      28.010  15.414   4.030  0.00  0.00     0.241 C 
HETATM   36  O   UNK N   1      27.953  15.659   2.833  0.00  0.00    -0.271 OA
HETATM   37  N   UNK N   1      28.464  16.402   4.832  0.00  0.00    -0.352 N 
HETATM   38  H   UNK N   1      28.642  17.247   4.357  0.00  0.00     0.163 HD
BRANCH  37  39
HETATM   39  C   UNK N   1      28.742  16.464   6.251  0.00  0.00     0.116 C 
BRANCH  39  40
HETATM   40  C   UNK N   1      30.076  17.202   6.382  0.00  0.00     0.032 C 
BRANCH  40  41
HETATM   41  C   UNK N   1      31.180  16.280   6.925  0.00  0.00    -0.013 C 
HETATM   42  C   UNK N   1      32.326  16.107   5.929  0.00  0.00     0.005 C 
HETATM   43  C   UNK N   1      33.150  17.387   5.821  0.00  0.00     0.000 C 
HETATM   44  C   UNK N   1      33.689  17.779   7.195  0.00  0.00     0.000 C 
HETATM   45  C   UNK N   1      32.538  18.002   8.170  0.00  0.00     0.000 C 
HETATM   46  C   UNK N   1      31.696  16.733   8.292  0.00  0.00     0.005 C 
ENDBRANCH  40  41
ENDBRANCH  39  40
BRANCH  39  47
HETATM   47  C   UNK N   1      27.701  17.194   7.108  0.00  0.00     0.169 C 
BRANCH  47  48
HETATM   48  O   UNK N   1      27.332  16.542   8.288  0.00  0.00    -0.391 OA
HETATM   49  H   UNK N   1      27.276  16.374   9.243  0.00  0.00     0.210 HD
ENDBRANCH  47  48
BRANCH  47  50
HETATM   50  C   UNK N   1      27.846  18.700   7.238  0.00  0.00     0.149 C 
BRANCH  50  51
HETATM   51  O   UNK N   1      27.609  19.109   8.552  0.00  0.00    -0.393 OA
HETATM   52  H   UNK N   1      27.734  18.671   9.409  0.00  0.00     0.210 HD
ENDBRANCH  50  51
BRANCH  50  53
HETATM   53  C   UNK N   1      26.875  19.379   6.279  0.00  0.00     0.038 C 
BRANCH  53  54
HETATM   54  C   UNK N   1      27.558  20.451   5.442  0.00  0.00    -0.020 C 
HETATM   55  C   UNK N   1      27.204  21.834   5.954  0.00  0.00     0.009 C 
HETATM   56  C   UNK N   1      27.106  20.329   4.001  0.00  0.00     0.009 C 
ENDBRANCH  53  54
ENDBRANCH  50  53
ENDBRANCH  47  50
ENDBRANCH  39  47
ENDBRANCH  37  39
ENDBRANCH   1  35
TORSDOF 21
ENDMDL
MODEL 7
REMARK VINA RESULT:      -6.4      3.255      7.053
REMARK  21 active torsions:
REMARK  status: ('A' for Active; 'I' for Inactive)
REMARK    1  A    between atoms: O_2  and  C_3 
REMARK    2  A    between atoms: C_6  and  C_7 
REMARK    3  A    between atoms: C_7  and  C_8 
REMARK    4  A    between atoms: C_8  and  N_9 
REMARK    5  A    between atoms: C_8  and  C_17 
REMARK       I    between atoms: N_9  and  C_10 
REMARK    6  A    between atoms: C_10  and  C_12 
REMARK    7  A    between atoms: C_12  and  C_13 
REMARK    8  A    between atoms: C_13  and  N_16 
REMARK       I    between atoms: C_17  and  N_19 
REMARK    9  A    between atoms: C_20  and  N_19 
REMARK   10  A    between atoms: C_20  and  C_21 
REMARK   11  A    between atoms: C_20  and  C_28 
REMARK   12  A    between atoms: C_21  and  C_22 
REMARK       I    between atoms: C_28  and  N_30 
REMARK   13  A    between atoms: C_31  and  N_30 
REMARK   14  A    between atoms: C_31  and  C_32 
REMARK   15  A    between atoms: C_31  and  C_39 
REMARK   16  A    between atoms: C_32  and  C_33 
REMARK   17  A    between atoms: C_39  and  O_40 
REMARK   18  A    between atoms: C_39  and  C_41 
REMARK   19  A    between atoms: C_41  and  O_42 
REMARK   20  A    between atoms: C_41  and  C_43 
REMARK   21  A    between atoms: C_43  and  C_44 
ROOT
HETATM    1  C   UNK N   1      21.354  14.514   7.925  0.00  0.00     0.182 C 
ENDROOT
BRANCH   1   2
HETATM    2  N   UNK N   1      22.516  15.107   7.286  0.00  0.00    -0.346 N 
HETATM    3  C   UNK N   1      23.553  14.366   6.828  0.00  0.00     0.241 C 
HETATM    4  O   UNK N   1      23.651  13.182   7.121  0.00  0.00    -0.271 OA
HETATM    5  H   UNK N   1      22.550  16.085   7.180  0.00  0.00     0.163 HD
BRANCH   3   6
HETATM    6  C   UNK N   1      24.490  14.969   5.821  0.00  0.00     0.180 C 
BRANCH   6   7
HETATM    7  C   UNK N   1      23.744  15.532   4.618  0.00  0.00     0.073 C 
BRANCH   7   8
HETATM    8  C   UNK N   1      24.036  14.653   3.446  0.00  0.00    -0.056 A 
HETATM    9  C   UNK N   1      23.431  14.914   2.213  0.00  0.00     0.010 A 
HETATM   10  C   UNK N   1      23.612  14.030   1.146  0.00  0.00     0.037 A 
HETATM   11  C   UNK N   1      24.398  12.873   1.309  0.00  0.00     0.068 A 
HETATM   12  C   UNK N   1      25.013  12.628   2.540  0.00  0.00     0.037 A 
HETATM   13  C   UNK N   1      24.829  13.510   3.606  0.00  0.00     0.010 A 
BRANCH  11  14
HETATM   14  O   UNK N   1      24.566  11.982   0.304  0.00  0.00    -0.356 OA
HETATM   15  C   UNK N   1      23.524  11.288  -0.269  0.00  0.00     0.210 C 
ENDBRANCH  11  14
ENDBRANCH   7   8
ENDBRANCH   6   7
BRANCH   6  16
HETATM   16  N   UNK N   1      25.282  15.967   6.505  0.00  0.00    -0.347 N 
HETATM   17  C   UNK N   1      26.640  15.871   6.526  0.00  0.00     0.220 C 
HETATM   18  O   UNK N   1      27.210  15.032   5.843  0.00  0.00    -0.274 OA
HETATM   19  H   UNK N   1      24.839  16.721   6.956  0.00  0.00     0.163 HD
BRANCH  17  20
HETATM   20  C   UNK N   1      27.456  16.704   7.472  0.00  0.00     0.132 C 
BRANCH  20  21
HETATM   21  C   UNK N   1      28.325  17.782   6.842  0.00  0.00     0.024 C 
HETATM   22  C   UNK N   1      28.974  18.568   7.961  0.00  0.00     0.038 C 
HETATM   23  C   UNK N   1      27.494  18.732   6.003  0.00  0.00     0.038 C 
BRANCH  21  24
HETATM   24  N   UNK N   1      29.363  17.178   6.024  0.00  0.00    -0.422 N 
HETATM   25  H   UNK N   1      30.304  16.811   6.160  0.00  0.00     0.150 HD
HETATM   26  H   UNK N   1      29.070  17.101   5.050  0.00  0.00     0.150 HD
ENDBRANCH  21  24
ENDBRANCH  20  21
ENDBRANCH  17  20
ENDBRANCH   6  16
ENDBRANCH   3   6
ENDBRANCH   1   2
BRANCH   1  27
HETATM   27  C   UNK N   1      21.522  14.683   9.430  0.00  0.00     0.093 C 
BRANCH  27  28
HETATM   28  C   UNK N   1      22.135  13.439  10.005  0.00  0.00     0.028 A 
HETATM   29  C   UNK N   1      21.452  12.312  10.390  0.00  0.00     0.114 A 
HETATM   30  N   UNK N   1      22.358  11.404  10.799  0.00  0.00    -0.360 N 
HETATM   31  C   UNK N   1      23.564  11.991  10.657  0.00  0.00     0.180 A 
ATOM     32  HN  UNK N   1      22.170  10.463  11.146  1.00  0.00     0.166 HD
HETATM   33  N   UNK N   1      23.454  13.245  10.172  0.00  0.00    -0.354 N 
HETATM   34  H   UNK N   1      24.183  13.879   9.982  0.00  0.00     0.166 HD
ENDBRANCH  27  28
ENDBRANCH   1  27
BRANCH   1  35
HETATM   35  C   UNK N   1      20.110  15.208   7.380  0.00  0.00     0.241 C 
HETATM   36  O   UNK N   1      19.306  15.672   8.176  0.00  0.00    -0.271 OA
HETATM   37  N   UNK N   1      19.828  15.368   6.069  0.00  0.00    -0.352 N 
HETATM   38  H   UNK N   1      19.021  15.907   5.900  0.00  0.00     0.163 HD
BRANCH  37  39
HETATM   39  C   UNK N   1      20.477  14.902   4.862  0.00  0.00     0.116 C 
BRANCH  39  40
HETATM   40  C   UNK N   1      19.984  13.469   4.650  0.00  0.00     0.032 C 
BRANCH  40  41
HETATM   41  C   UNK N   1      21.151  12.469   4.621  0.00  0.00    -0.013 C 
HETATM   42  C   UNK N   1      20.997  11.375   5.677  0.00  0.00     0.005 C 
HETATM   43  C   UNK N   1      19.878  10.408   5.298  0.00  0.00     0.000 C 
HETATM   44  C   UNK N   1      20.158   9.795   3.929  0.00  0.00     0.000 C 
HETATM   45  C   UNK N   1      20.257  10.889   2.871  0.00  0.00     0.000 C 
HETATM   46  C   UNK N   1      21.370  11.871   3.230  0.00  0.00     0.005 C 
ENDBRANCH  40  41
ENDBRANCH  39  40
BRANCH  39  47
HETATM   47  C   UNK N   1      20.184  15.705   3.588  0.00  0.00     0.169 C 
BRANCH  47  48
HETATM   48  O   UNK N   1      19.268  15.121   2.709  0.00  0.00    -0.391 OA
HETATM   49  H   UNK N   1      18.947  14.540   2.001  0.00  0.00     0.210 HD
ENDBRANCH  47  48
BRANCH  47  50
HETATM   50  C   UNK N   1      20.048  17.210   3.736  0.00  0.00     0.149 C 
BRANCH  50  51
HETATM   51  O   UNK N   1      18.888  17.666   3.106  0.00  0.00    -0.393 OA
HETATM   52  H   UNK N   1      18.733  18.113   2.259  0.00  0.00     0.210 HD
ENDBRANCH  50  51
BRANCH  50  53
HETATM   53  C   UNK N   1      21.281  17.883   3.146  0.00  0.00     0.038 C 
BRANCH  53  54
HETATM   54  C   UNK N   1      21.884  18.904   4.100  0.00  0.00    -0.020 C 
HETATM   55  C   UNK N   1      23.367  19.075   3.832  0.00  0.00     0.009 C 
HETATM   56  C   UNK N   1      21.694  18.434   5.527  0.00  0.00     0.009 C 
ENDBRANCH  53  54
ENDBRANCH  50  53
ENDBRANCH  47  50
ENDBRANCH  39  47
ENDBRANCH  37  39
ENDBRANCH   1  35
TORSDOF 21
ENDMDL
MODEL 8
REMARK VINA RESULT:      -6.4      2.919      5.684
REMARK  21 active torsions:
REMARK  status: ('A' for Active; 'I' for Inactive)
REMARK    1  A    between atoms: O_2  and  C_3 
REMARK    2  A    between atoms: C_6  and  C_7 
REMARK    3  A    between atoms: C_7  and  C_8 
REMARK    4  A    between atoms: C_8  and  N_9 
REMARK    5  A    between atoms: C_8  and  C_17 
REMARK       I    between atoms: N_9  and  C_10 
REMARK    6  A    between atoms: C_10  and  C_12 
REMARK    7  A    between atoms: C_12  and  C_13 
REMARK    8  A    between atoms: C_13  and  N_16 
REMARK       I    between atoms: C_17  and  N_19 
REMARK    9  A    between atoms: C_20  and  N_19 
REMARK   10  A    between atoms: C_20  and  C_21 
REMARK   11  A    between atoms: C_20  and  C_28 
REMARK   12  A    between atoms: C_21  and  C_22 
REMARK       I    between atoms: C_28  and  N_30 
REMARK   13  A    between atoms: C_31  and  N_30 
REMARK   14  A    between atoms: C_31  and  C_32 
REMARK   15  A    between atoms: C_31  and  C_39 
REMARK   16  A    between atoms: C_32  and  C_33 
REMARK   17  A    between atoms: C_39  and  O_40 
REMARK   18  A    between atoms: C_39  and  C_41 
REMARK   19  A    between atoms: C_41  and  O_42 
REMARK   20  A    between atoms: C_41  and  C_43 
REMARK   21  A    between atoms: C_43  and  C_44 
ROOT
HETATM    1  C   UNK N   1      21.745  18.452   4.640  0.00  0.00     0.182 C 
ENDROOT
BRANCH   1   2
HETATM    2  N   UNK N   1      22.831  17.629   4.137  0.00  0.00    -0.346 N 
HETATM    3  C   UNK N   1      24.125  18.030   4.169  0.00  0.00     0.241 C 
HETATM    4  O   UNK N   1      24.411  19.189   4.434  0.00  0.00    -0.271 OA
HETATM    5  H   UNK N   1      22.619  16.745   3.758  0.00  0.00     0.163 HD
BRANCH   3   6
HETATM    6  C   UNK N   1      25.209  16.999   4.045  0.00  0.00     0.180 C 
BRANCH   6   7
HETATM    7  C   UNK N   1      25.813  16.643   5.398  0.00  0.00     0.073 C 
BRANCH   7   8
HETATM    8  C   UNK N   1      27.290  16.509   5.219  0.00  0.00    -0.056 A 
HETATM    9  C   UNK N   1      27.905  15.270   5.422  0.00  0.00     0.010 A 
HETATM   10  C   UNK N   1      29.298  15.166   5.368  0.00  0.00     0.037 A 
HETATM   11  C   UNK N   1      30.085  16.305   5.112  0.00  0.00     0.068 A 
HETATM   12  C   UNK N   1      29.461  17.537   4.893  0.00  0.00     0.037 A 
HETATM   13  C   UNK N   1      28.070  17.640   4.951  0.00  0.00     0.010 A 
BRANCH  11  14
HETATM   14  O   UNK N   1      31.437  16.242   5.085  0.00  0.00    -0.356 OA
HETATM   15  C   UNK N   1      32.247  17.318   5.366  0.00  0.00     0.210 C 
ENDBRANCH  11  14
ENDBRANCH   7   8
ENDBRANCH   6   7
BRANCH   6  16
HETATM   16  N   UNK N   1      24.647  15.853   3.365  0.00  0.00    -0.347 N 
HETATM   17  C   UNK N   1      25.291  15.300   2.302  0.00  0.00     0.220 C 
HETATM   18  O   UNK N   1      26.420  15.665   2.006  0.00  0.00    -0.274 OA
HETATM   19  H   UNK N   1      23.794  15.470   3.673  0.00  0.00     0.163 HD
BRANCH  17  20
HETATM   20  C   UNK N   1      24.591  14.324   1.400  0.00  0.00     0.132 C 
BRANCH  20  21
HETATM   21  C   UNK N   1      24.874  12.851   1.654  0.00  0.00     0.024 C 
HETATM   22  C   UNK N   1      24.370  12.069   0.459  0.00  0.00     0.038 C 
HETATM   23  C   UNK N   1      24.150  12.361   2.893  0.00  0.00     0.038 C 
BRANCH  21  24
HETATM   24  N   UNK N   1      26.303  12.630   1.795  0.00  0.00    -0.422 N 
HETATM   25  H   UNK N   1      27.041  12.899   2.444  0.00  0.00     0.150 HD
HETATM   26  H   UNK N   1      26.665  12.047   1.041  0.00  0.00     0.150 HD
ENDBRANCH  21  24
ENDBRANCH  20  21
ENDBRANCH  17  20
ENDBRANCH   6  16
ENDBRANCH   3   6
ENDBRANCH   1   2
BRANCH   1  27
HETATM   27  C   UNK N   1      20.581  18.321   3.665  0.00  0.00     0.093 C 
BRANCH  27  28
HETATM   28  C   UNK N   1      20.628  19.453   2.679  0.00  0.00     0.028 A 
HETATM   29  C   UNK N   1      20.847  20.773   2.984  0.00  0.00     0.114 A 
HETATM   30  N   UNK N   1      20.870  21.462   1.827  0.00  0.00    -0.360 N 
HETATM   31  C   UNK N   1      20.666  20.555   0.850  0.00  0.00     0.180 A 
ATOM     32  HN  UNK N   1      21.013  22.466   1.714  1.00  0.00     0.166 HD
HETATM   33  N   UNK N   1      20.512  19.312   1.348  0.00  0.00    -0.354 N 
HETATM   34  H   UNK N   1      20.349  18.481   0.845  0.00  0.00     0.166 HD
ENDBRANCH  27  28
ENDBRANCH   1  27
BRANCH   1  35
HETATM   35  C   UNK N   1      21.404  17.974   6.047  0.00  0.00     0.241 C 
HETATM   36  O   UNK N   1      21.058  18.804   6.876  0.00  0.00    -0.271 OA
HETATM   37  N   UNK N   1      21.438  16.686   6.454  0.00  0.00    -0.352 N 
HETATM   38  H   UNK N   1      21.113  16.553   7.374  0.00  0.00     0.163 HD
BRANCH  37  39
HETATM   39  C   UNK N   1      21.860  15.463   5.805  0.00  0.00     0.116 C 
BRANCH  39  40
HETATM   40  C   UNK N   1      22.347  14.543   6.926  0.00  0.00     0.032 C 
BRANCH  40  41
HETATM   41  C   UNK N   1      21.227  13.614   7.420  0.00  0.00    -0.013 C 
HETATM   42  C   UNK N   1      21.662  12.149   7.443  0.00  0.00     0.005 C 
HETATM   43  C   UNK N   1      22.662  11.896   8.568  0.00  0.00     0.000 C 
HETATM   44  C   UNK N   1      22.050  12.292   9.909  0.00  0.00     0.000 C 
HETATM   45  C   UNK N   1      21.667  13.769   9.899  0.00  0.00     0.000 C 
HETATM   46  C   UNK N   1      20.668  14.047   8.778  0.00  0.00     0.005 C 
ENDBRANCH  40  41
ENDBRANCH  39  40
BRANCH  39  47
HETATM   47  C   UNK N   1      20.783  14.720   5.006  0.00  0.00     0.169 C 
BRANCH  47  48
HETATM   48  O   UNK N   1      19.494  15.252   5.099  0.00  0.00    -0.391 OA
HETATM   49  H   UNK N   1      18.781  15.903   4.996  0.00  0.00     0.210 HD
ENDBRANCH  47  48
BRANCH  47  50
HETATM   50  C   UNK N   1      21.165  14.226   3.623  0.00  0.00     0.149 C 
BRANCH  50  51
HETATM   51  O   UNK N   1      21.715  15.260   2.862  0.00  0.00    -0.393 OA
HETATM   52  H   UNK N   1      22.383  15.937   3.059  0.00  0.00     0.210 HD
ENDBRANCH  50  51
BRANCH  50  53
HETATM   53  C   UNK N   1      19.929  13.652   2.938  0.00  0.00     0.038 C 
BRANCH  53  54
HETATM   54  C   UNK N   1      20.044  13.702   1.422  0.00  0.00    -0.020 C 
HETATM   55  C   UNK N   1      18.679  13.890   0.789  0.00  0.00     0.009 C 
HETATM   56  C   UNK N   1      20.644  12.405   0.919  0.00  0.00     0.009 C 
ENDBRANCH  53  54
ENDBRANCH  50  53
ENDBRANCH  47  50
ENDBRANCH  39  47
ENDBRANCH  37  39
ENDBRANCH   1  35
TORSDOF 21
ENDMDL
MODEL 9
REMARK VINA RESULT:      -6.3      2.000      3.089
REMARK  21 active torsions:
REMARK  status: ('A' for Active; 'I' for Inactive)
REMARK    1  A    between atoms: O_2  and  C_3 
REMARK    2  A    between atoms: C_6  and  C_7 
REMARK    3  A    between atoms: C_7  and  C_8 
REMARK    4  A    between atoms: C_8  and  N_9 
REMARK    5  A    between atoms: C_8  and  C_17 
REMARK       I    between atoms: N_9  and  C_10 
REMARK    6  A    between atoms: C_10  and  C_12 
REMARK    7  A    between atoms: C_12  and  C_13 
REMARK    8  A    between atoms: C_13  and  N_16 
REMARK       I    between atoms: C_17  and  N_19 
REMARK    9  A    between atoms: C_20  and  N_19 
REMARK   10  A    between atoms: C_20  and  C_21 
REMARK   11  A    between atoms: C_20  and  C_28 
REMARK   12  A    between atoms: C_21  and  C_22 
REMARK       I    between atoms: C_28  and  N_30 
REMARK   13  A    between atoms: C_31  and  N_30 
REMARK   14  A    between atoms: C_31  and  C_32 
REMARK   15  A    between atoms: C_31  and  C_39 
REMARK   16  A    between atoms: C_32  and  C_33 
REMARK   17  A    between atoms: C_39  and  O_40 
REMARK   18  A    between atoms: C_39  and  C_41 
REMARK   19  A    between atoms: C_41  and  O_42 
REMARK   20  A    between atoms: C_41  and  C_43 
REMARK   21  A    between atoms: C_43  and  C_44 
ROOT
HETATM    1  C   UNK N   1      25.857  14.164   4.553  0.00  0.00     0.182 C 
ENDROOT
BRANCH   1   2
HETATM    2  N   UNK N   1      27.195  14.705   4.715  0.00  0.00    -0.346 N 
HETATM    3  C   UNK N   1      27.814  15.421   3.746  0.00  0.00     0.241 C 
HETATM    4  O   UNK N   1      27.354  15.464   2.613  0.00  0.00    -0.271 OA
HETATM    5  H   UNK N   1      27.670  14.547   5.563  0.00  0.00     0.163 HD
BRANCH   3   6
HETATM    6  C   UNK N   1      28.976  16.296   4.117  0.00  0.00     0.180 C 
BRANCH   6   7
HETATM    7  C   UNK N   1      30.265  15.847   3.440  0.00  0.00     0.073 C 
BRANCH   7   8
HETATM    8  C   UNK N   1      31.410  16.331   4.269  0.00  0.00    -0.056 A 
HETATM    9  C   UNK N   1      31.468  16.010   5.628  0.00  0.00     0.010 A 
HETATM   10  C   UNK N   1      32.475  16.555   6.431  0.00  0.00     0.037 A 
HETATM   11  C   UNK N   1      33.429  17.430   5.877  0.00  0.00     0.068 A 
HETATM   12  C   UNK N   1      33.373  17.732   4.513  0.00  0.00     0.037 A 
HETATM   13  C   UNK N   1      32.366  17.190   3.713  0.00  0.00     0.010 A 
BRANCH  11  14
HETATM   14  O   UNK N   1      34.395  17.998   6.635  0.00  0.00    -0.356 OA
HETATM   15  C   UNK N   1      34.298  18.135   8.001  0.00  0.00     0.210 C 
ENDBRANCH  11  14
ENDBRANCH   7   8
ENDBRANCH   6   7
BRANCH   6  16
HETATM   16  N   UNK N   1      28.618  17.658   3.789  0.00  0.00    -0.347 N 
HETATM   17  C   UNK N   1      28.499  18.593   4.771  0.00  0.00     0.220 C 
HETATM   18  O   UNK N   1      28.840  18.332   5.916  0.00  0.00    -0.274 OA
HETATM   19  H   UNK N   1      28.461  17.912   2.851  0.00  0.00     0.163 HD
BRANCH  17  20
HETATM   20  C   UNK N   1      27.838  19.914   4.500  0.00  0.00     0.132 C 
BRANCH  20  21
HETATM   21  C   UNK N   1      26.468  20.123   5.129  0.00  0.00     0.024 C 
HETATM   22  C   UNK N   1      25.491  20.443   4.017  0.00  0.00     0.038 C 
HETATM   23  C   UNK N   1      26.485  21.283   6.105  0.00  0.00     0.038 C 
BRANCH  21  24
HETATM   24  N   UNK N   1      26.034  18.913   5.805  0.00  0.00    -0.422 N 
HETATM   25  H   UNK N   1      25.167  18.539   6.188  0.00  0.00     0.150 HD
HETATM   26  H   UNK N   1      26.808  18.260   5.931  0.00  0.00     0.150 HD
ENDBRANCH  21  24
ENDBRANCH  20  21
ENDBRANCH  17  20
ENDBRANCH   6  16
ENDBRANCH   3   6
ENDBRANCH   1   2
BRANCH   1  27
HETATM   27  C   UNK N   1      25.954  12.650   4.696  0.00  0.00     0.093 C 
BRANCH  27  28
HETATM   28  C   UNK N   1      25.891  12.017   3.336  0.00  0.00     0.028 A 
HETATM   29  C   UNK N   1      25.497  10.729   3.069  0.00  0.00     0.114 A 
HETATM   30  N   UNK N   1      25.524  10.562   1.733  0.00  0.00    -0.360 N 
HETATM   31  C   UNK N   1      25.930  11.741   1.218  0.00  0.00     0.180 A 
ATOM     32  HN  UNK N   1      25.286   9.715   1.215  1.00  0.00     0.166 HD
HETATM   33  N   UNK N   1      26.165  12.652   2.184  0.00  0.00    -0.354 N 
HETATM   34  H   UNK N   1      26.470  13.581   2.069  0.00  0.00     0.166 HD
ENDBRANCH  27  28
ENDBRANCH   1  27
BRANCH   1  35
HETATM   35  C   UNK N   1      24.957  14.807   5.604  0.00  0.00     0.241 C 
HETATM   36  O   UNK N   1      25.306  14.762   6.775  0.00  0.00    -0.271 OA
HETATM   37  N   UNK N   1      23.797  15.446   5.339  0.00  0.00    -0.352 N 
HETATM   38  H   UNK N   1      23.387  15.866   6.130  0.00  0.00     0.163 HD
BRANCH  37  39
HETATM   39  C   UNK N   1      23.036  15.634   4.122  0.00  0.00     0.116 C 
BRANCH  39  40
HETATM   40  C   UNK N   1      22.375  14.285   3.831  0.00  0.00     0.032 C 
BRANCH  40  41
HETATM   41  C   UNK N   1      22.821  13.718   2.474  0.00  0.00    -0.013 C 
HETATM   42  C   UNK N   1      22.248  12.325   2.216  0.00  0.00     0.005 C 
HETATM   43  C   UNK N   1      20.749  12.397   1.936  0.00  0.00     0.000 C 
HETATM   44  C   UNK N   1      20.484  13.313   0.744  0.00  0.00     0.000 C 
HETATM   45  C   UNK N   1      21.011  14.716   1.030  0.00  0.00     0.000 C 
HETATM   46  C   UNK N   1      22.510  14.669   1.316  0.00  0.00     0.005 C 
ENDBRANCH  40  41
ENDBRANCH  39  40
BRANCH  39  47
HETATM   47  C   UNK N   1      21.941  16.706   4.172  0.00  0.00     0.169 C 
BRANCH  47  48
HETATM   48  O   UNK N   1      20.759  16.325   4.815  0.00  0.00    -0.391 OA
HETATM   49  H   UNK N   1      19.856  16.412   5.160  0.00  0.00     0.210 HD
ENDBRANCH  47  48
BRANCH  47  50
HETATM   50  C   UNK N   1      22.381  18.132   4.451  0.00  0.00     0.149 C 
BRANCH  50  51
HETATM   51  O   UNK N   1      23.253  18.176   5.542  0.00  0.00    -0.393 OA
HETATM   52  H   UNK N   1      23.496  17.522   6.216  0.00  0.00     0.210 HD
ENDBRANCH  50  51
BRANCH  50  53
HETATM   53  C   UNK N   1      21.150  18.993   4.710  0.00  0.00     0.038 C 
BRANCH  53  54
HETATM   54  C   UNK N   1      20.783  19.838   3.500  0.00  0.00    -0.020 C 
HETATM   55  C   UNK N   1      19.839  19.081   2.585  0.00  0.00     0.009 C 
HETATM   56  C   UNK N   1      22.039  20.188   2.728  0.00  0.00     0.009 C 
ENDBRANCH  53  54
ENDBRANCH  50  53
ENDBRANCH  47  50
ENDBRANCH  39  47
ENDBRANCH  37  39
ENDBRANCH   1  35
TORSDOF 21
ENDMDL
