MODEL 1
REMARK VINA RESULT:      -4.7      0.000      0.000
REMARK  2 active torsions:
REMARK  status: ('A' for Active; 'I' for Inactive)
REMARK    1  A    between atoms: O_1  and  C_2 
REMARK    2  A    between atoms: C_2  and  C_3 
ROOT
HETATM    1  C   UNK N   1      23.123  12.645  10.396  0.00  0.00    -0.034 A 
HETATM    2  C   UNK N   1      22.242  11.952  11.232  0.00  0.00     0.009 A 
HETATM    3  C   UNK N   1      20.881  12.269  11.242  0.00  0.00     0.002 A 
HETATM    4  C   UNK N   1      20.394  13.283  10.414  0.00  0.00     0.018 A 
HETATM    5  C   UNK N   1      21.267  13.981   9.575  0.00  0.00     0.007 A 
HETATM    6  I   UNK N   1      20.516  15.505   8.335  0.00  0.00    -0.045 I 
HETATM    7  C   UNK N   1      22.631  13.664   9.565  0.00  0.00     0.027 A 
ENDROOT
BRANCH   1   8
HETATM    8  C   UNK N   1      24.576  12.274  10.415  0.00  0.00     0.202 C 
BRANCH   8   9
HETATM    9  O   UNK N   1      25.126  12.376  11.695  0.00  0.00    -0.396 OA
HETATM   10  H   UNK N   1      25.171  13.238  12.136  0.00  0.00     0.209 HD
ENDBRANCH   8   9
ENDBRANCH   1   8
TORSDOF 2
ENDMDL
MODEL 2
REMARK VINA RESULT:      -4.5      2.012      2.466
REMARK  2 active torsions:
REMARK  status: ('A' for Active; 'I' for Inactive)
REMARK    1  A    between atoms: O_1  and  C_2 
REMARK    2  A    between atoms: C_2  and  C_3 
ROOT
HETATM    1  C   UNK N   1      22.789  12.115  11.662  0.00  0.00    -0.034 A 
HETATM    2  C   UNK N   1      21.427  12.316  11.416  0.00  0.00     0.009 A 
HETATM    3  C   UNK N   1      20.998  12.801  10.177  0.00  0.00     0.002 A 
HETATM    4  C   UNK N   1      21.930  13.086   9.177  0.00  0.00     0.018 A 
HETATM    5  C   UNK N   1      23.293  12.888   9.414  0.00  0.00     0.007 A 
HETATM    6  I   UNK N   1      24.683  13.323   7.897  0.00  0.00    -0.045 I 
HETATM    7  C   UNK N   1      23.724  12.403  10.655  0.00  0.00     0.027 A 
ENDROOT
BRANCH   1   8
HETATM    8  C   UNK N   1      23.209  11.594  13.004  0.00  0.00     0.202 C 
BRANCH   8   9
HETATM    9  O   UNK N   1      23.865  12.567  13.761  0.00  0.00    -0.396 OA
HETATM   10  H   UNK N   1      23.727  12.609  14.720  0.00  0.00     0.209 HD
ENDBRANCH   8   9
ENDBRANCH   1   8
TORSDOF 2
ENDMDL
MODEL 3
REMARK VINA RESULT:      -4.5      1.430      2.567
REMARK  2 active torsions:
REMARK  status: ('A' for Active; 'I' for Inactive)
REMARK    1  A    between atoms: O_1  and  C_2 
REMARK    2  A    between atoms: C_2  and  C_3 
ROOT
HETATM    1  C   UNK N   1      23.260  12.307  11.401  0.00  0.00    -0.034 A 
HETATM    2  C   UNK N   1      24.551  12.208  10.875  0.00  0.00     0.009 A 
HETATM    3  C   UNK N   1      24.829  12.683   9.590  0.00  0.00     0.002 A 
HETATM    4  C   UNK N   1      23.813  13.260   8.824  0.00  0.00     0.018 A 
HETATM    5  C   UNK N   1      22.519  13.363   9.341  0.00  0.00     0.007 A 
HETATM    6  I   UNK N   1      21.002  14.235   8.174  0.00  0.00    -0.045 I 
HETATM    7  C   UNK N   1      22.240  12.888  10.629  0.00  0.00     0.027 A 
ENDROOT
BRANCH   1   8
HETATM    8  C   UNK N   1      23.003  11.786  12.784  0.00  0.00     0.202 C 
BRANCH   8   9
HETATM    9  O   UNK N   1      23.823  12.398  13.734  0.00  0.00    -0.396 OA
HETATM   10  H   UNK N   1      23.826  13.364  13.822  0.00  0.00     0.209 HD
ENDBRANCH   8   9
ENDBRANCH   1   8
TORSDOF 2
ENDMDL
MODEL 4
REMARK VINA RESULT:      -4.5     11.005     12.116
REMARK  2 active torsions:
REMARK  status: ('A' for Active; 'I' for Inactive)
REMARK    1  A    between atoms: O_1  and  C_2 
REMARK    2  A    between atoms: C_2  and  C_3 
ROOT
HETATM    1  C   UNK N   1      33.417  17.667   7.711  0.00  0.00    -0.034 A 
HETATM    2  C   UNK N   1      32.169  17.614   8.338  0.00  0.00     0.009 A 
HETATM    3  C   UNK N   1      31.015  17.358   7.593  0.00  0.00     0.002 A 
HETATM    4  C   UNK N   1      31.103  17.154   6.215  0.00  0.00     0.018 A 
HETATM    5  C   UNK N   1      32.347  17.205   5.579  0.00  0.00     0.007 A 
HETATM    6  I   UNK N   1      32.462  16.894   3.501  0.00  0.00    -0.045 I 
HETATM    7  C   UNK N   1      33.504  17.461   6.324  0.00  0.00     0.027 A 
ENDROOT
BRANCH   1   8
HETATM    8  C   UNK N   1      34.632  17.944   8.545  0.00  0.00     0.202 C 
BRANCH   8   9
HETATM    9  O   UNK N   1      35.092  19.253   8.381  0.00  0.00    -0.396 OA
HETATM   10  H   UNK N   1      35.351  19.776   9.155  0.00  0.00     0.209 HD
ENDBRANCH   8   9
ENDBRANCH   1   8
TORSDOF 2
ENDMDL
MODEL 5
REMARK VINA RESULT:      -4.2      9.269     10.352
REMARK  2 active torsions:
REMARK  status: ('A' for Active; 'I' for Inactive)
REMARK    1  A    between atoms: O_1  and  C_2 
REMARK    2  A    between atoms: C_2  and  C_3 
ROOT
HETATM    1  C   UNK N   1      29.786  17.835   8.596  0.00  0.00    -0.034 A 
HETATM    2  C   UNK N   1      29.265  17.294   7.416  0.00  0.00     0.009 A 
HETATM    3  C   UNK N   1      30.119  16.896   6.384  0.00  0.00     0.002 A 
HETATM    4  C   UNK N   1      31.501  17.038   6.527  0.00  0.00     0.018 A 
HETATM    5  C   UNK N   1      32.031  17.577   7.702  0.00  0.00     0.007 A 
HETATM    6  I   UNK N   1      34.115  17.784   7.901  0.00  0.00    -0.045 I 
HETATM    7  C   UNK N   1      31.177  17.977   8.737  0.00  0.00     0.027 A 
ENDROOT
BRANCH   1   8
HETATM    8  C   UNK N   1      28.836  18.251   9.679  0.00  0.00     0.202 C 
BRANCH   8   9
HETATM    9  O   UNK N   1      27.505  18.184   9.262  0.00  0.00    -0.396 OA
HETATM   10  H   UNK N   1      27.157  18.845   8.644  0.00  0.00     0.209 HD
ENDBRANCH   8   9
ENDBRANCH   1   8
TORSDOF 2
ENDMDL
MODEL 6
REMARK VINA RESULT:      -4.2     10.842     12.022
REMARK  2 active torsions:
REMARK  status: ('A' for Active; 'I' for Inactive)
REMARK    1  A    between atoms: O_1  and  C_2 
REMARK    2  A    between atoms: C_2  and  C_3 
ROOT
HETATM    1  C   UNK N   1      33.468  17.626   7.414  0.00  0.00    -0.034 A 
HETATM    2  C   UNK N   1      33.894  17.428   6.097  0.00  0.00     0.009 A 
HETATM    3  C   UNK N   1      32.964  17.194   5.081  0.00  0.00     0.002 A 
HETATM    4  C   UNK N   1      31.599  17.156   5.378  0.00  0.00     0.018 A 
HETATM    5  C   UNK N   1      31.164  17.352   6.692  0.00  0.00     0.007 A 
HETATM    6  I   UNK N   1      29.106  17.292   7.122  0.00  0.00    -0.045 I 
HETATM    7  C   UNK N   1      32.095  17.587   7.710  0.00  0.00     0.027 A 
ENDROOT
BRANCH   1   8
HETATM    8  C   UNK N   1      34.498  17.875   8.475  0.00  0.00     0.202 C 
BRANCH   8   9
HETATM    9  O   UNK N   1      35.062  19.148   8.369  0.00  0.00    -0.396 OA
HETATM   10  H   UNK N   1      34.583  19.920   8.711  0.00  0.00     0.209 HD
ENDBRANCH   8   9
ENDBRANCH   1   8
TORSDOF 2
ENDMDL
MODEL 7
REMARK VINA RESULT:      -4.1      9.531     10.195
REMARK  2 active torsions:
REMARK  status: ('A' for Active; 'I' for Inactive)
REMARK    1  A    between atoms: O_1  and  C_2 
REMARK    2  A    between atoms: C_2  and  C_3 
ROOT
HETATM    1  C   UNK N   1      26.951  20.567   6.175  0.00  0.00    -0.034 A 
HETATM    2  C   UNK N   1      26.724  20.658   4.799  0.00  0.00     0.009 A 
HETATM    3  C   UNK N   1      27.288  19.723   3.927  0.00  0.00     0.002 A 
HETATM    4  C   UNK N   1      28.083  18.690   4.428  0.00  0.00     0.018 A 
HETATM    5  C   UNK N   1      28.316  18.590   5.803  0.00  0.00     0.007 A 
HETATM    6  I   UNK N   1      29.515  17.028   6.542  0.00  0.00    -0.045 I 
HETATM    7  C   UNK N   1      27.751  19.527   6.678  0.00  0.00     0.027 A 
ENDROOT
BRANCH   1   8
HETATM    8  C   UNK N   1      26.328  21.589   7.078  0.00  0.00     0.202 C 
BRANCH   8   9
HETATM    9  O   UNK N   1      25.792  21.012   8.231  0.00  0.00    -0.396 OA
HETATM   10  H   UNK N   1      25.416  21.576   8.925  0.00  0.00     0.209 HD
ENDBRANCH   8   9
ENDBRANCH   1   8
TORSDOF 2
ENDMDL
MODEL 8
REMARK VINA RESULT:      -4.1     21.822     22.519
REMARK  2 active torsions:
REMARK  status: ('A' for Active; 'I' for Inactive)
REMARK    1  A    between atoms: O_1  and  C_2 
REMARK    2  A    between atoms: C_2  and  C_3 
ROOT
HETATM    1  C   UNK N   1      26.256  28.111  -5.183  0.00  0.00    -0.034 A 
HETATM    2  C   UNK N   1      25.394  27.105  -5.630  0.00  0.00     0.009 A 
HETATM    3  C   UNK N   1      25.632  26.459  -6.846  0.00  0.00     0.002 A 
HETATM    4  C   UNK N   1      26.736  26.817  -7.623  0.00  0.00     0.018 A 
HETATM    5  C   UNK N   1      27.604  27.821  -7.185  0.00  0.00     0.007 A 
HETATM    6  I   UNK N   1      29.262  28.347  -8.368  0.00  0.00    -0.045 I 
HETATM    7  C   UNK N   1      27.366  28.469  -5.967  0.00  0.00     0.027 A 
ENDROOT
BRANCH   1   8
HETATM    8  C   UNK N   1      25.967  28.779  -3.873  0.00  0.00     0.202 C 
BRANCH   8   9
HETATM    9  O   UNK N   1      25.472  27.881  -2.925  0.00  0.00    -0.396 OA
HETATM   10  H   UNK N   1      24.559  27.561  -2.991  0.00  0.00     0.209 HD
ENDBRANCH   8   9
ENDBRANCH   1   8
TORSDOF 2
ENDMDL
MODEL 9
REMARK VINA RESULT:      -4.1     14.319     15.179
REMARK  2 active torsions:
REMARK  status: ('A' for Active; 'I' for Inactive)
REMARK    1  A    between atoms: O_1  and  C_2 
REMARK    2  A    between atoms: C_2  and  C_3 
ROOT
HETATM    1  C   UNK N   1      35.386  11.544  18.851  0.00  0.00    -0.034 A 
HETATM    2  C   UNK N   1      35.371  12.941  18.919  0.00  0.00     0.009 A 
HETATM    3  C   UNK N   1      35.096  13.700  17.779  0.00  0.00     0.002 A 
HETATM    4  C   UNK N   1      34.834  13.066  16.562  0.00  0.00     0.018 A 
HETATM    5  C   UNK N   1      34.847  11.670  16.485  0.00  0.00     0.007 A 
HETATM    6  I   UNK N   1      34.450  10.730  14.645  0.00  0.00    -0.045 I 
HETATM    7  C   UNK N   1      35.122  10.908  17.627  0.00  0.00     0.027 A 
ENDROOT
BRANCH   1   8
HETATM    8  C   UNK N   1      35.685  10.765  20.097  0.00  0.00     0.202 C 
BRANCH   8   9
HETATM    9  O   UNK N   1      34.737  10.993  21.097  0.00  0.00    -0.396 OA
HETATM   10  H   UNK N   1      33.838  11.268  20.859  0.00  0.00     0.209 HD
ENDBRANCH   8   9
ENDBRANCH   1   8
TORSDOF 2
ENDMDL
