MODEL 1
REMARK VINA RESULT:      -7.8      0.000      0.000
REMARK  10 active torsions:
REMARK  status: ('A' for Active; 'I' for Inactive)
REMARK    1  A    between atoms: C_17  and  N_2 
REMARK       I    between atoms: N_13  and  C_10 
REMARK    2  A    between atoms: C_14  and  C_20 
REMARK    3  A    between atoms: C_16  and  O_19 
REMARK    4  A    between atoms: O_21  and  C_20 
REMARK    5  A    between atoms: P_25  and  O_21 
REMARK    6  A    between atoms: P_23  and  O_22 
REMARK    7  A    between atoms: O_24  and  P_23 
REMARK    8  A    between atoms: O_28  and  P_23 
REMARK    9  A    between atoms: P_25  and  O_24 
REMARK   10  A    between atoms: O_29  and  P_25 
ROOT
HETATM    1  C   UNK N   1      22.319  16.352   6.651  0.00  0.00     0.177 C 
HETATM    2  O   UNK N   1      22.428  14.997   6.334  0.00  0.00    -0.356 OA
HETATM    3  C   UNK N   1      20.903  16.527   7.115  0.00  0.00     0.153 C 
HETATM    4  C   UNK N   1      21.752  14.374   7.405  0.00  0.00     0.233 C 
HETATM    5  C   UNK N   1      20.891  15.416   8.118  0.00  0.00     0.088 C 
ENDROOT
BRANCH   4   6
HETATM    6  N   UNK N   1      22.715  13.716   8.288  0.00  0.00    -0.299 N 
HETATM    7  C   UNK N   1      22.506  13.058   9.442  0.00  0.00     0.159 A 
HETATM    8  C   UNK N   1      23.694  12.744   9.994  0.00  0.00     0.147 A 
HETATM    9  N   UNK N   1      21.325  12.775  10.053  0.00  0.00    -0.174 N 
HETATM   10  N   UNK N   1      24.695  13.172   9.201  0.00  0.00    -0.345 N 
HETATM   11  C   UNK N   1      23.750  12.115  11.225  0.00  0.00     0.290 A 
HETATM   12  C   UNK N   1      24.063  13.781   8.159  0.00  0.00     0.188 A 
ATOM     13  HN  UNK N   1      25.698  13.065   9.348  1.00  0.00     0.167 HD
HETATM   14  N   UNK N   1      22.560  11.818  11.850  0.00  0.00    -0.154 N 
HETATM   15  O   UNK N   1      24.813  11.850  11.756  0.00  0.00    -0.265 OA
HETATM   16  C   UNK N   1      21.361  12.139  11.267  0.00  0.00     0.680 A 
HETATM   17  H   UNK N   1      22.571  11.367  12.726  0.00  0.00     0.187 HD
HETATM   18  N   UNK N   1      20.162  11.822  11.935  0.00  0.00    -0.234 N 
HETATM   19  H   UNK N   1      20.166  11.394  12.821  0.00  0.00     0.174 HD
HETATM   20  H   UNK N   1      19.302  12.034  11.507  0.00  0.00     0.174 HD
ATOM     21  HN  UNK N   1      20.437  13.027   9.619  1.00  0.00     0.186 HD
ENDBRANCH   4   6
BRANCH   1  22
HETATM   22  C   UNK N   1      22.738  17.257   5.513  0.00  0.00     0.215 C 
BRANCH  22  23
HETATM   23  O   UNK N   1      21.682  18.134   5.241  0.00  0.00    -0.294 OA
BRANCH  23  24
HETATM   24  P   UNK N   1      21.677  18.342   3.512  0.00  0.00     0.401 P 
HETATM   25  O   UNK N   1      23.196  18.338   3.822  0.00  0.00    -0.631 OA
BRANCH  24  26
HETATM   26  O   UNK N   1      22.208  19.843   2.807  0.00  0.00    -0.195 OA
BRANCH  26  27
HETATM   27  P   UNK N   1      20.752  20.710   2.407  0.00  0.00     0.399 P 
HETATM   28  O   UNK N   1      21.054  19.961   1.081  0.00  0.00    -0.631 OA
BRANCH  27  29
HETATM   29  O   UNK N   1      20.795  22.000   1.247  0.00  0.00    -0.307 OA
HETATM   30  H   UNK N   1      21.568  22.177   0.690  0.00  0.00     0.222 HD
ENDBRANCH  27  29
BRANCH  27  31
HETATM   31  O   UNK N   1      22.034  21.826   2.757  0.00  0.00    -0.307 OA
HETATM   32  H   UNK N   1      22.895  21.904   2.315  0.00  0.00     0.222 HD
ENDBRANCH  27  31
ENDBRANCH  26  27
ENDBRANCH  24  26
BRANCH  24  33
HETATM   33  O   UNK N   1      20.921  19.680   4.317  0.00  0.00    -0.307 OA
HETATM   34  H   UNK N   1      21.228  20.089   5.142  0.00  0.00     0.222 HD
ENDBRANCH  24  33
ENDBRANCH  23  24
ENDBRANCH  22  23
ENDBRANCH   1  22
BRANCH   3  35
HETATM   35  O   UNK N   1      20.697  17.763   7.725  0.00  0.00    -0.393 OA
HETATM   36  H   UNK N   1      20.903  18.711   7.749  0.00  0.00     0.210 HD
ENDBRANCH   3  35
TORSDOF 10
ENDMDL
MODEL 2
REMARK VINA RESULT:      -7.6      9.755     12.903
REMARK  10 active torsions:
REMARK  status: ('A' for Active; 'I' for Inactive)
REMARK    1  A    between atoms: C_17  and  N_2 
REMARK       I    between atoms: N_13  and  C_10 
REMARK    2  A    between atoms: C_14  and  C_20 
REMARK    3  A    between atoms: C_16  and  O_19 
REMARK    4  A    between atoms: O_21  and  C_20 
REMARK    5  A    between atoms: P_25  and  O_21 
REMARK    6  A    between atoms: P_23  and  O_22 
REMARK    7  A    between atoms: O_24  and  P_23 
REMARK    8  A    between atoms: O_28  and  P_23 
REMARK    9  A    between atoms: P_25  and  O_24 
REMARK   10  A    between atoms: O_29  and  P_25 
ROOT
HETATM    1  C   UNK N   1      32.997  17.014   7.179  0.00  0.00     0.177 C 
HETATM    2  O   UNK N   1      31.708  16.513   7.374  0.00  0.00    -0.356 OA
HETATM    3  C   UNK N   1      33.715  15.943   6.411  0.00  0.00     0.153 C 
HETATM    4  C   UNK N   1      31.401  15.954   6.115  0.00  0.00     0.233 C 
HETATM    5  C   UNK N   1      32.697  15.769   5.327  0.00  0.00     0.088 C 
ENDROOT
BRANCH   4   6
HETATM    6  N   UNK N   1      30.417  16.788   5.424  0.00  0.00    -0.299 N 
HETATM    7  C   UNK N   1      29.426  17.541   5.933  0.00  0.00     0.159 A 
HETATM    8  C   UNK N   1      28.672  18.020   4.924  0.00  0.00     0.147 A 
HETATM    9  N   UNK N   1      29.125  17.774   7.238  0.00  0.00    -0.174 N 
HETATM   10  N   UNK N   1      29.171  17.607   3.744  0.00  0.00    -0.345 N 
HETATM   11  C   UNK N   1      27.545  18.777   5.191  0.00  0.00     0.290 A 
HETATM   12  C   UNK N   1      30.242  16.836   4.080  0.00  0.00     0.188 A 
ATOM     13  HN  UNK N   1      28.824  17.823   2.809  1.00  0.00     0.167 HD
HETATM   14  N   UNK N   1      27.234  19.025   6.509  0.00  0.00    -0.154 N 
HETATM   15  O   UNK N   1      26.833  19.194   4.296  0.00  0.00    -0.265 OA
HETATM   16  C   UNK N   1      28.018  18.533   7.521  0.00  0.00     0.680 A 
HETATM   17  H   UNK N   1      26.439  19.563   6.727  0.00  0.00     0.187 HD
HETATM   18  N   UNK N   1      27.671  18.804   8.858  0.00  0.00    -0.234 N 
HETATM   19  H   UNK N   1      26.863  19.321   9.083  0.00  0.00     0.174 HD
HETATM   20  H   UNK N   1      28.245  18.469   9.583  0.00  0.00     0.174 HD
ATOM     21  HN  UNK N   1      29.706  17.395   7.986  1.00  0.00     0.186 HD
ENDBRANCH   4   6
BRANCH   1  22
HETATM   22  C   UNK N   1      33.665  17.434   8.470  0.00  0.00     0.215 C 
BRANCH  22  23
HETATM   23  O   UNK N   1      34.834  16.681   8.623  0.00  0.00    -0.294 OA
BRANCH  23  24
HETATM   24  P   UNK N   1      34.809  16.100  10.265  0.00  0.00     0.401 P 
HETATM   25  O   UNK N   1      35.657  17.391  10.402  0.00  0.00    -0.631 OA
BRANCH  24  26
HETATM   26  O   UNK N   1      36.270  15.512  11.010  0.00  0.00    -0.195 OA
BRANCH  26  27
HETATM   27  P   UNK N   1      35.749  14.619  12.411  0.00  0.00     0.399 P 
HETATM   28  O   UNK N   1      36.386  13.504  11.538  0.00  0.00    -0.631 OA
BRANCH  27  29
HETATM   29  O   UNK N   1      34.463  13.462  12.280  0.00  0.00    -0.307 OA
HETATM   30  H   UNK N   1      33.554  13.713  12.051  0.00  0.00     0.222 HD
ENDBRANCH  27  29
BRANCH  27  31
HETATM   31  O   UNK N   1      34.377  15.296  11.591  0.00  0.00    -0.307 OA
HETATM   32  H   UNK N   1      33.831  16.050  11.866  0.00  0.00     0.222 HD
ENDBRANCH  27  31
ENDBRANCH  26  27
ENDBRANCH  24  26
BRANCH  24  33
HETATM   33  O   UNK N   1      35.613  14.984   9.207  0.00  0.00    -0.307 OA
HETATM   34  H   UNK N   1      35.227  14.579   8.415  0.00  0.00     0.222 HD
ENDBRANCH  24  33
ENDBRANCH  23  24
ENDBRANCH  22  23
ENDBRANCH   1  22
BRANCH   3  35
HETATM   35  O   UNK N   1      34.933  16.387   5.899  0.00  0.00    -0.393 OA
HETATM   36  H   UNK N   1      35.790  16.158   5.507  0.00  0.00     0.210 HD
ENDBRANCH   3  35
TORSDOF 10
ENDMDL
MODEL 3
REMARK VINA RESULT:      -7.6      1.261      1.794
REMARK  10 active torsions:
REMARK  status: ('A' for Active; 'I' for Inactive)
REMARK    1  A    between atoms: C_17  and  N_2 
REMARK       I    between atoms: N_13  and  C_10 
REMARK    2  A    between atoms: C_14  and  C_20 
REMARK    3  A    between atoms: C_16  and  O_19 
REMARK    4  A    between atoms: O_21  and  C_20 
REMARK    5  A    between atoms: P_25  and  O_21 
REMARK    6  A    between atoms: P_23  and  O_22 
REMARK    7  A    between atoms: O_24  and  P_23 
REMARK    8  A    between atoms: O_28  and  P_23 
REMARK    9  A    between atoms: P_25  and  O_24 
REMARK   10  A    between atoms: O_29  and  P_25 
ROOT
HETATM    1  C   UNK N   1      22.055  16.638   6.741  0.00  0.00     0.177 C 
HETATM    2  O   UNK N   1      22.149  15.305   6.333  0.00  0.00    -0.356 OA
HETATM    3  C   UNK N   1      20.669  16.773   7.299  0.00  0.00     0.153 C 
HETATM    4  C   UNK N   1      21.542  14.612   7.402  0.00  0.00     0.233 C 
HETATM    5  C   UNK N   1      20.722  15.601   8.230  0.00  0.00     0.088 C 
ENDROOT
BRANCH   4   6
HETATM    6  N   UNK N   1      22.559  13.908   8.183  0.00  0.00    -0.299 N 
HETATM    7  C   UNK N   1      22.426  13.192   9.313  0.00  0.00     0.159 A 
HETATM    8  C   UNK N   1      23.648  12.848   9.766  0.00  0.00     0.147 A 
HETATM    9  N   UNK N   1      21.288  12.880   9.988  0.00  0.00    -0.174 N 
HETATM   10  N   UNK N   1      24.594  13.314   8.929  0.00  0.00    -0.345 N 
HETATM   11  C   UNK N   1      23.784  12.157  10.957  0.00  0.00     0.290 A 
HETATM   12  C   UNK N   1      23.896  13.977   7.965  0.00  0.00     0.188 A 
ATOM     13  HN  UNK N   1      25.605  13.198   9.001  1.00  0.00     0.167 HD
HETATM   14  N   UNK N   1      22.638  11.830  11.645  0.00  0.00    -0.154 N 
HETATM   15  O   UNK N   1      24.879  11.863  11.400  0.00  0.00    -0.265 OA
HETATM   16  C   UNK N   1      21.403  12.183  11.163  0.00  0.00     0.680 A 
HETATM   17  H   UNK N   1      22.706  11.335  12.494  0.00  0.00     0.187 HD
HETATM   18  N   UNK N   1      20.251  11.835  11.894  0.00  0.00    -0.234 N 
HETATM   19  H   UNK N   1      20.314  11.361  12.755  0.00  0.00     0.174 HD
HETATM   20  H   UNK N   1      19.365  12.070  11.538  0.00  0.00     0.174 HD
ATOM     21  HN  UNK N   1      20.374  13.156   9.629  1.00  0.00     0.186 HD
ENDBRANCH   4   6
BRANCH   1  22
HETATM   22  C   UNK N   1      22.400  17.614   5.638  0.00  0.00     0.215 C 
BRANCH  22  23
HETATM   23  O   UNK N   1      21.225  18.268   5.250  0.00  0.00    -0.294 OA
BRANCH  23  24
HETATM   24  P   UNK N   1      21.573  18.979   3.698  0.00  0.00     0.401 P 
HETATM   25  O   UNK N   1      20.673  20.064   4.346  0.00  0.00    -0.631 OA
BRANCH  24  26
HETATM   26  O   UNK N   1      20.306  19.170   2.518  0.00  0.00    -0.195 OA
BRANCH  26  27
HETATM   27  P   UNK N   1      19.927  17.559   1.978  0.00  0.00     0.399 P 
HETATM   28  O   UNK N   1      20.604  18.167   0.720  0.00  0.00    -0.631 OA
BRANCH  27  29
HETATM   29  O   UNK N   1      18.729  17.310   0.748  0.00  0.00    -0.307 OA
HETATM   30  H   UNK N   1      18.352  18.038   0.229  0.00  0.00     0.222 HD
ENDBRANCH  27  29
BRANCH  27  31
HETATM   31  O   UNK N   1      18.468  18.428   2.339  0.00  0.00    -0.307 OA
HETATM   32  H   UNK N   1      17.842  18.827   1.713  0.00  0.00     0.222 HD
ENDBRANCH  27  31
ENDBRANCH  26  27
ENDBRANCH  24  26
BRANCH  24  33
HETATM   33  O   UNK N   1      20.678  17.501   3.537  0.00  0.00    -0.307 OA
HETATM   34  H   UNK N   1      19.947  17.218   4.109  0.00  0.00     0.222 HD
ENDBRANCH  24  33
ENDBRANCH  23  24
ENDBRANCH  22  23
ENDBRANCH   1  22
BRANCH   3  35
HETATM   35  O   UNK N   1      20.495  17.967   7.997  0.00  0.00    -0.393 OA
HETATM   36  H   UNK N   1      20.117  18.420   8.767  0.00  0.00     0.210 HD
ENDBRANCH   3  35
TORSDOF 10
ENDMDL
MODEL 4
REMARK VINA RESULT:      -7.2     12.655     14.531
REMARK  10 active torsions:
REMARK  status: ('A' for Active; 'I' for Inactive)
REMARK    1  A    between atoms: C_17  and  N_2 
REMARK       I    between atoms: N_13  and  C_10 
REMARK    2  A    between atoms: C_14  and  C_20 
REMARK    3  A    between atoms: C_16  and  O_19 
REMARK    4  A    between atoms: O_21  and  C_20 
REMARK    5  A    between atoms: P_25  and  O_21 
REMARK    6  A    between atoms: P_23  and  O_22 
REMARK    7  A    between atoms: O_24  and  P_23 
REMARK    8  A    between atoms: O_28  and  P_23 
REMARK    9  A    between atoms: P_25  and  O_24 
REMARK   10  A    between atoms: O_29  and  P_25 
ROOT
HETATM    1  C   UNK N   1      36.032  13.708  13.540  0.00  0.00     0.177 C 
HETATM    2  O   UNK N   1      34.797  13.071  13.402  0.00  0.00    -0.356 OA
HETATM    3  C   UNK N   1      36.245  13.820  15.020  0.00  0.00     0.153 C 
HETATM    4  C   UNK N   1      34.865  12.053  14.377  0.00  0.00     0.233 C 
HETATM    5  C   UNK N   1      35.987  12.385  15.361  0.00  0.00     0.088 C 
ENDROOT
BRANCH   4   6
HETATM    6  N   UNK N   1      35.029  10.751  13.730  0.00  0.00    -0.299 N 
HETATM    7  C   UNK N   1      34.508  10.296  12.577  0.00  0.00     0.159 A 
HETATM    8  C   UNK N   1      34.803   8.989  12.443  0.00  0.00     0.147 A 
HETATM    9  N   UNK N   1      33.740  10.964  11.675  0.00  0.00    -0.174 N 
HETATM   10  N   UNK N   1      35.539   8.576  13.492  0.00  0.00    -0.345 N 
HETATM   11  C   UNK N   1      34.322   8.270  11.363  0.00  0.00     0.290 A 
HETATM   12  C   UNK N   1      35.654   9.680  14.281  0.00  0.00     0.188 A 
ATOM     13  HN  UNK N   1      35.922   7.645  13.659  1.00  0.00     0.167 HD
HETATM   14  N   UNK N   1      33.550   8.937  10.439  0.00  0.00    -0.154 N 
HETATM   15  O   UNK N   1      34.552   7.081  11.237  0.00  0.00    -0.265 OA
HETATM   16  C   UNK N   1      33.267  10.270  10.591  0.00  0.00     0.680 A 
HETATM   17  H   UNK N   1      33.198   8.450   9.658  0.00  0.00     0.187 HD
HETATM   18  N   UNK N   1      32.472  10.921   9.628  0.00  0.00    -0.234 N 
HETATM   19  H   UNK N   1      32.097  10.435   8.859  0.00  0.00     0.174 HD
HETATM   20  H   UNK N   1      32.286  11.882   9.726  0.00  0.00     0.174 HD
ATOM     21  HN  UNK N   1      33.524  11.953  11.801  1.00  0.00     0.186 HD
ENDBRANCH   4   6
BRANCH   1  22
HETATM   22  C   UNK N   1      36.106  15.015  12.781  0.00  0.00     0.215 C 
BRANCH  22  23
HETATM   23  O   UNK N   1      36.100  14.726  11.411  0.00  0.00    -0.294 OA
BRANCH  23  24
HETATM   24  P   UNK N   1      35.402  16.122  10.639  0.00  0.00     0.401 P 
HETATM   25  O   UNK N   1      34.154  15.226  10.857  0.00  0.00    -0.631 OA
BRANCH  24  26
HETATM   26  O   UNK N   1      34.744  15.997   9.031  0.00  0.00    -0.195 OA
BRANCH  26  27
HETATM   27  P   UNK N   1      34.128  17.581   8.657  0.00  0.00     0.399 P 
HETATM   28  O   UNK N   1      34.849  17.198   7.336  0.00  0.00    -0.631 OA
BRANCH  27  29
HETATM   29  O   UNK N   1      35.219  18.910   8.424  0.00  0.00    -0.307 OA
HETATM   30  H   UNK N   1      35.148  19.740   8.923  0.00  0.00     0.222 HD
ENDBRANCH  27  29
BRANCH  27  31
HETATM   31  O   UNK N   1      35.281  17.680   9.950  0.00  0.00    -0.307 OA
HETATM   32  H   UNK N   1      35.235  17.258  10.823  0.00  0.00     0.222 HD
ENDBRANCH  27  31
ENDBRANCH  26  27
ENDBRANCH  24  26
BRANCH  24  33
HETATM   33  O   UNK N   1      36.525  15.311   9.594  0.00  0.00    -0.307 OA
HETATM   34  H   UNK N   1      36.782  14.378   9.657  0.00  0.00     0.222 HD
ENDBRANCH  24  33
ENDBRANCH  23  24
ENDBRANCH  22  23
ENDBRANCH   1  22
BRANCH   3  35
HETATM   35  O   UNK N   1      37.551  14.190  15.339  0.00  0.00    -0.393 OA
HETATM   36  H   UNK N   1      38.137  14.763  15.858  0.00  0.00     0.210 HD
ENDBRANCH   3  35
TORSDOF 10
ENDMDL
MODEL 5
REMARK VINA RESULT:      -7.1     10.681     14.423
REMARK  10 active torsions:
REMARK  status: ('A' for Active; 'I' for Inactive)
REMARK    1  A    between atoms: C_17  and  N_2 
REMARK       I    between atoms: N_13  and  C_10 
REMARK    2  A    between atoms: C_14  and  C_20 
REMARK    3  A    between atoms: C_16  and  O_19 
REMARK    4  A    between atoms: O_21  and  C_20 
REMARK    5  A    between atoms: P_25  and  O_21 
REMARK    6  A    between atoms: P_23  and  O_22 
REMARK    7  A    between atoms: O_24  and  P_23 
REMARK    8  A    between atoms: O_28  and  P_23 
REMARK    9  A    between atoms: P_25  and  O_24 
REMARK   10  A    between atoms: O_29  and  P_25 
ROOT
HETATM    1  C   UNK N   1      34.367  15.565   8.872  0.00  0.00     0.177 C 
HETATM    2  O   UNK N   1      34.186  15.806   7.508  0.00  0.00    -0.356 OA
HETATM    3  C   UNK N   1      34.910  16.850   9.422  0.00  0.00     0.153 C 
HETATM    4  C   UNK N   1      33.618  17.098   7.496  0.00  0.00     0.233 C 
HETATM    5  C   UNK N   1      33.868  17.761   8.851  0.00  0.00     0.088 C 
ENDROOT
BRANCH   4   6
HETATM    6  N   UNK N   1      32.200  17.017   7.144  0.00  0.00    -0.299 N 
HETATM    7  C   UNK N   1      31.618  17.032   5.932  0.00  0.00     0.159 A 
HETATM    8  C   UNK N   1      30.280  17.087   6.084  0.00  0.00     0.147 A 
HETATM    9  N   UNK N   1      32.210  17.059   4.709  0.00  0.00    -0.174 N 
HETATM   10  N   UNK N   1      29.969  17.086   7.394  0.00  0.00    -0.345 N 
HETATM   11  C   UNK N   1      29.453  17.176   4.979  0.00  0.00     0.290 A 
HETATM   12  C   UNK N   1      31.174  17.056   8.029  0.00  0.00     0.188 A 
ATOM     13  HN  UNK N   1      29.040  17.104   7.816  1.00  0.00     0.167 HD
HETATM   14  N   UNK N   1      30.041  17.196   3.735  0.00  0.00    -0.154 N 
HETATM   15  O   UNK N   1      28.244  17.257   5.095  0.00  0.00    -0.265 OA
HETATM   16  C   UNK N   1      31.405  17.133   3.601  0.00  0.00     0.680 A 
HETATM   17  H   UNK N   1      29.475  17.256   2.931  0.00  0.00     0.187 HD
HETATM   18  N   UNK N   1      31.974  17.159   2.314  0.00  0.00    -0.234 N 
HETATM   19  H   UNK N   1      31.415  17.243   1.507  0.00  0.00     0.174 HD
HETATM   20  H   UNK N   1      32.951  17.092   2.217  0.00  0.00     0.174 HD
ATOM     21  HN  UNK N   1      33.226  17.023   4.617  1.00  0.00     0.186 HD
ENDBRANCH   4   6
BRANCH   1  22
HETATM   22  C   UNK N   1      35.214  14.342   9.144  0.00  0.00     0.215 C 
BRANCH  22  23
HETATM   23  O   UNK N   1      34.599  13.601  10.159  0.00  0.00    -0.294 OA
BRANCH  23  24
HETATM   24  P   UNK N   1      35.794  13.439  11.415  0.00  0.00     0.401 P 
HETATM   25  O   UNK N   1      35.673  11.979  10.907  0.00  0.00    -0.631 OA
BRANCH  24  26
HETATM   26  O   UNK N   1      35.421  12.563  12.874  0.00  0.00    -0.195 OA
BRANCH  26  27
HETATM   27  P   UNK N   1      36.566  13.125  14.059  0.00  0.00     0.399 P 
HETATM   28  O   UNK N   1      35.233  13.709  14.600  0.00  0.00    -0.631 OA
BRANCH  27  29
HETATM   29  O   UNK N   1      36.923  14.818  14.194  0.00  0.00    -0.307 OA
HETATM   30  H   UNK N   1      36.323  15.507  13.868  0.00  0.00     0.222 HD
ENDBRANCH  27  29
BRANCH  27  31
HETATM   31  O   UNK N   1      36.924  13.816  12.507  0.00  0.00    -0.307 OA
HETATM   32  H   UNK N   1      37.793  13.918  12.087  0.00  0.00     0.222 HD
ENDBRANCH  27  31
ENDBRANCH  26  27
ENDBRANCH  24  26
BRANCH  24  33
HETATM   33  O   UNK N   1      34.267  13.962  12.052  0.00  0.00    -0.307 OA
HETATM   34  H   UNK N   1      33.615  14.505  11.582  0.00  0.00     0.222 HD
ENDBRANCH  24  33
ENDBRANCH  23  24
ENDBRANCH  22  23
ENDBRANCH   1  22
BRANCH   3  35
HETATM   35  O   UNK N   1      34.896  16.875  10.816  0.00  0.00    -0.393 OA
HETATM   36  H   UNK N   1      34.508  17.241  11.626  0.00  0.00     0.210 HD
ENDBRANCH   3  35
TORSDOF 10
ENDMDL
MODEL 6
REMARK VINA RESULT:      -7.1     10.595     14.104
REMARK  10 active torsions:
REMARK  status: ('A' for Active; 'I' for Inactive)
REMARK    1  A    between atoms: C_17  and  N_2 
REMARK       I    between atoms: N_13  and  C_10 
REMARK    2  A    between atoms: C_14  and  C_20 
REMARK    3  A    between atoms: C_16  and  O_19 
REMARK    4  A    between atoms: O_21  and  C_20 
REMARK    5  A    between atoms: P_25  and  O_21 
REMARK    6  A    between atoms: P_23  and  O_22 
REMARK    7  A    between atoms: O_24  and  P_23 
REMARK    8  A    between atoms: O_28  and  P_23 
REMARK    9  A    between atoms: P_25  and  O_24 
REMARK   10  A    between atoms: O_29  and  P_25 
ROOT
HETATM    1  C   UNK N   1      34.611  15.716   8.652  0.00  0.00     0.177 C 
HETATM    2  O   UNK N   1      34.697  16.000   7.288  0.00  0.00    -0.356 OA
HETATM    3  C   UNK N   1      35.043  16.979   9.337  0.00  0.00     0.153 C 
HETATM    4  C   UNK N   1      34.146  17.297   7.207  0.00  0.00     0.233 C 
HETATM    5  C   UNK N   1      34.133  17.916   8.605  0.00  0.00     0.088 C 
ENDROOT
BRANCH   4   6
HETATM    6  N   UNK N   1      32.822  17.240   6.587  0.00  0.00    -0.299 N 
HETATM    7  C   UNK N   1      31.608  17.372   7.150  0.00  0.00     0.159 A 
HETATM    8  C   UNK N   1      30.661  17.100   6.230  0.00  0.00     0.147 A 
HETATM    9  N   UNK N   1      31.301  17.662   8.442  0.00  0.00    -0.174 N 
HETATM   10  N   UNK N   1      31.241  16.809   5.050  0.00  0.00    -0.345 N 
HETATM   11  C   UNK N   1      29.323  17.104   6.580  0.00  0.00     0.290 A 
HETATM   12  C   UNK N   1      32.578  16.889   5.301  0.00  0.00     0.188 A 
ATOM     13  HN  UNK N   1      30.782  16.579   4.169  1.00  0.00     0.167 HD
HETATM   14  N   UNK N   1      29.000  17.404   7.884  0.00  0.00    -0.154 N 
HETATM   15  O   UNK N   1      28.454  16.832   5.773  0.00  0.00    -0.265 OA
HETATM   16  C   UNK N   1      29.978  17.684   8.804  0.00  0.00     0.680 A 
HETATM   17  H   UNK N   1      28.055  17.417   8.160  0.00  0.00     0.187 HD
HETATM   18  N   UNK N   1      29.614  17.984  10.130  0.00  0.00    -0.234 N 
HETATM   19  H   UNK N   1      28.672  17.976  10.417  0.00  0.00     0.174 HD
HETATM   20  H   UNK N   1      30.314  18.206  10.784  0.00  0.00     0.174 HD
ATOM     21  HN  UNK N   1      32.035  17.858   9.124  1.00  0.00     0.186 HD
ENDBRANCH   4   6
BRANCH   1  22
HETATM   22  C   UNK N   1      35.386  14.477   9.043  0.00  0.00     0.215 C 
BRANCH  22  23
HETATM   23  O   UNK N   1      34.670  13.812  10.045  0.00  0.00    -0.294 OA
BRANCH  23  24
HETATM   24  P   UNK N   1      35.791  13.599  11.361  0.00  0.00     0.401 P 
HETATM   25  O   UNK N   1      35.686  12.156  10.802  0.00  0.00    -0.631 OA
BRANCH  24  26
HETATM   26  O   UNK N   1      35.327  12.682  12.768  0.00  0.00    -0.195 OA
BRANCH  26  27
HETATM   27  P   UNK N   1      36.502  13.081  13.990  0.00  0.00     0.399 P 
HETATM   28  O   UNK N   1      35.196  13.656  14.602  0.00  0.00    -0.631 OA
BRANCH  27  29
HETATM   29  O   UNK N   1      36.924  14.737  14.289  0.00  0.00    -0.307 OA
HETATM   30  H   UNK N   1      36.799  15.436  13.628  0.00  0.00     0.222 HD
ENDBRANCH  27  29
BRANCH  27  31
HETATM   31  O   UNK N   1      36.874  13.910  12.511  0.00  0.00    -0.307 OA
HETATM   32  H   UNK N   1      36.258  14.352  11.905  0.00  0.00     0.222 HD
ENDBRANCH  27  31
ENDBRANCH  26  27
ENDBRANCH  24  26
BRANCH  24  33
HETATM   33  O   UNK N   1      34.235  14.118  11.927  0.00  0.00    -0.307 OA
HETATM   34  H   UNK N   1      33.916  14.055  12.841  0.00  0.00     0.222 HD
ENDBRANCH  24  33
ENDBRANCH  23  24
ENDBRANCH  22  23
ENDBRANCH   1  22
BRANCH   3  35
HETATM   35  O   UNK N   1      34.763  16.962  10.702  0.00  0.00    -0.393 OA
HETATM   36  H   UNK N   1      34.189  17.260  11.425  0.00  0.00     0.210 HD
ENDBRANCH   3  35
TORSDOF 10
ENDMDL
MODEL 7
REMARK VINA RESULT:      -7.1      1.208      2.482
REMARK  10 active torsions:
REMARK  status: ('A' for Active; 'I' for Inactive)
REMARK    1  A    between atoms: C_17  and  N_2 
REMARK       I    between atoms: N_13  and  C_10 
REMARK    2  A    between atoms: C_14  and  C_20 
REMARK    3  A    between atoms: C_16  and  O_19 
REMARK    4  A    between atoms: O_21  and  C_20 
REMARK    5  A    between atoms: P_25  and  O_21 
REMARK    6  A    between atoms: P_23  and  O_22 
REMARK    7  A    between atoms: O_24  and  P_23 
REMARK    8  A    between atoms: O_28  and  P_23 
REMARK    9  A    between atoms: P_25  and  O_24 
REMARK   10  A    between atoms: O_29  and  P_25 
ROOT
HETATM    1  C   UNK N   1      21.463  16.256   7.035  0.00  0.00     0.177 C 
HETATM    2  O   UNK N   1      20.914  14.972   7.034  0.00  0.00    -0.356 OA
HETATM    3  C   UNK N   1      20.334  17.158   7.437  0.00  0.00     0.153 C 
HETATM    4  C   UNK N   1      20.140  14.967   8.214  0.00  0.00     0.233 C 
HETATM    5  C   UNK N   1      19.919  16.411   8.667  0.00  0.00     0.088 C 
ENDROOT
BRANCH   4   6
HETATM    6  N   UNK N   1      20.782  14.134   9.231  0.00  0.00    -0.299 N 
HETATM    7  C   UNK N   1      22.043  13.670   9.284  0.00  0.00     0.159 A 
HETATM    8  C   UNK N   1      22.158  12.819  10.323  0.00  0.00     0.147 A 
HETATM    9  N   UNK N   1      23.072  13.917   8.431  0.00  0.00    -0.174 N 
HETATM   10  N   UNK N   1      20.983  12.732  10.975  0.00  0.00    -0.345 N 
HETATM   11  C   UNK N   1      23.349  12.155  10.555  0.00  0.00     0.290 A 
HETATM   12  C   UNK N   1      20.145  13.544  10.272  0.00  0.00     0.188 A 
ATOM     13  HN  UNK N   1      20.769  12.181  11.806  1.00  0.00     0.167 HD
HETATM   14  N   UNK N   1      24.401  12.402   9.702  0.00  0.00    -0.154 N 
HETATM   15  O   UNK N   1      23.466  11.359  11.469  0.00  0.00    -0.265 OA
HETATM   16  C   UNK N   1      24.265  13.278   8.655  0.00  0.00     0.680 A 
HETATM   17  H   UNK N   1      25.261  11.946   9.847  0.00  0.00     0.187 HD
HETATM   18  N   UNK N   1      25.360  13.506   7.800  0.00  0.00    -0.234 N 
HETATM   19  H   UNK N   1      26.215  13.034   7.924  0.00  0.00     0.174 HD
HETATM   20  H   UNK N   1      25.269  14.149   7.061  0.00  0.00     0.174 HD
ATOM     21  HN  UNK N   1      22.961  14.560   7.647  1.00  0.00     0.186 HD
ENDBRANCH   4   6
BRANCH   1  22
HETATM   22  C   UNK N   1      22.131  16.609   5.724  0.00  0.00     0.215 C 
BRANCH  22  23
HETATM   23  O   UNK N   1      22.294  17.998   5.677  0.00  0.00    -0.294 OA
BRANCH  23  24
HETATM   24  P   UNK N   1      21.940  18.458   4.035  0.00  0.00     0.401 P 
HETATM   25  O   UNK N   1      23.480  18.633   4.085  0.00  0.00    -0.631 OA
BRANCH  24  26
HETATM   26  O   UNK N   1      22.147  20.110   3.523  0.00  0.00    -0.195 OA
BRANCH  26  27
HETATM   27  P   UNK N   1      21.133  20.293   2.120  0.00  0.00     0.399 P 
HETATM   28  O   UNK N   1      20.384  21.155   3.171  0.00  0.00    -0.631 OA
BRANCH  27  29
HETATM   29  O   UNK N   1      19.538  19.609   2.101  0.00  0.00    -0.307 OA
HETATM   30  H   UNK N   1      19.295  18.864   1.529  0.00  0.00     0.222 HD
ENDBRANCH  27  29
BRANCH  27  31
HETATM   31  O   UNK N   1      21.156  18.633   2.629  0.00  0.00    -0.307 OA
HETATM   32  H   UNK N   1      21.529  18.265   3.446  0.00  0.00     0.222 HD
ENDBRANCH  27  31
ENDBRANCH  26  27
ENDBRANCH  24  26
BRANCH  24  33
HETATM   33  O   UNK N   1      21.195  19.536   5.174  0.00  0.00    -0.307 OA
HETATM   34  H   UNK N   1      21.164  19.408   6.135  0.00  0.00     0.222 HD
ENDBRANCH  24  33
ENDBRANCH  23  24
ENDBRANCH  22  23
ENDBRANCH   1  22
BRANCH   3  35
HETATM   35  O   UNK N   1      20.772  18.444   7.749  0.00  0.00    -0.393 OA
HETATM   36  H   UNK N   1      20.904  19.359   7.456  0.00  0.00     0.210 HD
ENDBRANCH   3  35
TORSDOF 10
ENDMDL
MODEL 8
REMARK VINA RESULT:      -7.0     13.471     14.915
REMARK  10 active torsions:
REMARK  status: ('A' for Active; 'I' for Inactive)
REMARK    1  A    between atoms: C_17  and  N_2 
REMARK       I    between atoms: N_13  and  C_10 
REMARK    2  A    between atoms: C_14  and  C_20 
REMARK    3  A    between atoms: C_16  and  O_19 
REMARK    4  A    between atoms: O_21  and  C_20 
REMARK    5  A    between atoms: P_25  and  O_21 
REMARK    6  A    between atoms: P_23  and  O_22 
REMARK    7  A    between atoms: O_24  and  P_23 
REMARK    8  A    between atoms: O_28  and  P_23 
REMARK    9  A    between atoms: P_25  and  O_24 
REMARK   10  A    between atoms: O_29  and  P_25 
ROOT
HETATM    1  C   UNK N   1      35.444  13.145  12.222  0.00  0.00     0.177 C 
HETATM    2  O   UNK N   1      36.479  12.982  13.145  0.00  0.00    -0.356 OA
HETATM    3  C   UNK N   1      35.207  11.773  11.662  0.00  0.00     0.153 C 
HETATM    4  C   UNK N   1      36.114  11.792  13.811  0.00  0.00     0.233 C 
HETATM    5  C   UNK N   1      35.076  11.052  12.968  0.00  0.00     0.088 C 
ENDROOT
BRANCH   4   6
HETATM    6  N   UNK N   1      35.648  12.099  15.164  0.00  0.00    -0.299 N 
HETATM    7  C   UNK N   1      35.907  13.170  15.935  0.00  0.00     0.159 A 
HETATM    8  C   UNK N   1      35.392  12.966  17.163  0.00  0.00     0.147 A 
HETATM    9  N   UNK N   1      36.621  14.284  15.623  0.00  0.00    -0.174 N 
HETATM   10  N   UNK N   1      34.772  11.771  17.206  0.00  0.00    -0.345 N 
HETATM   11  C   UNK N   1      35.580  13.901  18.165  0.00  0.00     0.290 A 
HETATM   12  C   UNK N   1      34.956  11.249  15.962  0.00  0.00     0.188 A 
ATOM     13  HN  UNK N   1      34.277  11.352  17.994  1.00  0.00     0.167 HD
HETATM   14  N   UNK N   1      36.295  15.036  17.860  0.00  0.00    -0.154 N 
HETATM   15  O   UNK N   1      35.150  13.722  19.290  0.00  0.00    -0.265 OA
HETATM   16  C   UNK N   1      36.805  15.228  16.601  0.00  0.00     0.680 A 
HETATM   17  H   UNK N   1      36.441  15.720  18.554  0.00  0.00     0.187 HD
HETATM   18  N   UNK N   1      37.534  16.400  16.323  0.00  0.00    -0.234 N 
HETATM   19  H   UNK N   1      37.704  17.076  17.019  0.00  0.00     0.174 HD
HETATM   20  H   UNK N   1      37.882  16.548  15.415  0.00  0.00     0.174 HD
ATOM     21  HN  UNK N   1      37.007  14.415  14.688  1.00  0.00     0.186 HD
ENDBRANCH   4   6
BRANCH   1  22
HETATM   22  C   UNK N   1      35.738  14.215  11.194  0.00  0.00     0.215 C 
BRANCH  22  23
HETATM   23  O   UNK N   1      34.519  14.721  10.729  0.00  0.00    -0.294 OA
BRANCH  23  24
HETATM   24  P   UNK N   1      34.888  15.543   9.239  0.00  0.00     0.401 P 
HETATM   25  O   UNK N   1      36.079  15.970  10.136  0.00  0.00    -0.631 OA
BRANCH  24  26
HETATM   26  O   UNK N   1      34.817  17.281   9.155  0.00  0.00    -0.195 OA
BRANCH  26  27
HETATM   27  P   UNK N   1      33.723  17.639   7.849  0.00  0.00     0.399 P 
HETATM   28  O   UNK N   1      34.324  16.279   7.400  0.00  0.00    -0.631 OA
BRANCH  27  29
HETATM   29  O   UNK N   1      34.340  18.002   6.268  0.00  0.00    -0.307 OA
HETATM   30  H   UNK N   1      34.525  18.908   5.974  0.00  0.00     0.222 HD
ENDBRANCH  27  29
BRANCH  27  31
HETATM   31  O   UNK N   1      34.975  18.839   7.924  0.00  0.00    -0.307 OA
HETATM   32  H   UNK N   1      35.496  19.203   7.191  0.00  0.00     0.222 HD
ENDBRANCH  27  31
ENDBRANCH  26  27
ENDBRANCH  24  26
BRANCH  24  33
HETATM   33  O   UNK N   1      33.403  16.114   9.931  0.00  0.00    -0.307 OA
HETATM   34  H   UNK N   1      32.648  15.561  10.184  0.00  0.00     0.222 HD
ENDBRANCH  24  33
ENDBRANCH  23  24
ENDBRANCH  22  23
ENDBRANCH   1  22
BRANCH   3  35
HETATM   35  O   UNK N   1      34.028  11.702  10.922  0.00  0.00    -0.393 OA
HETATM   36  H   UNK N   1      33.585  11.403  10.113  0.00  0.00     0.210 HD
ENDBRANCH   3  35
TORSDOF 10
ENDMDL
MODEL 9
REMARK VINA RESULT:      -7.0      8.686     10.815
REMARK  10 active torsions:
REMARK  status: ('A' for Active; 'I' for Inactive)
REMARK    1  A    between atoms: C_17  and  N_2 
REMARK       I    between atoms: N_13  and  C_10 
REMARK    2  A    between atoms: C_14  and  C_20 
REMARK    3  A    between atoms: C_16  and  O_19 
REMARK    4  A    between atoms: O_21  and  C_20 
REMARK    5  A    between atoms: P_25  and  O_21 
REMARK    6  A    between atoms: P_23  and  O_22 
REMARK    7  A    between atoms: O_24  and  P_23 
REMARK    8  A    between atoms: O_28  and  P_23 
REMARK    9  A    between atoms: P_25  and  O_24 
REMARK   10  A    between atoms: O_29  and  P_25 
ROOT
HETATM    1  C   UNK N   1      30.340  17.527   8.290  0.00  0.00     0.177 C 
HETATM    2  O   UNK N   1      29.757  18.093   7.155  0.00  0.00    -0.356 OA
HETATM    3  C   UNK N   1      29.365  17.794   9.399  0.00  0.00     0.153 C 
HETATM    4  C   UNK N   1      28.406  17.702   7.274  0.00  0.00     0.233 C 
HETATM    5  C   UNK N   1      28.145  17.261   8.714  0.00  0.00     0.088 C 
ENDROOT
BRANCH   4   6
HETATM    6  N   UNK N   1      28.096  16.667   6.287  0.00  0.00    -0.299 N 
HETATM    7  C   UNK N   1      28.709  16.383   5.125  0.00  0.00     0.159 A 
HETATM    8  C   UNK N   1      27.996  15.449   4.465  0.00  0.00     0.147 A 
HETATM    9  N   UNK N   1      29.828  16.948   4.598  0.00  0.00    -0.174 N 
HETATM   10  N   UNK N   1      26.921  15.094   5.195  0.00  0.00    -0.345 N 
HETATM   11  C   UNK N   1      28.387  15.030   3.206  0.00  0.00     0.290 A 
HETATM   12  C   UNK N   1      26.998  15.871   6.311  0.00  0.00     0.188 A 
ATOM     13  HN  UNK N   1      26.210  14.401   4.963  1.00  0.00     0.167 HD
HETATM   14  N   UNK N   1      29.522  15.590   2.665  0.00  0.00    -0.154 N 
HETATM   15  O   UNK N   1      27.741  14.210   2.580  0.00  0.00    -0.265 OA
HETATM   16  C   UNK N   1      30.238  16.534   3.356  0.00  0.00     0.680 A 
HETATM   17  H   UNK N   1      29.825  15.307   1.772  0.00  0.00     0.187 HD
HETATM   18  N   UNK N   1      31.393  17.088   2.773  0.00  0.00    -0.234 N 
HETATM   19  H   UNK N   1      31.687  16.827   1.870  0.00  0.00     0.174 HD
HETATM   20  H   UNK N   1      31.918  17.750   3.278  0.00  0.00     0.174 HD
ATOM     21  HN  UNK N   1      30.348  17.658   5.113  1.00  0.00     0.186 HD
ENDBRANCH   4   6
BRANCH   1  22
HETATM   22  C   UNK N   1      31.746  18.026   8.538  0.00  0.00     0.215 C 
BRANCH  22  23
HETATM   23  O   UNK N   1      32.525  16.946   8.968  0.00  0.00    -0.294 OA
BRANCH  23  24
HETATM   24  P   UNK N   1      34.142  17.281   8.415  0.00  0.00     0.401 P 
HETATM   25  O   UNK N   1      33.405  18.594   8.044  0.00  0.00    -0.631 OA
BRANCH  24  26
HETATM   26  O   UNK N   1      34.473  17.429   6.711  0.00  0.00    -0.195 OA
BRANCH  26  27
HETATM   27  P   UNK N   1      33.772  16.015   5.977  0.00  0.00     0.399 P 
HETATM   28  O   UNK N   1      35.263  15.884   5.564  0.00  0.00    -0.631 OA
BRANCH  27  29
HETATM   29  O   UNK N   1      33.675  15.886   4.249  0.00  0.00    -0.307 OA
HETATM   30  H   UNK N   1      34.096  15.165   3.754  0.00  0.00     0.222 HD
ENDBRANCH  27  29
BRANCH  27  31
HETATM   31  O   UNK N   1      33.092  17.451   5.277  0.00  0.00    -0.307 OA
HETATM   32  H   UNK N   1      33.534  18.106   4.714  0.00  0.00     0.222 HD
ENDBRANCH  27  31
ENDBRANCH  26  27
ENDBRANCH  24  26
BRANCH  24  33
HETATM   33  O   UNK N   1      33.435  15.952   7.551  0.00  0.00    -0.307 OA
HETATM   34  H   UNK N   1      32.494  15.853   7.338  0.00  0.00     0.222 HD
ENDBRANCH  24  33
ENDBRANCH  23  24
ENDBRANCH  22  23
ENDBRANCH   1  22
BRANCH   3  35
HETATM   35  O   UNK N   1      29.661  17.065  10.549  0.00  0.00    -0.393 OA
HETATM   36  H   UNK N   1      30.122  17.030  11.402  0.00  0.00     0.210 HD
ENDBRANCH   3  35
TORSDOF 10
ENDMDL
