MODEL 1
REMARK VINA RESULT:      -4.7      0.000      0.000
REMARK  4 active torsions:
REMARK  status: ('A' for Active; 'I' for Inactive)
REMARK    1  A    between atoms: O_1  and  C_2 
REMARK    2  A    between atoms: C_3  and  C_2 
REMARK    3  A    between atoms: C_6  and  O_7 
REMARK    4  A    between atoms: C_8  and  O_9 
ROOT
HETATM    1  C   UNK N   1      20.035  18.665   1.905  0.00  0.00     0.131 C 
HETATM    2  N   UNK N   1      20.242  18.525   3.340  0.00  0.00    -0.410 N 
HETATM    3  C   UNK N   1      20.781  19.818   3.778  0.00  0.00     0.148 C 
HETATM    4  C   UNK N   1      20.808  20.720   2.562  0.00  0.00     0.166 C 
HETATM    5  C   UNK N   1      21.000  19.732   1.456  0.00  0.00     0.172 C 
HETATM    6  H   UNK N   1      20.053  17.705   3.917  0.00  0.00     0.153 HD
ENDROOT
BRANCH   1   7
HETATM    7  C   UNK N   1      20.252  17.342   1.188  0.00  0.00     0.191 C 
BRANCH   7   8
HETATM    8  O   UNK N   1      20.242  17.539  -0.193  0.00  0.00    -0.399 OA
HETATM    9  H   UNK N   1      19.451  17.841  -0.668  0.00  0.00     0.209 HD
ENDBRANCH   7   8
ENDBRANCH   1   7
BRANCH   5  10
HETATM   10  O   UNK N   1      20.638  20.275   0.224  0.00  0.00    -0.391 OA
HETATM   11  H   UNK N   1      21.088  20.087  -0.615  0.00  0.00     0.210 HD
ENDBRANCH   5  10
BRANCH   4  12
HETATM   12  O   UNK N   1      21.871  21.622   2.623  0.00  0.00    -0.391 OA
HETATM   13  H   UNK N   1      22.727  21.510   3.065  0.00  0.00     0.210 HD
ENDBRANCH   4  12
TORSDOF 4
ENDMDL
MODEL 2
REMARK VINA RESULT:      -4.4     22.424     23.132
REMARK  4 active torsions:
REMARK  status: ('A' for Active; 'I' for Inactive)
REMARK    1  A    between atoms: O_1  and  C_2 
REMARK    2  A    between atoms: C_3  and  C_2 
REMARK    3  A    between atoms: C_6  and  O_7 
REMARK    4  A    between atoms: C_8  and  O_9 
ROOT
HETATM    1  C   UNK N   1      42.570  22.078   2.967  0.00  0.00     0.131 C 
HETATM    2  N   UNK N   1      43.083  20.763   2.608  0.00  0.00    -0.410 N 
HETATM    3  C   UNK N   1      44.369  20.649   3.307  0.00  0.00     0.148 C 
HETATM    4  C   UNK N   1      44.537  21.910   4.130  0.00  0.00     0.166 C 
HETATM    5  C   UNK N   1      43.779  22.908   3.315  0.00  0.00     0.172 C 
HETATM    6  H   UNK N   1      42.645  20.070   2.002  0.00  0.00     0.153 HD
ENDROOT
BRANCH   1   7
HETATM    7  C   UNK N   1      41.756  22.677   1.832  0.00  0.00     0.191 C 
BRANCH   7   8
HETATM    8  O   UNK N   1      41.326  23.959   2.176  0.00  0.00    -0.399 OA
HETATM    9  H   UNK N   1      40.998  24.590   1.517  0.00  0.00     0.209 HD
ENDBRANCH   7   8
ENDBRANCH   1   7
BRANCH   5  10
HETATM   10  O   UNK N   1      43.441  24.028   4.072  0.00  0.00    -0.391 OA
HETATM   11  H   UNK N   1      42.581  24.478   4.039  0.00  0.00     0.210 HD
ENDBRANCH   5  10
BRANCH   4  12
HETATM   12  O   UNK N   1      45.881  22.267   4.242  0.00  0.00    -0.391 OA
HETATM   13  H   UNK N   1      46.309  23.090   3.957  0.00  0.00     0.210 HD
ENDBRANCH   4  12
TORSDOF 4
ENDMDL
MODEL 3
REMARK VINA RESULT:      -4.2      1.978      3.052
REMARK  4 active torsions:
REMARK  status: ('A' for Active; 'I' for Inactive)
REMARK    1  A    between atoms: O_1  and  C_2 
REMARK    2  A    between atoms: C_3  and  C_2 
REMARK    3  A    between atoms: C_6  and  O_7 
REMARK    4  A    between atoms: C_8  and  O_9 
ROOT
HETATM    1  C   UNK N   1      20.916  19.075   2.196  0.00  0.00     0.131 C 
HETATM    2  N   UNK N   1      21.480  19.271   3.524  0.00  0.00    -0.410 N 
HETATM    3  C   UNK N   1      20.892  18.211   4.351  0.00  0.00     0.148 C 
HETATM    4  C   UNK N   1      20.031  17.364   3.437  0.00  0.00     0.166 C 
HETATM    5  C   UNK N   1      19.604  18.363   2.410  0.00  0.00     0.172 C 
HETATM    6  H   UNK N   1      22.142  19.989   3.817  0.00  0.00     0.153 HD
ENDROOT
BRANCH   1   7
HETATM    7  C   UNK N   1      20.749  20.400   1.470  0.00  0.00     0.191 C 
BRANCH   7   8
HETATM    8  O   UNK N   1      20.655  20.185   0.095  0.00  0.00    -0.399 OA
HETATM    9  H   UNK N   1      19.828  19.913  -0.332  0.00  0.00     0.209 HD
ENDBRANCH   7   8
ENDBRANCH   1   7
BRANCH   5  10
HETATM   10  O   UNK N   1      19.157  17.736   1.248  0.00  0.00    -0.391 OA
HETATM   11  H   UNK N   1      18.409  18.040   0.710  0.00  0.00     0.210 HD
ENDBRANCH   5  10
BRANCH   4  12
HETATM   12  O   UNK N   1      18.932  16.839   4.117  0.00  0.00    -0.391 OA
HETATM   13  H   UNK N   1      18.442  16.025   3.926  0.00  0.00     0.210 HD
ENDBRANCH   4  12
TORSDOF 4
ENDMDL
MODEL 4
REMARK VINA RESULT:      -4.1     10.793     11.422
REMARK  4 active torsions:
REMARK  status: ('A' for Active; 'I' for Inactive)
REMARK    1  A    between atoms: O_1  and  C_2 
REMARK    2  A    between atoms: C_3  and  C_2 
REMARK    3  A    between atoms: C_6  and  O_7 
REMARK    4  A    between atoms: C_8  and  O_9 
ROOT
HETATM    1  C   UNK N   1      22.213  12.779   9.705  0.00  0.00     0.131 C 
HETATM    2  N   UNK N   1      23.247  13.436   8.917  0.00  0.00    -0.410 N 
HETATM    3  C   UNK N   1      24.514  13.053   9.551  0.00  0.00     0.148 C 
HETATM    4  C   UNK N   1      24.173  12.101  10.679  0.00  0.00     0.166 C 
HETATM    5  C   UNK N   1      22.811  12.573  11.073  0.00  0.00     0.172 C 
HETATM    6  H   UNK N   1      23.119  14.035   8.101  0.00  0.00     0.153 HD
ENDROOT
BRANCH   1   7
HETATM    7  C   UNK N   1      20.941  13.609   9.742  0.00  0.00     0.191 C 
BRANCH   7   8
HETATM    8  O   UNK N   1      19.975  12.972  10.521  0.00  0.00    -0.399 OA
HETATM    9  H   UNK N   1      19.361  13.462  11.090  0.00  0.00     0.209 HD
ENDBRANCH   7   8
ENDBRANCH   1   7
BRANCH   5  10
HETATM   10  O   UNK N   1      22.127  11.598  11.798  0.00  0.00    -0.391 OA
HETATM   11  H   UNK N   1      21.389  11.070  11.453  0.00  0.00     0.210 HD
ENDBRANCH   5  10
BRANCH   4  12
HETATM   12  O   UNK N   1      25.075  12.224  11.736  0.00  0.00    -0.391 OA
HETATM   13  H   UNK N   1      24.969  11.926  12.653  0.00  0.00     0.210 HD
ENDBRANCH   4  12
TORSDOF 4
ENDMDL
MODEL 5
REMARK VINA RESULT:      -4.1     18.511     19.363
REMARK  4 active torsions:
REMARK  status: ('A' for Active; 'I' for Inactive)
REMARK    1  A    between atoms: O_1  and  C_2 
REMARK    2  A    between atoms: C_3  and  C_2 
REMARK    3  A    between atoms: C_6  and  O_7 
REMARK    4  A    between atoms: C_8  and  O_9 
ROOT
HETATM    1  C   UNK N   1      36.347  13.813  11.165  0.00  0.00     0.131 C 
HETATM    2  N   UNK N   1      37.439  13.246  11.946  0.00  0.00    -0.410 N 
HETATM    3  C   UNK N   1      36.825  12.819  13.209  0.00  0.00     0.148 C 
HETATM    4  C   UNK N   1      35.340  13.095  13.095  0.00  0.00     0.166 C 
HETATM    5  C   UNK N   1      35.321  14.270  12.170  0.00  0.00     0.172 C 
HETATM    6  H   UNK N   1      38.418  13.163  11.674  0.00  0.00     0.153 HD
ENDROOT
BRANCH   1   7
HETATM    7  C   UNK N   1      36.838  14.944  10.277  0.00  0.00     0.191 C 
BRANCH   7   8
HETATM    8  O   UNK N   1      36.723  16.163  10.946  0.00  0.00    -0.399 OA
HETATM    9  H   UNK N   1      36.050  16.822  10.712  0.00  0.00     0.209 HD
ENDBRANCH   7   8
ENDBRANCH   1   7
BRANCH   5  10
HETATM   10  O   UNK N   1      34.064  14.437  11.591  0.00  0.00    -0.391 OA
HETATM   11  H   UNK N   1      33.722  13.909  10.852  0.00  0.00     0.210 HD
ENDBRANCH   5  10
BRANCH   4  12
HETATM   12  O   UNK N   1      34.789  13.419  14.335  0.00  0.00    -0.391 OA
HETATM   13  H   UNK N   1      34.436  12.818  15.009  0.00  0.00     0.210 HD
ENDBRANCH   4  12
TORSDOF 4
ENDMDL
MODEL 6
REMARK VINA RESULT:      -4.1     17.341     18.272
REMARK  4 active torsions:
REMARK  status: ('A' for Active; 'I' for Inactive)
REMARK    1  A    between atoms: O_1  and  C_2 
REMARK    2  A    between atoms: C_3  and  C_2 
REMARK    3  A    between atoms: C_6  and  O_7 
REMARK    4  A    between atoms: C_8  and  O_9 
ROOT
HETATM    1  C   UNK N   1      35.785  14.179  11.405  0.00  0.00     0.131 C 
HETATM    2  N   UNK N   1      34.367  13.852  11.336  0.00  0.00    -0.410 N 
HETATM    3  C   UNK N   1      33.759  14.939  10.560  0.00  0.00     0.148 C 
HETATM    4  C   UNK N   1      34.885  15.856  10.129  0.00  0.00     0.166 C 
HETATM    5  C   UNK N   1      35.866  15.675  11.241  0.00  0.00     0.172 C 
HETATM    6  H   UNK N   1      33.897  13.042  11.741  0.00  0.00     0.153 HD
ENDROOT
BRANCH   1   7
HETATM    7  C   UNK N   1      36.395  13.700  12.711  0.00  0.00     0.191 C 
BRANCH   7   8
HETATM    8  O   UNK N   1      36.756  14.793  13.500  0.00  0.00    -0.399 OA
HETATM    9  H   UNK N   1      36.120  15.256  14.067  0.00  0.00     0.209 HD
ENDBRANCH   7   8
ENDBRANCH   1   7
BRANCH   5  10
HETATM   10  O   UNK N   1      37.143  16.088  10.862  0.00  0.00    -0.391 OA
HETATM   11  H   UNK N   1      37.755  15.562  10.323  0.00  0.00     0.210 HD
ENDBRANCH   5  10
BRANCH   4  12
HETATM   12  O   UNK N   1      34.455  17.181  10.045  0.00  0.00    -0.391 OA
HETATM   13  H   UNK N   1      34.542  17.882  10.710  0.00  0.00     0.210 HD
ENDBRANCH   4  12
TORSDOF 4
ENDMDL
MODEL 7
REMARK VINA RESULT:      -4.1     11.461     12.223
REMARK  4 active torsions:
REMARK  status: ('A' for Active; 'I' for Inactive)
REMARK    1  A    between atoms: O_1  and  C_2 
REMARK    2  A    between atoms: C_3  and  C_2 
REMARK    3  A    between atoms: C_6  and  O_7 
REMARK    4  A    between atoms: C_8  and  O_9 
ROOT
HETATM    1  C   UNK N   1      23.536  11.618  11.343  0.00  0.00     0.131 C 
HETATM    2  N   UNK N   1      22.504  11.252  10.383  0.00  0.00    -0.410 N 
HETATM    3  C   UNK N   1      23.029  11.668   9.077  0.00  0.00     0.148 C 
HETATM    4  C   UNK N   1      24.421  12.217   9.316  0.00  0.00     0.166 C 
HETATM    5  C   UNK N   1      24.301  12.750  10.708  0.00  0.00     0.172 C 
HETATM    6  H   UNK N   1      21.608  10.803  10.575  0.00  0.00     0.153 HD
ENDROOT
BRANCH   1   7
HETATM    7  C   UNK N   1      22.927  12.003  12.682  0.00  0.00     0.191 C 
BRANCH   7   8
HETATM    8  O   UNK N   1      23.932  12.380  13.573  0.00  0.00    -0.399 OA
HETATM    9  H   UNK N   1      23.966  12.051  14.486  0.00  0.00     0.209 HD
ENDBRANCH   7   8
ENDBRANCH   1   7
BRANCH   5  10
HETATM   10  O   UNK N   1      25.555  12.923  11.292  0.00  0.00    -0.391 OA
HETATM   11  H   UNK N   1      26.247  12.243  11.326  0.00  0.00     0.210 HD
ENDBRANCH   5  10
BRANCH   4  12
HETATM   12  O   UNK N   1      24.726  13.234   8.411  0.00  0.00    -0.391 OA
HETATM   13  H   UNK N   1      24.991  14.147   8.602  0.00  0.00     0.210 HD
ENDBRANCH   4  12
TORSDOF 4
ENDMDL
MODEL 8
REMARK VINA RESULT:      -4.1     17.226     18.093
REMARK  4 active torsions:
REMARK  status: ('A' for Active; 'I' for Inactive)
REMARK    1  A    between atoms: O_1  and  C_2 
REMARK    2  A    between atoms: C_3  and  C_2 
REMARK    3  A    between atoms: C_6  and  O_7 
REMARK    4  A    between atoms: C_8  and  O_9 
ROOT
HETATM    1  C   UNK N   1      35.551  15.325  10.601  0.00  0.00     0.131 C 
HETATM    2  N   UNK N   1      36.832  14.846  11.102  0.00  0.00    -0.410 N 
HETATM    3  C   UNK N   1      36.511  13.664  11.910  0.00  0.00     0.148 C 
HETATM    4  C   UNK N   1      35.017  13.444  11.796  0.00  0.00     0.166 C 
HETATM    5  C   UNK N   1      34.520  14.839  11.587  0.00  0.00     0.172 C 
HETATM    6  H   UNK N   1      37.755  15.246  10.929  0.00  0.00     0.153 HD
ENDROOT
BRANCH   1   7
HETATM    7  C   UNK N   1      35.551  16.838  10.455  0.00  0.00     0.191 C 
BRANCH   7   8
HETATM    8  O   UNK N   1      34.339  17.266   9.912  0.00  0.00    -0.399 OA
HETATM    9  H   UNK N   1      33.738  16.664   9.445  0.00  0.00     0.209 HD
ENDBRANCH   7   8
ENDBRANCH   1   7
BRANCH   5  10
HETATM   10  O   UNK N   1      33.237  14.842  11.042  0.00  0.00    -0.391 OA
HETATM   11  H   UNK N   1      32.889  15.532  10.455  0.00  0.00     0.210 HD
ENDBRANCH   5  10
BRANCH   4  12
HETATM   12  O   UNK N   1      34.495  12.892  12.966  0.00  0.00    -0.391 OA
HETATM   13  H   UNK N   1      34.402  11.955  13.198  0.00  0.00     0.210 HD
ENDBRANCH   4  12
TORSDOF 4
ENDMDL
MODEL 9
REMARK VINA RESULT:      -3.9     14.683     15.148
REMARK  4 active torsions:
REMARK  status: ('A' for Active; 'I' for Inactive)
REMARK    1  A    between atoms: O_1  and  C_2 
REMARK    2  A    between atoms: C_3  and  C_2 
REMARK    3  A    between atoms: C_6  and  O_7 
REMARK    4  A    between atoms: C_8  and  O_9 
ROOT
HETATM    1  C   UNK N   1      33.424  15.964   8.492  0.00  0.00     0.131 C 
HETATM    2  N   UNK N   1      33.074  16.372   7.138  0.00  0.00    -0.410 N 
HETATM    3  C   UNK N   1      33.851  17.592   6.892  0.00  0.00     0.148 C 
HETATM    4  C   UNK N   1      34.707  17.826   8.120  0.00  0.00     0.166 C 
HETATM    5  C   UNK N   1      33.864  17.222   9.196  0.00  0.00     0.172 C 
HETATM    6  H   UNK N   1      32.427  15.910   6.499  0.00  0.00     0.153 HD
ENDROOT
BRANCH   1   7
HETATM    7  C   UNK N   1      32.250  15.289   9.182  0.00  0.00     0.191 C 
BRANCH   7   8
HETATM    8  O   UNK N   1      32.541  15.083  10.531  0.00  0.00    -0.399 OA
HETATM    9  H   UNK N   1      33.379  14.692  10.827  0.00  0.00     0.209 HD
ENDBRANCH   7   8
ENDBRANCH   1   7
BRANCH   5  10
HETATM   10  O   UNK N   1      34.619  16.944  10.334  0.00  0.00    -0.391 OA
HETATM   11  H   UNK N   1      34.342  16.349  11.049  0.00  0.00     0.210 HD
ENDBRANCH   5  10
BRANCH   4  12
HETATM   12  O   UNK N   1      34.912  19.188   8.343  0.00  0.00    -0.391 OA
HETATM   13  H   UNK N   1      35.471  19.608   9.015  0.00  0.00     0.210 HD
ENDBRANCH   4  12
TORSDOF 4
ENDMDL
