MODEL 1
REMARK VINA RESULT:      -7.4      0.000      0.000
REMARK  13 active torsions:
REMARK  status: ('A' for Active; 'I' for Inactive)
REMARK    1  A    between atoms: C_6  and  C_2 
REMARK    2  A    between atoms: O_32  and  C_2 
REMARK    3  A    between atoms: C_7  and  C_5 
REMARK    4  A    between atoms: C_5  and  O_26 
REMARK    5  A    between atoms: C_13  and  C_7 
REMARK    6  A    between atoms: C_7  and  N_15 
REMARK    7  A    between atoms: C_9  and  O_27 
REMARK    8  A    between atoms: C_10  and  O_28 
REMARK    9  A    between atoms: N_16  and  C_11 
REMARK   10  A    between atoms: O_29  and  C_13 
REMARK   11  A    between atoms: C_14  and  N_25 
REMARK   12  A    between atoms: N_23  and  S_34 
REMARK   13  A    between atoms: S_34  and  O_32 
ROOT
HETATM    1  C   UNK N   1      34.720  17.198   9.060  0.00  0.00     0.180 C 
HETATM    2  C   UNK N   1      35.139  16.264   7.883  0.00  0.00     0.182 C 
HETATM    3  C   UNK N   1      33.970  16.409   6.953  0.00  0.00     0.198 C 
HETATM    4  C   UNK N   1      32.883  16.566   7.999  0.00  0.00     0.262 C 
HETATM    5  O   UNK N   1      33.365  17.560   8.863  0.00  0.00    -0.353 OA
ENDROOT
BRANCH   1   6
HETATM    6  C   UNK N   1      34.797  16.532  10.439  0.00  0.00     0.226 C 
BRANCH   6   7
HETATM    7  O   UNK N   1      36.102  16.181  10.791  0.00  0.00    -0.257 OA
BRANCH   7   8
HETATM    8  S   UNK N   1      35.943  14.775  11.729  0.00  0.00     0.363 S 
HETATM    9  O   UNK N   1      34.447  14.496  11.921  0.00  0.00    -0.175 OA
HETATM   10  O   UNK N   1      36.510  13.584  10.942  0.00  0.00    -0.175 OA
BRANCH   8  11
HETATM   11  N   UNK N   1      36.692  15.021  13.308  0.00  0.00    -0.243 N 
HETATM   12  C   UNK N   1      36.679  14.218  14.316  0.00  0.00     0.152 C 
ATOM     13  HN  UNK N   1      37.195  15.899  13.437  1.00  0.00     0.182 HD
BRANCH  12  14
HETATM   14  C   UNK N   1      35.891  12.920  14.320  0.00  0.00     0.179 C 
BRANCH  14  15
HETATM   15  C   UNK N   1      36.723  11.684  13.936  0.00  0.00     0.144 C 
HETATM   16  C   UNK N   1      37.052  10.798  15.130  0.00  0.00     0.042 C 
BRANCH  15  17
HETATM   17  O   UNK N   1      37.909  12.086  13.316  0.00  0.00    -0.393 OA
HETATM   18  H   UNK N   1      37.884  12.543  12.461  0.00  0.00     0.210 HD
ENDBRANCH  15  17
ENDBRANCH  14  15
BRANCH  14  19
HETATM   19  N   UNK N   1      35.311  12.718  15.642  0.00  0.00    -0.417 N 
HETATM   20  H   UNK N   1      35.895  12.488  16.444  0.00  0.00     0.150 HD
HETATM   21  H   UNK N   1      34.302  12.809  15.765  0.00  0.00     0.150 HD
ENDBRANCH  14  19
ENDBRANCH  12  14
BRANCH  12  22
HETATM   22  O   UNK N   1      37.406  14.556  15.400  0.00  0.00    -0.347 OA
HETATM   23  H   UNK N   1      38.287  14.462  15.705  0.00  0.00     0.219 HD
ENDBRANCH  12  22
ENDBRANCH   8  11
ENDBRANCH   7   8
ENDBRANCH   6   7
ENDBRANCH   1   6
BRANCH   2  24
HETATM   24  O   UNK N   1      35.185  14.917   8.271  0.00  0.00    -0.390 OA
HETATM   25  H   UNK N   1      34.588  14.237   8.621  0.00  0.00     0.210 HD
ENDBRANCH   2  24
BRANCH   3  26
HETATM   26  O   UNK N   1      34.088  17.587   6.208  0.00  0.00    -0.388 OA
HETATM   27  H   UNK N   1      34.421  18.097   5.452  0.00  0.00     0.210 HD
ENDBRANCH   3  26
BRANCH   4  28
HETATM   28  N   UNK N   1      31.583  16.888   7.433  0.00  0.00    -0.297 N 
HETATM   29  C   UNK N   1      31.145  16.738   6.156  0.00  0.00     0.188 A 
HETATM   30  N   UNK N   1      29.884  17.241   6.007  0.00  0.00    -0.346 N 
HETATM   31  C   UNK N   1      29.567  17.709   7.231  0.00  0.00     0.122 A 
ATOM     32  HN  UNK N   1      29.313  17.258   5.163  1.00  0.00     0.167 HD
HETATM   33  C   UNK N   1      28.426  18.356   7.675  0.00  0.00     0.131 A 
HETATM   34  C   UNK N   1      30.584  17.488   8.080  0.00  0.00     0.142 A 
HETATM   35  N   UNK N   1      28.377  18.745   8.986  0.00  0.00    -0.337 N 
HETATM   36  C   UNK N   1      29.431  18.503   9.835  0.00  0.00     0.183 A 
ATOM     37  HN  UNK N   1      27.547  19.221   9.339  1.00  0.00     0.168 HD
HETATM   38  N   UNK N   1      30.555  17.873   9.380  0.00  0.00    -0.336 N 
ATOM     39  HN  UNK N   1      31.347  17.698   9.998  1.00  0.00     0.168 HD
BRANCH  33  40
HETATM   40  N   UNK N   1      27.351  18.625   6.806  0.00  0.00    -0.383 N 
HETATM   41  H   UNK N   1      26.624  19.224   7.093  0.00  0.00     0.157 HD
HETATM   42  H   UNK N   1      27.327  18.215   5.912  0.00  0.00     0.157 HD
ENDBRANCH  33  40
ENDBRANCH   4  28
TORSDOF 13
ENDMDL
MODEL 2
REMARK VINA RESULT:      -7.3      3.398      5.341
REMARK  13 active torsions:
REMARK  status: ('A' for Active; 'I' for Inactive)
REMARK    1  A    between atoms: C_6  and  C_2 
REMARK    2  A    between atoms: O_32  and  C_2 
REMARK    3  A    between atoms: C_7  and  C_5 
REMARK    4  A    between atoms: C_5  and  O_26 
REMARK    5  A    between atoms: C_13  and  C_7 
REMARK    6  A    between atoms: C_7  and  N_15 
REMARK    7  A    between atoms: C_9  and  O_27 
REMARK    8  A    between atoms: C_10  and  O_28 
REMARK    9  A    between atoms: N_16  and  C_11 
REMARK   10  A    between atoms: O_29  and  C_13 
REMARK   11  A    between atoms: C_14  and  N_25 
REMARK   12  A    between atoms: N_23  and  S_34 
REMARK   13  A    between atoms: S_34  and  O_32 
ROOT
HETATM    1  C   UNK N   1      30.950  16.272   4.548  0.00  0.00     0.180 C 
HETATM    2  C   UNK N   1      30.175  15.032   5.092  0.00  0.00     0.182 C 
HETATM    3  C   UNK N   1      29.067  15.685   5.865  0.00  0.00     0.198 C 
HETATM    4  C   UNK N   1      29.834  16.898   6.353  0.00  0.00     0.262 C 
HETATM    5  O   UNK N   1      30.441  17.420   5.203  0.00  0.00    -0.353 OA
ENDROOT
BRANCH   1   6
HETATM    6  C   UNK N   1      32.456  16.239   4.834  0.00  0.00     0.226 C 
BRANCH   6   7
HETATM    7  O   UNK N   1      32.912  17.414   5.435  0.00  0.00    -0.257 OA
BRANCH   7   8
HETATM    8  S   UNK N   1      33.940  16.900   6.685  0.00  0.00     0.363 S 
HETATM    9  O   UNK N   1      35.066  16.064   6.064  0.00  0.00    -0.175 OA
HETATM   10  O   UNK N   1      34.609  18.129   7.318  0.00  0.00    -0.175 OA
BRANCH   8  11
HETATM   11  N   UNK N   1      33.040  15.899   7.827  0.00  0.00    -0.243 N 
HETATM   12  C   UNK N   1      33.505  15.251   8.839  0.00  0.00     0.152 C 
ATOM     13  HN  UNK N   1      32.035  15.826   7.668  1.00  0.00     0.182 HD
BRANCH  12  14
HETATM   14  C   UNK N   1      34.990  15.175   9.151  0.00  0.00     0.179 C 
BRANCH  14  15
HETATM   15  C   UNK N   1      35.464  16.212  10.184  0.00  0.00     0.144 C 
HETATM   16  C   UNK N   1      35.700  15.609  11.561  0.00  0.00     0.042 C 
BRANCH  15  17
HETATM   17  O   UNK N   1      34.528  17.244  10.282  0.00  0.00    -0.393 OA
HETATM   18  H   UNK N   1      34.352  17.820   9.522  0.00  0.00     0.210 HD
ENDBRANCH  15  17
ENDBRANCH  14  15
BRANCH  14  19
HETATM   19  N   UNK N   1      35.308  13.836   9.632  0.00  0.00    -0.417 N 
HETATM   20  H   UNK N   1      36.128  13.336   9.293  0.00  0.00     0.150 HD
HETATM   21  H   UNK N   1      34.698  13.392  10.319  0.00  0.00     0.150 HD
ENDBRANCH  14  19
ENDBRANCH  12  14
BRANCH  12  22
HETATM   22  O   UNK N   1      32.624  14.629   9.647  0.00  0.00    -0.347 OA
HETATM   23  H   UNK N   1      31.888  14.855  10.181  0.00  0.00     0.219 HD
ENDBRANCH  12  22
ENDBRANCH   8  11
ENDBRANCH   7   8
ENDBRANCH   6   7
ENDBRANCH   1   6
BRANCH   2  24
HETATM   24  O   UNK N   1      30.936  14.298   6.013  0.00  0.00    -0.390 OA
HETATM   25  H   UNK N   1      31.606  14.456   6.697  0.00  0.00     0.210 HD
ENDBRANCH   2  24
BRANCH   3  26
HETATM   26  O   UNK N   1      28.044  16.084   4.999  0.00  0.00    -0.388 OA
HETATM   27  H   UNK N   1      27.668  16.675   4.327  0.00  0.00     0.210 HD
ENDBRANCH   3  26
BRANCH   4  28
HETATM   28  N   UNK N   1      28.997  17.867   7.043  0.00  0.00    -0.297 N 
HETATM   29  C   UNK N   1      28.663  17.928   8.358  0.00  0.00     0.188 A 
HETATM   30  N   UNK N   1      27.783  18.944   8.595  0.00  0.00    -0.346 N 
HETATM   31  C   UNK N   1      27.583  19.499   7.382  0.00  0.00     0.122 A 
ATOM     32  HN  UNK N   1      27.371  19.220   9.486  1.00  0.00     0.167 HD
HETATM   33  C   UNK N   1      26.763  20.548   7.002  0.00  0.00     0.131 A 
HETATM   34  C   UNK N   1      28.316  18.855   6.461  0.00  0.00     0.142 A 
HETATM   35  N   UNK N   1      26.739  20.897   5.679  0.00  0.00    -0.337 N 
HETATM   36  C   UNK N   1      27.503  20.224   4.757  0.00  0.00     0.183 A 
ATOM     37  HN  UNK N   1      26.146  21.669   5.373  1.00  0.00     0.168 HD
HETATM   38  N   UNK N   1      28.299  19.183   5.145  0.00  0.00    -0.336 N 
ATOM     39  HN  UNK N   1      28.863  18.670   4.468  1.00  0.00     0.168 HD
BRANCH  33  40
HETATM   40  N   UNK N   1      25.961  21.230   7.938  0.00  0.00    -0.383 N 
HETATM   41  H   UNK N   1      25.359  20.725   8.531  0.00  0.00     0.157 HD
HETATM   42  H   UNK N   1      26.004  22.212   8.000  0.00  0.00     0.157 HD
ENDBRANCH  33  40
ENDBRANCH   4  28
TORSDOF 13
ENDMDL
MODEL 3
REMARK VINA RESULT:      -7.1      3.192      5.420
REMARK  13 active torsions:
REMARK  status: ('A' for Active; 'I' for Inactive)
REMARK    1  A    between atoms: C_6  and  C_2 
REMARK    2  A    between atoms: O_32  and  C_2 
REMARK    3  A    between atoms: C_7  and  C_5 
REMARK    4  A    between atoms: C_5  and  O_26 
REMARK    5  A    between atoms: C_13  and  C_7 
REMARK    6  A    between atoms: C_7  and  N_15 
REMARK    7  A    between atoms: C_9  and  O_27 
REMARK    8  A    between atoms: C_10  and  O_28 
REMARK    9  A    between atoms: N_16  and  C_11 
REMARK   10  A    between atoms: O_29  and  C_13 
REMARK   11  A    between atoms: C_14  and  N_25 
REMARK   12  A    between atoms: N_23  and  S_34 
REMARK   13  A    between atoms: S_34  and  O_32 
ROOT
HETATM    1  C   UNK N   1      30.168  16.957   7.956  0.00  0.00     0.180 C 
HETATM    2  C   UNK N   1      29.549  17.513   9.276  0.00  0.00     0.182 C 
HETATM    3  C   UNK N   1      28.287  18.149   8.772  0.00  0.00     0.198 C 
HETATM    4  C   UNK N   1      28.810  18.622   7.428  0.00  0.00     0.262 C 
HETATM    5  O   UNK N   1      29.430  17.494   6.873  0.00  0.00    -0.353 OA
ENDROOT
BRANCH   1   6
HETATM    6  C   UNK N   1      31.629  17.367   7.734  0.00  0.00     0.226 C 
BRANCH   6   7
HETATM    7  O   UNK N   1      32.384  16.354   7.139  0.00  0.00    -0.257 OA
BRANCH   7   8
HETATM    8  S   UNK N   1      33.980  16.934   7.141  0.00  0.00     0.363 S 
HETATM    9  O   UNK N   1      34.891  15.827   6.596  0.00  0.00    -0.175 OA
HETATM   10  O   UNK N   1      34.085  18.107   6.155  0.00  0.00    -0.175 OA
BRANCH   8  11
HETATM   11  N   UNK N   1      34.472  17.328   8.789  0.00  0.00    -0.243 N 
HETATM   12  C   UNK N   1      34.501  16.540   9.809  0.00  0.00     0.152 C 
ATOM     13  HN  UNK N   1      34.769  18.290   8.954  1.00  0.00     0.182 HD
BRANCH  12  14
HETATM   14  C   UNK N   1      33.995  15.109   9.754  0.00  0.00     0.179 C 
BRANCH  14  15
HETATM   15  C   UNK N   1      34.759  14.141  10.674  0.00  0.00     0.144 C 
HETATM   16  C   UNK N   1      34.719  12.702  10.181  0.00  0.00     0.042 C 
BRANCH  15  17
HETATM   17  O   UNK N   1      34.234  14.204  11.967  0.00  0.00    -0.393 OA
HETATM   18  H   UNK N   1      33.629  13.515  12.284  0.00  0.00     0.210 HD
ENDBRANCH  15  17
ENDBRANCH  14  15
BRANCH  14  19
HETATM   19  N   UNK N   1      32.580  15.090  10.103  0.00  0.00    -0.417 N 
HETATM   20  H   UNK N   1      31.992  14.289   9.876  0.00  0.00     0.150 HD
HETATM   21  H   UNK N   1      32.171  15.892  10.583  0.00  0.00     0.150 HD
ENDBRANCH  14  19
ENDBRANCH  12  14
BRANCH  12  22
HETATM   22  O   UNK N   1      35.012  17.019  10.960  0.00  0.00    -0.347 OA
HETATM   23  H   UNK N   1      34.700  17.426  11.744  0.00  0.00     0.219 HD
ENDBRANCH  12  22
ENDBRANCH   8  11
ENDBRANCH   7   8
ENDBRANCH   6   7
ENDBRANCH   1   6
BRANCH   2  24
HETATM   24  O   UNK N   1      30.328  18.537   9.832  0.00  0.00    -0.390 OA
HETATM   25  H   UNK N   1      30.213  19.317  10.397  0.00  0.00     0.210 HD
ENDBRANCH   2  24
BRANCH   3  26
HETATM   26  O   UNK N   1      27.298  17.179   8.584  0.00  0.00    -0.388 OA
HETATM   27  H   UNK N   1      26.513  16.685   8.869  0.00  0.00     0.210 HD
ENDBRANCH   3  26
BRANCH   4  28
HETATM   28  N   UNK N   1      27.773  19.178   6.573  0.00  0.00    -0.297 N 
HETATM   29  C   UNK N   1      27.316  20.455   6.502  0.00  0.00     0.188 A 
HETATM   30  N   UNK N   1      26.271  20.555   5.629  0.00  0.00    -0.346 N 
HETATM   31  C   UNK N   1      26.098  19.297   5.173  0.00  0.00     0.122 A 
ATOM     32  HN  UNK N   1      25.742  21.389   5.379  1.00  0.00     0.167 HD
HETATM   33  C   UNK N   1      25.164  18.785   4.288  0.00  0.00     0.131 A 
HETATM   34  C   UNK N   1      27.004  18.482   5.736  0.00  0.00     0.142 A 
HETATM   35  N   UNK N   1      25.207  17.446   4.013  0.00  0.00    -0.337 N 
HETATM   36  C   UNK N   1      26.147  16.633   4.600  0.00  0.00     0.183 A 
ATOM     37  HN  UNK N   1      24.532  17.044   3.362  1.00  0.00     0.168 HD
HETATM   38  N   UNK N   1      27.056  17.151   5.480  0.00  0.00    -0.336 N 
ATOM     39  HN  UNK N   1      27.751  16.556   5.930  1.00  0.00     0.168 HD
BRANCH  33  40
HETATM   40  N   UNK N   1      24.185  19.608   3.698  0.00  0.00    -0.383 N 
HETATM   41  H   UNK N   1      23.812  20.368   4.200  0.00  0.00     0.157 HD
HETATM   42  H   UNK N   1      23.873  19.423   2.783  0.00  0.00     0.157 HD
ENDBRANCH  33  40
ENDBRANCH   4  28
TORSDOF 13
ENDMDL
MODEL 4
REMARK VINA RESULT:      -7.0      2.440      8.710
REMARK  13 active torsions:
REMARK  status: ('A' for Active; 'I' for Inactive)
REMARK    1  A    between atoms: C_6  and  C_2 
REMARK    2  A    between atoms: O_32  and  C_2 
REMARK    3  A    between atoms: C_7  and  C_5 
REMARK    4  A    between atoms: C_5  and  O_26 
REMARK    5  A    between atoms: C_13  and  C_7 
REMARK    6  A    between atoms: C_7  and  N_15 
REMARK    7  A    between atoms: C_9  and  O_27 
REMARK    8  A    between atoms: C_10  and  O_28 
REMARK    9  A    between atoms: N_16  and  C_11 
REMARK   10  A    between atoms: O_29  and  C_13 
REMARK   11  A    between atoms: C_14  and  N_25 
REMARK   12  A    between atoms: N_23  and  S_34 
REMARK   13  A    between atoms: S_34  and  O_32 
ROOT
HETATM    1  C   UNK N   1      34.940  15.041   9.112  0.00  0.00     0.180 C 
HETATM    2  C   UNK N   1      35.155  16.493   9.643  0.00  0.00     0.182 C 
HETATM    3  C   UNK N   1      35.786  16.234  10.979  0.00  0.00     0.198 C 
HETATM    4  C   UNK N   1      35.046  14.955  11.321  0.00  0.00     0.262 C 
HETATM    5  O   UNK N   1      35.190  14.149  10.183  0.00  0.00    -0.353 OA
ENDROOT
BRANCH   1   6
HETATM    6  C   UNK N   1      33.511  14.760   8.633  0.00  0.00     0.226 C 
BRANCH   6   7
HETATM    7  O   UNK N   1      33.287  15.204   7.328  0.00  0.00    -0.257 OA
BRANCH   7   8
HETATM    8  S   UNK N   1      31.982  16.284   7.448  0.00  0.00     0.363 S 
HETATM    9  O   UNK N   1      32.526  17.710   7.292  0.00  0.00    -0.175 OA
HETATM   10  O   UNK N   1      31.031  16.049   6.265  0.00  0.00    -0.175 OA
BRANCH   8  11
HETATM   11  N   UNK N   1      31.219  16.127   9.031  0.00  0.00    -0.243 N 
HETATM   12  C   UNK N   1      30.300  16.877   9.538  0.00  0.00     0.152 C 
ATOM     13  HN  UNK N   1      31.541  15.354   9.613  1.00  0.00     0.182 HD
BRANCH  12  14
HETATM   14  C   UNK N   1      29.787  18.126   8.844  0.00  0.00     0.179 C 
BRANCH  14  15
HETATM   15  C   UNK N   1      28.342  18.006   8.330  0.00  0.00     0.144 C 
HETATM   16  C   UNK N   1      27.967  19.112   7.354  0.00  0.00     0.042 C 
BRANCH  15  17
HETATM   17  O   UNK N   1      27.454  18.019   9.409  0.00  0.00    -0.393 OA
HETATM   18  H   UNK N   1      26.901  18.797   9.579  0.00  0.00     0.210 HD
ENDBRANCH  15  17
ENDBRANCH  14  15
BRANCH  14  19
HETATM   19  N   UNK N   1      29.880  19.255   9.762  0.00  0.00    -0.417 N 
HETATM   20  H   UNK N   1      29.044  19.675  10.166  0.00  0.00     0.150 HD
HETATM   21  H   UNK N   1      30.798  19.629  10.005  0.00  0.00     0.150 HD
ENDBRANCH  14  19
ENDBRANCH  12  14
BRANCH  12  22
HETATM   22  O   UNK N   1      29.780  16.518  10.728  0.00  0.00    -0.347 OA
HETATM   23  H   UNK N   1      29.326  16.923  11.440  0.00  0.00     0.219 HD
ENDBRANCH  12  22
ENDBRANCH   8  11
ENDBRANCH   7   8
ENDBRANCH   6   7
ENDBRANCH   1   6
BRANCH   2  24
HETATM   24  O   UNK N   1      33.940  17.149   9.887  0.00  0.00    -0.390 OA
HETATM   25  H   UNK N   1      33.084  16.968  10.308  0.00  0.00     0.210 HD
ENDBRANCH   2  24
BRANCH   3  26
HETATM   26  O   UNK N   1      37.151  15.969  10.826  0.00  0.00    -0.388 OA
HETATM   27  H   UNK N   1      38.047  15.841  11.176  0.00  0.00     0.210 HD
ENDBRANCH   3  26
BRANCH   4  28
HETATM   28  N   UNK N   1      35.532  14.317  12.534  0.00  0.00    -0.297 N 
HETATM   29  C   UNK N   1      36.375  14.806  13.480  0.00  0.00     0.188 A 
HETATM   30  N   UNK N   1      36.656  13.861  14.424  0.00  0.00    -0.346 N 
HETATM   31  C   UNK N   1      35.964  12.776  14.022  0.00  0.00     0.122 A 
ATOM     32  HN  UNK N   1      37.253  13.955  15.245  1.00  0.00     0.167 HD
HETATM   33  C   UNK N   1      35.891  11.506  14.571  0.00  0.00     0.131 A 
HETATM   34  C   UNK N   1      35.290  13.057  12.896  0.00  0.00     0.142 A 
HETATM   35  N   UNK N   1      35.114  10.576  13.937  0.00  0.00    -0.337 N 
HETATM   36  C   UNK N   1      34.430  10.891  12.787  0.00  0.00     0.183 A 
ATOM     37  HN  UNK N   1      35.041   9.635  14.322  1.00  0.00     0.168 HD
HETATM   38  N   UNK N   1      34.521  12.145  12.251  0.00  0.00    -0.336 N 
ATOM     39  HN  UNK N   1      34.027  12.388  11.393  1.00  0.00     0.168 HD
BRANCH  33  40
HETATM   40  N   UNK N   1      36.605  11.170  15.738  0.00  0.00    -0.383 N 
HETATM   41  H   UNK N   1      36.221  10.533  16.384  0.00  0.00     0.157 HD
HETATM   42  H   UNK N   1      37.488  11.570  15.907  0.00  0.00     0.157 HD
ENDBRANCH  33  40
ENDBRANCH   4  28
TORSDOF 13
ENDMDL
MODEL 5
REMARK VINA RESULT:      -6.9     11.671     15.627
REMARK  13 active torsions:
REMARK  status: ('A' for Active; 'I' for Inactive)
REMARK    1  A    between atoms: C_6  and  C_2 
REMARK    2  A    between atoms: O_32  and  C_2 
REMARK    3  A    between atoms: C_7  and  C_5 
REMARK    4  A    between atoms: C_5  and  O_26 
REMARK    5  A    between atoms: C_13  and  C_7 
REMARK    6  A    between atoms: C_7  and  N_15 
REMARK    7  A    between atoms: C_9  and  O_27 
REMARK    8  A    between atoms: C_10  and  O_28 
REMARK    9  A    between atoms: N_16  and  C_11 
REMARK   10  A    between atoms: O_29  and  C_13 
REMARK   11  A    between atoms: C_14  and  N_25 
REMARK   12  A    between atoms: N_23  and  S_34 
REMARK   13  A    between atoms: S_34  and  O_32 
ROOT
HETATM    1  C   UNK N   1      21.772  16.260   6.389  0.00  0.00     0.180 C 
HETATM    2  C   UNK N   1      20.312  16.692   6.733  0.00  0.00     0.182 C 
HETATM    3  C   UNK N   1      20.105  16.022   8.060  0.00  0.00     0.198 C 
HETATM    4  C   UNK N   1      20.933  14.777   7.802  0.00  0.00     0.262 C 
HETATM    5  O   UNK N   1      22.156  15.261   7.316  0.00  0.00    -0.353 OA
ENDROOT
BRANCH   1   6
HETATM    6  C   UNK N   1      21.925  15.643   4.994  0.00  0.00     0.226 C 
BRANCH   6   7
HETATM    7  O   UNK N   1      21.689  16.566   3.973  0.00  0.00    -0.257 OA
BRANCH   7   8
HETATM    8  S   UNK N   1      20.893  15.686   2.758  0.00  0.00     0.363 S 
HETATM    9  O   UNK N   1      21.752  14.462   2.416  0.00  0.00    -0.175 OA
HETATM   10  O   UNK N   1      19.570  15.145   3.320  0.00  0.00    -0.175 OA
BRANCH   8  11
HETATM   11  N   UNK N   1      20.711  16.685   1.316  0.00  0.00    -0.243 N 
HETATM   12  C   UNK N   1      20.343  17.920   1.257  0.00  0.00     0.152 C 
ATOM     13  HN  UNK N   1      20.923  16.235   0.425  1.00  0.00     0.182 HD
BRANCH  12  14
HETATM   14  C   UNK N   1      19.894  18.700   2.480  0.00  0.00     0.179 C 
BRANCH  14  15
HETATM   15  C   UNK N   1      20.626  20.040   2.668  0.00  0.00     0.144 C 
HETATM   16  C   UNK N   1      22.134  19.877   2.797  0.00  0.00     0.042 C 
BRANCH  15  17
HETATM   17  O   UNK N   1      20.131  20.694   3.799  0.00  0.00    -0.393 OA
HETATM   18  H   UNK N   1      19.185  20.664   4.008  0.00  0.00     0.210 HD
ENDBRANCH  15  17
ENDBRANCH  14  15
BRANCH  14  19
HETATM   19  N   UNK N   1      18.460  18.942   2.392  0.00  0.00    -0.417 N 
HETATM   20  H   UNK N   1      17.789  18.184   2.514  0.00  0.00     0.150 HD
HETATM   21  H   UNK N   1      18.122  19.886   2.205  0.00  0.00     0.150 HD
ENDBRANCH  14  19
ENDBRANCH  12  14
BRANCH  12  22
HETATM   22  O   UNK N   1      20.370  18.528   0.055  0.00  0.00    -0.347 OA
HETATM   23  H   UNK N   1      19.854  19.145  -0.425  0.00  0.00     0.219 HD
ENDBRANCH  12  22
ENDBRANCH   8  11
ENDBRANCH   7   8
ENDBRANCH   6   7
ENDBRANCH   1   6
BRANCH   2  24
HETATM   24  O   UNK N   1      19.377  16.137   5.847  0.00  0.00    -0.390 OA
HETATM   25  H   UNK N   1      18.460  15.822   5.857  0.00  0.00     0.210 HD
ENDBRANCH   2  24
BRANCH   3  26
HETATM   26  O   UNK N   1      20.689  16.779   9.080  0.00  0.00    -0.388 OA
HETATM   27  H   UNK N   1      20.849  17.615   9.547  0.00  0.00     0.210 HD
ENDBRANCH   3  26
BRANCH   4  28
HETATM   28  N   UNK N   1      21.083  13.933   8.977  0.00  0.00    -0.297 N 
HETATM   29  C   UNK N   1      20.138  13.521   9.860  0.00  0.00     0.188 A 
HETATM   30  N   UNK N   1      20.697  12.807  10.880  0.00  0.00    -0.346 N 
HETATM   31  C   UNK N   1      22.016  12.801  10.597  0.00  0.00     0.122 A 
ATOM     32  HN  UNK N   1      20.225  12.376  11.675  1.00  0.00     0.167 HD
HETATM   33  C   UNK N   1      23.080  12.256  11.296  0.00  0.00     0.131 A 
HETATM   34  C   UNK N   1      22.238  13.470   9.455  0.00  0.00     0.142 A 
HETATM   35  N   UNK N   1      24.337  12.417  10.781  0.00  0.00    -0.337 N 
HETATM   36  C   UNK N   1      24.537  13.103   9.607  0.00  0.00     0.183 A 
ATOM     37  HN  UNK N   1      25.137  12.023  11.274  1.00  0.00     0.168 HD
HETATM   38  N   UNK N   1      23.478  13.646   8.934  0.00  0.00    -0.336 N 
ATOM     39  HN  UNK N   1      23.615  14.166   8.068  1.00  0.00     0.168 HD
BRANCH  33  40
HETATM   40  N   UNK N   1      22.885  11.569  12.510  0.00  0.00    -0.383 N 
HETATM   41  H   UNK N   1      23.136  11.993  13.362  0.00  0.00     0.157 HD
HETATM   42  H   UNK N   1      22.496  10.664  12.507  0.00  0.00     0.157 HD
ENDBRANCH  33  40
ENDBRANCH   4  28
TORSDOF 13
ENDMDL
MODEL 6
REMARK VINA RESULT:      -6.7      3.881      9.313
REMARK  13 active torsions:
REMARK  status: ('A' for Active; 'I' for Inactive)
REMARK    1  A    between atoms: C_6  and  C_2 
REMARK    2  A    between atoms: O_32  and  C_2 
REMARK    3  A    between atoms: C_7  and  C_5 
REMARK    4  A    between atoms: C_5  and  O_26 
REMARK    5  A    between atoms: C_13  and  C_7 
REMARK    6  A    between atoms: C_7  and  N_15 
REMARK    7  A    between atoms: C_9  and  O_27 
REMARK    8  A    between atoms: C_10  and  O_28 
REMARK    9  A    between atoms: N_16  and  C_11 
REMARK   10  A    between atoms: O_29  and  C_13 
REMARK   11  A    between atoms: C_14  and  N_25 
REMARK   12  A    between atoms: N_23  and  S_34 
REMARK   13  A    between atoms: S_34  and  O_32 
ROOT
HETATM    1  C   UNK N   1      32.017  16.505   7.871  0.00  0.00     0.180 C 
HETATM    2  C   UNK N   1      32.750  17.848   7.567  0.00  0.00     0.182 C 
HETATM    3  C   UNK N   1      34.132  17.558   8.075  0.00  0.00     0.198 C 
HETATM    4  C   UNK N   1      33.748  16.667   9.241  0.00  0.00     0.262 C 
HETATM    5  O   UNK N   1      32.869  15.724   8.690  0.00  0.00    -0.353 OA
ENDROOT
BRANCH   1   6
HETATM    6  C   UNK N   1      30.704  16.675   8.645  0.00  0.00     0.226 C 
BRANCH   6   7
HETATM    7  O   UNK N   1      29.724  17.332   7.897  0.00  0.00    -0.257 OA
BRANCH   7   8
HETATM    8  S   UNK N   1      28.746  18.115   9.043  0.00  0.00     0.363 S 
HETATM    9  O   UNK N   1      27.850  17.061   9.706  0.00  0.00    -0.175 OA
HETATM   10  O   UNK N   1      29.639  18.687  10.154  0.00  0.00    -0.175 OA
BRANCH   8  11
HETATM   11  N   UNK N   1      27.729  19.315   8.242  0.00  0.00    -0.243 N 
HETATM   12  C   UNK N   1      27.465  19.405   6.984  0.00  0.00     0.152 C 
ATOM     13  HN  UNK N   1      27.300  20.017   8.845  1.00  0.00     0.182 HD
BRANCH  12  14
HETATM   14  C   UNK N   1      28.105  18.501   5.945  0.00  0.00     0.179 C 
BRANCH  14  15
HETATM   15  C   UNK N   1      27.269  17.255   5.602  0.00  0.00     0.144 C 
HETATM   16  C   UNK N   1      26.135  17.553   4.632  0.00  0.00     0.042 C 
BRANCH  15  17
HETATM   17  O   UNK N   1      26.746  16.700   6.773  0.00  0.00    -0.393 OA
HETATM   18  H   UNK N   1      27.095  16.963   7.639  0.00  0.00     0.210 HD
ENDBRANCH  15  17
ENDBRANCH  14  15
BRANCH  14  19
HETATM   19  N   UNK N   1      28.347  19.268   4.729  0.00  0.00    -0.417 N 
HETATM   20  H   UNK N   1      27.585  19.508   4.097  0.00  0.00     0.150 HD
HETATM   21  H   UNK N   1      29.297  19.569   4.508  0.00  0.00     0.150 HD
ENDBRANCH  14  19
ENDBRANCH  12  14
BRANCH  12  22
HETATM   22  O   UNK N   1      26.576  20.340   6.593  0.00  0.00    -0.347 OA
HETATM   23  H   UNK N   1      26.205  20.656   5.793  0.00  0.00     0.219 HD
ENDBRANCH  12  22
ENDBRANCH   8  11
ENDBRANCH   7   8
ENDBRANCH   6   7
ENDBRANCH   1   6
BRANCH   2  24
HETATM   24  O   UNK N   1      32.248  18.908   8.335  0.00  0.00    -0.390 OA
HETATM   25  H   UNK N   1      32.582  19.632   8.887  0.00  0.00     0.210 HD
ENDBRANCH   2  24
BRANCH   3  26
HETATM   26  O   UNK N   1      34.851  16.821   7.129  0.00  0.00    -0.388 OA
HETATM   27  H   UNK N   1      35.490  16.746   6.402  0.00  0.00     0.210 HD
ENDBRANCH   3  26
BRANCH   4  28
HETATM   28  N   UNK N   1      34.893  16.059   9.900  0.00  0.00    -0.297 N 
HETATM   29  C   UNK N   1      35.620  16.520  10.950  0.00  0.00     0.188 A 
HETATM   30  N   UNK N   1      36.673  15.693  11.219  0.00  0.00    -0.346 N 
HETATM   31  C   UNK N   1      36.571  14.716  10.296  0.00  0.00     0.122 A 
ATOM     32  HN  UNK N   1      37.375  15.793  11.951  1.00  0.00     0.167 HD
HETATM   33  C   UNK N   1      37.382  13.618  10.060  0.00  0.00     0.131 A 
HETATM   34  C   UNK N   1      35.501  14.937   9.516  0.00  0.00     0.142 A 
HETATM   35  N   UNK N   1      37.050  12.784   9.027  0.00  0.00    -0.337 N 
HETATM   36  C   UNK N   1      35.947  13.031   8.246  0.00  0.00     0.183 A 
ATOM     37  HN  UNK N   1      37.629  11.967   8.835  1.00  0.00     0.168 HD
HETATM   38  N   UNK N   1      35.162  14.124   8.484  0.00  0.00    -0.336 N 
ATOM     39  HN  UNK N   1      34.347  14.323   7.905  1.00  0.00     0.168 HD
BRANCH  33  40
HETATM   40  N   UNK N   1      38.526  13.370  10.843  0.00  0.00    -0.383 N 
HETATM   41  H   UNK N   1      38.513  13.560  11.809  0.00  0.00     0.157 HD
HETATM   42  H   UNK N   1      39.339  13.005  10.425  0.00  0.00     0.157 HD
ENDBRANCH  33  40
ENDBRANCH   4  28
TORSDOF 13
ENDMDL
MODEL 7
REMARK VINA RESULT:      -6.6      5.677      7.611
REMARK  13 active torsions:
REMARK  status: ('A' for Active; 'I' for Inactive)
REMARK    1  A    between atoms: C_6  and  C_2 
REMARK    2  A    between atoms: O_32  and  C_2 
REMARK    3  A    between atoms: C_7  and  C_5 
REMARK    4  A    between atoms: C_5  and  O_26 
REMARK    5  A    between atoms: C_13  and  C_7 
REMARK    6  A    between atoms: C_7  and  N_15 
REMARK    7  A    between atoms: C_9  and  O_27 
REMARK    8  A    between atoms: C_10  and  O_28 
REMARK    9  A    between atoms: N_16  and  C_11 
REMARK   10  A    between atoms: O_29  and  C_13 
REMARK   11  A    between atoms: C_14  and  N_25 
REMARK   12  A    between atoms: N_23  and  S_34 
REMARK   13  A    between atoms: S_34  and  O_32 
ROOT
HETATM    1  C   UNK N   1      30.311  17.070   7.982  0.00  0.00     0.180 C 
HETATM    2  C   UNK N   1      29.517  17.371   9.291  0.00  0.00     0.182 C 
HETATM    3  C   UNK N   1      28.250  17.961   8.745  0.00  0.00     0.198 C 
HETATM    4  C   UNK N   1      28.845  18.667   7.542  0.00  0.00     0.262 C 
HETATM    5  O   UNK N   1      29.627  17.691   6.909  0.00  0.00    -0.353 OA
ENDROOT
BRANCH   1   6
HETATM    6  C   UNK N   1      31.737  17.635   7.976  0.00  0.00     0.226 C 
BRANCH   6   7
HETATM    7  O   UNK N   1      32.707  16.635   7.881  0.00  0.00    -0.257 OA
BRANCH   7   8
HETATM    8  S   UNK N   1      33.841  17.226   6.763  0.00  0.00     0.363 S 
HETATM    9  O   UNK N   1      34.582  18.403   7.412  0.00  0.00    -0.175 OA
HETATM   10  O   UNK N   1      34.895  16.141   6.500  0.00  0.00    -0.175 OA
BRANCH   8  11
HETATM   11  N   UNK N   1      33.011  17.796   5.314  0.00  0.00    -0.243 N 
HETATM   12  C   UNK N   1      32.247  17.117   4.529  0.00  0.00     0.152 C 
ATOM     13  HN  UNK N   1      33.152  18.776   5.069  1.00  0.00     0.182 HD
BRANCH  12  14
HETATM   14  C   UNK N   1      32.019  15.624   4.696  0.00  0.00     0.179 C 
BRANCH  14  15
HETATM   15  C   UNK N   1      30.669  15.133   4.145  0.00  0.00     0.144 C 
HETATM   16  C   UNK N   1      29.783  14.515   5.217  0.00  0.00     0.042 C 
BRANCH  15  17
HETATM   17  O   UNK N   1      30.885  14.202   3.126  0.00  0.00    -0.393 OA
HETATM   18  H   UNK N   1      30.875  14.481   2.197  0.00  0.00     0.210 HD
ENDBRANCH  15  17
ENDBRANCH  14  15
BRANCH  14  19
HETATM   19  N   UNK N   1      33.100  14.900   4.039  0.00  0.00    -0.417 N 
HETATM   20  H   UNK N   1      33.347  15.090   3.069  0.00  0.00     0.150 HD
HETATM   21  H   UNK N   1      33.618  14.192   4.560  0.00  0.00     0.150 HD
ENDBRANCH  14  19
ENDBRANCH  12  14
BRANCH  12  22
HETATM   22  O   UNK N   1      31.626  17.775   3.530  0.00  0.00    -0.347 OA
HETATM   23  H   UNK N   1      31.359  18.651   3.334  0.00  0.00     0.219 HD
ENDBRANCH  12  22
ENDBRANCH   8  11
ENDBRANCH   7   8
ENDBRANCH   6   7
ENDBRANCH   1   6
BRANCH   2  24
HETATM   24  O   UNK N   1      30.131  18.369  10.061  0.00  0.00    -0.390 OA
HETATM   25  H   UNK N   1      30.294  18.574  10.995  0.00  0.00     0.210 HD
ENDBRANCH   2  24
BRANCH   3  26
HETATM   26  O   UNK N   1      27.387  16.945   8.322  0.00  0.00    -0.388 OA
HETATM   27  H   UNK N   1      27.193  16.022   8.089  0.00  0.00     0.210 HD
ENDBRANCH   3  26
BRANCH   4  28
HETATM   28  N   UNK N   1      27.842  19.248   6.663  0.00  0.00    -0.297 N 
HETATM   29  C   UNK N   1      27.256  20.472   6.724  0.00  0.00     0.188 A 
HETATM   30  N   UNK N   1      26.297  20.606   5.762  0.00  0.00    -0.346 N 
HETATM   31  C   UNK N   1      26.308  19.423   5.115  0.00  0.00     0.122 A 
ATOM     32  HN  UNK N   1      25.706  21.416   5.576  1.00  0.00     0.167 HD
HETATM   33  C   UNK N   1      25.526  18.967   4.067  0.00  0.00     0.131 A 
HETATM   34  C   UNK N   1      27.239  18.619   5.654  0.00  0.00     0.142 A 
HETATM   35  N   UNK N   1      25.743  17.696   3.610  0.00  0.00    -0.337 N 
HETATM   36  C   UNK N   1      26.705  16.895   4.177  0.00  0.00     0.183 A 
ATOM     37  HN  UNK N   1      25.183  17.337   2.836  1.00  0.00     0.168 HD
HETATM   38  N   UNK N   1      27.461  17.355   5.218  0.00  0.00    -0.336 N 
ATOM     39  HN  UNK N   1      28.171  16.766   5.654  1.00  0.00     0.168 HD
BRANCH  33  40
HETATM   40  N   UNK N   1      24.525  19.775   3.494  0.00  0.00    -0.383 N 
HETATM   41  H   UNK N   1      24.312  19.690   2.537  0.00  0.00     0.157 HD
HETATM   42  H   UNK N   1      24.038  20.424   4.051  0.00  0.00     0.157 HD
ENDBRANCH  33  40
ENDBRANCH   4  28
TORSDOF 13
ENDMDL
MODEL 8
REMARK VINA RESULT:      -6.5      7.968     13.059
REMARK  13 active torsions:
REMARK  status: ('A' for Active; 'I' for Inactive)
REMARK    1  A    between atoms: C_6  and  C_2 
REMARK    2  A    between atoms: O_32  and  C_2 
REMARK    3  A    between atoms: C_7  and  C_5 
REMARK    4  A    between atoms: C_5  and  O_26 
REMARK    5  A    between atoms: C_13  and  C_7 
REMARK    6  A    between atoms: C_7  and  N_15 
REMARK    7  A    between atoms: C_9  and  O_27 
REMARK    8  A    between atoms: C_10  and  O_28 
REMARK    9  A    between atoms: N_16  and  C_11 
REMARK   10  A    between atoms: O_29  and  C_13 
REMARK   11  A    between atoms: C_14  and  N_25 
REMARK   12  A    between atoms: N_23  and  S_34 
REMARK   13  A    between atoms: S_34  and  O_32 
ROOT
HETATM    1  C   UNK N   1      25.756  17.310   3.661  0.00  0.00     0.180 C 
HETATM    2  C   UNK N   1      25.489  18.742   4.220  0.00  0.00     0.182 C 
HETATM    3  C   UNK N   1      26.804  19.062   4.868  0.00  0.00     0.198 C 
HETATM    4  C   UNK N   1      27.155  17.663   5.338  0.00  0.00     0.262 C 
HETATM    5  O   UNK N   1      26.982  16.856   4.206  0.00  0.00    -0.353 OA
ENDROOT
BRANCH   1   6
HETATM    6  C   UNK N   1      24.693  16.279   4.058  0.00  0.00     0.226 C 
BRANCH   6   7
HETATM    7  O   UNK N   1      23.477  16.485   3.402  0.00  0.00    -0.257 OA
BRANCH   7   8
HETATM    8  S   UNK N   1      22.287  16.048   4.531  0.00  0.00     0.363 S 
HETATM    9  O   UNK N   1      22.404  14.540   4.789  0.00  0.00    -0.175 OA
HETATM   10  O   UNK N   1      22.588  16.743   5.868  0.00  0.00    -0.175 OA
BRANCH   8  11
HETATM   11  N   UNK N   1      20.685  16.399   3.878  0.00  0.00    -0.243 N 
HETATM   12  C   UNK N   1      20.252  17.525   3.424  0.00  0.00     0.152 C 
ATOM     13  HN  UNK N   1      20.026  15.621   3.857  1.00  0.00     0.182 HD
BRANCH  12  14
HETATM   14  C   UNK N   1      21.073  18.802   3.480  0.00  0.00     0.179 C 
BRANCH  14  15
HETATM   15  C   UNK N   1      20.435  19.987   2.735  0.00  0.00     0.144 C 
HETATM   16  C   UNK N   1      20.925  20.116   1.300  0.00  0.00     0.042 C 
BRANCH  15  17
HETATM   17  O   UNK N   1      20.698  21.175   3.424  0.00  0.00    -0.393 OA
HETATM   18  H   UNK N   1      21.274  21.172   4.203  0.00  0.00     0.210 HD
ENDBRANCH  15  17
ENDBRANCH  14  15
BRANCH  14  19
HETATM   19  N   UNK N   1      21.289  19.169   4.874  0.00  0.00    -0.417 N 
HETATM   20  H   UNK N   1      20.866  18.634   5.631  0.00  0.00     0.150 HD
HETATM   21  H   UNK N   1      21.875  19.975   5.096  0.00  0.00     0.150 HD
ENDBRANCH  14  19
ENDBRANCH  12  14
BRANCH  12  22
HETATM   22  O   UNK N   1      19.023  17.551   2.873  0.00  0.00    -0.347 OA
HETATM   23  H   UNK N   1      18.601  17.932   2.128  0.00  0.00     0.219 HD
ENDBRANCH  12  22
ENDBRANCH   8  11
ENDBRANCH   7   8
ENDBRANCH   6   7
ENDBRANCH   1   6
BRANCH   2  24
HETATM   24  O   UNK N   1      24.524  18.738   5.237  0.00  0.00    -0.390 OA
HETATM   25  H   UNK N   1      23.632  19.083   5.398  0.00  0.00     0.210 HD
ENDBRANCH   2  24
BRANCH   3  26
HETATM   26  O   UNK N   1      27.726  19.487   3.907  0.00  0.00    -0.388 OA
HETATM   27  H   UNK N   1      28.538  19.378   3.386  0.00  0.00     0.210 HD
ENDBRANCH   3  26
BRANCH   4  28
HETATM   28  N   UNK N   1      28.492  17.567   5.904  0.00  0.00    -0.297 N 
HETATM   29  C   UNK N   1      29.655  17.217   5.298  0.00  0.00     0.188 A 
HETATM   30  N   UNK N   1      30.681  17.163   6.197  0.00  0.00    -0.346 N 
HETATM   31  C   UNK N   1      30.108  17.484   7.374  0.00  0.00     0.122 A 
ATOM     32  HN  UNK N   1      31.658  16.932   6.018  1.00  0.00     0.167 HD
HETATM   33  C   UNK N   1      30.653  17.559   8.645  0.00  0.00     0.131 A 
HETATM   34  C   UNK N   1      28.801  17.731   7.191  0.00  0.00     0.142 A 
HETATM   35  N   UNK N   1      29.824  17.896   9.680  0.00  0.00    -0.337 N 
HETATM   36  C   UNK N   1      28.490  18.148   9.465  0.00  0.00     0.183 A 
ATOM     37  HN  UNK N   1      30.201  17.962  10.625  1.00  0.00     0.168 HD
HETATM   38  N   UNK N   1      27.964  18.059   8.206  0.00  0.00    -0.336 N 
ATOM     39  HN  UNK N   1      26.974  18.233   8.036  1.00  0.00     0.168 HD
BRANCH  33  40
HETATM   40  N   UNK N   1      32.014  17.283   8.877  0.00  0.00    -0.383 N 
HETATM   41  H   UNK N   1      32.272  16.574   9.509  0.00  0.00     0.157 HD
HETATM   42  H   UNK N   1      32.708  17.798   8.405  0.00  0.00     0.157 HD
ENDBRANCH  33  40
ENDBRANCH   4  28
TORSDOF 13
ENDMDL
MODEL 9
REMARK VINA RESULT:      -6.5      1.679      2.127
REMARK  13 active torsions:
REMARK  status: ('A' for Active; 'I' for Inactive)
REMARK    1  A    between atoms: C_6  and  C_2 
REMARK    2  A    between atoms: O_32  and  C_2 
REMARK    3  A    between atoms: C_7  and  C_5 
REMARK    4  A    between atoms: C_5  and  O_26 
REMARK    5  A    between atoms: C_13  and  C_7 
REMARK    6  A    between atoms: C_7  and  N_15 
REMARK    7  A    between atoms: C_9  and  O_27 
REMARK    8  A    between atoms: C_10  and  O_28 
REMARK    9  A    between atoms: N_16  and  C_11 
REMARK   10  A    between atoms: O_29  and  C_13 
REMARK   11  A    between atoms: C_14  and  N_25 
REMARK   12  A    between atoms: N_23  and  S_34 
REMARK   13  A    between atoms: S_34  and  O_32 
ROOT
HETATM    1  C   UNK N   1      34.136  16.150   9.231  0.00  0.00     0.180 C 
HETATM    2  C   UNK N   1      34.824  16.173   7.831  0.00  0.00     0.182 C 
HETATM    3  C   UNK N   1      33.763  16.816   6.986  0.00  0.00     0.198 C 
HETATM    4  C   UNK N   1      32.550  16.239   7.690  0.00  0.00     0.262 C 
HETATM    5  O   UNK N   1      32.775  16.497   9.050  0.00  0.00    -0.353 OA
ENDROOT
BRANCH   1   6
HETATM    6  C   UNK N   1      34.149  14.774   9.908  0.00  0.00     0.226 C 
BRANCH   6   7
HETATM    7  O   UNK N   1      35.443  14.286  10.102  0.00  0.00    -0.257 OA
BRANCH   7   8
HETATM    8  S   UNK N   1      35.319  12.607   9.884  0.00  0.00     0.363 S 
HETATM    9  O   UNK N   1      34.536  12.350   8.590  0.00  0.00    -0.175 OA
HETATM   10  O   UNK N   1      36.724  12.027   9.663  0.00  0.00    -0.175 OA
BRANCH   8  11
HETATM   11  N   UNK N   1      34.446  11.890  11.239  0.00  0.00    -0.243 N 
HETATM   12  C   UNK N   1      34.859  11.748  12.452  0.00  0.00     0.152 C 
ATOM     13  HN  UNK N   1      33.505  11.550  11.041  1.00  0.00     0.182 HD
BRANCH  12  14
HETATM   14  C   UNK N   1      36.270  12.108  12.885  0.00  0.00     0.179 C 
BRANCH  14  15
HETATM   15  C   UNK N   1      36.390  13.503  13.520  0.00  0.00     0.144 C 
HETATM   16  C   UNK N   1      36.593  13.451  15.028  0.00  0.00     0.042 C 
BRANCH  15  17
HETATM   17  O   UNK N   1      35.248  14.255  13.231  0.00  0.00    -0.393 OA
HETATM   18  H   UNK N   1      34.557  13.893  12.656  0.00  0.00     0.210 HD
ENDBRANCH  15  17
ENDBRANCH  14  15
BRANCH  14  19
HETATM   19  N   UNK N   1      36.749  11.105  13.829  0.00  0.00    -0.417 N 
HETATM   20  H   UNK N   1      37.484  10.448  13.570  0.00  0.00     0.150 HD
HETATM   21  H   UNK N   1      36.343  11.062  14.763  0.00  0.00     0.150 HD
ENDBRANCH  14  19
ENDBRANCH  12  14
BRANCH  12  22
HETATM   22  O   UNK N   1      33.988  11.266  13.361  0.00  0.00    -0.347 OA
HETATM   23  H   UNK N   1      33.727  10.434  13.703  0.00  0.00     0.219 HD
ENDBRANCH  12  22
ENDBRANCH   8  11
ENDBRANCH   7   8
ENDBRANCH   6   7
ENDBRANCH   1   6
BRANCH   2  24
HETATM   24  O   UNK N   1      35.023  14.882   7.321  0.00  0.00    -0.390 OA
HETATM   25  H   UNK N   1      34.624  14.285   6.670  0.00  0.00     0.210 HD
ENDBRANCH   2  24
BRANCH   3  26
HETATM   26  O   UNK N   1      33.792  18.204   7.147  0.00  0.00    -0.388 OA
HETATM   27  H   UNK N   1      33.672  19.012   7.672  0.00  0.00     0.210 HD
ENDBRANCH   3  26
BRANCH   4  28
HETATM   28  N   UNK N   1      31.292  16.787   7.209  0.00  0.00    -0.297 N 
HETATM   29  C   UNK N   1      30.835  16.888   5.934  0.00  0.00     0.188 A 
HETATM   30  N   UNK N   1      29.638  17.544   5.892  0.00  0.00    -0.346 N 
HETATM   31  C   UNK N   1      29.381  17.847   7.181  0.00  0.00     0.122 A 
ATOM     32  HN  UNK N   1      29.069  17.756   5.074  1.00  0.00     0.167 HD
HETATM   33  C   UNK N   1      28.321  18.539   7.744  0.00  0.00     0.131 A 
HETATM   34  C   UNK N   1      30.369  17.385   7.962  0.00  0.00     0.142 A 
HETATM   35  N   UNK N   1      28.322  18.720   9.100  0.00  0.00    -0.337 N 
HETATM   36  C   UNK N   1      29.345  18.234   9.878  0.00  0.00     0.183 A 
ATOM     37  HN  UNK N   1      27.552  19.224   9.541  1.00  0.00     0.168 HD
HETATM   38  N   UNK N   1      30.389  17.563   9.307  0.00  0.00    -0.336 N 
ATOM     39  HN  UNK N   1      31.159  17.206   9.873  1.00  0.00     0.168 HD
BRANCH  33  40
HETATM   40  N   UNK N   1      27.280  19.058   6.951  0.00  0.00    -0.383 N 
HETATM   41  H   UNK N   1      26.428  19.322   7.368  0.00  0.00     0.157 HD
HETATM   42  H   UNK N   1      27.403  19.156   5.979  0.00  0.00     0.157 HD
ENDBRANCH  33  40
ENDBRANCH   4  28
TORSDOF 13
ENDMDL
