REMARK  8 active torsions:
REMARK  status: ('A' for Active; 'I' for Inactive)
REMARK    1  A    between atoms: O_1  and  P_2 
REMARK    2  A    between atoms: P_2  and  O_3 
REMARK    3  A    between atoms: P_2  and  C_5 
REMARK    4  A    between atoms: C_5  and  N_6 
REMARK    5  A    between atoms: C_5  and  P_15 
REMARK    6  A    between atoms: N_6  and  C_7 
REMARK    7  A    between atoms: P_15  and  O_16 
REMARK    8  A    between atoms: P_15  and  O_17 
ROOT
HETATM    1  C   UNK N   1       1.162  -2.060  -0.308  0.00  0.00     0.307 C 
ENDROOT
BRANCH   1   2
HETATM    2  P   UNK N   1       0.667  -3.857  -0.201  0.00  0.00     0.271 P 
HETATM    3  O   UNK N   1      -0.857  -4.036  -0.429  0.00  0.00    -0.652 OA
BRANCH   2   4
HETATM    4  O   UNK N   1       0.975  -4.656   1.311  0.00  0.00    -0.327 OA
HETATM    5  H   UNK N   1       0.675  -5.028   2.155  0.00  0.00     0.220 HD
ENDBRANCH   2   4
BRANCH   2   6
HETATM    6  O   UNK N   1       1.391  -4.837  -1.435  0.00  0.00    -0.327 OA
HETATM    7  H   UNK N   1       1.119  -5.462  -2.125  0.00  0.00     0.220 HD
ENDBRANCH   2   6
ENDBRANCH   1   2
BRANCH   1   8
HETATM    8  N   UNK N   1       0.340  -1.224   0.538  0.00  0.00    -0.352 N 
HETATM    9  H   UNK N   1      -0.213  -1.631   1.243  0.00  0.00     0.162 HD
BRANCH   8  10
HETATM   10  C   UNK N   1       0.330   0.196   0.352  0.00  0.00     0.102 A 
HETATM   11  C   UNK N   1      -0.784   0.939   0.761  0.00  0.00     0.050 A 
HETATM   12  C   UNK N   1      -0.792   2.324   0.532  0.00  0.00     0.029 A 
HETATM   13  C   UNK N   1       0.304   2.932  -0.080  0.00  0.00     0.049 A 
HETATM   14 Cl   UNK N   1       0.334   4.663  -0.352  0.00  0.00    -0.083 Cl
HETATM   15  C   UNK N   1       1.388   2.156  -0.473  0.00  0.00     0.113 A 
HETATM   16  N   UNK N   1       1.366   0.807  -0.261  0.00  0.00    -0.351 N 
ATOM     17  HN  UNK N   1       2.156   0.244  -0.576  1.00  0.00     0.166 HD
ENDBRANCH   8  10
ENDBRANCH   1   8
BRANCH   1  18
HETATM   18  P   UNK N   1       3.009  -1.911  -0.020  0.00  0.00     0.271 P 
HETATM   19  O   UNK N   1       3.519  -2.928   1.036  0.00  0.00    -0.652 OA
BRANCH  18  20
HETATM   20  O   UNK N   1       3.684  -0.392   0.483  0.00  0.00    -0.327 OA
HETATM   21  H   UNK N   1       4.607  -0.294   0.764  0.00  0.00     0.220 HD
ENDBRANCH  18  20
BRANCH  18  22
HETATM   22  O   UNK N   1       3.877  -2.362  -1.451  0.00  0.00    -0.327 OA
HETATM   23  H   UNK N   1       3.901  -2.909  -2.252  0.00  0.00     0.220 HD
ENDBRANCH  18  22
ENDBRANCH   1  18
TORSDOF 8
