REMARK  11 active torsions:
REMARK  status: ('A' for Active; 'I' for Inactive)
REMARK    1  A    between atoms: N_1  and  C_2 
REMARK    2  A    between atoms: C_2  and  C_3 
REMARK    3  A    between atoms: C_3  and  O_4 
REMARK    4  A    between atoms: P_5  and  O_4 
REMARK    5  A    between atoms: P_5  and  O_6 
REMARK    6  A    between atoms: P_5  and  O_8 
REMARK    7  A    between atoms: O_8  and  C_9 
REMARK    8  A    between atoms: C_9  and  C_10 
REMARK    9  A    between atoms: C_10  and  O_11 
REMARK   10  A    between atoms: C_10  and  C_12 
REMARK   11  A    between atoms: C_12  and  O_13 
ROOT
HETATM    1  P   UNK N   1       4.710   2.139  -0.471  0.00  0.00     0.393 P 
HETATM    2  O   UNK N   1       4.363   3.353   0.434  0.00  0.00    -0.631 OA
ENDROOT
BRANCH   1   3
HETATM    3  O   UNK N   1       3.323   1.555   0.402  0.00  0.00    -0.295 OA
BRANCH   3   4
HETATM    4  C   UNK N   1       2.238   1.683  -0.469  0.00  0.00     0.199 C 
BRANCH   4   5
HETATM    5  C   UNK N   1       0.959   1.645   0.340  0.00  0.00     0.138 C 
BRANCH   5   6
HETATM    6  N   UNK N   1      -0.108   2.290  -0.400  0.00  0.00    -0.428 N 
HETATM    7  H   UNK N   1      -0.091   3.167  -0.921  0.00  0.00     0.149 HD
HETATM    8  H   UNK N   1      -1.002   1.798  -0.400  0.00  0.00     0.149 HD
ENDBRANCH   5   6
ENDBRANCH   4   5
ENDBRANCH   3   4
ENDBRANCH   1   3
BRANCH   1   9
HETATM    9  O   UNK N   1       5.095   0.751   0.504  0.00  0.00    -0.307 OA
HETATM   10  H   UNK N   1       4.532   0.178   1.048  0.00  0.00     0.222 HD
ENDBRANCH   1   9
BRANCH   1  11
HETATM   11  O   UNK N   1       6.202   2.434   0.373  0.00  0.00    -0.294 OA
BRANCH  11  12
HETATM   12  C   UNK N   1       7.223   2.215  -0.557  0.00  0.00     0.214 C 
BRANCH  12  13
HETATM   13  C   UNK N   1       8.560   2.419   0.125  0.00  0.00     0.166 C 
BRANCH  13  14
HETATM   14  O   UNK N   1       8.826   3.785   0.236  0.00  0.00    -0.391 OA
HETATM   15  H   UNK N   1       9.740   4.100   0.314  0.00  0.00     0.210 HD
ENDBRANCH  13  14
BRANCH  13  16
HETATM   16  C   UNK N   1       9.660   1.740  -0.665  0.00  0.00     0.198 C 
BRANCH  16  17
HETATM   17  O   UNK N   1      10.848   1.768   0.065  0.00  0.00    -0.398 OA
HETATM   18  H   UNK N   1      11.278   1.063   0.573  0.00  0.00     0.209 HD
ENDBRANCH  16  17
ENDBRANCH  13  16
ENDBRANCH  12  13
ENDBRANCH  11  12
ENDBRANCH   1  11
TORSDOF 11
