MODEL 1
REMARK VINA RESULT:      -5.4      0.000      0.000
REMARK  0 active torsions:
REMARK  status: ('A' for Active; 'I' for Inactive)
REMARK       I    between atoms: N_1  and  C_2 
ROOT
HETATM    1  N   UNK N   1      20.077  11.773  11.982  0.00  0.00    -0.234 N 
HETATM    2  C   UNK N   1      21.293  12.091  11.349  0.00  0.00     0.679 A 
HETATM    3  N   UNK N   1      21.282  12.657  10.114  0.00  0.00    -0.191 N 
ATOM      4  HN  UNK N   1      20.391  12.847   9.656  1.00  0.00     0.184 HD
HETATM    5  C   UNK N   1      22.439  12.973   9.481  0.00  0.00     0.065 A 
HETATM    6  C   UNK N   1      22.403  13.554   8.212  0.00  0.00     0.031 A 
HETATM    7  C   UNK N   1      23.596  13.880   7.560  0.00  0.00     0.002 A 
HETATM    8  C   UNK N   1      24.826  13.625   8.175  0.00  0.00     0.001 A 
HETATM    9  C   UNK N   1      24.869  13.044   9.446  0.00  0.00     0.019 A 
HETATM   10  C   UNK N   1      23.677  12.715  10.105  0.00  0.00     0.060 A 
HETATM   11  C   UNK N   1      23.670  12.132  11.377  0.00  0.00     0.272 A 
HETATM   12  O   UNK N   1      24.714  11.888  11.959  0.00  0.00    -0.267 OA
HETATM   13  N   UNK N   1      22.473  11.831  11.974  0.00  0.00    -0.156 N 
HETATM   14  H   UNK N   1      19.223  11.961  11.530  0.00  0.00     0.174 HD
HETATM   15  H   UNK N   1      20.080  11.363  12.877  0.00  0.00     0.174 HD
HETATM   16  H   UNK N   1      22.467  11.421  12.869  0.00  0.00     0.187 HD
ENDROOT
TORSDOF 0
ENDMDL
MODEL 2
REMARK VINA RESULT:      -5.4      9.931     11.349
REMARK  0 active torsions:
REMARK  status: ('A' for Active; 'I' for Inactive)
REMARK       I    between atoms: N_1  and  C_2 
ROOT
HETATM    1  N   UNK N   1      34.714  17.188  10.130  0.00  0.00    -0.234 N 
HETATM    2  C   UNK N   1      33.892  17.228   8.989  0.00  0.00     0.679 A 
HETATM    3  N   UNK N   1      32.543  17.139   9.127  0.00  0.00    -0.191 N 
ATOM      4  HN  UNK N   1      32.138  17.044  10.058  1.00  0.00     0.184 HD
HETATM    5  C   UNK N   1      31.727  17.175   8.044  0.00  0.00     0.065 A 
HETATM    6  C   UNK N   1      30.344  17.083   8.210  0.00  0.00     0.031 A 
HETATM    7  C   UNK N   1      29.504  17.120   7.093  0.00  0.00     0.002 A 
HETATM    8  C   UNK N   1      30.044  17.250   5.810  0.00  0.00     0.001 A 
HETATM    9  C   UNK N   1      31.428  17.343   5.637  0.00  0.00     0.019 A 
HETATM   10  C   UNK N   1      32.276  17.306   6.752  0.00  0.00     0.060 A 
HETATM   11  C   UNK N   1      33.668  17.396   6.628  0.00  0.00     0.272 A 
HETATM   12  O   UNK N   1      34.192  17.511   5.533  0.00  0.00    -0.267 OA
HETATM   13  N   UNK N   1      34.449  17.355   7.755  0.00  0.00    -0.156 N 
HETATM   14  H   UNK N   1      34.312  17.096  11.024  0.00  0.00     0.174 HD
HETATM   15  H   UNK N   1      35.692  17.251  10.035  0.00  0.00     0.174 HD
HETATM   16  H   UNK N   1      35.427  17.418   7.668  0.00  0.00     0.187 HD
ENDROOT
TORSDOF 0
ENDMDL
MODEL 3
REMARK VINA RESULT:      -5.4     12.816     14.019
REMARK  0 active torsions:
REMARK  status: ('A' for Active; 'I' for Inactive)
REMARK       I    between atoms: N_1  and  C_2 
ROOT
HETATM    1  N   UNK N   1      36.228  15.272  11.613  0.00  0.00    -0.234 N 
HETATM    2  C   UNK N   1      36.119  14.535  12.807  0.00  0.00     0.679 A 
HETATM    3  N   UNK N   1      35.308  13.446  12.856  0.00  0.00    -0.191 N 
ATOM      4  HN  UNK N   1      34.784  13.172  12.026  1.00  0.00     0.184 HD
HETATM    5  C   UNK N   1      35.186  12.718  13.994  0.00  0.00     0.065 A 
HETATM    6  C   UNK N   1      34.346  11.603  14.021  0.00  0.00     0.031 A 
HETATM    7  C   UNK N   1      34.220  10.853  15.194  0.00  0.00     0.002 A 
HETATM    8  C   UNK N   1      34.932  11.217  16.341  0.00  0.00     0.001 A 
HETATM    9  C   UNK N   1      35.775  12.332  16.321  0.00  0.00     0.019 A 
HETATM   10  C   UNK N   1      35.905  13.088  15.149  0.00  0.00     0.060 A 
HETATM   11  C   UNK N   1      36.737  14.213  15.081  0.00  0.00     0.272 A 
HETATM   12  O   UNK N   1      37.380  14.574  16.051  0.00  0.00    -0.267 OA
HETATM   13  N   UNK N   1      36.826  14.915  13.906  0.00  0.00    -0.156 N 
HETATM   14  H   UNK N   1      35.717  14.997  10.817  0.00  0.00     0.174 HD
HETATM   15  H   UNK N   1      36.814  16.061  11.573  0.00  0.00     0.174 HD
HETATM   16  H   UNK N   1      37.410  15.705  13.857  0.00  0.00     0.187 HD
ENDROOT
TORSDOF 0
ENDMDL
MODEL 4
REMARK VINA RESULT:      -5.3     13.116     14.523
REMARK  0 active torsions:
REMARK  status: ('A' for Active; 'I' for Inactive)
REMARK       I    between atoms: N_1  and  C_2 
ROOT
HETATM    1  N   UNK N   1      37.127  13.693  11.917  0.00  0.00    -0.234 N 
HETATM    2  C   UNK N   1      36.558  13.573  13.199  0.00  0.00     0.679 A 
HETATM    3  N   UNK N   1      36.993  14.373  14.207  0.00  0.00    -0.191 N 
ATOM      4  HN  UNK N   1      37.728  15.055  14.025  1.00  0.00     0.184 HD
HETATM    5  C   UNK N   1      36.462  14.278  15.451  0.00  0.00     0.065 A 
HETATM    6  C   UNK N   1      36.924  15.110  16.472  0.00  0.00     0.031 A 
HETATM    7  C   UNK N   1      36.377  15.012  17.755  0.00  0.00     0.002 A 
HETATM    8  C   UNK N   1      35.368  14.082  18.019  0.00  0.00     0.001 A 
HETATM    9  C   UNK N   1      34.900  13.244  17.002  0.00  0.00     0.019 A 
HETATM   10  C   UNK N   1      35.444  13.338  15.714  0.00  0.00     0.060 A 
HETATM   11  C   UNK N   1      35.008  12.521  14.664  0.00  0.00     0.272 A 
HETATM   12  O   UNK N   1      34.131  11.693  14.839  0.00  0.00    -0.267 OA
HETATM   13  N   UNK N   1      35.577  12.657  13.424  0.00  0.00    -0.156 N 
HETATM   14  H   UNK N   1      37.836  14.355  11.754  0.00  0.00     0.174 HD
HETATM   15  H   UNK N   1      36.815  13.115  11.184  0.00  0.00     0.174 HD
HETATM   16  H   UNK N   1      35.271  12.083  12.685  0.00  0.00     0.187 HD
ENDROOT
TORSDOF 0
ENDMDL
MODEL 5
REMARK VINA RESULT:      -5.3      1.744      2.572
REMARK  0 active torsions:
REMARK  status: ('A' for Active; 'I' for Inactive)
REMARK       I    between atoms: N_1  and  C_2 
ROOT
HETATM    1  N   UNK N   1      22.918  11.549  13.089  0.00  0.00    -0.234 N 
HETATM    2  C   UNK N   1      22.833  12.099  11.796  0.00  0.00     0.679 A 
HETATM    3  N   UNK N   1      23.970  12.424  11.127  0.00  0.00    -0.191 N 
ATOM      4  HN  UNK N   1      24.875  12.267  11.567  1.00  0.00     0.184 HD
HETATM    5  C   UNK N   1      23.916  12.956   9.880  0.00  0.00     0.065 A 
HETATM    6  C   UNK N   1      25.097  13.283   9.211  0.00  0.00     0.031 A 
HETATM    7  C   UNK N   1      25.042  13.830   7.926  0.00  0.00     0.002 A 
HETATM    8  C   UNK N   1      23.808  14.052   7.308  0.00  0.00     0.001 A 
HETATM    9  C   UNK N   1      22.621  13.727   7.972  0.00  0.00     0.019 A 
HETATM   10  C   UNK N   1      22.669  13.178   9.260  0.00  0.00     0.060 A 
HETATM   11  C   UNK N   1      21.509  12.837   9.964  0.00  0.00     0.272 A 
HETATM   12  O   UNK N   1      20.406  13.009   9.473  0.00  0.00    -0.267 OA
HETATM   13  N   UNK N   1      21.616  12.302  11.223  0.00  0.00    -0.156 N 
HETATM   14  H   UNK N   1      23.798  11.401  13.504  0.00  0.00     0.174 HD
HETATM   15  H   UNK N   1      22.097  11.311  13.577  0.00  0.00     0.174 HD
HETATM   16  H   UNK N   1      20.801  12.062  11.718  0.00  0.00     0.187 HD
ENDROOT
TORSDOF 0
ENDMDL
MODEL 6
REMARK VINA RESULT:      -5.3     10.134     11.411
REMARK  0 active torsions:
REMARK  status: ('A' for Active; 'I' for Inactive)
REMARK       I    between atoms: N_1  and  C_2 
ROOT
HETATM    1  N   UNK N   1      34.867  17.512   9.599  0.00  0.00    -0.234 N 
HETATM    2  C   UNK N   1      33.813  17.417   8.670  0.00  0.00     0.679 A 
HETATM    3  N   UNK N   1      34.072  17.541   7.342  0.00  0.00    -0.191 N 
ATOM      4  HN  UNK N   1      35.029  17.702   7.030  1.00  0.00     0.184 HD
HETATM    5  C   UNK N   1      33.076  17.454   6.427  0.00  0.00     0.065 A 
HETATM    6  C   UNK N   1      33.365  17.584   5.067  0.00  0.00     0.031 A 
HETATM    7  C   UNK N   1      32.338  17.494   4.123  0.00  0.00     0.002 A 
HETATM    8  C   UNK N   1      31.021  17.274   4.537  0.00  0.00     0.001 A 
HETATM    9  C   UNK N   1      30.723  17.142   5.896  0.00  0.00     0.019 A 
HETATM   10  C   UNK N   1      31.748  17.232   6.847  0.00  0.00     0.060 A 
HETATM   11  C   UNK N   1      31.499  17.106   8.219  0.00  0.00     0.272 A 
HETATM   12  O   UNK N   1      30.369  16.914   8.634  0.00  0.00    -0.267 OA
HETATM   13  N   UNK N   1      32.542  17.203   9.105  0.00  0.00    -0.156 N 
HETATM   14  H   UNK N   1      35.787  17.667   9.285  0.00  0.00     0.174 HD
HETATM   15  H   UNK N   1      34.684  17.423  10.562  0.00  0.00     0.174 HD
HETATM   16  H   UNK N   1      32.368  17.115  10.069  0.00  0.00     0.187 HD
ENDROOT
TORSDOF 0
ENDMDL
MODEL 7
REMARK VINA RESULT:      -5.3     11.282     12.021
REMARK  0 active torsions:
REMARK  status: ('A' for Active; 'I' for Inactive)
REMARK       I    between atoms: N_1  and  C_2 
ROOT
HETATM    1  N   UNK N   1      34.173  15.363  11.095  0.00  0.00    -0.234 N 
HETATM    2  C   UNK N   1      34.079  15.982   9.835  0.00  0.00     0.679 A 
HETATM    3  N   UNK N   1      33.512  15.315   8.797  0.00  0.00    -0.191 N 
ATOM      4  HN  UNK N   1      33.158  14.370   8.940  1.00  0.00     0.184 HD
HETATM    5  C   UNK N   1      33.409  15.888   7.572  0.00  0.00     0.065 A 
HETATM    6  C   UNK N   1      32.822  15.183   6.520  0.00  0.00     0.031 A 
HETATM    7  C   UNK N   1      32.716  15.774   5.257  0.00  0.00     0.002 A 
HETATM    8  C   UNK N   1      33.196  17.069   5.045  0.00  0.00     0.001 A 
HETATM    9  C   UNK N   1      33.785  17.781   6.094  0.00  0.00     0.019 A 
HETATM   10  C   UNK N   1      33.894  17.194   7.361  0.00  0.00     0.060 A 
HETATM   11  C   UNK N   1      34.476  17.868   8.442  0.00  0.00     0.272 A 
HETATM   12  O   UNK N   1      34.911  19.000   8.312  0.00  0.00    -0.267 OA
HETATM   13  N   UNK N   1      34.556  17.244   9.661  0.00  0.00    -0.156 N 
HETATM   14  H   UNK N   1      33.828  14.450  11.222  0.00  0.00     0.174 HD
HETATM   15  H   UNK N   1      34.583  15.843  11.850  0.00  0.00     0.174 HD
HETATM   16  H   UNK N   1      34.965  17.717  10.421  0.00  0.00     0.187 HD
ENDROOT
TORSDOF 0
ENDMDL
MODEL 8
REMARK VINA RESULT:      -5.2     19.147     20.430
REMARK  0 active torsions:
REMARK  status: ('A' for Active; 'I' for Inactive)
REMARK       I    between atoms: N_1  and  C_2 
ROOT
HETATM    1  N   UNK N   1      25.910  28.973  -3.390  0.00  0.00    -0.234 N 
HETATM    2  C   UNK N   1      26.005  27.667  -3.906  0.00  0.00     0.679 A 
HETATM    3  N   UNK N   1      25.795  27.449  -5.231  0.00  0.00    -0.191 N 
ATOM      4  HN  UNK N   1      25.571  28.235  -5.840  1.00  0.00     0.184 HD
HETATM    5  C   UNK N   1      25.881  26.201  -5.754  0.00  0.00     0.065 A 
HETATM    6  C   UNK N   1      25.662  26.000  -7.118  0.00  0.00     0.031 A 
HETATM    7  C   UNK N   1      25.750  24.714  -7.657  0.00  0.00     0.002 A 
HETATM    8  C   UNK N   1      26.057  23.626  -6.834  0.00  0.00     0.001 A 
HETATM    9  C   UNK N   1      26.278  23.819  -5.467  0.00  0.00     0.019 A 
HETATM   10  C   UNK N   1      26.191  25.106  -4.921  0.00  0.00     0.060 A 
HETATM   11  C   UNK N   1      26.403  25.349  -3.559  0.00  0.00     0.272 A 
HETATM   12  O   UNK N   1      26.674  24.437  -2.796  0.00  0.00    -0.267 OA
HETATM   13  N   UNK N   1      26.305  26.630  -3.079  0.00  0.00    -0.156 N 
HETATM   14  H   UNK N   1      25.692  29.724  -3.988  0.00  0.00     0.174 HD
HETATM   15  H   UNK N   1      26.061  29.136  -2.431  0.00  0.00     0.174 HD
HETATM   16  H   UNK N   1      26.455  26.801  -2.121  0.00  0.00     0.187 HD
ENDROOT
TORSDOF 0
ENDMDL
MODEL 9
REMARK VINA RESULT:      -5.2     10.501     11.605
REMARK  0 active torsions:
REMARK  status: ('A' for Active; 'I' for Inactive)
REMARK       I    between atoms: N_1  and  C_2 
ROOT
HETATM    1  N   UNK N   1      34.552  13.452  11.726  0.00  0.00    -0.234 N 
HETATM    2  C   UNK N   1      34.343  14.545  10.864  0.00  0.00     0.679 A 
HETATM    3  N   UNK N   1      33.340  14.499   9.949  0.00  0.00    -0.191 N 
ATOM      4  HN  UNK N   1      32.747  13.672   9.895  1.00  0.00     0.184 HD
HETATM    5  C   UNK N   1      33.117  15.538   9.106  0.00  0.00     0.065 A 
HETATM    6  C   UNK N   1      32.081  15.469   8.174  0.00  0.00     0.031 A 
HETATM    7  C   UNK N   1      31.850  16.540   7.305  0.00  0.00     0.002 A 
HETATM    8  C   UNK N   1      32.656  17.681   7.368  0.00  0.00     0.001 A 
HETATM    9  C   UNK N   1      33.696  17.757   8.299  0.00  0.00     0.019 A 
HETATM   10  C   UNK N   1      33.931  16.687   9.172  0.00  0.00     0.060 A 
HETATM   11  C   UNK N   1      34.960  16.718  10.121  0.00  0.00     0.272 A 
HETATM   12  O   UNK N   1      35.692  17.688  10.218  0.00  0.00    -0.267 OA
HETATM   13  N   UNK N   1      35.145  15.641  10.950  0.00  0.00    -0.156 N 
HETATM   14  H   UNK N   1      33.973  12.659  11.665  0.00  0.00     0.174 HD
HETATM   15  H   UNK N   1      35.278  13.481  12.391  0.00  0.00     0.174 HD
HETATM   16  H   UNK N   1      35.868  15.662  11.617  0.00  0.00     0.187 HD
ENDROOT
TORSDOF 0
ENDMDL
