MODEL 1
REMARK VINA RESULT:      -7.9      0.000      0.000
REMARK  6 active torsions:
REMARK  status: ('A' for Active; 'I' for Inactive)
REMARK    1  A    between atoms: C_21  and  C_12 
REMARK    2  A    between atoms: C_20  and  C_13 
REMARK    3  A    between atoms: C_17  and  O_30 
REMARK    4  A    between atoms: O_30  and  C_18 
REMARK    5  A    between atoms: O_29  and  C_19 
REMARK    6  A    between atoms: N_25  and  C_20 
ROOT
HETATM    1  C   UNK N   1      35.148  12.334  13.410  0.00  0.00     0.050 A 
HETATM    2  C   UNK N   1      36.469  14.818  13.776  0.00  0.00     0.075 A 
HETATM    3  C   UNK N   1      35.965  12.535  14.548  0.00  0.00     0.048 A 
HETATM    4  C   UNK N   1      36.634  13.788  14.719  0.00  0.00     0.132 A 
HETATM    5  C   UNK N   1      35.027  13.376  12.504  0.00  0.00     0.061 A 
HETATM    6  C   UNK N   1      35.651  14.567  12.685  0.00  0.00     0.063 A 
HETATM    7  C   UNK N   1      34.578  14.639  10.855  0.00  0.00     0.119 A 
HETATM    8  F   UNK N   1      37.443  14.012  15.784  0.00  0.00    -0.205 F 
HETATM    9  N   UNK N   1      34.344  13.396  11.348  0.00  0.00    -0.340 N 
ATOM     10  HN  UNK N   1      33.783  12.650  10.936  1.00  0.00     0.167 HD
HETATM   11  N   UNK N   1      35.379  15.383  11.664  0.00  0.00    -0.340 N 
HETATM   12  H   UNK N   1      35.685  16.309  11.529  0.00  0.00     0.167 HD
ENDROOT
BRANCH   7  13
HETATM   13  C   UNK N   1      34.097  15.105   9.540  0.00  0.00     0.044 A 
HETATM   14  C   UNK N   1      35.017  15.289   8.498  0.00  0.00     0.018 A 
HETATM   15  C   UNK N   1      34.597  15.791   7.263  0.00  0.00     0.004 A 
HETATM   16  C   UNK N   1      33.253  16.102   7.056  0.00  0.00     0.040 A 
HETATM   17  C   UNK N   1      32.321  15.901   8.079  0.00  0.00     0.103 A 
HETATM   18  C   UNK N   1      32.738  15.410   9.322  0.00  0.00     0.113 A 
BRANCH  17  19
HETATM   19  O   UNK N   1      31.016  16.175   7.868  0.00  0.00    -0.343 OA
BRANCH  19  20
HETATM   20  C   UNK N   1      30.591  17.448   7.526  0.00  0.00     0.132 C 
HETATM   21  C   UNK N   1      30.599  18.343   8.776  0.00  0.00     0.033 C 
HETATM   22  C   UNK N   1      29.524  17.890   9.768  0.00  0.00     0.002 C 
HETATM   23  C   UNK N   1      28.131  17.791   9.127  0.00  0.00     0.001 C 
HETATM   24  C   UNK N   1      28.129  18.176   7.646  0.00  0.00     0.007 C 
HETATM   25  C   UNK N   1      29.177  17.365   6.880  0.00  0.00     0.011 C 
HETATM   26  C   UNK N   1      29.206  17.850   5.439  0.00  0.00     0.012 C 
ENDBRANCH  19  20
ENDBRANCH  17  19
BRANCH  18  27
HETATM   27  O   UNK N   1      31.826  15.234  10.298  0.00  0.00    -0.357 OA
HETATM   28  H   UNK N   1      31.463  14.385  10.461  0.00  0.00     0.217 HD
ENDBRANCH  18  27
ENDBRANCH   7  13
BRANCH   3  29
HETATM   29  C   UNK N   1      36.104  11.431  15.530  0.00  0.00     0.105 C 
HETATM   30  N   UNK N   1      36.734  10.356  15.228  0.00  0.00    -0.385 N 
HETATM   31  H   UNK N   1      36.741   9.596  15.855  0.00  0.00     0.157 HD
ATOM     32  HN  UNK N   1      37.227  10.288  14.339  1.00  0.00     0.157 HD
BRANCH  29  33
HETATM   33  N   UNK N   1      35.552  11.565  16.825  0.00  0.00    -0.385 N 
HETATM   34  H   UNK N   1      36.115  11.440  17.623  0.00  0.00     0.157 HD
HETATM   35  H   UNK N   1      34.597  11.783  16.930  0.00  0.00     0.157 HD
ENDBRANCH  29  33
ENDBRANCH   3  29
TORSDOF 6
ENDMDL
MODEL 2
REMARK VINA RESULT:      -7.7      4.447      9.313
REMARK  6 active torsions:
REMARK  status: ('A' for Active; 'I' for Inactive)
REMARK    1  A    between atoms: C_21  and  C_12 
REMARK    2  A    between atoms: C_20  and  C_13 
REMARK    3  A    between atoms: C_17  and  O_30 
REMARK    4  A    between atoms: O_30  and  C_18 
REMARK    5  A    between atoms: O_29  and  C_19 
REMARK    6  A    between atoms: N_25  and  C_20 
ROOT
HETATM    1  C   UNK N   1      30.895  16.873   6.277  0.00  0.00     0.050 A 
HETATM    2  C   UNK N   1      33.418  17.124   5.004  0.00  0.00     0.075 A 
HETATM    3  C   UNK N   1      30.962  17.290   4.927  0.00  0.00     0.048 A 
HETATM    4  C   UNK N   1      32.240  17.422   4.297  0.00  0.00     0.132 A 
HETATM    5  C   UNK N   1      32.085  16.602   6.935  0.00  0.00     0.061 A 
HETATM    6  C   UNK N   1      33.290  16.713   6.323  0.00  0.00     0.063 A 
HETATM    7  C   UNK N   1      33.609  16.123   8.337  0.00  0.00     0.119 A 
HETATM    8  F   UNK N   1      32.348  17.840   3.011  0.00  0.00    -0.205 F 
HETATM    9  N   UNK N   1      32.261  16.234   8.215  0.00  0.00    -0.340 N 
ATOM     10  HN  UNK N   1      31.549  16.077   8.928  1.00  0.00     0.167 HD
HETATM   11  N   UNK N   1      34.266  16.409   7.181  0.00  0.00    -0.340 N 
HETATM   12  H   UNK N   1      35.237  16.394   7.015  0.00  0.00     0.167 HD
ENDROOT
BRANCH   7  13
HETATM   13  C   UNK N   1      34.297  15.818   9.606  0.00  0.00     0.044 A 
HETATM   14  C   UNK N   1      35.307  16.677  10.063  0.00  0.00     0.018 A 
HETATM   15  C   UNK N   1      36.017  16.377  11.229  0.00  0.00     0.004 A 
HETATM   16  C   UNK N   1      35.716  15.222  11.953  0.00  0.00     0.040 A 
HETATM   17  C   UNK N   1      34.695  14.371  11.521  0.00  0.00     0.103 A 
HETATM   18  C   UNK N   1      33.988  14.659  10.347  0.00  0.00     0.113 A 
BRANCH  17  19
HETATM   19  O   UNK N   1      34.386  13.269  12.237  0.00  0.00    -0.343 OA
BRANCH  19  20
HETATM   20  C   UNK N   1      35.340  12.603  12.988  0.00  0.00     0.132 C 
HETATM   21  C   UNK N   1      35.299  11.103  12.654  0.00  0.00     0.033 C 
HETATM   22  C   UNK N   1      33.992  10.478  13.150  0.00  0.00     0.002 C 
HETATM   23  C   UNK N   1      33.731  10.754  14.638  0.00  0.00     0.001 C 
HETATM   24  C   UNK N   1      34.839  11.582  15.293  0.00  0.00     0.007 C 
HETATM   25  C   UNK N   1      35.085  12.869  14.502  0.00  0.00     0.011 C 
HETATM   26  C   UNK N   1      36.256  13.607  15.131  0.00  0.00     0.012 C 
ENDBRANCH  19  20
ENDBRANCH  17  19
BRANCH  18  27
HETATM   27  O   UNK N   1      33.017  13.819   9.943  0.00  0.00    -0.357 OA
HETATM   28  H   UNK N   1      32.444  14.059   9.240  0.00  0.00     0.217 HD
ENDBRANCH  18  27
ENDBRANCH   7  13
BRANCH   3  29
HETATM   29  C   UNK N   1      29.698  17.581   4.207  0.00  0.00     0.105 C 
HETATM   30  N   UNK N   1      28.914  18.516   4.603  0.00  0.00    -0.385 N 
HETATM   31  H   UNK N   1      28.038  18.639   4.172  0.00  0.00     0.157 HD
ATOM     32  HN  UNK N   1      29.200  19.131   5.364  1.00  0.00     0.157 HD
BRANCH  29  33
HETATM   33  N   UNK N   1      29.352  16.834   3.057  0.00  0.00    -0.385 N 
HETATM   34  H   UNK N   1      29.830  16.977   2.207  0.00  0.00     0.157 HD
HETATM   35  H   UNK N   1      28.630  16.167   3.105  0.00  0.00     0.157 HD
ENDBRANCH  29  33
ENDBRANCH   3  29
TORSDOF 6
ENDMDL
MODEL 3
REMARK VINA RESULT:      -7.7      4.162      9.102
REMARK  6 active torsions:
REMARK  status: ('A' for Active; 'I' for Inactive)
REMARK    1  A    between atoms: C_21  and  C_12 
REMARK    2  A    between atoms: C_20  and  C_13 
REMARK    3  A    between atoms: C_17  and  O_30 
REMARK    4  A    between atoms: O_30  and  C_18 
REMARK    5  A    between atoms: O_29  and  C_19 
REMARK    6  A    between atoms: N_25  and  C_20 
ROOT
HETATM    1  C   UNK N   1      30.233  17.605   8.707  0.00  0.00     0.050 A 
HETATM    2  C   UNK N   1      30.685  16.434   6.162  0.00  0.00     0.075 A 
HETATM    3  C   UNK N   1      29.350  17.884   7.638  0.00  0.00     0.048 A 
HETATM    4  C   UNK N   1      29.591  17.296   6.356  0.00  0.00     0.132 A 
HETATM    5  C   UNK N   1      31.303  16.758   8.462  0.00  0.00     0.061 A 
HETATM    6  C   UNK N   1      31.513  16.191   7.248  0.00  0.00     0.063 A 
HETATM    7  C   UNK N   1      33.068  15.577   8.556  0.00  0.00     0.119 A 
HETATM    8  F   UNK N   1      28.781  17.556   5.300  0.00  0.00    -0.205 F 
HETATM    9  N   UNK N   1      32.279  16.388   9.308  0.00  0.00    -0.340 N 
ATOM     10  HN  UNK N   1      32.399  16.655  10.285  1.00  0.00     0.167 HD
HETATM   11  N   UNK N   1      32.614  15.437   7.282  0.00  0.00    -0.340 N 
HETATM   12  H   UNK N   1      33.005  14.901   6.555  0.00  0.00     0.167 HD
ENDROOT
BRANCH   7  13
HETATM   13  C   UNK N   1      34.332  14.987   9.036  0.00  0.00     0.044 A 
HETATM   14  C   UNK N   1      35.362  14.732   8.119  0.00  0.00     0.018 A 
HETATM   15  C   UNK N   1      36.545  14.115   8.537  0.00  0.00     0.004 A 
HETATM   16  C   UNK N   1      36.712  13.758   9.876  0.00  0.00     0.040 A 
HETATM   17  C   UNK N   1      35.702  14.029  10.804  0.00  0.00     0.103 A 
HETATM   18  C   UNK N   1      34.511  14.636  10.390  0.00  0.00     0.113 A 
BRANCH  17  19
HETATM   19  O   UNK N   1      35.877  13.710  12.104  0.00  0.00    -0.343 OA
BRANCH  19  20
HETATM   20  C   UNK N   1      35.799  12.399  12.543  0.00  0.00     0.132 C 
HETATM   21  C   UNK N   1      34.778  12.303  13.689  0.00  0.00     0.033 C 
HETATM   22  C   UNK N   1      35.293  13.038  14.930  0.00  0.00     0.002 C 
HETATM   23  C   UNK N   1      36.695  12.574  15.354  0.00  0.00     0.001 C 
HETATM   24  C   UNK N   1      37.258  11.476  14.449  0.00  0.00     0.007 C 
HETATM   25  C   UNK N   1      37.213  11.915  12.983  0.00  0.00     0.011 C 
HETATM   26  C   UNK N   1      37.688  10.760  12.117  0.00  0.00     0.012 C 
ENDBRANCH  19  20
ENDBRANCH  17  19
BRANCH  18  27
HETATM   27  O   UNK N   1      33.547  14.878  11.298  0.00  0.00    -0.357 OA
HETATM   28  H   UNK N   1      32.969  15.609  11.195  0.00  0.00     0.217 HD
ENDBRANCH  18  27
ENDBRANCH   7  13
BRANCH   3  29
HETATM   29  C   UNK N   1      28.196  18.786   7.883  0.00  0.00     0.105 C 
HETATM   30  N   UNK N   1      27.487  18.674   8.944  0.00  0.00    -0.385 N 
HETATM   31  H   UNK N   1      26.673  19.218   9.052  0.00  0.00     0.157 HD
ATOM     32  HN  UNK N   1      27.766  18.024   9.677  1.00  0.00     0.157 HD
BRANCH  29  33
HETATM   33  N   UNK N   1      27.880  19.797   6.945  0.00  0.00    -0.385 N 
HETATM   34  H   UNK N   1      27.490  20.650   7.245  0.00  0.00     0.157 HD
HETATM   35  H   UNK N   1      28.050  19.646   5.987  0.00  0.00     0.157 HD
ENDBRANCH  29  33
ENDBRANCH   3  29
TORSDOF 6
ENDMDL
MODEL 4
REMARK VINA RESULT:      -7.6      4.260      9.290
REMARK  6 active torsions:
REMARK  status: ('A' for Active; 'I' for Inactive)
REMARK    1  A    between atoms: C_21  and  C_12 
REMARK    2  A    between atoms: C_20  and  C_13 
REMARK    3  A    between atoms: C_17  and  O_30 
REMARK    4  A    between atoms: O_30  and  C_18 
REMARK    5  A    between atoms: O_29  and  C_19 
REMARK    6  A    between atoms: N_25  and  C_20 
ROOT
HETATM    1  C   UNK N   1      30.277  16.879   5.904  0.00  0.00     0.050 A 
HETATM    2  C   UNK N   1      29.748  18.242   8.336  0.00  0.00     0.075 A 
HETATM    3  C   UNK N   1      29.150  17.729   6.004  0.00  0.00     0.048 A 
HETATM    4  C   UNK N   1      28.887  18.405   7.237  0.00  0.00     0.132 A 
HETATM    5  C   UNK N   1      31.089  16.743   7.020  0.00  0.00     0.061 A 
HETATM    6  C   UNK N   1      30.841  17.403   8.178  0.00  0.00     0.063 A 
HETATM    7  C   UNK N   1      32.570  16.199   8.444  0.00  0.00     0.119 A 
HETATM    8  F   UNK N   1      27.805  19.210   7.379  0.00  0.00    -0.205 F 
HETATM    9  N   UNK N   1      32.177  15.969   7.165  0.00  0.00    -0.340 N 
ATOM     10  HN  UNK N   1      32.607  15.353   6.475  1.00  0.00     0.167 HD
HETATM   11  N   UNK N   1      31.763  17.084   9.089  0.00  0.00    -0.340 N 
HETATM   12  H   UNK N   1      31.842  17.414  10.014  0.00  0.00     0.167 HD
ENDROOT
BRANCH   7  13
HETATM   13  C   UNK N   1      33.690  15.497   9.098  0.00  0.00     0.044 A 
HETATM   14  C   UNK N   1      34.911  15.371   8.420  0.00  0.00     0.018 A 
HETATM   15  C   UNK N   1      35.968  14.656   8.991  0.00  0.00     0.004 A 
HETATM   16  C   UNK N   1      35.816  14.070  10.249  0.00  0.00     0.040 A 
HETATM   17  C   UNK N   1      34.612  14.209  10.945  0.00  0.00     0.103 A 
HETATM   18  C   UNK N   1      33.546  14.914  10.374  0.00  0.00     0.113 A 
BRANCH  17  19
HETATM   19  O   UNK N   1      34.476  13.667  12.174  0.00  0.00    -0.343 OA
BRANCH  19  20
HETATM   20  C   UNK N   1      35.543  13.066  12.821  0.00  0.00     0.132 C 
HETATM   21  C   UNK N   1      35.484  11.546  12.602  0.00  0.00     0.033 C 
HETATM   22  C   UNK N   1      34.276  10.945  13.327  0.00  0.00     0.002 C 
HETATM   23  C   UNK N   1      34.230  11.325  14.815  0.00  0.00     0.001 C 
HETATM   24  C   UNK N   1      35.404  12.208  15.241  0.00  0.00     0.007 C 
HETATM   25  C   UNK N   1      35.507  13.437  14.334  0.00  0.00     0.011 C 
HETATM   26  C   UNK N   1      36.742  14.230  14.730  0.00  0.00     0.012 C 
ENDBRANCH  19  20
ENDBRANCH  17  19
BRANCH  18  27
HETATM   27  O   UNK N   1      32.391  15.026  11.057  0.00  0.00    -0.357 OA
HETATM   28  H   UNK N   1      32.176  14.410  11.731  0.00  0.00     0.217 HD
ENDBRANCH  18  27
ENDBRANCH   7  13
BRANCH   3  29
HETATM   29  C   UNK N   1      28.270  17.888   4.818  0.00  0.00     0.105 C 
HETATM   30  N   UNK N   1      27.518  16.929   4.423  0.00  0.00    -0.385 N 
HETATM   31  H   UNK N   1      27.008  17.016   3.584  0.00  0.00     0.157 HD
ATOM     32  HN  UNK N   1      27.446  16.076   4.977  1.00  0.00     0.157 HD
BRANCH  29  33
HETATM   33  N   UNK N   1      28.244  19.118   4.119  0.00  0.00    -0.385 N 
HETATM   34  H   UNK N   1      27.895  19.161   3.200  0.00  0.00     0.157 HD
HETATM   35  H   UNK N   1      28.578  19.935   4.555  0.00  0.00     0.157 HD
ENDBRANCH  29  33
ENDBRANCH   3  29
TORSDOF 6
ENDMDL
MODEL 5
REMARK VINA RESULT:      -7.6      2.377      3.793
REMARK  6 active torsions:
REMARK  status: ('A' for Active; 'I' for Inactive)
REMARK    1  A    between atoms: C_21  and  C_12 
REMARK    2  A    between atoms: C_20  and  C_13 
REMARK    3  A    between atoms: C_17  and  O_30 
REMARK    4  A    between atoms: O_30  and  C_18 
REMARK    5  A    between atoms: O_29  and  C_19 
REMARK    6  A    between atoms: N_25  and  C_20 
ROOT
HETATM    1  C   UNK N   1      35.674  13.401  16.366  0.00  0.00     0.050 A 
HETATM    2  C   UNK N   1      34.921  10.856  15.363  0.00  0.00     0.075 A 
HETATM    3  C   UNK N   1      35.282  12.380  17.263  0.00  0.00     0.048 A 
HETATM    4  C   UNK N   1      34.895  11.103  16.747  0.00  0.00     0.132 A 
HETATM    5  C   UNK N   1      35.672  13.111  15.010  0.00  0.00     0.061 A 
HETATM    6  C   UNK N   1      35.321  11.892  14.532  0.00  0.00     0.063 A 
HETATM    7  C   UNK N   1      35.786  13.151  12.888  0.00  0.00     0.119 A 
HETATM    8  F   UNK N   1      34.491  10.105  17.572  0.00  0.00    -0.205 F 
HETATM    9  N   UNK N   1      35.966  13.930  13.986  0.00  0.00    -0.340 N 
ATOM     10  HN  UNK N   1      36.256  14.907  14.025  1.00  0.00     0.167 HD
HETATM   11  N   UNK N   1      35.392  11.888  13.199  0.00  0.00    -0.340 N 
HETATM   12  H   UNK N   1      35.204  11.142  12.584  0.00  0.00     0.167 HD
ENDROOT
BRANCH   7  13
HETATM   13  C   UNK N   1      35.910  13.644  11.503  0.00  0.00     0.044 A 
HETATM   14  C   UNK N   1      37.085  13.381  10.783  0.00  0.00     0.018 A 
HETATM   15  C   UNK N   1      37.254  13.890   9.493  0.00  0.00     0.004 A 
HETATM   16  C   UNK N   1      36.246  14.658   8.907  0.00  0.00     0.040 A 
HETATM   17  C   UNK N   1      35.060  14.907   9.605  0.00  0.00     0.103 A 
HETATM   18  C   UNK N   1      34.890  14.410  10.903  0.00  0.00     0.113 A 
BRANCH  17  19
HETATM   19  O   UNK N   1      34.074  15.626   9.027  0.00  0.00    -0.343 OA
BRANCH  19  20
HETATM   20  C   UNK N   1      34.325  16.465   7.954  0.00  0.00     0.132 C 
HETATM   21  C   UNK N   1      33.827  17.881   8.285  0.00  0.00     0.033 C 
HETATM   22  C   UNK N   1      32.299  17.906   8.375  0.00  0.00     0.002 C 
HETATM   23  C   UNK N   1      31.623  17.325   7.124  0.00  0.00     0.001 C 
HETATM   24  C   UNK N   1      32.626  16.862   6.066  0.00  0.00     0.007 C 
HETATM   25  C   UNK N   1      33.641  15.892   6.677  0.00  0.00     0.011 C 
HETATM   26  C   UNK N   1      34.672  15.538   5.618  0.00  0.00     0.012 C 
ENDBRANCH  19  20
ENDBRANCH  17  19
BRANCH  18  27
HETATM   27  O   UNK N   1      33.745  14.672  11.561  0.00  0.00    -0.357 OA
HETATM   28  H   UNK N   1      33.132  15.292  11.219  0.00  0.00     0.217 HD
ENDBRANCH  18  27
ENDBRANCH   7  13
BRANCH   3  29
HETATM   29  C   UNK N   1      35.281  12.671  18.719  0.00  0.00     0.105 C 
HETATM   30  N   UNK N   1      34.978  13.837  19.157  0.00  0.00    -0.385 N 
HETATM   31  H   UNK N   1      35.069  14.042  20.116  0.00  0.00     0.157 HD
ATOM     32  HN  UNK N   1      34.643  14.552  18.512  1.00  0.00     0.157 HD
BRANCH  29  33
HETATM   33  N   UNK N   1      35.602  11.650  19.643  0.00  0.00    -0.385 N 
HETATM   34  H   UNK N   1      34.934  11.344  20.299  0.00  0.00     0.157 HD
HETATM   35  H   UNK N   1      36.497  11.242  19.630  0.00  0.00     0.157 HD
ENDBRANCH  29  33
ENDBRANCH   3  29
TORSDOF 6
ENDMDL
MODEL 6
REMARK VINA RESULT:      -7.6      3.509      9.005
REMARK  6 active torsions:
REMARK  status: ('A' for Active; 'I' for Inactive)
REMARK    1  A    between atoms: C_21  and  C_12 
REMARK    2  A    between atoms: C_20  and  C_13 
REMARK    3  A    between atoms: C_17  and  O_30 
REMARK    4  A    between atoms: O_30  and  C_18 
REMARK    5  A    between atoms: O_29  and  C_19 
REMARK    6  A    between atoms: N_25  and  C_20 
ROOT
HETATM    1  C   UNK N   1      32.285  15.403   9.104  0.00  0.00     0.050 A 
HETATM    2  C   UNK N   1      34.551  17.111   9.107  0.00  0.00     0.075 A 
HETATM    3  C   UNK N   1      32.183  16.707   8.566  0.00  0.00     0.048 A 
HETATM    4  C   UNK N   1      33.329  17.564   8.581  0.00  0.00     0.132 A 
HETATM    5  C   UNK N   1      33.509  15.007   9.623  0.00  0.00     0.061 A 
HETATM    6  C   UNK N   1      34.594  15.821   9.615  0.00  0.00     0.063 A 
HETATM    7  C   UNK N   1      35.131  13.990  10.546  0.00  0.00     0.119 A 
HETATM    8  F   UNK N   1      33.266  18.829   8.094  0.00  0.00    -0.205 F 
HETATM    9  N   UNK N   1      33.823  13.842  10.213  0.00  0.00    -0.340 N 
ATOM     10  HN  UNK N   1      33.219  13.036  10.374  1.00  0.00     0.167 HD
HETATM   11  N   UNK N   1      35.631  15.202  10.183  0.00  0.00    -0.340 N 
HETATM   12  H   UNK N   1      36.546  15.542  10.310  0.00  0.00     0.167 HD
ENDROOT
BRANCH   7  13
HETATM   13  C   UNK N   1      35.904  12.988  11.303  0.00  0.00     0.044 A 
HETATM   14  C   UNK N   1      37.110  12.506  10.773  0.00  0.00     0.018 A 
HETATM   15  C   UNK N   1      37.828  11.510  11.439  0.00  0.00     0.004 A 
HETATM   16  C   UNK N   1      37.354  10.995  12.646  0.00  0.00     0.040 A 
HETATM   17  C   UNK N   1      36.166  11.484  13.198  0.00  0.00     0.103 A 
HETATM   18  C   UNK N   1      35.435  12.473  12.530  0.00  0.00     0.113 A 
BRANCH  17  19
HETATM   19  O   UNK N   1      35.724  11.005  14.380  0.00  0.00    -0.343 OA
BRANCH  19  20
HETATM   20  C   UNK N   1      36.336  11.348  15.574  0.00  0.00     0.132 C 
HETATM   21  C   UNK N   1      36.962  10.094  16.206  0.00  0.00     0.033 C 
HETATM   22  C   UNK N   1      35.872   9.120  16.661  0.00  0.00     0.002 C 
HETATM   23  C   UNK N   1      34.832   9.781  17.578  0.00  0.00     0.001 C 
HETATM   24  C   UNK N   1      35.123  11.260  17.839  0.00  0.00     0.007 C 
HETATM   25  C   UNK N   1      35.292  12.015  16.518  0.00  0.00     0.011 C 
HETATM   26  C   UNK N   1      35.676  13.453  16.827  0.00  0.00     0.012 C 
ENDBRANCH  19  20
ENDBRANCH  17  19
BRANCH  18  27
HETATM   27  O   UNK N   1      34.288  12.921  13.073  0.00  0.00    -0.357 OA
HETATM   28  H   UNK N   1      33.984  13.790  12.892  0.00  0.00     0.217 HD
ENDBRANCH  18  27
ENDBRANCH   7  13
BRANCH   3  29
HETATM   29  C   UNK N   1      30.881  17.146   8.004  0.00  0.00     0.105 C 
HETATM   30  N   UNK N   1      30.691  17.187   6.737  0.00  0.00    -0.385 N 
HETATM   31  H   UNK N   1      29.856  17.564   6.376  0.00  0.00     0.157 HD
ATOM     32  HN  UNK N   1      31.403  16.826   6.103  1.00  0.00     0.157 HD
BRANCH  29  33
HETATM   33  N   UNK N   1      29.826  17.512   8.872  0.00  0.00    -0.385 N 
HETATM   34  H   UNK N   1      29.187  18.215   8.612  0.00  0.00     0.157 HD
HETATM   35  H   UNK N   1      29.728  17.060   9.741  0.00  0.00     0.157 HD
ENDBRANCH  29  33
ENDBRANCH   3  29
TORSDOF 6
ENDMDL
MODEL 7
REMARK VINA RESULT:      -7.3      5.721      9.119
REMARK  6 active torsions:
REMARK  status: ('A' for Active; 'I' for Inactive)
REMARK    1  A    between atoms: C_21  and  C_12 
REMARK    2  A    between atoms: C_20  and  C_13 
REMARK    3  A    between atoms: C_17  and  O_30 
REMARK    4  A    between atoms: O_30  and  C_18 
REMARK    5  A    between atoms: O_29  and  C_19 
REMARK    6  A    between atoms: N_25  and  C_20 
ROOT
HETATM    1  C   UNK N   1      30.465  17.218   7.856  0.00  0.00     0.050 A 
HETATM    2  C   UNK N   1      31.667  16.852   5.313  0.00  0.00     0.075 A 
HETATM    3  C   UNK N   1      31.751  16.636   7.764  0.00  0.00     0.048 A 
HETATM    4  C   UNK N   1      32.345  16.447   6.476  0.00  0.00     0.132 A 
HETATM    5  C   UNK N   1      29.833  17.589   6.679  0.00  0.00     0.061 A 
HETATM    6  C   UNK N   1      30.412  17.423   5.465  0.00  0.00     0.063 A 
HETATM    7  C   UNK N   1      28.485  18.267   5.182  0.00  0.00     0.119 A 
HETATM    8  F   UNK N   1      33.567  15.873   6.343  0.00  0.00    -0.205 F 
HETATM    9  N   UNK N   1      28.608  18.118   6.526  0.00  0.00    -0.340 N 
ATOM     10  HN  UNK N   1      27.929  18.352   7.251  1.00  0.00     0.167 HD
HETATM   11  N   UNK N   1      29.588  17.849   4.505  0.00  0.00    -0.340 N 
HETATM   12  H   UNK N   1      29.743  17.860   3.533  0.00  0.00     0.167 HD
ENDROOT
BRANCH   7  13
HETATM   13  C   UNK N   1      27.257  18.741   4.517  0.00  0.00     0.044 A 
HETATM   14  C   UNK N   1      27.280  19.954   3.813  0.00  0.00     0.018 A 
HETATM   15  C   UNK N   1      26.115  20.456   3.229  0.00  0.00     0.004 A 
HETATM   16  C   UNK N   1      24.918  19.745   3.333  0.00  0.00     0.040 A 
HETATM   17  C   UNK N   1      24.887  18.523   4.011  0.00  0.00     0.103 A 
HETATM   18  C   UNK N   1      26.048  18.020   4.609  0.00  0.00     0.113 A 
BRANCH  17  19
HETATM   19  O   UNK N   1      23.735  17.822   4.086  0.00  0.00    -0.343 OA
BRANCH  19  20
HETATM   20  C   UNK N   1      22.540  18.429   4.435  0.00  0.00     0.132 C 
HETATM   21  C   UNK N   1      22.165  18.030   5.872  0.00  0.00     0.033 C 
HETATM   22  C   UNK N   1      21.813  16.542   5.942  0.00  0.00     0.002 C 
HETATM   23  C   UNK N   1      20.737  16.139   4.923  0.00  0.00     0.001 C 
HETATM   24  C   UNK N   1      20.251  17.316   4.074  0.00  0.00     0.007 C 
HETATM   25  C   UNK N   1      21.436  18.025   3.413  0.00  0.00     0.011 C 
HETATM   26  C   UNK N   1      20.916  19.241   2.664  0.00  0.00     0.012 C 
ENDBRANCH  19  20
ENDBRANCH  17  19
BRANCH  18  27
HETATM   27  O   UNK N   1      25.993  16.846   5.267  0.00  0.00    -0.357 OA
HETATM   28  H   UNK N   1      25.916  16.829   6.201  0.00  0.00     0.217 HD
ENDBRANCH  18  27
ENDBRANCH   7  13
BRANCH   3  29
HETATM   29  C   UNK N   1      32.444  16.234   9.014  0.00  0.00     0.105 C 
HETATM   30  N   UNK N   1      33.510  16.833   9.397  0.00  0.00    -0.385 N 
HETATM   31  H   UNK N   1      34.009  16.500  10.178  0.00  0.00     0.157 HD
ATOM     32  HN  UNK N   1      33.841  17.656   8.894  1.00  0.00     0.157 HD
BRANCH  29  33
HETATM   33  N   UNK N   1      31.917  15.189   9.808  0.00  0.00    -0.385 N 
HETATM   34  H   UNK N   1      32.399  14.334   9.890  0.00  0.00     0.157 HD
HETATM   35  H   UNK N   1      31.063  15.316  10.281  0.00  0.00     0.157 HD
ENDBRANCH  29  33
ENDBRANCH   3  29
TORSDOF 6
ENDMDL
MODEL 8
REMARK VINA RESULT:      -7.2      3.800      9.026
REMARK  6 active torsions:
REMARK  status: ('A' for Active; 'I' for Inactive)
REMARK    1  A    between atoms: C_21  and  C_12 
REMARK    2  A    between atoms: C_20  and  C_13 
REMARK    3  A    between atoms: C_17  and  O_30 
REMARK    4  A    between atoms: O_30  and  C_18 
REMARK    5  A    between atoms: O_29  and  C_19 
REMARK    6  A    between atoms: N_25  and  C_20 
ROOT
HETATM    1  C   UNK N   1      31.749  15.912   8.164  0.00  0.00     0.050 A 
HETATM    2  C   UNK N   1      33.923  16.643   6.493  0.00  0.00     0.075 A 
HETATM    3  C   UNK N   1      31.523  16.736   7.037  0.00  0.00     0.048 A 
HETATM    4  C   UNK N   1      32.627  17.107   6.205  0.00  0.00     0.132 A 
HETATM    5  C   UNK N   1      33.047  15.491   8.412  0.00  0.00     0.061 A 
HETATM    6  C   UNK N   1      34.083  15.833   7.607  0.00  0.00     0.063 A 
HETATM    7  C   UNK N   1      34.831  14.649   9.203  0.00  0.00     0.119 A 
HETATM    8  F   UNK N   1      32.455  17.913   5.128  0.00  0.00    -0.205 F 
HETATM    9  N   UNK N   1      33.496  14.744   9.434  0.00  0.00    -0.340 N 
ATOM     10  HN  UNK N   1      32.960  14.344  10.204  1.00  0.00     0.167 HD
HETATM   11  N   UNK N   1      35.217  15.309   8.078  0.00  0.00    -0.340 N 
HETATM   12  H   UNK N   1      36.123  15.382   7.699  0.00  0.00     0.167 HD
ENDROOT
BRANCH   7  13
HETATM   13  C   UNK N   1      35.777  13.984  10.118  0.00  0.00     0.044 A 
HETATM   14  C   UNK N   1      36.982  13.476   9.611  0.00  0.00     0.018 A 
HETATM   15  C   UNK N   1      37.866  12.786  10.444  0.00  0.00     0.004 A 
HETATM   16  C   UNK N   1      37.560  12.607  11.794  0.00  0.00     0.040 A 
HETATM   17  C   UNK N   1      36.373  13.129  12.317  0.00  0.00     0.103 A 
HETATM   18  C   UNK N   1      35.477  13.812  11.485  0.00  0.00     0.113 A 
BRANCH  17  19
HETATM   19  O   UNK N   1      36.091  12.980  13.629  0.00  0.00    -0.343 OA
BRANCH  19  20
HETATM   20  C   UNK N   1      35.725  11.753  14.155  0.00  0.00     0.132 C 
HETATM   21  C   UNK N   1      34.325  11.862  14.782  0.00  0.00     0.033 C 
HETATM   22  C   UNK N   1      34.360  12.757  16.024  0.00  0.00     0.002 C 
HETATM   23  C   UNK N   1      35.425  12.317  17.040  0.00  0.00     0.001 C 
HETATM   24  C   UNK N   1      36.203  11.080  16.590  0.00  0.00     0.007 C 
HETATM   25  C   UNK N   1      36.792  11.295  15.193  0.00  0.00     0.011 C 
HETATM   26  C   UNK N   1      37.469  10.009  14.749  0.00  0.00     0.012 C 
ENDBRANCH  19  20
ENDBRANCH  17  19
BRANCH  18  27
HETATM   27  O   UNK N   1      34.335  14.296  12.008  0.00  0.00    -0.357 OA
HETATM   28  H   UNK N   1      33.644  14.591  11.447  0.00  0.00     0.217 HD
ENDBRANCH  18  27
ENDBRANCH   7  13
BRANCH   3  29
HETATM   29  C   UNK N   1      30.139  17.195   6.755  0.00  0.00     0.105 C 
HETATM   30  N   UNK N   1      29.509  17.937   7.588  0.00  0.00    -0.385 N 
HETATM   31  H   UNK N   1      28.562  18.159   7.432  0.00  0.00     0.157 HD
ATOM     32  HN  UNK N   1      29.988  18.298   8.412  1.00  0.00     0.157 HD
BRANCH  29  33
HETATM   33  N   UNK N   1      29.507  16.826   5.545  0.00  0.00    -0.385 N 
HETATM   34  H   UNK N   1      29.433  17.471   4.804  0.00  0.00     0.157 HD
HETATM   35  H   UNK N   1      29.137  15.919   5.442  0.00  0.00     0.157 HD
ENDBRANCH  29  33
ENDBRANCH   3  29
TORSDOF 6
ENDMDL
MODEL 9
REMARK VINA RESULT:      -7.2      3.475      5.323
REMARK  6 active torsions:
REMARK  status: ('A' for Active; 'I' for Inactive)
REMARK    1  A    between atoms: C_21  and  C_12 
REMARK    2  A    between atoms: C_20  and  C_13 
REMARK    3  A    between atoms: C_17  and  O_30 
REMARK    4  A    between atoms: O_30  and  C_18 
REMARK    5  A    between atoms: O_29  and  C_19 
REMARK    6  A    between atoms: N_25  and  C_20 
ROOT
HETATM    1  C   UNK N   1      35.297  15.410   9.806  0.00  0.00     0.050 A 
HETATM    2  C   UNK N   1      34.242  13.533   7.958  0.00  0.00     0.075 A 
HETATM    3  C   UNK N   1      36.062  14.278   9.440  0.00  0.00     0.048 A 
HETATM    4  C   UNK N   1      35.518  13.332   8.514  0.00  0.00     0.132 A 
HETATM    5  C   UNK N   1      34.040  15.557   9.239  0.00  0.00     0.061 A 
HETATM    6  C   UNK N   1      33.541  14.665   8.349  0.00  0.00     0.063 A 
HETATM    7  C   UNK N   1      32.086  16.175   8.676  0.00  0.00     0.119 A 
HETATM    8  F   UNK N   1      36.210  12.223   8.155  0.00  0.00    -0.205 F 
HETATM    9  N   UNK N   1      33.134  16.522   9.467  0.00  0.00    -0.340 N 
ATOM     10  HN  UNK N   1      33.215  17.326  10.090  1.00  0.00     0.167 HD
HETATM   11  N   UNK N   1      32.315  15.035   7.972  0.00  0.00    -0.340 N 
HETATM   12  H   UNK N   1      31.715  14.587   7.332  0.00  0.00     0.167 HD
ENDROOT
BRANCH   7  13
HETATM   13  C   UNK N   1      30.802  16.900   8.651  0.00  0.00     0.044 A 
HETATM   14  C   UNK N   1      30.080  17.061   9.842  0.00  0.00     0.018 A 
HETATM   15  C   UNK N   1      28.830  17.687   9.834  0.00  0.00     0.004 A 
HETATM   16  C   UNK N   1      28.297  18.168   8.637  0.00  0.00     0.040 A 
HETATM   17  C   UNK N   1      29.018  18.036   7.447  0.00  0.00     0.103 A 
HETATM   18  C   UNK N   1      30.265  17.399   7.446  0.00  0.00     0.113 A 
BRANCH  17  19
HETATM   19  O   UNK N   1      28.514  18.527   6.294  0.00  0.00    -0.343 OA
BRANCH  19  20
HETATM   20  C   UNK N   1      27.202  18.959   6.205  0.00  0.00     0.132 C 
HETATM   21  C   UNK N   1      26.470  18.150   5.121  0.00  0.00     0.033 C 
HETATM   22  C   UNK N   1      27.024  18.487   3.734  0.00  0.00     0.002 C 
HETATM   23  C   UNK N   1      27.018  19.995   3.443  0.00  0.00     0.001 C 
HETATM   24  C   UNK N   1      26.452  20.822   4.600  0.00  0.00     0.007 C 
HETATM   25  C   UNK N   1      27.179  20.487   5.905  0.00  0.00     0.011 C 
HETATM   26  C   UNK N   1      26.519  21.256   7.038  0.00  0.00     0.012 C 
ENDBRANCH  19  20
ENDBRANCH  17  19
BRANCH  18  27
HETATM   27  O   UNK N   1      30.937  17.272   6.286  0.00  0.00    -0.357 OA
HETATM   28  H   UNK N   1      30.740  17.831   5.560  0.00  0.00     0.217 HD
ENDBRANCH  18  27
ENDBRANCH   7  13
BRANCH   3  29
HETATM   29  C   UNK N   1      37.411  14.106  10.036  0.00  0.00     0.105 C 
HETATM   30  N   UNK N   1      37.552  13.839  11.282  0.00  0.00    -0.385 N 
HETATM   31  H   UNK N   1      38.451  13.816  11.682  0.00  0.00     0.157 HD
ATOM     32  HN  UNK N   1      36.732  13.648  11.858  1.00  0.00     0.157 HD
BRANCH  29  33
HETATM   33  N   UNK N   1      38.561  14.220   9.221  0.00  0.00    -0.385 N 
HETATM   34  H   UNK N   1      39.348  14.722   9.537  0.00  0.00     0.157 HD
HETATM   35  H   UNK N   1      38.576  13.795   8.333  0.00  0.00     0.157 HD
ENDBRANCH  29  33
ENDBRANCH   3  29
TORSDOF 6
ENDMDL
