MODEL 1
REMARK VINA RESULT:      -4.3      0.000      0.000
REMARK  4 active torsions:
REMARK  status: ('A' for Active; 'I' for Inactive)
REMARK    1  A    between atoms: C_2  and  C_1 
REMARK    2  A    between atoms: C_3  and  C_1 
REMARK    3  A    between atoms: C_1  and  N_7 
REMARK    4  A    between atoms: O_9  and  C_2 
ROOT
HETATM    1  C   UNK N   1      20.636  19.330   1.991  0.00  0.00     0.282 C 
ENDROOT
BRANCH   1   2
HETATM    2  C   UNK N   1      20.889  20.628   1.263  0.00  0.00     0.172 C 
HETATM    3  O   UNK N   1      21.109  20.610   0.062  0.00  0.00    -0.648 OA
BRANCH   2   4
HETATM    4  O   UNK N   1      20.898  21.805   1.919  0.00  0.00    -0.775 OA
HETATM    5  H   UNK N   1      21.039  22.611   1.463  0.00  0.00     0.167 HD
ENDBRANCH   2   4
ENDBRANCH   1   2
BRANCH   1   6
HETATM    6  C   UNK N   1      21.462  19.165   3.276  0.00  0.00     0.416 C 
HETATM    7  F   UNK N   1      20.843  19.796   4.341  0.00  0.00    -0.168 F 
HETATM    8  F   UNK N   1      22.729  19.696   3.107  0.00  0.00    -0.168 F 
HETATM    9  F   UNK N   1      21.589  17.818   3.568  0.00  0.00    -0.168 F 
ENDBRANCH   1   6
BRANCH   1  10
HETATM   10  N   UNK N   1      19.220  19.230   2.313  0.00  0.00    -0.411 N 
HETATM   11  H   UNK N   1      18.577  19.701   2.949  0.00  0.00     0.151 HD
HETATM   12  H   UNK N   1      18.754  18.508   1.764  0.00  0.00     0.151 HD
ENDBRANCH   1  10
TORSDOF 4
ENDMDL
MODEL 2
REMARK VINA RESULT:      -4.2     11.144     11.773
REMARK  4 active torsions:
REMARK  status: ('A' for Active; 'I' for Inactive)
REMARK    1  A    between atoms: C_2  and  C_1 
REMARK    2  A    between atoms: C_3  and  C_1 
REMARK    3  A    between atoms: C_1  and  N_7 
REMARK    4  A    between atoms: O_9  and  C_2 
ROOT
HETATM    1  C   UNK N   1      22.920  11.584  10.471  0.00  0.00     0.282 C 
ENDROOT
BRANCH   1   2
HETATM    2  C   UNK N   1      23.708  11.962  11.702  0.00  0.00     0.172 C 
HETATM    3  O   UNK N   1      23.176  11.899  12.799  0.00  0.00    -0.648 OA
BRANCH   2   4
HETATM    4  O   UNK N   1      24.984  12.387  11.610  0.00  0.00    -0.775 OA
HETATM    5  H   UNK N   1      25.226  13.251  11.879  0.00  0.00     0.167 HD
ENDBRANCH   2   4
ENDBRANCH   1   2
BRANCH   1   6
HETATM    6  C   UNK N   1      21.709  12.492  10.204  0.00  0.00     0.416 C 
HETATM    7  F   UNK N   1      20.700  12.243  11.119  0.00  0.00    -0.168 F 
HETATM    8  F   UNK N   1      21.224  12.285   8.925  0.00  0.00    -0.168 F 
HETATM    9  F   UNK N   1      22.096  13.816  10.316  0.00  0.00    -0.168 F 
ENDBRANCH   1   6
BRANCH   1  10
HETATM   10  N   UNK N   1      23.802  11.605   9.313  0.00  0.00    -0.411 N 
HETATM   11  H   UNK N   1      24.799  11.742   9.152  0.00  0.00     0.151 HD
HETATM   12  H   UNK N   1      23.294  11.439   8.444  0.00  0.00     0.151 HD
ENDBRANCH   1  10
TORSDOF 4
ENDMDL
MODEL 3
REMARK VINA RESULT:      -4.1     11.294     11.969
REMARK  4 active torsions:
REMARK  status: ('A' for Active; 'I' for Inactive)
REMARK    1  A    between atoms: C_2  and  C_1 
REMARK    2  A    between atoms: C_3  and  C_1 
REMARK    3  A    between atoms: C_1  and  N_7 
REMARK    4  A    between atoms: O_9  and  C_2 
ROOT
HETATM    1  C   UNK N   1      23.846  12.004  10.946  0.00  0.00     0.282 C 
ENDROOT
BRANCH   1   2
HETATM    2  C   UNK N   1      23.162  11.918  12.288  0.00  0.00     0.172 C 
HETATM    3  O   UNK N   1      23.786  12.198  13.300  0.00  0.00    -0.648 OA
BRANCH   2   4
HETATM    4  O   UNK N   1      21.879  11.519  12.393  0.00  0.00    -0.775 OA
HETATM    5  H   UNK N   1      21.260  12.011  12.896  0.00  0.00     0.167 HD
ENDBRANCH   2   4
ENDBRANCH   1   2
BRANCH   1   6
HETATM    6  C   UNK N   1      23.025  12.740   9.875  0.00  0.00     0.416 C 
HETATM    7  F   UNK N   1      23.859  13.387   8.978  0.00  0.00    -0.168 F 
HETATM    8  F   UNK N   1      22.183  13.667  10.464  0.00  0.00    -0.168 F 
HETATM    9  F   UNK N   1      22.251  11.825   9.182  0.00  0.00    -0.168 F 
ENDBRANCH   1   6
BRANCH   1  10
HETATM   10  N   UNK N   1      25.133  12.665  11.105  0.00  0.00    -0.411 N 
HETATM   11  H   UNK N   1      26.051  12.407  11.465  0.00  0.00     0.151 HD
HETATM   12  H   UNK N   1      25.110  13.629  10.771  0.00  0.00     0.151 HD
ENDBRANCH   1  10
TORSDOF 4
ENDMDL
MODEL 4
REMARK VINA RESULT:      -4.0     14.587     15.117
REMARK  4 active torsions:
REMARK  status: ('A' for Active; 'I' for Inactive)
REMARK    1  A    between atoms: C_2  and  C_1 
REMARK    2  A    between atoms: C_3  and  C_1 
REMARK    3  A    between atoms: C_1  and  N_7 
REMARK    4  A    between atoms: O_9  and  C_2 
ROOT
HETATM    1  C   UNK N   1      34.093  17.192   9.084  0.00  0.00     0.282 C 
ENDROOT
BRANCH   1   2
HETATM    2  C   UNK N   1      34.614  18.235   8.126  0.00  0.00     0.172 C 
HETATM    3  O   UNK N   1      35.278  19.167   8.554  0.00  0.00    -0.648 OA
BRANCH   2   4
HETATM    4  O   UNK N   1      34.344  18.168   6.807  0.00  0.00    -0.775 OA
HETATM    5  H   UNK N   1      34.374  17.352   6.349  0.00  0.00     0.167 HD
ENDBRANCH   2   4
ENDBRANCH   1   2
BRANCH   1   6
HETATM    6  C   UNK N   1      34.109  15.763   8.518  0.00  0.00     0.416 C 
HETATM    7  F   UNK N   1      34.129  14.831   9.541  0.00  0.00    -0.168 F 
HETATM    8  F   UNK N   1      35.217  15.577   7.710  0.00  0.00    -0.168 F 
HETATM    9  F   UNK N   1      32.972  15.561   7.754  0.00  0.00    -0.168 F 
ENDBRANCH   1   6
BRANCH   1  10
HETATM   10  N   UNK N   1      34.877  17.233  10.309  0.00  0.00    -0.411 N 
HETATM   11  H   UNK N   1      35.647  17.795  10.670  0.00  0.00     0.151 HD
HETATM   12  H   UNK N   1      34.580  16.520  10.976  0.00  0.00     0.151 HD
ENDBRANCH   1  10
TORSDOF 4
ENDMDL
MODEL 5
REMARK VINA RESULT:      -4.0     13.179     13.693
REMARK  4 active torsions:
REMARK  status: ('A' for Active; 'I' for Inactive)
REMARK    1  A    between atoms: C_2  and  C_1 
REMARK    2  A    between atoms: C_3  and  C_1 
REMARK    3  A    between atoms: C_1  and  N_7 
REMARK    4  A    between atoms: O_9  and  C_2 
ROOT
HETATM    1  C   UNK N   1      33.442  17.235   8.634  0.00  0.00     0.282 C 
ENDROOT
BRANCH   1   2
HETATM    2  C   UNK N   1      34.358  18.137   7.843  0.00  0.00     0.172 C 
HETATM    3  O   UNK N   1      34.528  17.926   6.652  0.00  0.00    -0.648 OA
BRANCH   2   4
HETATM    4  O   UNK N   1      35.009  19.160   8.432  0.00  0.00    -0.775 OA
HETATM    5  H   UNK N   1      35.207  19.143   9.347  0.00  0.00     0.167 HD
ENDBRANCH   2   4
ENDBRANCH   1   2
BRANCH   1   6
HETATM    6  C   UNK N   1      31.948  17.483   8.375  0.00  0.00     0.416 C 
HETATM    7  F   UNK N   1      31.592  18.768   8.750  0.00  0.00    -0.168 F 
HETATM    8  F   UNK N   1      31.179  16.574   9.080  0.00  0.00    -0.168 F 
HETATM    9  F   UNK N   1      31.685  17.324   7.025  0.00  0.00    -0.168 F 
ENDBRANCH   1   6
BRANCH   1  10
HETATM   10  N   UNK N   1      33.759  15.847   8.333  0.00  0.00    -0.411 N 
HETATM   11  H   UNK N   1      34.468  15.357   7.788  0.00  0.00     0.151 HD
HETATM   12  H   UNK N   1      33.109  15.201   8.781  0.00  0.00     0.151 HD
ENDBRANCH   1  10
TORSDOF 4
ENDMDL
MODEL 6
REMARK VINA RESULT:      -3.9     23.167     23.604
REMARK  4 active torsions:
REMARK  status: ('A' for Active; 'I' for Inactive)
REMARK    1  A    between atoms: C_2  and  C_1 
REMARK    2  A    between atoms: C_3  and  C_1 
REMARK    3  A    between atoms: C_1  and  N_7 
REMARK    4  A    between atoms: O_9  and  C_2 
ROOT
HETATM    1  C   UNK N   1      43.936  22.786   2.706  0.00  0.00     0.282 C 
ENDROOT
BRANCH   1   2
HETATM    2  C   UNK N   1      44.923  23.884   2.390  0.00  0.00     0.172 C 
HETATM    3  O   UNK N   1      44.915  24.909   3.054  0.00  0.00    -0.648 OA
BRANCH   2   4
HETATM    4  O   UNK N   1      45.801  23.761   1.375  0.00  0.00    -0.775 OA
HETATM    5  H   UNK N   1      46.502  23.141   1.415  0.00  0.00     0.167 HD
ENDBRANCH   2   4
ENDBRANCH   1   2
BRANCH   1   6
HETATM    6  C   UNK N   1      44.250  22.020   4.000  0.00  0.00     0.416 C 
HETATM    7  F   UNK N   1      43.639  22.622   5.087  0.00  0.00    -0.168 F 
HETATM    8  F   UNK N   1      45.616  21.974   4.214  0.00  0.00    -0.168 F 
HETATM    9  F   UNK N   1      43.781  20.722   3.888  0.00  0.00    -0.168 F 
ENDBRANCH   1   6
BRANCH   1  10
HETATM   10  N   UNK N   1      42.599  23.355   2.795  0.00  0.00    -0.411 N 
HETATM   11  H   UNK N   1      41.680  23.027   3.089  0.00  0.00     0.151 HD
HETATM   12  H   UNK N   1      42.577  24.327   2.487  0.00  0.00     0.151 HD
ENDBRANCH   1  10
TORSDOF 4
ENDMDL
MODEL 7
REMARK VINA RESULT:      -3.9     22.671     23.177
REMARK  4 active torsions:
REMARK  status: ('A' for Active; 'I' for Inactive)
REMARK    1  A    between atoms: C_2  and  C_1 
REMARK    2  A    between atoms: C_3  and  C_1 
REMARK    3  A    between atoms: C_1  and  N_7 
REMARK    4  A    between atoms: O_9  and  C_2 
ROOT
HETATM    1  C   UNK N   1      44.210  22.088   4.016  0.00  0.00     0.282 C 
ENDROOT
BRANCH   1   2
HETATM    2  C   UNK N   1      43.742  23.323   3.286  0.00  0.00     0.172 C 
HETATM    3  O   UNK N   1      44.526  24.240   3.091  0.00  0.00    -0.648 OA
BRANCH   2   4
HETATM    4  O   UNK N   1      42.468  23.442   2.861  0.00  0.00    -0.775 OA
HETATM    5  H   UNK N   1      42.157  24.242   2.486  0.00  0.00     0.167 HD
ENDBRANCH   2   4
ENDBRANCH   1   2
BRANCH   1   6
HETATM    6  C   UNK N   1      43.874  20.773   3.294  0.00  0.00     0.416 C 
HETATM    7  F   UNK N   1      43.867  20.956   1.922  0.00  0.00    -0.168 F 
HETATM    8  F   UNK N   1      42.636  20.304   3.697  0.00  0.00    -0.168 F 
HETATM    9  F   UNK N   1      44.827  19.821   3.612  0.00  0.00    -0.168 F 
ENDBRANCH   1   6
BRANCH   1  10
HETATM   10  N   UNK N   1      45.648  22.170   4.223  0.00  0.00    -0.411 N 
HETATM   11  H   UNK N   1      46.467  22.320   3.635  0.00  0.00     0.151 HD
HETATM   12  H   UNK N   1      45.900  22.045   5.204  0.00  0.00     0.151 HD
ENDBRANCH   1  10
TORSDOF 4
ENDMDL
MODEL 8
REMARK VINA RESULT:      -3.9     10.641     11.040
REMARK  4 active torsions:
REMARK  status: ('A' for Active; 'I' for Inactive)
REMARK    1  A    between atoms: C_2  and  C_1 
REMARK    2  A    between atoms: C_3  and  C_1 
REMARK    3  A    between atoms: C_1  and  N_7 
REMARK    4  A    between atoms: O_9  and  C_2 
ROOT
HETATM    1  C   UNK N   1      22.489  13.175  10.239  0.00  0.00     0.282 C 
ENDROOT
BRANCH   1   2
HETATM    2  C   UNK N   1      21.117  12.980   9.641  0.00  0.00     0.172 C 
HETATM    3  O   UNK N   1      21.013  12.571   8.495  0.00  0.00    -0.648 OA
BRANCH   2   4
HETATM    4  O   UNK N   1      20.003  13.268  10.343  0.00  0.00    -0.775 OA
HETATM    5  H   UNK N   1      19.732  14.155  10.478  0.00  0.00     0.167 HD
ENDBRANCH   2   4
ENDBRANCH   1   2
BRANCH   1   6
HETATM    6  C   UNK N   1      22.951  12.011  11.131  0.00  0.00     0.416 C 
HETATM    7  F   UNK N   1      24.256  12.205  11.551  0.00  0.00    -0.168 F 
HETATM    8  F   UNK N   1      22.867  10.814  10.442  0.00  0.00    -0.168 F 
HETATM    9  F   UNK N   1      22.131  11.934  12.244  0.00  0.00    -0.168 F 
ENDBRANCH   1   6
BRANCH   1  10
HETATM   10  N   UNK N   1      23.454  13.374   9.169  0.00  0.00    -0.411 N 
HETATM   11  H   UNK N   1      24.216  14.024   8.979  0.00  0.00     0.151 HD
HETATM   12  H   UNK N   1      23.339  12.691   8.420  0.00  0.00     0.151 HD
ENDBRANCH   1  10
TORSDOF 4
ENDMDL
MODEL 9
REMARK VINA RESULT:      -3.6     22.194     22.712
REMARK  4 active torsions:
REMARK  status: ('A' for Active; 'I' for Inactive)
REMARK    1  A    between atoms: C_2  and  C_1 
REMARK    2  A    between atoms: C_3  and  C_1 
REMARK    3  A    between atoms: C_1  and  N_7 
REMARK    4  A    between atoms: O_9  and  C_2 
ROOT
HETATM    1  C   UNK N   1      43.684  22.324   2.901  0.00  0.00     0.282 C 
ENDROOT
BRANCH   1   2
HETATM    2  C   UNK N   1      44.454  22.333   4.199  0.00  0.00     0.172 C 
HETATM    3  O   UNK N   1      43.864  22.545   5.247  0.00  0.00    -0.648 OA
BRANCH   2   4
HETATM    4  O   UNK N   1      45.787  22.130   4.220  0.00  0.00    -0.775 OA
HETATM    5  H   UNK N   1      46.352  22.574   3.619  0.00  0.00     0.167 HD
ENDBRANCH   2   4
ENDBRANCH   1   2
BRANCH   1   6
HETATM    6  C   UNK N   1      42.839  21.059   2.687  0.00  0.00     0.416 C 
HETATM    7  F   UNK N   1      43.312  20.016   3.465  0.00  0.00    -0.168 F 
HETATM    8  F   UNK N   1      42.864  20.681   1.356  0.00  0.00    -0.168 F 
HETATM    9  F   UNK N   1      41.527  21.319   3.042  0.00  0.00    -0.168 F 
ENDBRANCH   1   6
BRANCH   1  10
HETATM   10  N   UNK N   1      42.820  23.495   2.849  0.00  0.00    -0.411 N 
HETATM   11  H   UNK N   1      41.850  23.681   2.597  0.00  0.00     0.151 HD
HETATM   12  H   UNK N   1      43.309  24.342   3.137  0.00  0.00     0.151 HD
ENDBRANCH   1  10
TORSDOF 4
ENDMDL
