MODEL 1
REMARK VINA RESULT:      -4.6      0.000      0.000
REMARK  6 active torsions:
REMARK  status: ('A' for Active; 'I' for Inactive)
REMARK    1  A    between atoms: C_3  and  C_2 
REMARK    2  A    between atoms: C_4  and  C_2 
REMARK    3  A    between atoms: C_5  and  C_3 
REMARK    4  A    between atoms: C_6  and  C_4 
REMARK    5  A    between atoms: C_4  and  N_7 
REMARK    6  A    between atoms: O_11  and  C_6 
ROOT
HETATM    1  C   UNK N   1      20.330  17.467   2.187  0.00  0.00     0.174 C 
ENDROOT
BRANCH   1   2
HETATM    2  C   UNK N   1      19.884  18.841   2.702  0.00  0.00     0.050 C 
BRANCH   2   3
HETATM    3  C   UNK N   1      20.937  19.716   3.420  0.00  0.00     0.085 C 
HETATM    4  C   UNK N   1      22.086  18.916   4.027  0.00  0.00     0.021 C 
BRANCH   3   5
HETATM    5  C   UNK N   1      21.490  20.793   2.522  0.00  0.00     0.176 C 
HETATM    6  O   UNK N   1      22.502  21.394   2.847  0.00  0.00    -0.648 OA
HETATM    7  O   UNK N   1      20.865  21.126   1.375  0.00  0.00    -0.648 OA
ENDBRANCH   3   5
ENDBRANCH   2   3
ENDBRANCH   1   2
BRANCH   1   8
HETATM    8  C   UNK N   1      20.277  17.459   0.684  0.00  0.00     0.163 C 
HETATM    9  O   UNK N   1      20.174  16.403   0.067  0.00  0.00    -0.648 OA
BRANCH   8  10
HETATM   10  O   UNK N   1      20.358  18.615   0.003  0.00  0.00    -0.775 OA
HETATM   11  H   UNK N   1      19.578  19.078  -0.230  0.00  0.00     0.167 HD
ENDBRANCH   8  10
ENDBRANCH   1   8
BRANCH   1  12
HETATM   12  N   UNK N   1      19.453  16.441   2.732  0.00  0.00    -0.418 N 
HETATM   13  H   UNK N   1      19.237  15.611   2.182  0.00  0.00     0.150 HD
HETATM   14  H   UNK N   1      19.056  16.554   3.664  0.00  0.00     0.150 HD
ENDBRANCH   1  12
TORSDOF 6
ENDMDL
MODEL 2
REMARK VINA RESULT:      -4.6      1.820      4.342
REMARK  6 active torsions:
REMARK  status: ('A' for Active; 'I' for Inactive)
REMARK    1  A    between atoms: C_3  and  C_2 
REMARK    2  A    between atoms: C_4  and  C_2 
REMARK    3  A    between atoms: C_5  and  C_3 
REMARK    4  A    between atoms: C_6  and  C_4 
REMARK    5  A    between atoms: C_4  and  N_7 
REMARK    6  A    between atoms: O_11  and  C_6 
ROOT
HETATM    1  C   UNK N   1      20.960  19.699   1.812  0.00  0.00     0.174 C 
ENDROOT
BRANCH   1   2
HETATM    2  C   UNK N   1      20.017  18.572   2.253  0.00  0.00     0.050 C 
BRANCH   2   3
HETATM    3  C   UNK N   1      20.489  17.116   2.042  0.00  0.00     0.085 C 
HETATM    4  C   UNK N   1      20.034  16.160   3.139  0.00  0.00     0.021 C 
BRANCH   3   5
HETATM    5  C   UNK N   1      20.078  16.574   0.696  0.00  0.00     0.176 C 
HETATM    6  O   UNK N   1      20.328  17.211  -0.316  0.00  0.00    -0.648 OA
HETATM    7  O   UNK N   1      19.411  15.408   0.594  0.00  0.00    -0.648 OA
ENDBRANCH   3   5
ENDBRANCH   2   3
ENDBRANCH   1   2
BRANCH   1   8
HETATM    8  C   UNK N   1      21.021  20.746   2.890  0.00  0.00     0.163 C 
HETATM    9  O   UNK N   1      20.296  20.671   3.877  0.00  0.00    -0.648 OA
BRANCH   8  10
HETATM   10  O   UNK N   1      21.865  21.785   2.769  0.00  0.00    -0.775 OA
HETATM   11  H   UNK N   1      22.611  21.721   2.206  0.00  0.00     0.167 HD
ENDBRANCH   8  10
ENDBRANCH   1   8
BRANCH   1  12
HETATM   12  N   UNK N   1      20.470  20.277   0.569  0.00  0.00    -0.418 N 
HETATM   13  H   UNK N   1      20.614  21.267   0.375  0.00  0.00     0.150 HD
HETATM   14  H   UNK N   1      19.982  19.690  -0.108  0.00  0.00     0.150 HD
ENDBRANCH   1  12
TORSDOF 6
ENDMDL
MODEL 3
REMARK VINA RESULT:      -4.5     12.676     14.218
REMARK  6 active torsions:
REMARK  status: ('A' for Active; 'I' for Inactive)
REMARK    1  A    between atoms: C_3  and  C_2 
REMARK    2  A    between atoms: C_4  and  C_2 
REMARK    3  A    between atoms: C_5  and  C_3 
REMARK    4  A    between atoms: C_6  and  C_4 
REMARK    5  A    between atoms: C_4  and  N_7 
REMARK    6  A    between atoms: O_11  and  C_6 
ROOT
HETATM    1  C   UNK N   1      31.969  15.688   8.754  0.00  0.00     0.174 C 
ENDROOT
BRANCH   1   2
HETATM    2  C   UNK N   1      33.427  16.008   8.400  0.00  0.00     0.050 C 
BRANCH   2   3
HETATM    3  C   UNK N   1      34.094  17.205   9.115  0.00  0.00     0.085 C 
HETATM    4  C   UNK N   1      35.188  16.798  10.097  0.00  0.00     0.021 C 
BRANCH   3   5
HETATM    5  C   UNK N   1      34.638  18.218   8.141  0.00  0.00     0.176 C 
HETATM    6  O   UNK N   1      35.255  19.188   8.556  0.00  0.00    -0.648 OA
HETATM    7  O   UNK N   1      34.430  18.086   6.816  0.00  0.00    -0.648 OA
ENDBRANCH   3   5
ENDBRANCH   2   3
ENDBRANCH   1   2
BRANCH   1   8
HETATM    8  C   UNK N   1      31.125  16.914   8.538  0.00  0.00     0.163 C 
HETATM    9  O   UNK N   1      31.022  17.415   7.422  0.00  0.00    -0.648 OA
BRANCH   8  10
HETATM   10  O   UNK N   1      30.487  17.482   9.576  0.00  0.00    -0.775 OA
HETATM   11  H   UNK N   1      29.742  17.060   9.956  0.00  0.00     0.167 HD
ENDBRANCH   8  10
ENDBRANCH   1   8
BRANCH   1  12
HETATM   12  N   UNK N   1      31.895  15.258  10.142  0.00  0.00    -0.418 N 
HETATM   13  H   UNK N   1      31.642  14.295  10.365  0.00  0.00     0.150 HD
HETATM   14  H   UNK N   1      32.096  15.919  10.892  0.00  0.00     0.150 HD
ENDBRANCH   1  12
TORSDOF 6
ENDMDL
MODEL 4
REMARK VINA RESULT:      -4.5     10.288     11.284
REMARK  6 active torsions:
REMARK  status: ('A' for Active; 'I' for Inactive)
REMARK    1  A    between atoms: C_3  and  C_2 
REMARK    2  A    between atoms: C_4  and  C_2 
REMARK    3  A    between atoms: C_5  and  C_3 
REMARK    4  A    between atoms: C_6  and  C_4 
REMARK    5  A    between atoms: C_4  and  N_7 
REMARK    6  A    between atoms: O_11  and  C_6 
ROOT
HETATM    1  C   UNK N   1      23.761  11.887  10.902  0.00  0.00     0.174 C 
ENDROOT
BRANCH   1   2
HETATM    2  C   UNK N   1      22.627  12.017   9.877  0.00  0.00     0.050 C 
BRANCH   2   3
HETATM    3  C   UNK N   1      22.072  13.432   9.596  0.00  0.00     0.085 C 
HETATM    4  C   UNK N   1      22.399  13.951   8.199  0.00  0.00     0.021 C 
BRANCH   3   5
HETATM    5  C   UNK N   1      20.586  13.517   9.833  0.00  0.00     0.176 C 
HETATM    6  O   UNK N   1      19.904  14.262   9.145  0.00  0.00    -0.648 OA
HETATM    7  O   UNK N   1      19.999  12.804  10.814  0.00  0.00    -0.648 OA
ENDBRANCH   3   5
ENDBRANCH   2   3
ENDBRANCH   1   2
BRANCH   1   8
HETATM    8  C   UNK N   1      23.178  11.871  12.288  0.00  0.00     0.163 C 
HETATM    9  O   UNK N   1      23.867  12.168  13.260  0.00  0.00    -0.648 OA
BRANCH   8  10
HETATM   10  O   UNK N   1      21.897  11.514  12.474  0.00  0.00    -0.775 OA
HETATM   11  H   UNK N   1      21.487  11.649  13.306  0.00  0.00     0.167 HD
ENDBRANCH   8  10
ENDBRANCH   1   8
BRANCH   1  12
HETATM   12  N   UNK N   1      24.678  13.008  10.749  0.00  0.00    -0.418 N 
HETATM   13  H   UNK N   1      24.837  13.415   9.828  0.00  0.00     0.150 HD
HETATM   14  H   UNK N   1      25.161  13.385  11.564  0.00  0.00     0.150 HD
ENDBRANCH   1  12
TORSDOF 6
ENDMDL
MODEL 5
REMARK VINA RESULT:      -4.5     12.034     13.792
REMARK  6 active torsions:
REMARK  status: ('A' for Active; 'I' for Inactive)
REMARK    1  A    between atoms: C_3  and  C_2 
REMARK    2  A    between atoms: C_4  and  C_2 
REMARK    3  A    between atoms: C_5  and  C_3 
REMARK    4  A    between atoms: C_6  and  C_4 
REMARK    5  A    between atoms: C_4  and  N_7 
REMARK    6  A    between atoms: O_11  and  C_6 
ROOT
HETATM    1  C   UNK N   1      33.570  17.590   8.933  0.00  0.00     0.174 C 
ENDROOT
BRANCH   1   2
HETATM    2  C   UNK N   1      32.773  16.560   8.122  0.00  0.00     0.050 C 
BRANCH   2   3
HETATM    3  C   UNK N   1      31.276  16.848   7.867  0.00  0.00     0.085 C 
HETATM    4  C   UNK N   1      30.723  17.995   8.707  0.00  0.00     0.021 C 
BRANCH   3   5
HETATM    5  C   UNK N   1      30.986  17.102   6.410  0.00  0.00     0.176 C 
HETATM    6  O   UNK N   1      29.831  17.104   6.013  0.00  0.00    -0.648 OA
HETATM    7  O   UNK N   1      31.988  17.299   5.529  0.00  0.00    -0.648 OA
ENDBRANCH   3   5
ENDBRANCH   2   3
ENDBRANCH   1   2
BRANCH   1   8
HETATM    8  C   UNK N   1      34.508  18.326   8.015  0.00  0.00     0.163 C 
HETATM    9  O   UNK N   1      35.269  19.183   8.455  0.00  0.00    -0.648 OA
BRANCH   8  10
HETATM   10  O   UNK N   1      34.507  18.058   6.699  0.00  0.00    -0.775 OA
HETATM   11  H   UNK N   1      33.700  17.891   6.254  0.00  0.00     0.167 HD
ENDBRANCH   8  10
ENDBRANCH   1   8
BRANCH   1  12
HETATM   12  N   UNK N   1      34.315  16.906   9.980  0.00  0.00    -0.418 N 
HETATM   13  H   UNK N   1      33.818  16.428  10.730  0.00  0.00     0.150 HD
HETATM   14  H   UNK N   1      35.335  16.905   9.961  0.00  0.00     0.150 HD
ENDBRANCH   1  12
TORSDOF 6
ENDMDL
MODEL 6
REMARK VINA RESULT:      -4.4      1.930      2.759
REMARK  6 active torsions:
REMARK  status: ('A' for Active; 'I' for Inactive)
REMARK    1  A    between atoms: C_3  and  C_2 
REMARK    2  A    between atoms: C_4  and  C_2 
REMARK    3  A    between atoms: C_5  and  C_3 
REMARK    4  A    between atoms: C_6  and  C_4 
REMARK    5  A    between atoms: C_4  and  N_7 
REMARK    6  A    between atoms: O_11  and  C_6 
ROOT
HETATM    1  C   UNK N   1      20.601  19.353   2.134  0.00  0.00     0.174 C 
ENDROOT
BRANCH   1   2
HETATM    2  C   UNK N   1      21.109  19.726   3.532  0.00  0.00     0.050 C 
BRANCH   2   3
HETATM    3  C   UNK N   1      22.440  19.097   4.004  0.00  0.00     0.085 C 
HETATM    4  C   UNK N   1      22.552  17.606   3.703  0.00  0.00     0.021 C 
BRANCH   3   5
HETATM    5  C   UNK N   1      23.640  19.818   3.446  0.00  0.00     0.176 C 
HETATM    6  O   UNK N   1      24.719  19.248   3.393  0.00  0.00    -0.648 OA
HETATM    7  O   UNK N   1      23.547  21.097   3.029  0.00  0.00    -0.648 OA
ENDBRANCH   3   5
ENDBRANCH   2   3
ENDBRANCH   1   2
BRANCH   1   8
HETATM    8  C   UNK N   1      20.814  20.514   1.201  0.00  0.00     0.163 C 
HETATM    9  O   UNK N   1      20.916  20.334  -0.009  0.00  0.00    -0.648 OA
BRANCH   8  10
HETATM   10  O   UNK N   1      20.911  21.760   1.692  0.00  0.00    -0.775 OA
HETATM   11  H   UNK N   1      20.535  21.968   2.525  0.00  0.00     0.167 HD
ENDBRANCH   8  10
ENDBRANCH   1   8
BRANCH   1  12
HETATM   12  N   UNK N   1      19.187  19.016   2.211  0.00  0.00    -0.418 N 
HETATM   13  H   UNK N   1      18.723  18.968   3.117  0.00  0.00     0.150 HD
HETATM   14  H   UNK N   1      18.660  18.830   1.358  0.00  0.00     0.150 HD
ENDBRANCH   1  12
TORSDOF 6
ENDMDL
MODEL 7
REMARK VINA RESULT:      -4.3      2.550      3.544
REMARK  6 active torsions:
REMARK  status: ('A' for Active; 'I' for Inactive)
REMARK    1  A    between atoms: C_3  and  C_2 
REMARK    2  A    between atoms: C_4  and  C_2 
REMARK    3  A    between atoms: C_5  and  C_3 
REMARK    4  A    between atoms: C_6  and  C_4 
REMARK    5  A    between atoms: C_4  and  N_7 
REMARK    6  A    between atoms: O_11  and  C_6 
ROOT
HETATM    1  C   UNK N   1      20.458  19.128   2.318  0.00  0.00     0.174 C 
ENDROOT
BRANCH   1   2
HETATM    2  C   UNK N   1      20.996  19.369   3.735  0.00  0.00     0.050 C 
BRANCH   2   3
HETATM    3  C   UNK N   1      22.029  18.364   4.292  0.00  0.00     0.085 C 
HETATM    4  C   UNK N   1      23.477  18.801   4.095  0.00  0.00     0.021 C 
BRANCH   3   5
HETATM    5  C   UNK N   1      21.789  18.048   5.746  0.00  0.00     0.176 C 
HETATM    6  O   UNK N   1      22.261  17.032   6.233  0.00  0.00    -0.648 OA
HETATM    7  O   UNK N   1      21.033  18.859   6.514  0.00  0.00    -0.648 OA
ENDBRANCH   3   5
ENDBRANCH   2   3
ENDBRANCH   1   2
BRANCH   1   8
HETATM    8  C   UNK N   1      20.884  20.260   1.425  0.00  0.00     0.163 C 
HETATM    9  O   UNK N   1      21.431  21.255   1.893  0.00  0.00    -0.648 OA
BRANCH   8  10
HETATM   10  O   UNK N   1      20.654  20.196   0.103  0.00  0.00    -0.775 OA
HETATM   11  H   UNK N   1      19.953  19.669  -0.226  0.00  0.00     0.167 HD
ENDBRANCH   8  10
ENDBRANCH   1   8
BRANCH   1  12
HETATM   12  N   UNK N   1      19.006  19.037   2.365  0.00  0.00    -0.418 N 
HETATM   13  H   UNK N   1      18.461  19.124   1.508  0.00  0.00     0.150 HD
HETATM   14  H   UNK N   1      18.533  18.886   3.256  0.00  0.00     0.150 HD
ENDBRANCH   1  12
TORSDOF 6
ENDMDL
MODEL 8
REMARK VINA RESULT:      -4.2     14.303     15.919
REMARK  6 active torsions:
REMARK  status: ('A' for Active; 'I' for Inactive)
REMARK    1  A    between atoms: C_3  and  C_2 
REMARK    2  A    between atoms: C_4  and  C_2 
REMARK    3  A    between atoms: C_5  and  C_3 
REMARK    4  A    between atoms: C_6  and  C_4 
REMARK    5  A    between atoms: C_4  and  N_7 
REMARK    6  A    between atoms: O_11  and  C_6 
ROOT
HETATM    1  C   UNK N   1      33.472  16.622   7.967  0.00  0.00     0.174 C 
ENDROOT
BRANCH   1   2
HETATM    2  C   UNK N   1      34.528  15.714   8.612  0.00  0.00     0.050 C 
BRANCH   2   3
HETATM    3  C   UNK N   1      34.430  15.469  10.135  0.00  0.00     0.085 C 
HETATM    4  C   UNK N   1      34.521  13.997  10.524  0.00  0.00     0.021 C 
BRANCH   3   5
HETATM    5  C   UNK N   1      35.455  16.261  10.905  0.00  0.00     0.176 C 
HETATM    6  O   UNK N   1      35.904  15.816  11.951  0.00  0.00    -0.648 OA
HETATM    7  O   UNK N   1      35.863  17.471  10.473  0.00  0.00    -0.648 OA
ENDBRANCH   3   5
ENDBRANCH   2   3
ENDBRANCH   1   2
BRANCH   1   8
HETATM    8  C   UNK N   1      34.156  17.789   7.309  0.00  0.00     0.163 C 
HETATM    9  O   UNK N   1      34.164  17.902   6.086  0.00  0.00    -0.648 OA
BRANCH   8  10
HETATM   10  O   UNK N   1      34.779  18.713   8.059  0.00  0.00    -0.775 OA
HETATM   11  H   UNK N   1      35.376  18.447   8.732  0.00  0.00     0.167 HD
ENDBRANCH   8  10
ENDBRANCH   1   8
BRANCH   1  12
HETATM   12  N   UNK N   1      32.547  17.086   8.991  0.00  0.00    -0.418 N 
HETATM   13  H   UNK N   1      32.905  17.496   9.853  0.00  0.00     0.150 HD
HETATM   14  H   UNK N   1      31.542  17.001   8.845  0.00  0.00     0.150 HD
ENDBRANCH   1  12
TORSDOF 6
ENDMDL
MODEL 9
REMARK VINA RESULT:      -4.2     10.613     11.810
REMARK  6 active torsions:
REMARK  status: ('A' for Active; 'I' for Inactive)
REMARK    1  A    between atoms: C_3  and  C_2 
REMARK    2  A    between atoms: C_4  and  C_2 
REMARK    3  A    between atoms: C_5  and  C_3 
REMARK    4  A    between atoms: C_6  and  C_4 
REMARK    5  A    between atoms: C_4  and  N_7 
REMARK    6  A    between atoms: O_11  and  C_6 
ROOT
HETATM    1  C   UNK N   1      30.590  23.285  -3.785  0.00  0.00     0.174 C 
ENDROOT
BRANCH   1   2
HETATM    2  C   UNK N   1      29.742  24.551  -3.604  0.00  0.00     0.050 C 
BRANCH   2   3
HETATM    3  C   UNK N   1      28.352  24.587  -4.280  0.00  0.00     0.085 C 
HETATM    4  C   UNK N   1      28.179  23.544  -5.379  0.00  0.00     0.021 C 
BRANCH   3   5
HETATM    5  C   UNK N   1      27.230  24.462  -3.282  0.00  0.00     0.176 C 
HETATM    6  O   UNK N   1      26.242  25.172  -3.387  0.00  0.00    -0.648 OA
HETATM    7  O   UNK N   1      27.313  23.594  -2.253  0.00  0.00    -0.648 OA
ENDBRANCH   3   5
ENDBRANCH   2   3
ENDBRANCH   1   2
BRANCH   1   8
HETATM    8  C   UNK N   1      30.912  22.706  -2.434  0.00  0.00     0.163 C 
HETATM    9  O   UNK N   1      31.835  21.908  -2.300  0.00  0.00    -0.648 OA
BRANCH   8  10
HETATM   10  O   UNK N   1      30.177  23.049  -1.364  0.00  0.00    -0.775 OA
HETATM   11  H   UNK N   1      29.254  23.187  -1.452  0.00  0.00     0.167 HD
ENDBRANCH   8  10
ENDBRANCH   1   8
BRANCH   1  12
HETATM   12  N   UNK N   1      31.813  23.624  -4.498  0.00  0.00    -0.418 N 
HETATM   13  H   UNK N   1      32.663  23.084  -4.337  0.00  0.00     0.150 HD
HETATM   14  H   UNK N   1      31.819  24.401  -5.158  0.00  0.00     0.150 HD
ENDBRANCH   1  12
TORSDOF 6
ENDMDL
