MODEL 1
REMARK VINA RESULT:      -4.6      0.000      0.000
REMARK  0 active torsions:
REMARK  status: ('A' for Active; 'I' for Inactive)
ROOT
HETATM    1  C   UNK N   1      22.201  13.057   8.484  0.00  0.00     0.056 C 
HETATM    2  C   UNK N   1      22.527  12.684   9.890  0.00  0.00     0.022 A 
HETATM    3  C   UNK N   1      23.861  12.609  10.283  0.00  0.00     0.105 A 
HETATM    4  N   UNK N   1      24.180  12.272  11.557  0.00  0.00    -0.318 N 
HETATM    5  C   UNK N   1      23.200  12.001  12.477  0.00  0.00     0.326 A 
HETATM    6  O   UNK N   1      23.504  11.700  13.616  0.00  0.00    -0.247 OA
HETATM    7  N   UNK N   1      21.881  12.069  12.113  0.00  0.00    -0.275 N 
HETATM    8  C   UNK N   1      21.527  12.406  10.834  0.00  0.00     0.256 A 
HETATM    9  O   UNK N   1      20.348  12.462  10.527  0.00  0.00    -0.267 OA
HETATM   10  H   UNK N   1      25.125  12.221  11.825  0.00  0.00     0.170 HD
HETATM   11  H   UNK N   1      21.182  11.873  12.778  0.00  0.00     0.173 HD
ENDROOT
TORSDOF 0
ENDMDL
MODEL 2
REMARK VINA RESULT:      -4.6      1.492      2.206
REMARK  0 active torsions:
REMARK  status: ('A' for Active; 'I' for Inactive)
ROOT
HETATM    1  C   UNK N   1      22.245  13.132   8.363  0.00  0.00     0.056 C 
HETATM    2  C   UNK N   1      22.526  12.727   9.770  0.00  0.00     0.022 A 
HETATM    3  C   UNK N   1      21.477  12.295  10.577  0.00  0.00     0.105 A 
HETATM    4  N   UNK N   1      21.711  11.922  11.860  0.00  0.00    -0.318 N 
HETATM    5  C   UNK N   1      22.977  11.964  12.383  0.00  0.00     0.326 A 
HETATM    6  O   UNK N   1      23.170  11.626  13.535  0.00  0.00    -0.247 OA
HETATM    7  N   UNK N   1      24.025  12.385  11.607  0.00  0.00    -0.275 N 
HETATM    8  C   UNK N   1      23.821  12.768  10.308  0.00  0.00     0.256 A 
HETATM    9  O   UNK N   1      24.765  13.141   9.632  0.00  0.00    -0.267 OA
HETATM   10  H   UNK N   1      20.963  11.618  12.423  0.00  0.00     0.170 HD
HETATM   11  H   UNK N   1      24.933  12.413  11.988  0.00  0.00     0.173 HD
ENDROOT
TORSDOF 0
ENDMDL
MODEL 3
REMARK VINA RESULT:      -4.4     11.798     12.578
REMARK  0 active torsions:
REMARK  status: ('A' for Active; 'I' for Inactive)
ROOT
HETATM    1  C   UNK N   1      31.342  17.034   6.146  0.00  0.00     0.056 C 
HETATM    2  C   UNK N   1      32.432  17.158   7.155  0.00  0.00     0.022 A 
HETATM    3  C   UNK N   1      32.176  16.815   8.481  0.00  0.00     0.105 A 
HETATM    4  N   UNK N   1      33.155  16.920   9.414  0.00  0.00    -0.318 N 
HETATM    5  C   UNK N   1      34.406  17.363   9.073  0.00  0.00     0.326 A 
HETATM    6  O   UNK N   1      35.272  17.451   9.923  0.00  0.00    -0.247 OA
HETATM    7  N   UNK N   1      34.681  17.705   7.775  0.00  0.00    -0.275 N 
HETATM    8  C   UNK N   1      33.714  17.610   6.809  0.00  0.00     0.256 A 
HETATM    9  O   UNK N   1      33.976  17.920   5.659  0.00  0.00    -0.267 OA
HETATM   10  H   UNK N   1      32.964  16.676  10.348  0.00  0.00     0.170 HD
HETATM   11  H   UNK N   1      35.581  18.023   7.535  0.00  0.00     0.173 HD
ENDROOT
TORSDOF 0
ENDMDL
MODEL 4
REMARK VINA RESULT:      -4.3      1.986      3.028
REMARK  0 active torsions:
REMARK  status: ('A' for Active; 'I' for Inactive)
ROOT
HETATM    1  C   UNK N   1      20.399  12.000  11.698  0.00  0.00     0.056 C 
HETATM    2  C   UNK N   1      21.721  12.335  11.097  0.00  0.00     0.022 A 
HETATM    3  C   UNK N   1      21.771  12.851   9.804  0.00  0.00     0.105 A 
HETATM    4  N   UNK N   1      22.963  13.163   9.238  0.00  0.00    -0.318 N 
HETATM    5  C   UNK N   1      24.135  12.976   9.924  0.00  0.00     0.326 A 
HETATM    6  O   UNK N   1      25.196  13.261   9.401  0.00  0.00    -0.247 OA
HETATM    7  N   UNK N   1      24.111  12.470  11.197  0.00  0.00    -0.275 N 
HETATM    8  C   UNK N   1      22.923  12.145  11.796  0.00  0.00     0.256 A 
HETATM    9  O   UNK N   1      22.920  11.696  12.929  0.00  0.00    -0.267 OA
HETATM   10  H   UNK N   1      22.988  13.527   8.324  0.00  0.00     0.170 HD
HETATM   11  H   UNK N   1      24.956  12.338  11.685  0.00  0.00     0.173 HD
ENDROOT
TORSDOF 0
ENDMDL
MODEL 5
REMARK VINA RESULT:      -4.3     11.381     12.457
REMARK  0 active torsions:
REMARK  status: ('A' for Active; 'I' for Inactive)
ROOT
HETATM    1  C   UNK N   1      33.552  17.725   7.967  0.00  0.00     0.056 C 
HETATM    2  C   UNK N   1      33.821  16.785   9.092  0.00  0.00     0.022 A 
HETATM    3  C   UNK N   1      33.011  15.664   9.252  0.00  0.00     0.105 A 
HETATM    4  N   UNK N   1      33.239  14.796  10.269  0.00  0.00    -0.318 N 
HETATM    5  C   UNK N   1      34.265  15.006  11.154  0.00  0.00     0.326 A 
HETATM    6  O   UNK N   1      34.455  14.218  12.061  0.00  0.00    -0.247 OA
HETATM    7  N   UNK N   1      35.074  16.103  11.017  0.00  0.00    -0.275 N 
HETATM    8  C   UNK N   1      34.870  16.998  10.000  0.00  0.00     0.256 A 
HETATM    9  O   UNK N   1      35.600  17.968   9.893  0.00  0.00    -0.267 OA
HETATM   10  H   UNK N   1      32.662  14.006  10.374  0.00  0.00     0.170 HD
HETATM   11  H   UNK N   1      35.809  16.249  11.655  0.00  0.00     0.173 HD
ENDROOT
TORSDOF 0
ENDMDL
MODEL 6
REMARK VINA RESULT:      -4.2     22.250     23.227
REMARK  0 active torsions:
REMARK  status: ('A' for Active; 'I' for Inactive)
ROOT
HETATM    1  C   UNK N   1      39.741  20.779   1.723  0.00  0.00     0.056 C 
HETATM    2  C   UNK N   1      40.952  21.449   2.276  0.00  0.00     0.022 A 
HETATM    3  C   UNK N   1      41.231  22.764   1.910  0.00  0.00     0.105 A 
HETATM    4  N   UNK N   1      42.328  23.392   2.402  0.00  0.00    -0.318 N 
HETATM    5  C   UNK N   1      43.177  22.748   3.264  0.00  0.00     0.326 A 
HETATM    6  O   UNK N   1      44.156  23.327   3.695  0.00  0.00    -0.247 OA
HETATM    7  N   UNK N   1      42.923  21.455   3.638  0.00  0.00    -0.275 N 
HETATM    8  C   UNK N   1      41.823  20.793   3.159  0.00  0.00     0.256 A 
HETATM    9  O   UNK N   1      41.613  19.643   3.502  0.00  0.00    -0.267 OA
HETATM   10  H   UNK N   1      42.516  24.320   2.137  0.00  0.00     0.170 HD
HETATM   11  H   UNK N   1      43.537  20.998   4.257  0.00  0.00     0.173 HD
ENDROOT
TORSDOF 0
ENDMDL
MODEL 7
REMARK VINA RESULT:      -4.2      1.707      2.426
REMARK  0 active torsions:
REMARK  status: ('A' for Active; 'I' for Inactive)
ROOT
HETATM    1  C   UNK N   1      24.808  13.078   9.611  0.00  0.00     0.056 C 
HETATM    2  C   UNK N   1      23.483  12.784  10.227  0.00  0.00     0.022 A 
HETATM    3  C   UNK N   1      23.422  11.975  11.359  0.00  0.00     0.105 A 
HETATM    4  N   UNK N   1      22.226  11.695  11.935  0.00  0.00    -0.318 N 
HETATM    5  C   UNK N   1      21.062  12.200  11.417  0.00  0.00     0.326 A 
HETATM    6  O   UNK N   1      19.999  11.938  11.946  0.00  0.00    -0.247 OA
HETATM    7  N   UNK N   1      21.098  12.998  10.304  0.00  0.00    -0.275 N 
HETATM    8  C   UNK N   1      22.289  13.299   9.699  0.00  0.00     0.256 A 
HETATM    9  O   UNK N   1      22.302  14.011   8.709  0.00  0.00    -0.267 OA
HETATM   10  H   UNK N   1      22.194  11.122  12.735  0.00  0.00     0.170 HD
HETATM   11  H   UNK N   1      20.259  13.358   9.936  0.00  0.00     0.173 HD
ENDROOT
TORSDOF 0
ENDMDL
MODEL 8
REMARK VINA RESULT:      -4.1     23.631     24.594
REMARK  0 active torsions:
REMARK  status: ('A' for Active; 'I' for Inactive)
ROOT
HETATM    1  C   UNK N   1      42.483  19.794   3.203  0.00  0.00     0.056 C 
HETATM    2  C   UNK N   1      43.102  21.148   3.136  0.00  0.00     0.022 A 
HETATM    3  C   UNK N   1      44.433  21.309   3.515  0.00  0.00     0.105 A 
HETATM    4  N   UNK N   1      45.016  22.532   3.461  0.00  0.00    -0.318 N 
HETATM    5  C   UNK N   1      44.310  23.627   3.035  0.00  0.00     0.326 A 
HETATM    6  O   UNK N   1      44.849  24.717   2.993  0.00  0.00    -0.247 OA
HETATM    7  N   UNK N   1      43.000  23.494   2.657  0.00  0.00    -0.275 N 
HETATM    8  C   UNK N   1      42.383  22.271   2.700  0.00  0.00     0.256 A 
HETATM    9  O   UNK N   1      41.217  22.171   2.360  0.00  0.00    -0.267 OA
HETATM   10  H   UNK N   1      45.956  22.636   3.731  0.00  0.00     0.170 HD
HETATM   11  H   UNK N   1      42.498  24.284   2.352  0.00  0.00     0.173 HD
ENDROOT
TORSDOF 0
ENDMDL
MODEL 9
REMARK VINA RESULT:      -4.1     22.881     23.667
REMARK  0 active torsions:
REMARK  status: ('A' for Active; 'I' for Inactive)
ROOT
HETATM    1  C   UNK N   1      40.197  21.413   1.394  0.00  0.00     0.056 C 
HETATM    2  C   UNK N   1      41.379  21.777   2.226  0.00  0.00     0.022 A 
HETATM    3  C   UNK N   1      42.002  20.795   2.993  0.00  0.00     0.105 A 
HETATM    4  N   UNK N   1      43.079  21.106   3.756  0.00  0.00    -0.318 N 
HETATM    5  C   UNK N   1      43.572  22.384   3.788  0.00  0.00     0.326 A 
HETATM    6  O   UNK N   1      44.539  22.645   4.478  0.00  0.00    -0.247 OA
HETATM    7  N   UNK N   1      42.976  23.366   3.042  0.00  0.00    -0.275 N 
HETATM    8  C   UNK N   1      41.886  23.085   2.260  0.00  0.00     0.256 A 
HETATM    9  O   UNK N   1      41.369  23.971   1.603  0.00  0.00    -0.267 OA
HETATM   10  H   UNK N   1      43.512  20.405   4.295  0.00  0.00     0.170 HD
HETATM   11  H   UNK N   1      43.334  24.283   3.068  0.00  0.00     0.173 HD
ENDROOT
TORSDOF 0
ENDMDL
