MODEL 1
REMARK VINA RESULT:      -9.0      0.000      0.000
REMARK  30 active torsions:
REMARK  status: ('A' for Active; 'I' for Inactive)
REMARK    1  A    between atoms: C_11  and  C_5 
REMARK    2  A    between atoms: O_39  and  C_5 
REMARK    3  A    between atoms: C_13  and  C_6 
REMARK    4  A    between atoms: O_40  and  C_6 
REMARK    5  A    between atoms: C_14  and  C_7 
REMARK    6  A    between atoms: O_41  and  C_7 
REMARK    7  A    between atoms: C_12  and  N_38 
REMARK    8  A    between atoms: C_15  and  N_38 
REMARK    9  A    between atoms: C_16  and  O_42 
REMARK   10  A    between atoms: C_17  and  O_43 
REMARK   11  A    between atoms: C_18  and  O_44 
REMARK   12  A    between atoms: C_19  and  O_45 
REMARK   13  A    between atoms: C_20  and  O_46 
REMARK   14  A    between atoms: C_21  and  O_47 
REMARK   15  A    between atoms: C_22  and  O_48 
REMARK   16  A    between atoms: C_23  and  O_49 
REMARK   17  A    between atoms: C_24  and  O_50 
REMARK   18  A    between atoms: C_25  and  O_51 
REMARK   19  A    between atoms: C_26  and  O_52 
REMARK   20  A    between atoms: C_27  and  O_53 
REMARK   21  A    between atoms: C_28  and  O_54 
REMARK   22  A    between atoms: C_29  and  O_61 
REMARK   23  A    between atoms: C_30  and  O_62 
REMARK   24  A    between atoms: C_31  and  O_63 
REMARK   25  A    between atoms: C_32  and  O_64 
REMARK   26  A    between atoms: C_33  and  O_55 
REMARK   27  A    between atoms: C_34  and  O_63 
REMARK   28  A    between atoms: C_35  and  O_64 
REMARK   29  A    between atoms: C_36  and  O_61 
REMARK   30  A    between atoms: C_37  and  O_62 
ROOT
HETATM    1  C   UNK N   1      32.272  17.313   7.356  0.00  0.00     0.008 C 
HETATM    2  C   UNK N   1      33.526  16.954   7.630  0.00  0.00    -0.027 C 
HETATM    3  C   UNK N   1      31.261  16.420   6.730  0.00  0.00     0.132 C 
HETATM    4  C   UNK N   1      31.614  14.917   6.801  0.00  0.00     0.175 C 
HETATM    5  C   UNK N   1      33.094  14.628   6.539  0.00  0.00     0.182 C 
HETATM    6  C   UNK N   1      34.026  15.521   7.421  0.00  0.00     0.187 C 
ENDROOT
BRANCH   3   7
HETATM    7  N   UNK N   1      30.891  16.964   5.419  0.00  0.00    -0.402 N 
HETATM    8  H   UNK N   1      31.455  16.671   4.622  0.00  0.00     0.154 HD
BRANCH   7   9
HETATM    9  C   UNK N   1      29.775  17.899   5.142  0.00  0.00     0.137 C 
HETATM   10  C   UNK N   1      28.773  17.077   4.335  0.00  0.00     0.145 C 
HETATM   11  C   UNK N   1      29.406  16.567   3.045  0.00  0.00     0.042 C 
HETATM   12  O   UNK N   1      28.363  15.960   5.124  0.00  0.00    -0.352 OA
HETATM   13  C   UNK N   1      27.499  16.352   6.191  0.00  0.00     0.292 C 
HETATM   14  C   UNK N   1      28.234  17.327   7.119  0.00  0.00     0.204 C 
HETATM   15  C   UNK N   1      28.945  18.456   6.347  0.00  0.00     0.176 C 
BRANCH  13  16
HETATM   16  O   UNK N   1      26.260  16.865   5.724  0.00  0.00    -0.348 OA
BRANCH  16  17
HETATM   17  C   UNK N   1      25.392  15.820   5.273  0.00  0.00     0.187 C 
HETATM   18  C   UNK N   1      24.783  16.237   3.924  0.00  0.00     0.180 C 
HETATM   19  O   UNK N   1      23.914  17.306   4.184  0.00  0.00    -0.348 OA
HETATM   20  C   UNK N   1      22.727  16.971   4.867  0.00  0.00     0.292 C 
HETATM   21  C   UNK N   1      22.836  15.629   5.682  0.00  0.00     0.204 C 
HETATM   22  C   UNK N   1      24.251  15.640   6.333  0.00  0.00     0.183 C 
BRANCH  18  23
HETATM   23  C   UNK N   1      24.170  15.104   3.091  0.00  0.00     0.198 C 
BRANCH  23  24
HETATM   24  O   UNK N   1      24.904  13.928   3.262  0.00  0.00    -0.398 OA
HETATM   25  H   UNK N   1      24.969  12.968   3.394  0.00  0.00     0.209 HD
ENDBRANCH  23  24
ENDBRANCH  18  23
BRANCH  20  26
HETATM   26  O   UNK N   1      21.567  17.060   4.017  0.00  0.00    -0.348 OA
BRANCH  26  27
HETATM   27  C   UNK N   1      21.672  18.071   2.994  0.00  0.00     0.184 C 
HETATM   28  C   UNK N   1      20.471  17.976   2.026  0.00  0.00     0.152 C 
HETATM   29  C   UNK N   1      19.117  18.128   2.714  0.00  0.00     0.042 C 
HETATM   30  O   UNK N   1      20.610  18.886   0.934  0.00  0.00    -0.351 OA
HETATM   31  C   UNK N   1      20.725  20.240   1.354  0.00  0.00     0.288 C 
HETATM   32  C   UNK N   1      21.934  20.446   2.272  0.00  0.00     0.204 C 
HETATM   33  C   UNK N   1      21.794  19.547   3.502  0.00  0.00     0.183 C 
BRANCH  31  34
HETATM   34  O   UNK N   1      20.884  21.043   0.222  0.00  0.00    -0.369 OA
HETATM   35  H   UNK N   1      21.595  21.684   0.069  0.00  0.00     0.212 HD
ENDBRANCH  31  34
BRANCH  32  36
HETATM   36  O   UNK N   1      22.038  21.782   2.661  0.00  0.00    -0.388 OA
HETATM   37  H   UNK N   1      22.773  22.275   3.060  0.00  0.00     0.210 HD
ENDBRANCH  32  36
BRANCH  33  38
HETATM   38  O   UNK N   1      20.685  19.910   4.271  0.00  0.00    -0.390 OA
HETATM   39  H   UNK N   1      19.789  20.209   4.489  0.00  0.00     0.210 HD
ENDBRANCH  33  38
ENDBRANCH  26  27
ENDBRANCH  20  26
BRANCH  21  40
HETATM   40  O   UNK N   1      21.839  15.547   6.649  0.00  0.00    -0.388 OA
HETATM   41  H   UNK N   1      21.885  15.740   7.598  0.00  0.00     0.210 HD
ENDBRANCH  21  40
BRANCH  22  42
HETATM   42  O   UNK N   1      24.470  14.491   7.100  0.00  0.00    -0.390 OA
HETATM   43  H   UNK N   1      25.192  14.347   7.731  0.00  0.00     0.210 HD
ENDBRANCH  22  42
ENDBRANCH  16  17
ENDBRANCH  13  16
BRANCH  14  44
HETATM   44  O   UNK N   1      27.369  17.853   8.085  0.00  0.00    -0.388 OA
HETATM   45  H   UNK N   1      27.045  17.402   8.881  0.00  0.00     0.210 HD
ENDBRANCH  14  44
BRANCH  15  46
HETATM   46  O   UNK N   1      27.987  19.352   5.855  0.00  0.00    -0.391 OA
HETATM   47  H   UNK N   1      27.868  20.220   5.440  0.00  0.00     0.210 HD
ENDBRANCH  15  46
ENDBRANCH   7   9
ENDBRANCH   3   7
BRANCH   4  48
HETATM   48  O   UNK N   1      30.782  14.162   5.969  0.00  0.00    -0.391 OA
HETATM   49  H   UNK N   1      30.463  13.290   6.253  0.00  0.00     0.210 HD
ENDBRANCH   4  48
BRANCH   2  50
HETATM   50  C   UNK N   1      34.433  18.003   8.200  0.00  0.00     0.201 C 
BRANCH  50  51
HETATM   51  O   UNK N   1      34.995  17.555   9.393  0.00  0.00    -0.397 OA
HETATM   52  H   UNK N   1      34.765  17.204  10.268  0.00  0.00     0.209 HD
ENDBRANCH  50  51
ENDBRANCH   2  50
BRANCH   5  53
HETATM   53  O   UNK N   1      33.372  14.817   5.187  0.00  0.00    -0.390 OA
HETATM   54  H   UNK N   1      33.085  15.514   4.577  0.00  0.00     0.210 HD
ENDBRANCH   5  53
BRANCH   6  55
HETATM   55  O   UNK N   1      34.399  14.843   8.621  0.00  0.00    -0.346 OA
BRANCH  55  56
HETATM   56  C   UNK N   1      34.853  13.501   8.480  0.00  0.00     0.292 C 
HETATM   57  C   UNK N   1      34.082  12.571   9.428  0.00  0.00     0.204 C 
HETATM   58  C   UNK N   1      34.488  12.828  10.871  0.00  0.00     0.183 C 
HETATM   59  C   UNK N   1      36.017  12.689  10.948  0.00  0.00     0.187 C 
HETATM   60  C   UNK N   1      36.649  13.714   9.987  0.00  0.00     0.180 C 
HETATM   61  O   UNK N   1      36.257  13.406   8.657  0.00  0.00    -0.348 OA
BRANCH  57  62
HETATM   62  O   UNK N   1      32.703  12.730   9.263  0.00  0.00    -0.388 OA
HETATM   63  H   UNK N   1      31.976  12.088   9.273  0.00  0.00     0.210 HD
ENDBRANCH  57  62
BRANCH  58  64
HETATM   64  O   UNK N   1      34.089  14.106  11.284  0.00  0.00    -0.390 OA
HETATM   65  H   UNK N   1      33.856  15.045  11.213  0.00  0.00     0.210 HD
ENDBRANCH  58  64
BRANCH  59  66
HETATM   66  O   UNK N   1      36.407  12.867  12.299  0.00  0.00    -0.348 OA
BRANCH  66  67
HETATM   67  C   UNK N   1      36.696  11.657  13.000  0.00  0.00     0.292 C 
HETATM   68  C   UNK N   1      37.590  11.969  14.215  0.00  0.00     0.204 C 
HETATM   69  C   UNK N   1      36.786  12.750  15.268  0.00  0.00     0.183 C 
HETATM   70  C   UNK N   1      35.528  11.947  15.633  0.00  0.00     0.178 C 
HETATM   71  C   UNK N   1      34.743  11.625  14.355  0.00  0.00     0.152 C 
HETATM   72  C   UNK N   1      33.530  10.772  14.680  0.00  0.00     0.042 C 
HETATM   73  O   UNK N   1      35.548  10.913  13.422  0.00  0.00    -0.351 OA
BRANCH  68  74
HETATM   74  O   UNK N   1      38.045  10.768  14.770  0.00  0.00    -0.388 OA
HETATM   75  H   UNK N   1      37.808   9.832  14.677  0.00  0.00     0.210 HD
ENDBRANCH  68  74
BRANCH  69  76
HETATM   76  O   UNK N   1      36.428  14.006  14.764  0.00  0.00    -0.390 OA
HETATM   77  H   UNK N   1      36.638  14.942  14.914  0.00  0.00     0.210 HD
ENDBRANCH  69  76
BRANCH  70  78
HETATM   78  O   UNK N   1      34.734  12.676  16.523  0.00  0.00    -0.390 OA
HETATM   79  H   UNK N   1      34.552  13.620  16.400  0.00  0.00     0.210 HD
ENDBRANCH  70  78
ENDBRANCH  66  67
ENDBRANCH  59  66
BRANCH  60  80
HETATM   80  C   UNK N   1      38.174  13.700  10.050  0.00  0.00     0.198 C 
BRANCH  80  81
HETATM   81  O   UNK N   1      38.697  14.980   9.864  0.00  0.00    -0.398 OA
HETATM   82  H   UNK N   1      38.941  15.910   9.992  0.00  0.00     0.209 HD
ENDBRANCH  80  81
ENDBRANCH  60  80
ENDBRANCH  55  56
ENDBRANCH   6  55
TORSDOF 30
ENDMDL
MODEL 2
REMARK VINA RESULT:      -8.8      1.041      2.007
REMARK  30 active torsions:
REMARK  status: ('A' for Active; 'I' for Inactive)
REMARK    1  A    between atoms: C_11  and  C_5 
REMARK    2  A    between atoms: O_39  and  C_5 
REMARK    3  A    between atoms: C_13  and  C_6 
REMARK    4  A    between atoms: O_40  and  C_6 
REMARK    5  A    between atoms: C_14  and  C_7 
REMARK    6  A    between atoms: O_41  and  C_7 
REMARK    7  A    between atoms: C_12  and  N_38 
REMARK    8  A    between atoms: C_15  and  N_38 
REMARK    9  A    between atoms: C_16  and  O_42 
REMARK   10  A    between atoms: C_17  and  O_43 
REMARK   11  A    between atoms: C_18  and  O_44 
REMARK   12  A    between atoms: C_19  and  O_45 
REMARK   13  A    between atoms: C_20  and  O_46 
REMARK   14  A    between atoms: C_21  and  O_47 
REMARK   15  A    between atoms: C_22  and  O_48 
REMARK   16  A    between atoms: C_23  and  O_49 
REMARK   17  A    between atoms: C_24  and  O_50 
REMARK   18  A    between atoms: C_25  and  O_51 
REMARK   19  A    between atoms: C_26  and  O_52 
REMARK   20  A    between atoms: C_27  and  O_53 
REMARK   21  A    between atoms: C_28  and  O_54 
REMARK   22  A    between atoms: C_29  and  O_61 
REMARK   23  A    between atoms: C_30  and  O_62 
REMARK   24  A    between atoms: C_31  and  O_63 
REMARK   25  A    between atoms: C_32  and  O_64 
REMARK   26  A    between atoms: C_33  and  O_55 
REMARK   27  A    between atoms: C_34  and  O_63 
REMARK   28  A    between atoms: C_35  and  O_64 
REMARK   29  A    between atoms: C_36  and  O_61 
REMARK   30  A    between atoms: C_37  and  O_62 
ROOT
HETATM    1  C   UNK N   1      32.176  17.196   7.152  0.00  0.00     0.008 C 
HETATM    2  C   UNK N   1      33.471  17.345   7.431  0.00  0.00    -0.027 C 
HETATM    3  C   UNK N   1      31.584  15.974   6.545  0.00  0.00     0.132 C 
HETATM    4  C   UNK N   1      32.481  14.720   6.643  0.00  0.00     0.175 C 
HETATM    5  C   UNK N   1      33.961  15.010   6.383  0.00  0.00     0.182 C 
HETATM    6  C   UNK N   1      34.479  16.206   7.247  0.00  0.00     0.187 C 
ENDROOT
BRANCH   3   7
HETATM    7  N   UNK N   1      31.042  16.313   5.225  0.00  0.00    -0.402 N 
HETATM    8  H   UNK N   1      31.405  15.790   4.429  0.00  0.00     0.154 HD
BRANCH   7   9
HETATM    9  C   UNK N   1      30.017  17.344   4.937  0.00  0.00     0.137 C 
HETATM   10  C   UNK N   1      29.013  16.647   4.022  0.00  0.00     0.145 C 
HETATM   11  C   UNK N   1      29.692  16.164   2.745  0.00  0.00     0.042 C 
HETATM   12  O   UNK N   1      28.473  15.521   4.715  0.00  0.00    -0.352 OA
HETATM   13  C   UNK N   1      27.571  15.917   5.748  0.00  0.00     0.292 C 
HETATM   14  C   UNK N   1      28.312  16.780   6.777  0.00  0.00     0.204 C 
HETATM   15  C   UNK N   1      29.151  17.894   6.120  0.00  0.00     0.176 C 
BRANCH  13  16
HETATM   16  O   UNK N   1      26.405  16.548   5.238  0.00  0.00    -0.348 OA
BRANCH  16  17
HETATM   17  C   UNK N   1      25.363  15.601   4.980  0.00  0.00     0.187 C 
HETATM   18  C   UNK N   1      24.626  16.022   3.697  0.00  0.00     0.180 C 
HETATM   19  O   UNK N   1      23.937  17.207   3.994  0.00  0.00    -0.348 OA
HETATM   20  C   UNK N   1      22.826  17.064   4.849  0.00  0.00     0.292 C 
HETATM   21  C   UNK N   1      22.886  15.764   5.735  0.00  0.00     0.204 C 
HETATM   22  C   UNK N   1      24.369  15.626   6.191  0.00  0.00     0.183 C 
BRANCH  18  23
HETATM   23  C   UNK N   1      23.770  14.935   3.033  0.00  0.00     0.198 C 
BRANCH  23  24
HETATM   24  O   UNK N   1      24.326  13.674   3.266  0.00  0.00    -0.398 OA
HETATM   25  H   UNK N   1      24.425  12.864   3.792  0.00  0.00     0.209 HD
ENDBRANCH  23  24
ENDBRANCH  18  23
BRANCH  20  26
HETATM   26  O   UNK N   1      21.578  17.256   4.157  0.00  0.00    -0.348 OA
BRANCH  26  27
HETATM   27  C   UNK N   1      21.655  18.211   3.077  0.00  0.00     0.184 C 
HETATM   28  C   UNK N   1      20.501  17.976   2.076  0.00  0.00     0.152 C 
HETATM   29  C   UNK N   1      19.114  18.074   2.707  0.00  0.00     0.042 C 
HETATM   30  O   UNK N   1      20.619  18.827   0.936  0.00  0.00    -0.351 OA
HETATM   31  C   UNK N   1      20.627  20.208   1.276  0.00  0.00     0.288 C 
HETATM   32  C   UNK N   1      21.784  20.551   2.220  0.00  0.00     0.204 C 
HETATM   33  C   UNK N   1      21.657  19.718   3.497  0.00  0.00     0.183 C 
BRANCH  31  34
HETATM   34  O   UNK N   1      20.776  20.952   0.102  0.00  0.00    -0.369 OA
HETATM   35  H   UNK N   1      20.061  21.335  -0.428  0.00  0.00     0.212 HD
ENDBRANCH  31  34
BRANCH  32  36
HETATM   36  O   UNK N   1      21.783  21.912   2.530  0.00  0.00    -0.388 OA
HETATM   37  H   UNK N   1      22.186  22.670   2.076  0.00  0.00     0.210 HD
ENDBRANCH  32  36
BRANCH  33  38
HETATM   38  O   UNK N   1      20.498  20.048   4.204  0.00  0.00    -0.390 OA
HETATM   39  H   UNK N   1      19.606  20.386   4.380  0.00  0.00     0.210 HD
ENDBRANCH  33  38
ENDBRANCH  26  27
ENDBRANCH  20  26
BRANCH  21  40
HETATM   40  O   UNK N   1      22.031  15.863   6.828  0.00  0.00    -0.388 OA
HETATM   41  H   UNK N   1      21.413  16.571   7.064  0.00  0.00     0.210 HD
ENDBRANCH  21  40
BRANCH  22  42
HETATM   42  O   UNK N   1      24.552  14.501   7.001  0.00  0.00    -0.390 OA
HETATM   43  H   UNK N   1      25.226  13.812   6.889  0.00  0.00     0.210 HD
ENDBRANCH  22  42
ENDBRANCH  16  17
ENDBRANCH  13  16
BRANCH  14  44
HETATM   44  O   UNK N   1      27.425  17.314   7.719  0.00  0.00    -0.388 OA
HETATM   45  H   UNK N   1      26.767  16.827   8.237  0.00  0.00     0.210 HD
ENDBRANCH  14  44
BRANCH  15  46
HETATM   46  O   UNK N   1      28.294  18.886   5.626  0.00  0.00    -0.391 OA
HETATM   47  H   UNK N   1      28.213  19.592   4.966  0.00  0.00     0.210 HD
ENDBRANCH  15  46
ENDBRANCH   7   9
ENDBRANCH   3   7
BRANCH   4  48
HETATM   48  O   UNK N   1      32.003  13.690   5.827  0.00  0.00    -0.391 OA
HETATM   49  H   UNK N   1      31.206  13.195   6.076  0.00  0.00     0.210 HD
ENDBRANCH   4  48
BRANCH   2  50
HETATM   50  C   UNK N   1      33.909  18.670   7.979  0.00  0.00     0.201 C 
BRANCH  50  51
HETATM   51  O   UNK N   1      35.299  18.729   8.038  0.00  0.00    -0.397 OA
HETATM   52  H   UNK N   1      36.042  19.351   8.062  0.00  0.00     0.209 HD
ENDBRANCH  50  51
ENDBRANCH   2  50
BRANCH   5  53
HETATM   53  O   UNK N   1      34.154  15.266   5.028  0.00  0.00    -0.390 OA
HETATM   54  H   UNK N   1      33.510  15.402   4.315  0.00  0.00     0.210 HD
ENDBRANCH   5  53
BRANCH   6  55
HETATM   55  O   UNK N   1      35.075  15.742   8.459  0.00  0.00    -0.346 OA
BRANCH  55  56
HETATM   56  C   UNK N   1      34.237  15.706   9.608  0.00  0.00     0.292 C 
HETATM   57  C   UNK N   1      35.025  16.116  10.860  0.00  0.00     0.204 C 
HETATM   58  C   UNK N   1      36.023  15.033  11.238  0.00  0.00     0.183 C 
HETATM   59  C   UNK N   1      35.240  13.719  11.383  0.00  0.00     0.187 C 
HETATM   60  C   UNK N   1      34.549  13.413  10.040  0.00  0.00     0.180 C 
HETATM   61  O   UNK N   1      33.612  14.441   9.755  0.00  0.00    -0.348 OA
BRANCH  57  62
HETATM   62  O   UNK N   1      35.669  17.340  10.659  0.00  0.00    -0.388 OA
HETATM   63  H   UNK N   1      35.534  18.037   9.998  0.00  0.00     0.210 HD
ENDBRANCH  57  62
BRANCH  58  64
HETATM   64  O   UNK N   1      37.020  14.908  10.262  0.00  0.00    -0.390 OA
HETATM   65  H   UNK N   1      37.411  14.781   9.384  0.00  0.00     0.210 HD
ENDBRANCH  58  64
BRANCH  59  66
HETATM   66  O   UNK N   1      36.147  12.709  11.793  0.00  0.00    -0.348 OA
BRANCH  66  67
HETATM   67  C   UNK N   1      36.744  12.930  13.073  0.00  0.00     0.292 C 
HETATM   68  C   UNK N   1      35.638  13.144  14.123  0.00  0.00     0.204 C 
HETATM   69  C   UNK N   1      34.879  11.827  14.360  0.00  0.00     0.183 C 
HETATM   70  C   UNK N   1      35.885  10.736  14.755  0.00  0.00     0.178 C 
HETATM   71  C   UNK N   1      36.983  10.647  13.686  0.00  0.00     0.152 C 
HETATM   72  C   UNK N   1      38.028   9.621  14.087  0.00  0.00     0.042 C 
HETATM   73  O   UNK N   1      37.634  11.899  13.511  0.00  0.00    -0.351 OA
BRANCH  68  74
HETATM   74  O   UNK N   1      36.220  13.570  15.322  0.00  0.00    -0.388 OA
HETATM   75  H   UNK N   1      37.004  13.319  15.835  0.00  0.00     0.210 HD
ENDBRANCH  68  74
BRANCH  69  76
HETATM   76  O   UNK N   1      34.192  11.454  13.198  0.00  0.00    -0.390 OA
HETATM   77  H   UNK N   1      33.281  11.412  12.869  0.00  0.00     0.210 HD
ENDBRANCH  69  76
BRANCH  70  78
HETATM   78  O   UNK N   1      35.233   9.506  14.889  0.00  0.00    -0.390 OA
HETATM   79  H   UNK N   1      34.409   9.305  14.421  0.00  0.00     0.210 HD
ENDBRANCH  70  78
ENDBRANCH  66  67
ENDBRANCH  59  66
BRANCH  60  80
HETATM   80  C   UNK N   1      33.803  12.081  10.065  0.00  0.00     0.198 C 
BRANCH  80  81
HETATM   81  O   UNK N   1      32.631  12.147   9.312  0.00  0.00    -0.398 OA
HETATM   82  H   UNK N   1      31.871  12.474   8.805  0.00  0.00     0.209 HD
ENDBRANCH  80  81
ENDBRANCH  60  80
ENDBRANCH  55  56
ENDBRANCH   6  55
TORSDOF 30
ENDMDL
MODEL 3
REMARK VINA RESULT:      -8.1      1.604      2.364
REMARK  30 active torsions:
REMARK  status: ('A' for Active; 'I' for Inactive)
REMARK    1  A    between atoms: C_11  and  C_5 
REMARK    2  A    between atoms: O_39  and  C_5 
REMARK    3  A    between atoms: C_13  and  C_6 
REMARK    4  A    between atoms: O_40  and  C_6 
REMARK    5  A    between atoms: C_14  and  C_7 
REMARK    6  A    between atoms: O_41  and  C_7 
REMARK    7  A    between atoms: C_12  and  N_38 
REMARK    8  A    between atoms: C_15  and  N_38 
REMARK    9  A    between atoms: C_16  and  O_42 
REMARK   10  A    between atoms: C_17  and  O_43 
REMARK   11  A    between atoms: C_18  and  O_44 
REMARK   12  A    between atoms: C_19  and  O_45 
REMARK   13  A    between atoms: C_20  and  O_46 
REMARK   14  A    between atoms: C_21  and  O_47 
REMARK   15  A    between atoms: C_22  and  O_48 
REMARK   16  A    between atoms: C_23  and  O_49 
REMARK   17  A    between atoms: C_24  and  O_50 
REMARK   18  A    between atoms: C_25  and  O_51 
REMARK   19  A    between atoms: C_26  and  O_52 
REMARK   20  A    between atoms: C_27  and  O_53 
REMARK   21  A    between atoms: C_28  and  O_54 
REMARK   22  A    between atoms: C_29  and  O_61 
REMARK   23  A    between atoms: C_30  and  O_62 
REMARK   24  A    between atoms: C_31  and  O_63 
REMARK   25  A    between atoms: C_32  and  O_64 
REMARK   26  A    between atoms: C_33  and  O_55 
REMARK   27  A    between atoms: C_34  and  O_63 
REMARK   28  A    between atoms: C_35  and  O_64 
REMARK   29  A    between atoms: C_36  and  O_61 
REMARK   30  A    between atoms: C_37  and  O_62 
ROOT
HETATM    1  C   UNK N   1      32.128  17.617   7.224  0.00  0.00     0.008 C 
HETATM    2  C   UNK N   1      33.422  17.648   7.544  0.00  0.00    -0.027 C 
HETATM    3  C   UNK N   1      31.481  16.525   6.450  0.00  0.00     0.132 C 
HETATM    4  C   UNK N   1      32.298  15.215   6.398  0.00  0.00     0.175 C 
HETATM    5  C   UNK N   1      33.799  15.443   6.207  0.00  0.00     0.182 C 
HETATM    6  C   UNK N   1      34.365  16.481   7.230  0.00  0.00     0.187 C 
ENDROOT
BRANCH   3   7
HETATM    7  N   UNK N   1      30.996  17.068   5.175  0.00  0.00    -0.402 N 
HETATM    8  H   UNK N   1      31.617  16.981   4.371  0.00  0.00     0.154 HD
BRANCH   7   9
HETATM    9  C   UNK N   1      29.690  17.729   4.945  0.00  0.00     0.137 C 
HETATM   10  C   UNK N   1      28.881  16.718   4.137  0.00  0.00     0.145 C 
HETATM   11  C   UNK N   1      29.580  16.393   2.822  0.00  0.00     0.042 C 
HETATM   12  O   UNK N   1      28.755  15.520   4.905  0.00  0.00    -0.352 OA
HETATM   13  C   UNK N   1      27.852  15.682   5.998  0.00  0.00     0.292 C 
HETATM   14  C   UNK N   1      28.370  16.780   6.937  0.00  0.00     0.204 C 
HETATM   15  C   UNK N   1      28.785  18.057   6.181  0.00  0.00     0.176 C 
BRANCH  13  16
HETATM   16  O   UNK N   1      26.518  15.909   5.570  0.00  0.00    -0.348 OA
BRANCH  16  17
HETATM   17  C   UNK N   1      25.739  14.709   5.613  0.00  0.00     0.187 C 
HETATM   18  C   UNK N   1      25.018  14.545   4.265  0.00  0.00     0.180 C 
HETATM   19  O   UNK N   1      24.059  15.565   4.189  0.00  0.00    -0.348 OA
HETATM   20  C   UNK N   1      22.952  15.422   5.049  0.00  0.00     0.292 C 
HETATM   21  C   UNK N   1      23.242  14.494   6.288  0.00  0.00     0.204 C 
HETATM   22  C   UNK N   1      24.681  14.854   6.762  0.00  0.00     0.183 C 
BRANCH  18  23
HETATM   23  C   UNK N   1      24.480  13.140   3.963  0.00  0.00     0.198 C 
BRANCH  23  24
HETATM   24  O   UNK N   1      23.780  13.140   2.754  0.00  0.00    -0.398 OA
HETATM   25  H   UNK N   1      23.743  13.163   1.785  0.00  0.00     0.209 HD
ENDBRANCH  23  24
ENDBRANCH  18  23
BRANCH  20  26
HETATM   26  O   UNK N   1      21.745  15.099   4.333  0.00  0.00    -0.348 OA
BRANCH  26  27
HETATM   27  C   UNK N   1      21.526  15.917   3.165  0.00  0.00     0.184 C 
HETATM   28  C   UNK N   1      21.144  15.030   1.957  0.00  0.00     0.152 C 
HETATM   29  C   UNK N   1      19.896  14.183   2.191  0.00  0.00     0.042 C 
HETATM   30  O   UNK N   1      21.040  15.800   0.759  0.00  0.00    -0.351 OA
HETATM   31  C   UNK N   1      20.078  16.844   0.855  0.00  0.00     0.288 C 
HETATM   32  C   UNK N   1      20.411  17.816   1.991  0.00  0.00     0.204 C 
HETATM   33  C   UNK N   1      20.458  17.051   3.315  0.00  0.00     0.183 C 
BRANCH  31  34
HETATM   34  O   UNK N   1      20.072  17.551  -0.350  0.00  0.00    -0.369 OA
HETATM   35  H   UNK N   1      20.012  17.170  -1.239  0.00  0.00     0.212 HD
ENDBRANCH  31  34
BRANCH  32  36
HETATM   36  O   UNK N   1      19.465  18.840   2.059  0.00  0.00    -0.388 OA
HETATM   37  H   UNK N   1      18.797  19.135   1.419  0.00  0.00     0.210 HD
ENDBRANCH  32  36
BRANCH  33  38
HETATM   38  O   UNK N   1      19.205  16.524   3.639  0.00  0.00    -0.390 OA
HETATM   39  H   UNK N   1      18.394  15.997   3.568  0.00  0.00     0.210 HD
ENDBRANCH  33  38
ENDBRANCH  26  27
ENDBRANCH  20  26
BRANCH  21  40
HETATM   40  O   UNK N   1      22.312  14.706   7.301  0.00  0.00    -0.388 OA
HETATM   41  H   UNK N   1      22.062  15.531   7.744  0.00  0.00     0.210 HD
ENDBRANCH  21  40
BRANCH  22  42
HETATM   42  O   UNK N   1      25.057  14.095   7.874  0.00  0.00    -0.390 OA
HETATM   43  H   UNK N   1      25.372  13.177   7.868  0.00  0.00     0.210 HD
ENDBRANCH  22  42
ENDBRANCH  16  17
ENDBRANCH  13  16
BRANCH  14  44
HETATM   44  O   UNK N   1      27.433  17.073   7.934  0.00  0.00    -0.388 OA
HETATM   45  H   UNK N   1      27.307  17.926   8.378  0.00  0.00     0.210 HD
ENDBRANCH  14  44
BRANCH  15  46
HETATM   46  O   UNK N   1      27.637  18.721   5.732  0.00  0.00    -0.391 OA
HETATM   47  H   UNK N   1      27.230  19.595   5.624  0.00  0.00     0.210 HD
ENDBRANCH  15  46
ENDBRANCH   7   9
ENDBRANCH   3   7
BRANCH   4  48
HETATM   48  O   UNK N   1      31.782  14.333   5.444  0.00  0.00    -0.391 OA
HETATM   49  H   UNK N   1      30.824  14.190   5.374  0.00  0.00     0.210 HD
ENDBRANCH   4  48
BRANCH   2  50
HETATM   50  C   UNK N   1      33.923  18.859   8.271  0.00  0.00     0.201 C 
BRANCH  50  51
HETATM   51  O   UNK N   1      35.315  18.861   8.297  0.00  0.00    -0.397 OA
HETATM   52  H   UNK N   1      36.093  18.441   7.899  0.00  0.00     0.209 HD
ENDBRANCH  50  51
ENDBRANCH   2  50
BRANCH   5  53
HETATM   53  O   UNK N   1      34.044  15.862   4.901  0.00  0.00    -0.390 OA
HETATM   54  H   UNK N   1      34.697  16.490   4.554  0.00  0.00     0.210 HD
ENDBRANCH   5  53
BRANCH   6  55
HETATM   55  O   UNK N   1      34.899  15.826   8.382  0.00  0.00    -0.346 OA
BRANCH  55  56
HETATM   56  C   UNK N   1      33.981  15.524   9.426  0.00  0.00     0.292 C 
HETATM   57  C   UNK N   1      34.616  15.804  10.796  0.00  0.00     0.204 C 
HETATM   58  C   UNK N   1      35.696  14.778  11.101  0.00  0.00     0.183 C 
HETATM   59  C   UNK N   1      35.056  13.386  10.969  0.00  0.00     0.187 C 
HETATM   60  C   UNK N   1      34.513  13.233   9.536  0.00  0.00     0.180 C 
HETATM   61  O   UNK N   1      33.492  14.196   9.320  0.00  0.00    -0.348 OA
BRANCH  57  62
HETATM   62  O   UNK N   1      35.133  17.101  10.845  0.00  0.00    -0.388 OA
HETATM   63  H   UNK N   1      36.041  17.428  10.943  0.00  0.00     0.210 HD
ENDBRANCH  57  62
BRANCH  58  64
HETATM   64  O   UNK N   1      36.775  14.909  10.217  0.00  0.00    -0.390 OA
HETATM   65  H   UNK N   1      37.574  15.289   9.820  0.00  0.00     0.210 HD
ENDBRANCH  58  64
BRANCH  59  66
HETATM   66  O   UNK N   1      36.035  12.418  11.308  0.00  0.00    -0.348 OA
BRANCH  66  67
HETATM   67  C   UNK N   1      35.507  11.152  11.704  0.00  0.00     0.292 C 
HETATM   68  C   UNK N   1      36.667  10.206  12.069  0.00  0.00     0.204 C 
HETATM   69  C   UNK N   1      37.338  10.680  13.370  0.00  0.00     0.183 C 
HETATM   70  C   UNK N   1      36.274  10.785  14.472  0.00  0.00     0.178 C 
HETATM   71  C   UNK N   1      35.131  11.688  13.989  0.00  0.00     0.152 C 
HETATM   72  C   UNK N   1      34.032  11.755  15.034  0.00  0.00     0.042 C 
HETATM   73  O   UNK N   1      34.564  11.198  12.780  0.00  0.00    -0.351 OA
BRANCH  68  74
HETATM   74  O   UNK N   1      36.164   8.912  12.248  0.00  0.00    -0.388 OA
HETATM   75  H   UNK N   1      35.391   8.527  12.689  0.00  0.00     0.210 HD
ENDBRANCH  68  74
BRANCH  69  76
HETATM   76  O   UNK N   1      37.950  11.922  13.168  0.00  0.00    -0.390 OA
HETATM   77  H   UNK N   1      38.090  12.755  13.646  0.00  0.00     0.210 HD
ENDBRANCH  69  76
BRANCH  70  78
HETATM   78  O   UNK N   1      36.842  11.300  15.641  0.00  0.00    -0.390 OA
HETATM   79  H   UNK N   1      36.884  12.252  15.820  0.00  0.00     0.210 HD
ENDBRANCH  70  78
ENDBRANCH  66  67
ENDBRANCH  59  66
BRANCH  60  80
HETATM   80  C   UNK N   1      33.922  11.848   9.288  0.00  0.00     0.198 C 
BRANCH  80  81
HETATM   81  O   UNK N   1      32.533  11.864   9.419  0.00  0.00    -0.398 OA
HETATM   82  H   UNK N   1      31.624  11.661   9.693  0.00  0.00     0.209 HD
ENDBRANCH  80  81
ENDBRANCH  60  80
ENDBRANCH  55  56
ENDBRANCH   6  55
TORSDOF 30
ENDMDL
MODEL 4
REMARK VINA RESULT:      -8.1      2.003     14.268
REMARK  30 active torsions:
REMARK  status: ('A' for Active; 'I' for Inactive)
REMARK    1  A    between atoms: C_11  and  C_5 
REMARK    2  A    between atoms: O_39  and  C_5 
REMARK    3  A    between atoms: C_13  and  C_6 
REMARK    4  A    between atoms: O_40  and  C_6 
REMARK    5  A    between atoms: C_14  and  C_7 
REMARK    6  A    between atoms: O_41  and  C_7 
REMARK    7  A    between atoms: C_12  and  N_38 
REMARK    8  A    between atoms: C_15  and  N_38 
REMARK    9  A    between atoms: C_16  and  O_42 
REMARK   10  A    between atoms: C_17  and  O_43 
REMARK   11  A    between atoms: C_18  and  O_44 
REMARK   12  A    between atoms: C_19  and  O_45 
REMARK   13  A    between atoms: C_20  and  O_46 
REMARK   14  A    between atoms: C_21  and  O_47 
REMARK   15  A    between atoms: C_22  and  O_48 
REMARK   16  A    between atoms: C_23  and  O_49 
REMARK   17  A    between atoms: C_24  and  O_50 
REMARK   18  A    between atoms: C_25  and  O_51 
REMARK   19  A    between atoms: C_26  and  O_52 
REMARK   20  A    between atoms: C_27  and  O_53 
REMARK   21  A    between atoms: C_28  and  O_54 
REMARK   22  A    between atoms: C_29  and  O_61 
REMARK   23  A    between atoms: C_30  and  O_62 
REMARK   24  A    between atoms: C_31  and  O_63 
REMARK   25  A    between atoms: C_32  and  O_64 
REMARK   26  A    between atoms: C_33  and  O_55 
REMARK   27  A    between atoms: C_34  and  O_63 
REMARK   28  A    between atoms: C_35  and  O_64 
REMARK   29  A    between atoms: C_36  and  O_61 
REMARK   30  A    between atoms: C_37  and  O_62 
ROOT
HETATM    1  C   UNK N   1      30.392  17.563   6.950  0.00  0.00     0.008 C 
HETATM    2  C   UNK N   1      29.097  17.409   6.673  0.00  0.00    -0.027 C 
HETATM    3  C   UNK N   1      31.486  17.409   5.955  0.00  0.00     0.132 C 
HETATM    4  C   UNK N   1      31.019  17.479   4.483  0.00  0.00     0.175 C 
HETATM    5  C   UNK N   1      29.703  16.740   4.229  0.00  0.00     0.182 C 
HETATM    6  C   UNK N   1      28.594  17.160   5.247  0.00  0.00     0.187 C 
ENDROOT
BRANCH   3   7
HETATM    7  N   UNK N   1      32.326  16.270   6.342  0.00  0.00    -0.402 N 
HETATM    8  H   UNK N   1      31.848  15.392   6.542  0.00  0.00     0.154 HD
BRANCH   7   9
HETATM    9  C   UNK N   1      33.802  16.273   6.469  0.00  0.00     0.137 C 
HETATM   10  C   UNK N   1      34.061  16.198   7.972  0.00  0.00     0.145 C 
HETATM   11  C   UNK N   1      33.437  17.391   8.688  0.00  0.00     0.042 C 
HETATM   12  O   UNK N   1      33.474  14.997   8.474  0.00  0.00    -0.352 OA
HETATM   13  C   UNK N   1      34.211  13.840   8.079  0.00  0.00     0.292 C 
HETATM   14  C   UNK N   1      34.231  13.739   6.549  0.00  0.00     0.204 C 
HETATM   15  C   UNK N   1      34.611  15.072   5.873  0.00  0.00     0.176 C 
BRANCH  13  16
HETATM   16  O   UNK N   1      35.510  13.805   8.650  0.00  0.00    -0.348 OA
BRANCH  16  17
HETATM   17  C   UNK N   1      35.788  12.536   9.252  0.00  0.00     0.187 C 
HETATM   18  C   UNK N   1      34.622  12.173  10.187  0.00  0.00     0.180 C 
HETATM   19  O   UNK N   1      34.667  13.072  11.263  0.00  0.00    -0.348 OA
HETATM   20  C   UNK N   1      35.736  12.887  12.162  0.00  0.00     0.292 C 
HETATM   21  C   UNK N   1      36.953  12.113  11.532  0.00  0.00     0.204 C 
HETATM   22  C   UNK N   1      37.109  12.668  10.085  0.00  0.00     0.183 C 
BRANCH  18  23
HETATM   23  C   UNK N   1      34.528  10.696  10.594  0.00  0.00     0.198 C 
BRANCH  23  24
HETATM   24  O   UNK N   1      33.496  10.514  11.518  0.00  0.00    -0.398 OA
HETATM   25  H   UNK N   1      32.558  10.504  11.765  0.00  0.00     0.209 HD
ENDBRANCH  23  24
ENDBRANCH  18  23
BRANCH  20  26
HETATM   26  O   UNK N   1      35.295  12.372  13.433  0.00  0.00    -0.348 OA
BRANCH  26  27
HETATM   27  C   UNK N   1      35.392  13.325  14.511  0.00  0.00     0.184 C 
HETATM   28  C   UNK N   1      34.883  12.693  15.827  0.00  0.00     0.152 C 
HETATM   29  C   UNK N   1      35.640  11.430  16.233  0.00  0.00     0.042 C 
HETATM   30  O   UNK N   1      34.854  13.650  16.887  0.00  0.00    -0.351 OA
HETATM   31  C   UNK N   1      36.128  14.228  17.144  0.00  0.00     0.288 C 
HETATM   32  C   UNK N   1      36.687  14.937  15.907  0.00  0.00     0.204 C 
HETATM   33  C   UNK N   1      36.813  13.932  14.761  0.00  0.00     0.183 C 
BRANCH  31  34
HETATM   34  O   UNK N   1      35.989  15.165  18.171  0.00  0.00    -0.369 OA
HETATM   35  H   UNK N   1      36.676  15.767  18.495  0.00  0.00     0.212 HD
ENDBRANCH  31  34
BRANCH  32  36
HETATM   36  O   UNK N   1      37.930  15.510  16.185  0.00  0.00    -0.388 OA
HETATM   37  H   UNK N   1      38.571  15.331  16.890  0.00  0.00     0.210 HD
ENDBRANCH  32  36
BRANCH  33  38
HETATM   38  O   UNK N   1      37.743  12.934  15.063  0.00  0.00    -0.390 OA
HETATM   39  H   UNK N   1      38.163  12.061  15.087  0.00  0.00     0.210 HD
ENDBRANCH  33  38
ENDBRANCH  26  27
ENDBRANCH  20  26
BRANCH  21  40
HETATM   40  O   UNK N   1      38.113  12.313  12.274  0.00  0.00    -0.388 OA
HETATM   41  H   UNK N   1      39.036  12.333  11.980  0.00  0.00     0.210 HD
ENDBRANCH  21  40
BRANCH  22  42
HETATM   42  O   UNK N   1      38.175  12.059   9.416  0.00  0.00    -0.390 OA
HETATM   43  H   UNK N   1      38.171  11.727   8.504  0.00  0.00     0.210 HD
ENDBRANCH  22  42
ENDBRANCH  16  17
ENDBRANCH  13  16
BRANCH  14  44
HETATM   44  O   UNK N   1      35.075  12.707   6.123  0.00  0.00    -0.388 OA
HETATM   45  H   UNK N   1      35.643  12.709   5.337  0.00  0.00     0.210 HD
ENDBRANCH  14  44
BRANCH  15  46
HETATM   46  O   UNK N   1      35.977  15.313   6.063  0.00  0.00    -0.391 OA
HETATM   47  H   UNK N   1      36.703  15.917   5.843  0.00  0.00     0.210 HD
ENDBRANCH  15  46
ENDBRANCH   7   9
ENDBRANCH   3   7
BRANCH   4  48
HETATM   48  O   UNK N   1      32.027  17.059   3.611  0.00  0.00    -0.391 OA
HETATM   49  H   UNK N   1      31.852  16.368   2.952  0.00  0.00     0.210 HD
ENDBRANCH   4  48
BRANCH   2  50
HETATM   50  C   UNK N   1      28.130  17.533   7.812  0.00  0.00     0.201 C 
BRANCH  50  51
HETATM   51  O   UNK N   1      27.438  18.738   7.724  0.00  0.00    -0.397 OA
HETATM   52  H   UNK N   1      26.546  19.108   7.632  0.00  0.00     0.209 HD
ENDBRANCH  50  51
ENDBRANCH   2  50
BRANCH   5  53
HETATM   53  O   UNK N   1      29.923  15.366   4.285  0.00  0.00    -0.390 OA
HETATM   54  H   UNK N   1      30.095  14.727   3.576  0.00  0.00     0.210 HD
ENDBRANCH   5  53
BRANCH   6  55
HETATM   55  O   UNK N   1      27.780  18.206   4.716  0.00  0.00    -0.346 OA
BRANCH  55  56
HETATM   56  C   UNK N   1      26.923  17.859   3.633  0.00  0.00     0.292 C 
HETATM   57  C   UNK N   1      25.844  18.934   3.438  0.00  0.00     0.204 C 
HETATM   58  C   UNK N   1      24.841  18.894   4.580  0.00  0.00     0.183 C 
HETATM   59  C   UNK N   1      24.300  17.458   4.665  0.00  0.00     0.187 C 
HETATM   60  C   UNK N   1      25.485  16.504   4.912  0.00  0.00     0.180 C 
HETATM   61  O   UNK N   1      26.369  16.564   3.803  0.00  0.00    -0.348 OA
BRANCH  57  62
HETATM   62  O   UNK N   1      26.423  20.202   3.327  0.00  0.00    -0.388 OA
HETATM   63  H   UNK N   1      27.275  20.490   2.963  0.00  0.00     0.210 HD
ENDBRANCH  57  62
BRANCH  58  64
HETATM   64  O   UNK N   1      25.444  19.265   5.789  0.00  0.00    -0.390 OA
HETATM   65  H   UNK N   1      26.154  19.474   6.416  0.00  0.00     0.210 HD
ENDBRANCH  58  64
BRANCH  59  66
HETATM   66  O   UNK N   1      23.319  17.417   5.688  0.00  0.00    -0.348 OA
BRANCH  66  67
HETATM   67  C   UNK N   1      22.143  18.180   5.415  0.00  0.00     0.292 C 
HETATM   68  C   UNK N   1      21.340  17.499   4.290  0.00  0.00     0.204 C 
HETATM   69  C   UNK N   1      20.739  16.179   4.803  0.00  0.00     0.183 C 
HETATM   70  C   UNK N   1      19.900  16.466   6.057  0.00  0.00     0.178 C 
HETATM   71  C   UNK N   1      20.763  17.206   7.087  0.00  0.00     0.152 C 
HETATM   72  C   UNK N   1      19.938  17.563   8.310  0.00  0.00     0.042 C 
HETATM   73  O   UNK N   1      21.294  18.409   6.544  0.00  0.00    -0.351 OA
BRANCH  68  74
HETATM   74  O   UNK N   1      20.311  18.353   3.880  0.00  0.00    -0.388 OA
HETATM   75  H   UNK N   1      19.495  18.692   4.280  0.00  0.00     0.210 HD
ENDBRANCH  68  74
BRANCH  69  76
HETATM   76  O   UNK N   1      21.762  15.271   5.103  0.00  0.00    -0.390 OA
HETATM   77  H   UNK N   1      22.723  15.269   5.239  0.00  0.00     0.210 HD
ENDBRANCH  69  76
BRANCH  70  78
HETATM   78  O   UNK N   1      19.415  15.270   6.595  0.00  0.00    -0.390 OA
HETATM   79  H   UNK N   1      18.965  14.604   6.053  0.00  0.00     0.210 HD
ENDBRANCH  70  78
ENDBRANCH  66  67
ENDBRANCH  59  66
BRANCH  60  80
HETATM   80  C   UNK N   1      25.034  15.056   5.084  0.00  0.00     0.198 C 
BRANCH  80  81
HETATM   81  O   UNK N   1      24.395  14.871   6.311  0.00  0.00    -0.398 OA
HETATM   82  H   UNK N   1      23.786  14.570   7.003  0.00  0.00     0.209 HD
ENDBRANCH  80  81
ENDBRANCH  60  80
ENDBRANCH  55  56
ENDBRANCH   6  55
TORSDOF 30
ENDMDL
MODEL 5
REMARK VINA RESULT:      -8.1      3.867      8.262
REMARK  30 active torsions:
REMARK  status: ('A' for Active; 'I' for Inactive)
REMARK    1  A    between atoms: C_11  and  C_5 
REMARK    2  A    between atoms: O_39  and  C_5 
REMARK    3  A    between atoms: C_13  and  C_6 
REMARK    4  A    between atoms: O_40  and  C_6 
REMARK    5  A    between atoms: C_14  and  C_7 
REMARK    6  A    between atoms: O_41  and  C_7 
REMARK    7  A    between atoms: C_12  and  N_38 
REMARK    8  A    between atoms: C_15  and  N_38 
REMARK    9  A    between atoms: C_16  and  O_42 
REMARK   10  A    between atoms: C_17  and  O_43 
REMARK   11  A    between atoms: C_18  and  O_44 
REMARK   12  A    between atoms: C_19  and  O_45 
REMARK   13  A    between atoms: C_20  and  O_46 
REMARK   14  A    between atoms: C_21  and  O_47 
REMARK   15  A    between atoms: C_22  and  O_48 
REMARK   16  A    between atoms: C_23  and  O_49 
REMARK   17  A    between atoms: C_24  and  O_50 
REMARK   18  A    between atoms: C_25  and  O_51 
REMARK   19  A    between atoms: C_26  and  O_52 
REMARK   20  A    between atoms: C_27  and  O_53 
REMARK   21  A    between atoms: C_28  and  O_54 
REMARK   22  A    between atoms: C_29  and  O_61 
REMARK   23  A    between atoms: C_30  and  O_62 
REMARK   24  A    between atoms: C_31  and  O_63 
REMARK   25  A    between atoms: C_32  and  O_64 
REMARK   26  A    between atoms: C_33  and  O_55 
REMARK   27  A    between atoms: C_34  and  O_63 
REMARK   28  A    between atoms: C_35  and  O_64 
REMARK   29  A    between atoms: C_36  and  O_61 
REMARK   30  A    between atoms: C_37  and  O_62 
ROOT
HETATM    1  C   UNK N   1      35.625  13.566  13.488  0.00  0.00     0.008 C 
HETATM    2  C   UNK N   1      36.527  13.211  14.403  0.00  0.00    -0.027 C 
HETATM    3  C   UNK N   1      35.125  12.670  12.411  0.00  0.00     0.132 C 
HETATM    4  C   UNK N   1      35.388  11.168  12.664  0.00  0.00     0.175 C 
HETATM    5  C   UNK N   1      36.771  10.885  13.253  0.00  0.00     0.182 C 
HETATM    6  C   UNK N   1      37.066  11.779  14.501  0.00  0.00     0.187 C 
ENDROOT
BRANCH   3   7
HETATM    7  N   UNK N   1      35.529  13.216  11.111  0.00  0.00    -0.402 N 
HETATM    8  H   UNK N   1      35.807  12.544  10.395  0.00  0.00     0.154 HD
BRANCH   7   9
HETATM    9  C   UNK N   1      35.573  14.649  10.738  0.00  0.00     0.137 C 
HETATM   10  C   UNK N   1      36.092  14.660   9.302  0.00  0.00     0.145 C 
HETATM   11  C   UNK N   1      37.474  14.021   9.223  0.00  0.00     0.042 C 
HETATM   12  O   UNK N   1      35.188  13.913   8.487  0.00  0.00    -0.352 OA
HETATM   13  C   UNK N   1      33.965  14.615   8.270  0.00  0.00     0.292 C 
HETATM   14  C   UNK N   1      33.271  14.871   9.614  0.00  0.00     0.204 C 
HETATM   15  C   UNK N   1      34.229  15.451  10.673  0.00  0.00     0.176 C 
BRANCH  13  16
HETATM   16  O   UNK N   1      34.148  15.801   7.511  0.00  0.00    -0.348 OA
BRANCH  16  17
HETATM   17  C   UNK N   1      33.731  15.629   6.153  0.00  0.00     0.187 C 
HETATM   18  C   UNK N   1      32.896  16.852   5.738  0.00  0.00     0.180 C 
HETATM   19  O   UNK N   1      31.700  16.794   6.466  0.00  0.00    -0.348 OA
HETATM   20  C   UNK N   1      30.804  15.776   6.081  0.00  0.00     0.292 C 
HETATM   21  C   UNK N   1      31.503  14.585   5.326  0.00  0.00     0.204 C 
HETATM   22  C   UNK N   1      32.847  14.336   6.074  0.00  0.00     0.183 C 
BRANCH  18  23
HETATM   23  C   UNK N   1      32.715  17.053   4.227  0.00  0.00     0.198 C 
BRANCH  23  24
HETATM   24  O   UNK N   1      31.859  18.131   3.984  0.00  0.00    -0.398 OA
HETATM   25  H   UNK N   1      31.025  18.610   4.111  0.00  0.00     0.209 HD
ENDBRANCH  23  24
ENDBRANCH  18  23
BRANCH  20  26
HETATM   26  O   UNK N   1      29.638  16.299   5.418  0.00  0.00    -0.348 OA
BRANCH  26  27
HETATM   27  C   UNK N   1      29.234  17.600   5.894  0.00  0.00     0.184 C 
HETATM   28  C   UNK N   1      28.452  18.351   4.792  0.00  0.00     0.152 C 
HETATM   29  C   UNK N   1      27.208  17.608   4.311  0.00  0.00     0.042 C 
HETATM   30  O   UNK N   1      28.144  19.687   5.191  0.00  0.00    -0.351 OA
HETATM   31  C   UNK N   1      27.376  19.743   6.386  0.00  0.00     0.288 C 
HETATM   32  C   UNK N   1      28.103  19.077   7.558  0.00  0.00     0.204 C 
HETATM   33  C   UNK N   1      28.388  17.614   7.210  0.00  0.00     0.183 C 
BRANCH  31  34
HETATM   34  O   UNK N   1      27.152  21.085   6.706  0.00  0.00    -0.369 OA
HETATM   35  H   UNK N   1      27.465  21.854   6.206  0.00  0.00     0.212 HD
ENDBRANCH  31  34
BRANCH  32  36
HETATM   36  O   UNK N   1      27.340  19.156   8.724  0.00  0.00    -0.388 OA
HETATM   37  H   UNK N   1      27.513  18.833   9.623  0.00  0.00     0.210 HD
ENDBRANCH  32  36
BRANCH  33  38
HETATM   38  O   UNK N   1      27.202  16.891   7.057  0.00  0.00    -0.390 OA
HETATM   39  H   UNK N   1      26.332  16.518   7.265  0.00  0.00     0.210 HD
ENDBRANCH  33  38
ENDBRANCH  26  27
ENDBRANCH  20  26
BRANCH  21  40
HETATM   40  O   UNK N   1      30.704  13.446   5.338  0.00  0.00    -0.388 OA
HETATM   41  H   UNK N   1      29.745  13.369   5.456  0.00  0.00     0.210 HD
ENDBRANCH  21  40
BRANCH  22  42
HETATM   42  O   UNK N   1      33.565  13.284   5.497  0.00  0.00    -0.390 OA
HETATM   43  H   UNK N   1      33.610  12.370   5.820  0.00  0.00     0.210 HD
ENDBRANCH  22  42
ENDBRANCH  16  17
ENDBRANCH  13  16
BRANCH  14  44
HETATM   44  O   UNK N   1      32.150  15.692   9.454  0.00  0.00    -0.388 OA
HETATM   45  H   UNK N   1      31.981  16.537   9.899  0.00  0.00     0.210 HD
ENDBRANCH  14  44
BRANCH  15  46
HETATM   46  O   UNK N   1      34.517  16.783  10.355  0.00  0.00    -0.391 OA
HETATM   47  H   UNK N   1      35.018  17.353   9.751  0.00  0.00     0.210 HD
ENDBRANCH  15  46
ENDBRANCH   7   9
ENDBRANCH   3   7
BRANCH   4  48
HETATM   48  O   UNK N   1      35.150  10.412  11.512  0.00  0.00    -0.391 OA
HETATM   49  H   UNK N   1      34.574   9.631  11.547  0.00  0.00     0.210 HD
ENDBRANCH   4  48
BRANCH   2  50
HETATM   50  C   UNK N   1      36.970  14.261  15.376  0.00  0.00     0.201 C 
BRANCH  50  51
HETATM   51  O   UNK N   1      37.269  15.443  14.703  0.00  0.00    -0.397 OA
HETATM   52  H   UNK N   1      37.241  16.408  14.793  0.00  0.00     0.209 HD
ENDBRANCH  50  51
ENDBRANCH   2  50
BRANCH   5  53
HETATM   53  O   UNK N   1      37.743  11.078  12.273  0.00  0.00    -0.390 OA
HETATM   54  H   UNK N   1      37.963  11.867  11.753  0.00  0.00     0.210 HD
ENDBRANCH   5  53
BRANCH   6  55
HETATM   55  O   UNK N   1      36.725  11.100  15.710  0.00  0.00    -0.346 OA
BRANCH  55  56
HETATM   56  C   UNK N   1      36.121   9.819  15.572  0.00  0.00     0.292 C 
HETATM   57  C   UNK N   1      34.682   9.843  16.108  0.00  0.00     0.204 C 
HETATM   58  C   UNK N   1      34.682   9.964  17.624  0.00  0.00     0.183 C 
HETATM   59  C   UNK N   1      35.547   8.818  18.175  0.00  0.00     0.187 C 
HETATM   60  C   UNK N   1      36.967   8.955  17.592  0.00  0.00     0.180 C 
HETATM   61  O   UNK N   1      36.906   8.806  16.181  0.00  0.00    -0.348 OA
BRANCH  57  62
HETATM   62  O   UNK N   1      33.955  10.885  15.526  0.00  0.00    -0.388 OA
HETATM   63  H   UNK N   1      33.002  11.058  15.484  0.00  0.00     0.210 HD
ENDBRANCH  57  62
BRANCH  58  64
HETATM   64  O   UNK N   1      35.193  11.204  18.028  0.00  0.00    -0.390 OA
HETATM   65  H   UNK N   1      35.413  12.147  17.981  0.00  0.00     0.210 HD
ENDBRANCH  58  64
BRANCH  59  66
HETATM   66  O   UNK N   1      35.509   8.880  19.591  0.00  0.00    -0.348 OA
BRANCH  66  67
HETATM   67  C   UNK N   1      34.858   7.774  20.218  0.00  0.00     0.292 C 
HETATM   68  C   UNK N   1      35.127   7.814  21.734  0.00  0.00     0.204 C 
HETATM   69  C   UNK N   1      34.387   9.006  22.365  0.00  0.00     0.183 C 
HETATM   70  C   UNK N   1      32.894   8.906  22.018  0.00  0.00     0.178 C 
HETATM   71  C   UNK N   1      32.733   8.800  20.495  0.00  0.00     0.152 C 
HETATM   72  C   UNK N   1      31.269   8.631  20.130  0.00  0.00     0.042 C 
HETATM   73  O   UNK N   1      33.450   7.685  19.978  0.00  0.00    -0.351 OA
BRANCH  68  74
HETATM   74  O   UNK N   1      34.674   6.623  22.312  0.00  0.00    -0.388 OA
HETATM   75  H   UNK N   1      33.818   6.174  22.385  0.00  0.00     0.210 HD
ENDBRANCH  68  74
BRANCH  69  76
HETATM   76  O   UNK N   1      34.916  10.209  21.883  0.00  0.00    -0.390 OA
HETATM   77  H   UNK N   1      34.604  11.040  21.491  0.00  0.00     0.210 HD
ENDBRANCH  69  76
BRANCH  70  78
HETATM   78  O   UNK N   1      32.211  10.025  22.504  0.00  0.00    -0.390 OA
HETATM   79  H   UNK N   1      31.331  10.273  22.183  0.00  0.00     0.210 HD
ENDBRANCH  70  78
ENDBRANCH  66  67
ENDBRANCH  59  66
BRANCH  60  80
HETATM   80  C   UNK N   1      37.920   7.898  18.142  0.00  0.00     0.198 C 
BRANCH  80  81
HETATM   81  O   UNK N   1      38.279   8.182  19.460  0.00  0.00    -0.398 OA
HETATM   82  H   UNK N   1      38.660   8.126  20.351  0.00  0.00     0.209 HD
ENDBRANCH  80  81
ENDBRANCH  60  80
ENDBRANCH  55  56
ENDBRANCH   6  55
TORSDOF 30
ENDMDL
MODEL 6
REMARK VINA RESULT:      -8.0      1.812     14.823
REMARK  30 active torsions:
REMARK  status: ('A' for Active; 'I' for Inactive)
REMARK    1  A    between atoms: C_11  and  C_5 
REMARK    2  A    between atoms: O_39  and  C_5 
REMARK    3  A    between atoms: C_13  and  C_6 
REMARK    4  A    between atoms: O_40  and  C_6 
REMARK    5  A    between atoms: C_14  and  C_7 
REMARK    6  A    between atoms: O_41  and  C_7 
REMARK    7  A    between atoms: C_12  and  N_38 
REMARK    8  A    between atoms: C_15  and  N_38 
REMARK    9  A    between atoms: C_16  and  O_42 
REMARK   10  A    between atoms: C_17  and  O_43 
REMARK   11  A    between atoms: C_18  and  O_44 
REMARK   12  A    between atoms: C_19  and  O_45 
REMARK   13  A    between atoms: C_20  and  O_46 
REMARK   14  A    between atoms: C_21  and  O_47 
REMARK   15  A    between atoms: C_22  and  O_48 
REMARK   16  A    between atoms: C_23  and  O_49 
REMARK   17  A    between atoms: C_24  and  O_50 
REMARK   18  A    between atoms: C_25  and  O_51 
REMARK   19  A    between atoms: C_26  and  O_52 
REMARK   20  A    between atoms: C_27  and  O_53 
REMARK   21  A    between atoms: C_28  and  O_54 
REMARK   22  A    between atoms: C_29  and  O_61 
REMARK   23  A    between atoms: C_30  and  O_62 
REMARK   24  A    between atoms: C_31  and  O_63 
REMARK   25  A    between atoms: C_32  and  O_64 
REMARK   26  A    between atoms: C_33  and  O_55 
REMARK   27  A    between atoms: C_34  and  O_63 
REMARK   28  A    between atoms: C_35  and  O_64 
REMARK   29  A    between atoms: C_36  and  O_61 
REMARK   30  A    between atoms: C_37  and  O_62 
ROOT
HETATM    1  C   UNK N   1      29.268  15.292   5.077  0.00  0.00     0.008 C 
HETATM    2  C   UNK N   1      28.700  15.762   3.967  0.00  0.00    -0.027 C 
HETATM    3  C   UNK N   1      29.605  16.122   6.265  0.00  0.00     0.132 C 
HETATM    4  C   UNK N   1      28.875  17.484   6.313  0.00  0.00     0.175 C 
HETATM    5  C   UNK N   1      28.788  18.175   4.950  0.00  0.00     0.182 C 
HETATM    6  C   UNK N   1      28.231  17.217   3.847  0.00  0.00     0.187 C 
ENDROOT
BRANCH   3   7
HETATM    7  N   UNK N   1      31.061  16.132   6.441  0.00  0.00    -0.402 N 
HETATM    8  H   UNK N   1      31.466  16.951   6.893  0.00  0.00     0.154 HD
BRANCH   7   9
HETATM    9  C   UNK N   1      32.001  15.064   6.026  0.00  0.00     0.137 C 
HETATM   10  C   UNK N   1      33.386  15.689   6.172  0.00  0.00     0.145 C 
HETATM   11  C   UNK N   1      33.518  16.924   5.287  0.00  0.00     0.042 C 
HETATM   12  O   UNK N   1      33.569  16.074   7.535  0.00  0.00    -0.352 OA
HETATM   13  C   UNK N   1      33.761  14.943   8.385  0.00  0.00     0.292 C 
HETATM   14  C   UNK N   1      32.526  14.036   8.323  0.00  0.00     0.204 C 
HETATM   15  C   UNK N   1      32.072  13.752   6.877  0.00  0.00     0.176 C 
BRANCH  13  16
HETATM   16  O   UNK N   1      34.967  14.251   8.101  0.00  0.00    -0.348 OA
BRANCH  16  17
HETATM   17  C   UNK N   1      36.079  14.821   8.799  0.00  0.00     0.187 C 
HETATM   18  C   UNK N   1      37.073  13.697   9.138  0.00  0.00     0.180 C 
HETATM   19  O   UNK N   1      36.455  12.883  10.098  0.00  0.00    -0.348 OA
HETATM   20  C   UNK N   1      36.322  13.453  11.381  0.00  0.00     0.292 C 
HETATM   21  C   UNK N   1      36.367  15.026  11.371  0.00  0.00     0.204 C 
HETATM   22  C   UNK N   1      35.546  15.468  10.123  0.00  0.00     0.183 C 
BRANCH  18  23
HETATM   23  C   UNK N   1      38.493  14.150   9.504  0.00  0.00     0.198 C 
BRANCH  23  24
HETATM   24  O   UNK N   1      39.198  13.098  10.094  0.00  0.00    -0.398 OA
HETATM   25  H   UNK N   1      39.927  12.747  10.630  0.00  0.00     0.209 HD
ENDBRANCH  23  24
ENDBRANCH  18  23
BRANCH  20  26
HETATM   26  O   UNK N   1      37.199  12.837  12.343  0.00  0.00    -0.348 OA
BRANCH  26  27
HETATM   27  C   UNK N   1      36.544  11.871  13.191  0.00  0.00     0.184 C 
HETATM   28  C   UNK N   1      37.062  12.000  14.642  0.00  0.00     0.152 C 
HETATM   29  C   UNK N   1      36.856  13.387  15.245  0.00  0.00     0.042 C 
HETATM   30  O   UNK N   1      36.521  10.978  15.480  0.00  0.00    -0.351 OA
HETATM   31  C   UNK N   1      35.099  10.993  15.522  0.00  0.00     0.288 C 
HETATM   32  C   UNK N   1      34.491  10.806  14.128  0.00  0.00     0.204 C 
HETATM   33  C   UNK N   1      34.980  11.926  13.208  0.00  0.00     0.183 C 
BRANCH  31  34
HETATM   34  O   UNK N   1      34.669   9.945  16.339  0.00  0.00    -0.369 OA
HETATM   35  H   UNK N   1      34.713   9.916  17.307  0.00  0.00     0.212 HD
ENDBRANCH  31  34
BRANCH  32  36
HETATM   36  O   UNK N   1      33.097  10.808  14.192  0.00  0.00    -0.388 OA
HETATM   37  H   UNK N   1      32.481  10.272  14.717  0.00  0.00     0.210 HD
ENDBRANCH  32  36
BRANCH  33  38
HETATM   38  O   UNK N   1      34.523  13.173  13.643  0.00  0.00    -0.390 OA
HETATM   39  H   UNK N   1      33.990  13.982  13.683  0.00  0.00     0.210 HD
ENDBRANCH  33  38
ENDBRANCH  26  27
ENDBRANCH  20  26
BRANCH  21  40
HETATM   40  O   UNK N   1      35.827  15.550  12.540  0.00  0.00    -0.388 OA
HETATM   41  H   UNK N   1      35.541  16.457  12.734  0.00  0.00     0.210 HD
ENDBRANCH  21  40
BRANCH  22  42
HETATM   42  O   UNK N   1      35.503  16.861  10.007  0.00  0.00    -0.390 OA
HETATM   43  H   UNK N   1      36.251  17.472  10.104  0.00  0.00     0.210 HD
ENDBRANCH  22  42
ENDBRANCH  16  17
ENDBRANCH  13  16
BRANCH  14  44
HETATM   44  O   UNK N   1      32.742  12.842   9.020  0.00  0.00    -0.388 OA
HETATM   45  H   UNK N   1      33.203  12.054   8.693  0.00  0.00     0.210 HD
ENDBRANCH  14  44
BRANCH  15  46
HETATM   46  O   UNK N   1      32.981  12.874   6.273  0.00  0.00    -0.391 OA
HETATM   47  H   UNK N   1      33.236  11.941   6.199  0.00  0.00     0.210 HD
ENDBRANCH  15  46
ENDBRANCH   7   9
ENDBRANCH   3   7
BRANCH   4  48
HETATM   48  O   UNK N   1      29.430  18.321   7.285  0.00  0.00    -0.391 OA
HETATM   49  H   UNK N   1      30.363  18.585   7.233  0.00  0.00     0.210 HD
ENDBRANCH   4  48
BRANCH   2  50
HETATM   50  C   UNK N   1      28.491  14.798   2.839  0.00  0.00     0.201 C 
BRANCH  50  51
HETATM   51  O   UNK N   1      27.159  14.812   2.435  0.00  0.00    -0.397 OA
HETATM   52  H   UNK N   1      26.278  15.119   2.701  0.00  0.00     0.209 HD
ENDBRANCH  50  51
ENDBRANCH   2  50
BRANCH   5  53
HETATM   53  O   UNK N   1      30.046  18.654   4.590  0.00  0.00    -0.390 OA
HETATM   54  H   UNK N   1      30.839  18.803   5.128  0.00  0.00     0.210 HD
ENDBRANCH   5  53
BRANCH   6  55
HETATM   55  O   UNK N   1      26.819  17.373   3.699  0.00  0.00    -0.346 OA
BRANCH  55  56
HETATM   56  C   UNK N   1      26.117  17.911   4.814  0.00  0.00     0.292 C 
HETATM   57  C   UNK N   1      25.086  16.900   5.337  0.00  0.00     0.204 C 
HETATM   58  C   UNK N   1      23.934  16.759   4.354  0.00  0.00     0.183 C 
HETATM   59  C   UNK N   1      23.372  18.167   4.101  0.00  0.00     0.187 C 
HETATM   60  C   UNK N   1      24.502  19.048   3.533  0.00  0.00     0.180 C 
HETATM   61  O   UNK N   1      25.532  19.165   4.503  0.00  0.00    -0.348 OA
BRANCH  57  62
HETATM   62  O   UNK N   1      25.687  15.662   5.581  0.00  0.00    -0.388 OA
HETATM   63  H   UNK N   1      26.542  15.297   5.303  0.00  0.00     0.210 HD
ENDBRANCH  57  62
BRANCH  58  64
HETATM   64  O   UNK N   1      24.368  16.179   3.154  0.00  0.00    -0.390 OA
HETATM   65  H   UNK N   1      24.973  15.764   2.521  0.00  0.00     0.210 HD
ENDBRANCH  58  64
BRANCH  59  66
HETATM   66  O   UNK N   1      22.259  18.047   3.232  0.00  0.00    -0.348 OA
BRANCH  66  67
HETATM   67  C   UNK N   1      21.288  17.082   3.639  0.00  0.00     0.292 C 
HETATM   68  C   UNK N   1      19.880  17.699   3.537  0.00  0.00     0.204 C 
HETATM   69  C   UNK N   1      19.507  17.907   2.059  0.00  0.00     0.183 C 
HETATM   70  C   UNK N   1      19.636  16.568   1.319  0.00  0.00     0.178 C 
HETATM   71  C   UNK N   1      21.044  16.000   1.538  0.00  0.00     0.152 C 
HETATM   72  C   UNK N   1      21.176  14.642   0.871  0.00  0.00     0.042 C 
HETATM   73  O   UNK N   1      21.327  15.844   2.923  0.00  0.00    -0.351 OA
BRANCH  68  74
HETATM   74  O   UNK N   1      18.956  16.835   4.135  0.00  0.00    -0.388 OA
HETATM   75  H   UNK N   1      18.954  15.900   4.394  0.00  0.00     0.210 HD
ENDBRANCH  68  74
BRANCH  69  76
HETATM   76  O   UNK N   1      20.351  18.862   1.481  0.00  0.00    -0.390 OA
HETATM   77  H   UNK N   1      21.285  18.961   1.237  0.00  0.00     0.210 HD
ENDBRANCH  69  76
BRANCH  70  78
HETATM   78  O   UNK N   1      19.388  16.747  -0.046  0.00  0.00    -0.390 OA
HETATM   79  H   UNK N   1      18.567  16.447  -0.466  0.00  0.00     0.210 HD
ENDBRANCH  70  78
ENDBRANCH  66  67
ENDBRANCH  59  66
BRANCH  60  80
HETATM   80  C   UNK N   1      24.017  20.451   3.181  0.00  0.00     0.198 C 
BRANCH  80  81
HETATM   81  O   UNK N   1      24.687  20.949   2.063  0.00  0.00    -0.398 OA
HETATM   82  H   UNK N   1      25.375  21.284   1.466  0.00  0.00     0.209 HD
ENDBRANCH  80  81
ENDBRANCH  60  80
ENDBRANCH  55  56
ENDBRANCH   6  55
TORSDOF 30
ENDMDL
MODEL 7
REMARK VINA RESULT:      -7.9      1.990     14.473
REMARK  30 active torsions:
REMARK  status: ('A' for Active; 'I' for Inactive)
REMARK    1  A    between atoms: C_11  and  C_5 
REMARK    2  A    between atoms: O_39  and  C_5 
REMARK    3  A    between atoms: C_13  and  C_6 
REMARK    4  A    between atoms: O_40  and  C_6 
REMARK    5  A    between atoms: C_14  and  C_7 
REMARK    6  A    between atoms: O_41  and  C_7 
REMARK    7  A    between atoms: C_12  and  N_38 
REMARK    8  A    between atoms: C_15  and  N_38 
REMARK    9  A    between atoms: C_16  and  O_42 
REMARK   10  A    between atoms: C_17  and  O_43 
REMARK   11  A    between atoms: C_18  and  O_44 
REMARK   12  A    between atoms: C_19  and  O_45 
REMARK   13  A    between atoms: C_20  and  O_46 
REMARK   14  A    between atoms: C_21  and  O_47 
REMARK   15  A    between atoms: C_22  and  O_48 
REMARK   16  A    between atoms: C_23  and  O_49 
REMARK   17  A    between atoms: C_24  and  O_50 
REMARK   18  A    between atoms: C_25  and  O_51 
REMARK   19  A    between atoms: C_26  and  O_52 
REMARK   20  A    between atoms: C_27  and  O_53 
REMARK   21  A    between atoms: C_28  and  O_54 
REMARK   22  A    between atoms: C_29  and  O_61 
REMARK   23  A    between atoms: C_30  and  O_62 
REMARK   24  A    between atoms: C_31  and  O_63 
REMARK   25  A    between atoms: C_32  and  O_64 
REMARK   26  A    between atoms: C_33  and  O_55 
REMARK   27  A    between atoms: C_34  and  O_63 
REMARK   28  A    between atoms: C_35  and  O_64 
REMARK   29  A    between atoms: C_36  and  O_61 
REMARK   30  A    between atoms: C_37  and  O_62 
ROOT
HETATM    1  C   UNK N   1      30.308  17.610   6.902  0.00  0.00     0.008 C 
HETATM    2  C   UNK N   1      29.000  17.491   6.678  0.00  0.00    -0.027 C 
HETATM    3  C   UNK N   1      31.362  17.318   5.894  0.00  0.00     0.132 C 
HETATM    4  C   UNK N   1      30.851  17.276   4.437  0.00  0.00     0.175 C 
HETATM    5  C   UNK N   1      29.497  16.578   4.288  0.00  0.00     0.182 C 
HETATM    6  C   UNK N   1      28.440  17.137   5.296  0.00  0.00     0.187 C 
ENDROOT
BRANCH   3   7
HETATM    7  N   UNK N   1      32.165  16.181   6.360  0.00  0.00    -0.402 N 
HETATM    8  H   UNK N   1      32.990  15.943   5.810  0.00  0.00     0.154 HD
BRANCH   7   9
HETATM    9  C   UNK N   1      31.891  15.345   7.552  0.00  0.00     0.137 C 
HETATM   10  C   UNK N   1      32.728  14.086   7.343  0.00  0.00     0.145 C 
HETATM   11  C   UNK N   1      32.320  13.374   6.058  0.00  0.00     0.042 C 
HETATM   12  O   UNK N   1      34.102  14.465   7.248  0.00  0.00    -0.352 OA
HETATM   13  C   UNK N   1      34.633  14.858   8.513  0.00  0.00     0.292 C 
HETATM   14  C   UNK N   1      33.856  16.070   9.044  0.00  0.00     0.204 C 
HETATM   15  C   UNK N   1      32.329  15.877   8.959  0.00  0.00     0.176 C 
BRANCH  13  16
HETATM   16  O   UNK N   1      34.678  13.784   9.440  0.00  0.00    -0.348 OA
BRANCH  16  17
HETATM   17  C   UNK N   1      36.022  13.466   9.814  0.00  0.00     0.187 C 
HETATM   18  C   UNK N   1      36.126  11.946  10.022  0.00  0.00     0.180 C 
HETATM   19  O   UNK N   1      35.377  11.639  11.167  0.00  0.00    -0.348 OA
HETATM   20  C   UNK N   1      35.936  12.066  12.389  0.00  0.00     0.292 C 
HETATM   21  C   UNK N   1      36.961  13.249  12.224  0.00  0.00     0.204 C 
HETATM   22  C   UNK N   1      36.343  14.204  11.160  0.00  0.00     0.183 C 
BRANCH  18  23
HETATM   23  C   UNK N   1      37.548  11.368  10.015  0.00  0.00     0.198 C 
BRANCH  23  24
HETATM   24  O   UNK N   1      38.360  12.097   9.143  0.00  0.00    -0.398 OA
HETATM   25  H   UNK N   1      39.076  12.164   8.491  0.00  0.00     0.209 HD
ENDBRANCH  23  24
ENDBRANCH  18  23
BRANCH  20  26
HETATM   26  O   UNK N   1      36.419  10.964  13.180  0.00  0.00    -0.348 OA
BRANCH  26  27
HETATM   27  C   UNK N   1      36.312  11.180  14.603  0.00  0.00     0.184 C 
HETATM   28  C   UNK N   1      34.884  11.650  14.964  0.00  0.00     0.152 C 
HETATM   29  C   UNK N   1      33.792  10.669  14.543  0.00  0.00     0.042 C 
HETATM   30  O   UNK N   1      34.782  11.986  16.348  0.00  0.00    -0.351 OA
HETATM   31  C   UNK N   1      35.114  10.903  17.206  0.00  0.00     0.288 C 
HETATM   32  C   UNK N   1      36.544  10.408  16.964  0.00  0.00     0.204 C 
HETATM   33  C   UNK N   1      36.685   9.960  15.509  0.00  0.00     0.183 C 
BRANCH  31  34
HETATM   34  O   UNK N   1      35.012  11.339  18.530  0.00  0.00    -0.369 OA
HETATM   35  H   UNK N   1      35.723  11.725  19.063  0.00  0.00     0.212 HD
ENDBRANCH  31  34
BRANCH  32  36
HETATM   36  O   UNK N   1      36.856   9.355  17.826  0.00  0.00    -0.388 OA
HETATM   37  H   UNK N   1      36.656   8.407  17.773  0.00  0.00     0.210 HD
ENDBRANCH  32  36
BRANCH  33  38
HETATM   38  O   UNK N   1      35.867   8.860  15.237  0.00  0.00    -0.390 OA
HETATM   39  H   UNK N   1      35.584   8.004  14.881  0.00  0.00     0.210 HD
ENDBRANCH  33  38
ENDBRANCH  26  27
ENDBRANCH  20  26
BRANCH  21  40
HETATM   40  O   UNK N   1      37.163  13.909  13.433  0.00  0.00    -0.388 OA
HETATM   41  H   UNK N   1      36.898  14.803  13.697  0.00  0.00     0.210 HD
ENDBRANCH  21  40
BRANCH  22  42
HETATM   42  O   UNK N   1      37.164  15.312  10.929  0.00  0.00    -0.390 OA
HETATM   43  H   UNK N   1      37.527  15.594  10.075  0.00  0.00     0.210 HD
ENDBRANCH  22  42
ENDBRANCH  16  17
ENDBRANCH  13  16
BRANCH  14  44
HETATM   44  O   UNK N   1      34.246  16.385  10.350  0.00  0.00    -0.388 OA
HETATM   45  H   UNK N   1      34.966  15.977  10.855  0.00  0.00     0.210 HD
ENDBRANCH  14  44
BRANCH  15  46
HETATM   46  O   UNK N   1      31.925  14.954   9.932  0.00  0.00    -0.391 OA
HETATM   47  H   UNK N   1      32.194  14.517  10.755  0.00  0.00     0.210 HD
ENDBRANCH  15  46
ENDBRANCH   7   9
ENDBRANCH   3   7
BRANCH   4  48
HETATM   48  O   UNK N   1      31.811  16.734   3.578  0.00  0.00    -0.391 OA
HETATM   49  H   UNK N   1      31.550  16.126   2.868  0.00  0.00     0.210 HD
ENDBRANCH   4  48
BRANCH   2  50
HETATM   50  C   UNK N   1      28.077  17.761   7.828  0.00  0.00     0.201 C 
BRANCH  50  51
HETATM   51  O   UNK N   1      27.447  18.991   7.659  0.00  0.00    -0.397 OA
HETATM   52  H   UNK N   1      27.364  19.874   8.052  0.00  0.00     0.209 HD
ENDBRANCH  50  51
ENDBRANCH   2  50
BRANCH   5  53
HETATM   53  O   UNK N   1      29.660  15.205   4.464  0.00  0.00    -0.390 OA
HETATM   54  H   UNK N   1      29.777  14.497   3.811  0.00  0.00     0.210 HD
ENDBRANCH   5  53
BRANCH   6  55
HETATM   55  O   UNK N   1      27.655  18.167   4.694  0.00  0.00    -0.346 OA
BRANCH  55  56
HETATM   56  C   UNK N   1      26.777  17.770   3.647  0.00  0.00     0.292 C 
HETATM   57  C   UNK N   1      25.681  18.825   3.436  0.00  0.00     0.204 C 
HETATM   58  C   UNK N   1      24.706  18.819   4.604  0.00  0.00     0.183 C 
HETATM   59  C   UNK N   1      24.184  17.381   4.757  0.00  0.00     0.187 C 
HETATM   60  C   UNK N   1      25.385  16.450   5.013  0.00  0.00     0.180 C 
HETATM   61  O   UNK N   1      26.242  16.477   3.881  0.00  0.00    -0.348 OA
BRANCH  57  62
HETATM   62  O   UNK N   1      26.242  20.093   3.263  0.00  0.00    -0.388 OA
HETATM   63  H   UNK N   1      27.154  20.410   3.355  0.00  0.00     0.210 HD
ENDBRANCH  57  62
BRANCH  58  64
HETATM   64  O   UNK N   1      25.333  19.242   5.783  0.00  0.00    -0.390 OA
HETATM   65  H   UNK N   1      25.600  19.842   6.497  0.00  0.00     0.210 HD
ENDBRANCH  58  64
BRANCH  59  66
HETATM   66  O   UNK N   1      23.228  17.369   5.804  0.00  0.00    -0.348 OA
BRANCH  66  67
HETATM   67  C   UNK N   1      22.028  18.091   5.523  0.00  0.00     0.292 C 
HETATM   68  C   UNK N   1      21.200  17.320   4.478  0.00  0.00     0.204 C 
HETATM   69  C   UNK N   1      20.643  16.029   5.102  0.00  0.00     0.183 C 
HETATM   70  C   UNK N   1      19.843  16.389   6.363  0.00  0.00     0.178 C 
HETATM   71  C   UNK N   1      20.728  17.213   7.308  0.00  0.00     0.152 C 
HETATM   72  C   UNK N   1      19.939  17.640   8.533  0.00  0.00     0.042 C 
HETATM   73  O   UNK N   1      21.216  18.384   6.664  0.00  0.00    -0.351 OA
BRANCH  68  74
HETATM   74  O   UNK N   1      20.140  18.126   4.048  0.00  0.00    -0.388 OA
HETATM   75  H   UNK N   1      20.062  18.965   3.567  0.00  0.00     0.210 HD
ENDBRANCH  68  74
BRANCH  69  76
HETATM   76  O   UNK N   1      21.693  15.162   5.427  0.00  0.00    -0.390 OA
HETATM   77  H   UNK N   1      22.408  15.090   6.080  0.00  0.00     0.210 HD
ENDBRANCH  69  76
BRANCH  70  78
HETATM   78  O   UNK N   1      19.401  15.225   7.000  0.00  0.00    -0.390 OA
HETATM   79  H   UNK N   1      19.067  15.229   7.910  0.00  0.00     0.210 HD
ENDBRANCH  70  78
ENDBRANCH  66  67
ENDBRANCH  59  66
BRANCH  60  80
HETATM   80  C   UNK N   1      24.955  15.005   5.251  0.00  0.00     0.198 C 
BRANCH  80  81
HETATM   81  O   UNK N   1      24.431  14.842   6.534  0.00  0.00    -0.398 OA
HETATM   82  H   UNK N   1      23.840  14.638   7.276  0.00  0.00     0.209 HD
ENDBRANCH  80  81
ENDBRANCH  60  80
ENDBRANCH  55  56
ENDBRANCH   6  55
TORSDOF 30
ENDMDL
MODEL 8
REMARK VINA RESULT:      -7.7      3.430      6.143
REMARK  30 active torsions:
REMARK  status: ('A' for Active; 'I' for Inactive)
REMARK    1  A    between atoms: C_11  and  C_5 
REMARK    2  A    between atoms: O_39  and  C_5 
REMARK    3  A    between atoms: C_13  and  C_6 
REMARK    4  A    between atoms: O_40  and  C_6 
REMARK    5  A    between atoms: C_14  and  C_7 
REMARK    6  A    between atoms: O_41  and  C_7 
REMARK    7  A    between atoms: C_12  and  N_38 
REMARK    8  A    between atoms: C_15  and  N_38 
REMARK    9  A    between atoms: C_16  and  O_42 
REMARK   10  A    between atoms: C_17  and  O_43 
REMARK   11  A    between atoms: C_18  and  O_44 
REMARK   12  A    between atoms: C_19  and  O_45 
REMARK   13  A    between atoms: C_20  and  O_46 
REMARK   14  A    between atoms: C_21  and  O_47 
REMARK   15  A    between atoms: C_22  and  O_48 
REMARK   16  A    between atoms: C_23  and  O_49 
REMARK   17  A    between atoms: C_24  and  O_50 
REMARK   18  A    between atoms: C_25  and  O_51 
REMARK   19  A    between atoms: C_26  and  O_52 
REMARK   20  A    between atoms: C_27  and  O_53 
REMARK   21  A    between atoms: C_28  and  O_54 
REMARK   22  A    between atoms: C_29  and  O_61 
REMARK   23  A    between atoms: C_30  and  O_62 
REMARK   24  A    between atoms: C_31  and  O_63 
REMARK   25  A    between atoms: C_32  and  O_64 
REMARK   26  A    between atoms: C_33  and  O_55 
REMARK   27  A    between atoms: C_34  and  O_63 
REMARK   28  A    between atoms: C_35  and  O_64 
REMARK   29  A    between atoms: C_36  and  O_61 
REMARK   30  A    between atoms: C_37  and  O_62 
ROOT
HETATM    1  C   UNK N   1      27.727  16.740   7.161  0.00  0.00     0.008 C 
HETATM    2  C   UNK N   1      28.861  17.219   7.671  0.00  0.00    -0.027 C 
HETATM    3  C   UNK N   1      27.612  16.104   5.821  0.00  0.00     0.132 C 
HETATM    4  C   UNK N   1      28.959  15.642   5.221  0.00  0.00     0.175 C 
HETATM    5  C   UNK N   1      30.099  16.636   5.452  0.00  0.00     0.182 C 
HETATM    6  C   UNK N   1      30.207  17.059   6.954  0.00  0.00     0.187 C 
ENDROOT
BRANCH   3   7
HETATM    7  N   UNK N   1      26.745  16.932   4.974  0.00  0.00    -0.402 N 
HETATM    8  H   UNK N   1      27.148  17.281   4.105  0.00  0.00     0.154 HD
BRANCH   7   9
HETATM    9  C   UNK N   1      25.341  17.308   5.260  0.00  0.00     0.137 C 
HETATM   10  C   UNK N   1      24.755  17.679   3.900  0.00  0.00     0.145 C 
HETATM   11  C   UNK N   1      25.526  18.838   3.278  0.00  0.00     0.042 C 
HETATM   12  O   UNK N   1      24.849  16.544   3.040  0.00  0.00    -0.352 OA
HETATM   13  C   UNK N   1      23.913  15.527   3.398  0.00  0.00     0.292 C 
HETATM   14  C   UNK N   1      24.194  15.048   4.828  0.00  0.00     0.204 C 
HETATM   15  C   UNK N   1      24.369  16.215   5.819  0.00  0.00     0.176 C 
BRANCH  13  16
HETATM   16  O   UNK N   1      22.568  15.939   3.210  0.00  0.00    -0.348 OA
BRANCH  16  17
HETATM   17  C   UNK N   1      21.953  15.250   2.117  0.00  0.00     0.187 C 
HETATM   18  C   UNK N   1      20.598  14.694   2.588  0.00  0.00     0.180 C 
HETATM   19  O   UNK N   1      20.875  13.677   3.512  0.00  0.00    -0.348 OA
HETATM   20  C   UNK N   1      21.420  12.496   2.970  0.00  0.00     0.292 C 
HETATM   21  C   UNK N   1      22.120  12.717   1.577  0.00  0.00     0.204 C 
HETATM   22  C   UNK N   1      22.890  14.066   1.696  0.00  0.00     0.183 C 
BRANCH  18  23
HETATM   23  C   UNK N   1      19.618  14.296   1.476  0.00  0.00     0.198 C 
BRANCH  23  24
HETATM   24  O   UNK N   1      18.442  13.784   2.031  0.00  0.00    -0.398 OA
HETATM   25  H   UNK N   1      17.539  13.436   1.957  0.00  0.00     0.209 HD
ENDBRANCH  23  24
ENDBRANCH  18  23
BRANCH  20  26
HETATM   26  O   UNK N   1      20.485  11.401   3.000  0.00  0.00    -0.348 OA
BRANCH  26  27
HETATM   27  C   UNK N   1      20.724  10.463   4.069  0.00  0.00     0.184 C 
HETATM   28  C   UNK N   1      19.727   9.285   3.977  0.00  0.00     0.152 C 
HETATM   29  C   UNK N   1      19.793   8.530   2.651  0.00  0.00     0.042 C 
HETATM   30  O   UNK N   1      19.860   8.402   5.090  0.00  0.00    -0.351 OA
HETATM   31  C   UNK N   1      21.169   7.857   5.210  0.00  0.00     0.288 C 
HETATM   32  C   UNK N   1      22.225   8.954   5.373  0.00  0.00     0.204 C 
HETATM   33  C   UNK N   1      22.176   9.887   4.161  0.00  0.00     0.183 C 
BRANCH  31  34
HETATM   34  O   UNK N   1      21.204   7.034   6.339  0.00  0.00    -0.369 OA
HETATM   35  H   UNK N   1      21.446   6.096   6.358  0.00  0.00     0.212 HD
ENDBRANCH  31  34
BRANCH  32  36
HETATM   36  O   UNK N   1      23.499   8.400   5.504  0.00  0.00    -0.388 OA
HETATM   37  H   UNK N   1      24.114   8.049   4.839  0.00  0.00     0.210 HD
ENDBRANCH  32  36
BRANCH  33  38
HETATM   38  O   UNK N   1      22.527   9.212   2.989  0.00  0.00    -0.390 OA
HETATM   39  H   UNK N   1      22.606   8.493   2.343  0.00  0.00     0.210 HD
ENDBRANCH  33  38
ENDBRANCH  26  27
ENDBRANCH  20  26
BRANCH  21  40
HETATM   40  O   UNK N   1      22.986  11.669   1.280  0.00  0.00    -0.388 OA
HETATM   41  H   UNK N   1      23.429  11.048   1.879  0.00  0.00     0.210 HD
ENDBRANCH  21  40
BRANCH  22  42
HETATM   42  O   UNK N   1      23.568  14.373   0.512  0.00  0.00    -0.390 OA
HETATM   43  H   UNK N   1      24.225  13.818   0.062  0.00  0.00     0.210 HD
ENDBRANCH  22  42
ENDBRANCH  16  17
ENDBRANCH  13  16
BRANCH  14  44
HETATM   44  O   UNK N   1      23.202  14.165   5.267  0.00  0.00    -0.388 OA
HETATM   45  H   UNK N   1      22.248  14.237   5.107  0.00  0.00     0.210 HD
ENDBRANCH  14  44
BRANCH  15  46
HETATM   46  O   UNK N   1      23.122  16.804   6.061  0.00  0.00    -0.391 OA
HETATM   47  H   UNK N   1      22.292  16.705   6.552  0.00  0.00     0.210 HD
ENDBRANCH  15  46
ENDBRANCH   7   9
ENDBRANCH   3   7
BRANCH   4  48
HETATM   48  O   UNK N   1      28.825  15.312   3.870  0.00  0.00    -0.391 OA
HETATM   49  H   UNK N   1      27.949  15.304   3.450  0.00  0.00     0.210 HD
ENDBRANCH   4  48
BRANCH   2  50
HETATM   50  C   UNK N   1      28.785  17.890   9.009  0.00  0.00     0.201 C 
BRANCH  50  51
HETATM   51  O   UNK N   1      27.458  17.989   9.421  0.00  0.00    -0.397 OA
HETATM   52  H   UNK N   1      26.883  17.883  10.195  0.00  0.00     0.209 HD
ENDBRANCH  50  51
ENDBRANCH   2  50
BRANCH   5  53
HETATM   53  O   UNK N   1      29.913  17.755   4.643  0.00  0.00    -0.390 OA
HETATM   54  H   UNK N   1      29.107  18.109   4.236  0.00  0.00     0.210 HD
ENDBRANCH   5  53
BRANCH   6  55
HETATM   55  O   UNK N   1      31.154  16.247   7.648  0.00  0.00    -0.346 OA
BRANCH  55  56
HETATM   56  C   UNK N   1      32.372  15.965   6.967  0.00  0.00     0.292 C 
HETATM   57  C   UNK N   1      32.636  14.453   6.943  0.00  0.00     0.204 C 
HETATM   58  C   UNK N   1      32.999  13.954   8.334  0.00  0.00     0.183 C 
HETATM   59  C   UNK N   1      34.185  14.799   8.827  0.00  0.00     0.187 C 
HETATM   60  C   UNK N   1      33.755  16.279   8.846  0.00  0.00     0.180 C 
HETATM   61  O   UNK N   1      33.457  16.693   7.521  0.00  0.00    -0.348 OA
BRANCH  57  62
HETATM   62  O   UNK N   1      31.527  13.765   6.442  0.00  0.00    -0.388 OA
HETATM   63  H   UNK N   1      30.575  13.932   6.526  0.00  0.00     0.210 HD
ENDBRANCH  57  62
BRANCH  58  64
HETATM   64  O   UNK N   1      31.912  14.074   9.209  0.00  0.00    -0.390 OA
HETATM   65  H   UNK N   1      31.277  13.823   9.898  0.00  0.00     0.210 HD
ENDBRANCH  58  64
BRANCH  59  66
HETATM   66  O   UNK N   1      34.575  14.309  10.099  0.00  0.00    -0.348 OA
BRANCH  66  67
HETATM   67  C   UNK N   1      35.081  12.973  10.092  0.00  0.00     0.292 C 
HETATM   68  C   UNK N   1      36.619  13.009  10.003  0.00  0.00     0.204 C 
HETATM   69  C   UNK N   1      37.206  13.553  11.316  0.00  0.00     0.183 C 
HETATM   70  C   UNK N   1      36.687  12.703  12.485  0.00  0.00     0.178 C 
HETATM   71  C   UNK N   1      35.153  12.670  12.447  0.00  0.00     0.152 C 
HETATM   72  C   UNK N   1      34.616  11.779  13.554  0.00  0.00     0.042 C 
HETATM   73  O   UNK N   1      34.679  12.167  11.204  0.00  0.00    -0.351 OA
BRANCH  68  74
HETATM   74  O   UNK N   1      37.095  11.712   9.780  0.00  0.00    -0.388 OA
HETATM   75  H   UNK N   1      37.672  11.293   9.122  0.00  0.00     0.210 HD
ENDBRANCH  68  74
BRANCH  69  76
HETATM   76  O   UNK N   1      36.833  14.892  11.489  0.00  0.00    -0.390 OA
HETATM   77  H   UNK N   1      36.107  15.405  11.878  0.00  0.00     0.210 HD
ENDBRANCH  69  76
BRANCH  70  78
HETATM   78  O   UNK N   1      37.134  13.231  13.700  0.00  0.00    -0.390 OA
HETATM   79  H   UNK N   1      36.653  13.097  14.531  0.00  0.00     0.210 HD
ENDBRANCH  70  78
ENDBRANCH  66  67
ENDBRANCH  59  66
BRANCH  60  80
HETATM   80  C   UNK N   1      34.850  17.190   9.395  0.00  0.00     0.198 C 
BRANCH  80  81
HETATM   81  O   UNK N   1      34.966  17.059  10.779  0.00  0.00    -0.398 OA
HETATM   82  H   UNK N   1      34.761  16.965  11.722  0.00  0.00     0.209 HD
ENDBRANCH  80  81
ENDBRANCH  60  80
ENDBRANCH  55  56
ENDBRANCH   6  55
TORSDOF 30
ENDMDL
MODEL 9
REMARK VINA RESULT:      -7.6      2.705      4.642
REMARK  30 active torsions:
REMARK  status: ('A' for Active; 'I' for Inactive)
REMARK    1  A    between atoms: C_11  and  C_5 
REMARK    2  A    between atoms: O_39  and  C_5 
REMARK    3  A    between atoms: C_13  and  C_6 
REMARK    4  A    between atoms: O_40  and  C_6 
REMARK    5  A    between atoms: C_14  and  C_7 
REMARK    6  A    between atoms: O_41  and  C_7 
REMARK    7  A    between atoms: C_12  and  N_38 
REMARK    8  A    between atoms: C_15  and  N_38 
REMARK    9  A    between atoms: C_16  and  O_42 
REMARK   10  A    between atoms: C_17  and  O_43 
REMARK   11  A    between atoms: C_18  and  O_44 
REMARK   12  A    between atoms: C_19  and  O_45 
REMARK   13  A    between atoms: C_20  and  O_46 
REMARK   14  A    between atoms: C_21  and  O_47 
REMARK   15  A    between atoms: C_22  and  O_48 
REMARK   16  A    between atoms: C_23  and  O_49 
REMARK   17  A    between atoms: C_24  and  O_50 
REMARK   18  A    between atoms: C_25  and  O_51 
REMARK   19  A    between atoms: C_26  and  O_52 
REMARK   20  A    between atoms: C_27  and  O_53 
REMARK   21  A    between atoms: C_28  and  O_54 
REMARK   22  A    between atoms: C_29  and  O_61 
REMARK   23  A    between atoms: C_30  and  O_62 
REMARK   24  A    between atoms: C_31  and  O_63 
REMARK   25  A    between atoms: C_32  and  O_64 
REMARK   26  A    between atoms: C_33  and  O_55 
REMARK   27  A    between atoms: C_34  and  O_63 
REMARK   28  A    between atoms: C_35  and  O_64 
REMARK   29  A    between atoms: C_36  and  O_61 
REMARK   30  A    between atoms: C_37  and  O_62 
ROOT
HETATM    1  C   UNK N   1      28.692  17.601   7.914  0.00  0.00     0.008 C 
HETATM    2  C   UNK N   1      29.956  17.879   8.232  0.00  0.00    -0.027 C 
HETATM    3  C   UNK N   1      28.284  16.760   6.758  0.00  0.00     0.132 C 
HETATM    4  C   UNK N   1      29.414  15.873   6.188  0.00  0.00     0.175 C 
HETATM    5  C   UNK N   1      30.767  16.585   6.120  0.00  0.00     0.182 C 
HETATM    6  C   UNK N   1      31.140  17.257   7.482  0.00  0.00     0.187 C 
ENDROOT
BRANCH   3   7
HETATM    7  N   UNK N   1      27.534  17.589   5.807  0.00  0.00    -0.402 N 
HETATM    8  H   UNK N   1      27.497  18.590   5.997  0.00  0.00     0.154 HD
BRANCH   7   9
HETATM    9  C   UNK N   1      26.825  17.111   4.597  0.00  0.00     0.137 C 
HETATM   10  C   UNK N   1      25.402  16.823   5.070  0.00  0.00     0.145 C 
HETATM   11  C   UNK N   1      25.402  15.767   6.170  0.00  0.00     0.042 C 
HETATM   12  O   UNK N   1      24.843  18.031   5.587  0.00  0.00    -0.352 OA
HETATM   13  C   UNK N   1      24.531  18.959   4.548  0.00  0.00     0.292 C 
HETATM   14  C   UNK N   1      25.811  19.331   3.788  0.00  0.00     0.204 C 
HETATM   15  C   UNK N   1      26.644  18.096   3.393  0.00  0.00     0.176 C 
BRANCH  13  16
HETATM   16  O   UNK N   1      23.500  18.489   3.693  0.00  0.00    -0.348 OA
BRANCH  16  17
HETATM   17  C   UNK N   1      22.237  18.445   4.364  0.00  0.00     0.187 C 
HETATM   18  C   UNK N   1      21.922  16.981   4.717  0.00  0.00     0.180 C 
HETATM   19  O   UNK N   1      21.683  16.313   3.508  0.00  0.00    -0.348 OA
HETATM   20  C   UNK N   1      20.478  16.647   2.858  0.00  0.00     0.292 C 
HETATM   21  C   UNK N   1      19.910  18.052   3.284  0.00  0.00     0.204 C 
HETATM   22  C   UNK N   1      21.144  18.997   3.386  0.00  0.00     0.183 C 
BRANCH  18  23
HETATM   23  C   UNK N   1      20.841  16.771   5.787  0.00  0.00     0.198 C 
BRANCH  23  24
HETATM   24  O   UNK N   1      21.224  17.381   6.984  0.00  0.00    -0.398 OA
HETATM   25  H   UNK N   1      21.097  17.575   7.927  0.00  0.00     0.209 HD
ENDBRANCH  23  24
ENDBRANCH  18  23
BRANCH  20  26
HETATM   26  O   UNK N   1      19.517  15.575   2.910  0.00  0.00    -0.348 OA
BRANCH  26  27
HETATM   27  C   UNK N   1      20.064  14.288   2.558  0.00  0.00     0.184 C 
HETATM   28  C   UNK N   1      20.108  13.370   3.801  0.00  0.00     0.152 C 
HETATM   29  C   UNK N   1      18.743  13.151   4.449  0.00  0.00     0.042 C 
HETATM   30  O   UNK N   1      20.755  12.130   3.510  0.00  0.00    -0.351 OA
HETATM   31  C   UNK N   1      20.123  11.411   2.459  0.00  0.00     0.288 C 
HETATM   32  C   UNK N   1      20.090  12.221   1.159  0.00  0.00     0.204 C 
HETATM   33  C   UNK N   1      19.335  13.530   1.399  0.00  0.00     0.183 C 
BRANCH  31  34
HETATM   34  O   UNK N   1      20.843  10.235   2.232  0.00  0.00    -0.369 OA
HETATM   35  H   UNK N   1      21.775  10.082   2.449  0.00  0.00     0.212 HD
ENDBRANCH  31  34
BRANCH  32  36
HETATM   36  O   UNK N   1      19.480  11.492   0.137  0.00  0.00    -0.388 OA
HETATM   37  H   UNK N   1      19.196  11.757  -0.753  0.00  0.00     0.210 HD
ENDBRANCH  32  36
BRANCH  33  38
HETATM   38  O   UNK N   1      17.995  13.291   1.715  0.00  0.00    -0.390 OA
HETATM   39  H   UNK N   1      17.047  13.453   1.837  0.00  0.00     0.210 HD
ENDBRANCH  33  38
ENDBRANCH  26  27
ENDBRANCH  20  26
BRANCH  21  40
HETATM   40  O   UNK N   1      18.991  18.524   2.353  0.00  0.00    -0.388 OA
HETATM   41  H   UNK N   1      18.331  18.036   1.837  0.00  0.00     0.210 HD
ENDBRANCH  21  40
BRANCH  22  42
HETATM   42  O   UNK N   1      20.766  20.293   3.753  0.00  0.00    -0.390 OA
HETATM   43  H   UNK N   1      21.175  21.120   3.454  0.00  0.00     0.210 HD
ENDBRANCH  22  42
ENDBRANCH  16  17
ENDBRANCH  13  16
BRANCH  14  44
HETATM   44  O   UNK N   1      25.521  20.116   2.667  0.00  0.00    -0.388 OA
HETATM   45  H   UNK N   1      25.481  19.818   1.745  0.00  0.00     0.210 HD
ENDBRANCH  14  44
BRANCH  15  46
HETATM   46  O   UNK N   1      25.999  17.419   2.352  0.00  0.00    -0.391 OA
HETATM   47  H   UNK N   1      25.690  17.503   1.436  0.00  0.00     0.210 HD
ENDBRANCH  15  46
ENDBRANCH   7   9
ENDBRANCH   3   7
BRANCH   4  48
HETATM   48  O   UNK N   1      29.054  15.325   4.953  0.00  0.00    -0.391 OA
HETATM   49  H   UNK N   1      28.665  15.883   4.262  0.00  0.00     0.210 HD
ENDBRANCH   4  48
BRANCH   2  50
HETATM   50  C   UNK N   1      30.188  18.800   9.392  0.00  0.00     0.201 C 
BRANCH  50  51
HETATM   51  O   UNK N   1      29.679  18.237  10.560  0.00  0.00    -0.397 OA
HETATM   52  H   UNK N   1      29.490  17.386  10.986  0.00  0.00     0.209 HD
ENDBRANCH  50  51
ENDBRANCH   2  50
BRANCH   5  53
HETATM   53  O   UNK N   1      30.746  17.531   5.099  0.00  0.00    -0.390 OA
HETATM   54  H   UNK N   1      30.054  17.743   4.452  0.00  0.00     0.210 HD
ENDBRANCH   5  53
BRANCH   6  55
HETATM   55  O   UNK N   1      31.953  16.392   8.275  0.00  0.00    -0.346 OA
BRANCH  55  56
HETATM   56  C   UNK N   1      33.237  16.068   7.752  0.00  0.00     0.292 C 
HETATM   57  C   UNK N   1      33.390  14.546   7.609  0.00  0.00     0.204 C 
HETATM   58  C   UNK N   1      33.499  13.893   8.978  0.00  0.00     0.183 C 
HETATM   59  C   UNK N   1      34.655  14.581   9.722  0.00  0.00     0.187 C 
HETATM   60  C   UNK N   1      34.337  16.084   9.833  0.00  0.00     0.180 C 
HETATM   61  O   UNK N   1      34.275  16.643   8.529  0.00  0.00    -0.348 OA
BRANCH  57  62
HETATM   62  O   UNK N   1      32.323  14.008   6.884  0.00  0.00    -0.388 OA
HETATM   63  H   UNK N   1      31.705  13.289   7.088  0.00  0.00     0.210 HD
ENDBRANCH  57  62
BRANCH  58  64
HETATM   64  O   UNK N   1      32.303  14.026   9.695  0.00  0.00    -0.390 OA
HETATM   65  H   UNK N   1      31.351  13.992   9.873  0.00  0.00     0.210 HD
ENDBRANCH  58  64
BRANCH  59  66
HETATM   66  O   UNK N   1      34.810  13.943  10.979  0.00  0.00    -0.348 OA
BRANCH  66  67
HETATM   67  C   UNK N   1      35.226  12.579  10.907  0.00  0.00     0.292 C 
HETATM   68  C   UNK N   1      36.754  12.500  11.086  0.00  0.00     0.204 C 
HETATM   69  C   UNK N   1      37.130  12.860  12.534  0.00  0.00     0.183 C 
HETATM   70  C   UNK N   1      36.360  11.940  13.493  0.00  0.00     0.178 C 
HETATM   71  C   UNK N   1      34.858  12.035  13.190  0.00  0.00     0.152 C 
HETATM   72  C   UNK N   1      34.079  11.083  14.081  0.00  0.00     0.042 C 
HETATM   73  O   UNK N   1      34.584  11.699  11.836  0.00  0.00    -0.351 OA
BRANCH  68  74
HETATM   74  O   UNK N   1      37.182  11.199  10.802  0.00  0.00    -0.388 OA
HETATM   75  H   UNK N   1      36.930  10.309  11.096  0.00  0.00     0.210 HD
ENDBRANCH  68  74
BRANCH  69  76
HETATM   76  O   UNK N   1      36.815  14.200  12.791  0.00  0.00    -0.390 OA
HETATM   77  H   UNK N   1      36.811  15.053  12.329  0.00  0.00     0.210 HD
ENDBRANCH  69  76
BRANCH  70  78
HETATM   78  O   UNK N   1      36.615  12.306  14.818  0.00  0.00    -0.390 OA
HETATM   79  H   UNK N   1      37.515  12.369  15.173  0.00  0.00     0.210 HD
ENDBRANCH  70  78
ENDBRANCH  66  67
ENDBRANCH  59  66
BRANCH  60  80
HETATM   80  C   UNK N   1      35.399  16.842  10.625  0.00  0.00     0.198 C 
BRANCH  80  81
HETATM   81  O   UNK N   1      36.612  16.153  10.626  0.00  0.00    -0.398 OA
HETATM   82  H   UNK N   1      37.556  15.935  10.564  0.00  0.00     0.209 HD
ENDBRANCH  80  81
ENDBRANCH  60  80
ENDBRANCH  55  56
ENDBRANCH   6  55
TORSDOF 30
ENDMDL
