MODEL 1
REMARK VINA RESULT:     -19.7      0.000      0.000
REMARK  14 active torsions:
REMARK  status: ('A' for Active; 'I' for Inactive)
REMARK    1  A    between atoms: C_34  and  C_22 
REMARK    2  A    between atoms: C_35  and  C_23 
REMARK    3  A    between atoms: C_37  and  C_27 
REMARK    4  A    between atoms: C_46  and  C_30 
REMARK    5  A    between atoms: C_47  and  C_33 
REMARK    6  A    between atoms: C_41  and  C_35 
REMARK    7  A    between atoms: C_38  and  C_36 
REMARK    8  A    between atoms: N_53  and  C_38 
REMARK    9  A    between atoms: N_54  and  C_39 
REMARK   10  A    between atoms: C_43  and  C_42 
REMARK   11  A    between atoms: C_42  and  O_65 
REMARK   12  A    between atoms: C_48  and  C_45 
REMARK   13  A    between atoms: O_66  and  C_51 
REMARK   14  A    between atoms: O_67  and  C_52 
ROOT
HETATM    1  C   UNK N   1      27.457  20.010   4.067  0.00  0.00     0.006 A 
HETATM    2  C   UNK N   1      25.318  21.179   2.707  0.00  0.00     0.046 A 
HETATM    3  C   UNK N   1      23.989  19.319   3.655  0.00  0.00     0.013 A 
HETATM    4  C   UNK N   1      24.614  17.006   5.419  0.00  0.00     0.046 A 
HETATM    5  C   UNK N   1      19.156  19.000   2.634  0.00  0.00     0.016 A 
HETATM    6  C   UNK N   1      23.541  18.701   3.969  0.00  0.00     0.015 A 
HETATM    7  C   UNK N   1      22.986  11.021   9.148  0.00  0.00     0.155 A 
HETATM    8  C   UNK N   1      26.045  14.747   7.352  0.00  0.00     0.202 A 
HETATM    9  C   UNK N   1      22.468  20.395   2.518  0.00  0.00     0.202 A 
HETATM   10  C   UNK N   1      21.305  20.906   1.865  0.00  0.00     0.202 A 
HETATM   11  C   UNK N   1      26.743  20.240   3.724  0.00  0.00     0.011 A 
HETATM   12  C   UNK N   1      20.138  16.122   4.881  0.00  0.00     0.003 A 
HETATM   13  C   UNK N   1      19.671  16.402   4.567  0.00  0.00     0.015 A 
HETATM   14  C   UNK N   1      20.944  16.175   5.051  0.00  0.00     0.030 A 
HETATM   15  C   UNK N   1      23.270  15.152   6.358  0.00  0.00     0.011 A 
HETATM   16  C   UNK N   1      24.701  12.893   8.291  0.00  0.00     0.039 A 
HETATM   17  C   UNK N   1      24.253  12.275   8.605  0.00  0.00     0.033 A 
HETATM   18  C   UNK N   1      23.628  14.587   6.841  0.00  0.00     0.036 A 
HETATM   19  C   UNK N   1      22.291  12.593   7.881  0.00  0.00     0.031 A 
HETATM   20  C   UNK N   1      19.905  17.359   3.964  0.00  0.00     0.100 A 
HETATM   21  C   UNK N   1      22.156  11.907   8.321  0.00  0.00     0.091 A 
HETATM   22  C   UNK N   1      23.361  16.335   5.562  0.00  0.00    -0.017 A 
HETATM   23  C   UNK N   1      25.310  19.956   3.553  0.00  0.00    -0.010 A 
HETATM   24  C   UNK N   1      22.826  19.830   3.002  0.00  0.00     0.041 A 
HETATM   25  C   UNK N   1      20.409  19.671   2.491  0.00  0.00     0.044 A 
HETATM   26  C   UNK N   1      24.524  15.823   6.215  0.00  0.00     0.043 A 
HETATM   27  C   UNK N   1      23.538  13.404   7.638  0.00  0.00     0.050 A 
HETATM   28  C   UNK N   1      25.226  18.851   4.297  0.00  0.00     0.111 A 
HETATM   29  C   UNK N   1      24.885  20.554   3.029  0.00  0.00    -0.058 A 
HETATM   30  C   UNK N   1      23.632  19.883   3.172  0.00  0.00     0.017 A 
HETATM   31  C   UNK N   1      23.808  16.953   5.248  0.00  0.00    -0.058 A 
HETATM   32  C   UNK N   1      19.961  19.053   2.805  0.00  0.00     0.055 A 
HETATM   33  C   UNK N   1      23.899  18.136   4.452  0.00  0.00     0.044 A 
HETATM   34  C   UNK N   1      23.719  15.770   6.045  0.00  0.00     0.011 A 
HETATM   35  C   UNK N   1      26.060  19.795   3.857  0.00  0.00     0.078 A 
HETATM   36  C   UNK N   1      23.090  12.786   7.951  0.00  0.00    -0.005 A 
HETATM   37  C   UNK N   1      24.343  13.457   7.808  0.00  0.00     0.070 A 
HETATM   38  C   UNK N   1      23.447  12.221   8.435  0.00  0.00     0.044 A 
HETATM   39  C   UNK N   1      21.392  16.793   4.738  0.00  0.00     0.166 A 
HETATM   40  C   UNK N   1      24.705  18.189   4.622  0.00  0.00     0.131 A 
HETATM   41  C   UNK N   1      26.008  19.112   4.317  0.00  0.00     0.137 A 
HETATM   42  C   UNK N   1      24.434  14.640   7.012  0.00  0.00     0.158 A 
HETATM   43  C   UNK N   1      24.881  15.258   6.698  0.00  0.00     0.151 A 
HETATM   44  C   UNK N   1      22.378  19.212   3.315  0.00  0.00     0.152 A 
HETATM   45  C   UNK N   1      21.215  19.724   2.661  0.00  0.00     0.153 A 
HETATM   46  C   UNK N   1      24.080  20.502   2.859  0.00  0.00     0.150 A 
HETATM   47  C   UNK N   1      23.451  17.518   4.765  0.00  0.00     0.166 A 
HETATM   48  C   UNK N   1      21.573  19.159   3.145  0.00  0.00     0.183 A 
HETATM   49  C   UNK N   1      19.871  17.870   3.601  0.00  0.00     0.273 A 
HETATM   50  C   UNK N   1      20.229  17.305   4.084  0.00  0.00     0.275 A 
HETATM   51  C   UNK N   1      22.198  16.847   4.908  0.00  0.00     0.278 A 
HETATM   52  C   UNK N   1      20.319  18.488   3.288  0.00  0.00     0.238 A 
HETATM   53  N   UNK N   1      22.870  11.678   8.663  0.00  0.00    -0.360 N 
HETATM   54  N   UNK N   1      21.034  17.358   4.255  0.00  0.00    -0.232 N 
HETATM   55  O   UNK N   1      25.046  17.616   5.107  0.00  0.00    -0.395 OA
HETATM   56  O   UNK N   1      26.630  18.754   4.725  0.00  0.00    -0.297 OA
HETATM   57  O   UNK N   1      23.722  21.066   2.375  0.00  0.00    -0.391 OA
HETATM   58  O   UNK N   1      19.065  17.817   3.431  0.00  0.00    -0.282 OA
HETATM   59  O   UNK N   1      19.781  16.687   4.398  0.00  0.00    -0.270 OA
HETATM   60  O   UNK N   1      22.555  16.282   5.391  0.00  0.00    -0.263 OA
HETATM   61  O   UNK N   1      19.514  18.434   3.118  0.00  0.00    -0.359 OA
HETATM   62  O   UNK N   1      25.687  15.312   6.869  0.00  0.00    -0.388 OA
HETATM   63  O   UNK N   1      22.021  19.777   2.832  0.00  0.00    -0.388 OA
HETATM   64  O   UNK N   1      21.663  20.342   2.348  0.00  0.00    -0.388 OA
HETATM   65  O   UNK N   1      24.791  14.075   7.495  0.00  0.00    -0.343 OA
HETATM   66  O   UNK N   1      22.646  17.465   4.595  0.00  0.00    -0.310 OA
HETATM   67  O   UNK N   1      21.125  18.541   3.458  0.00  0.00    -0.338 OA
HETATM   68  H   UNK N   1      24.503  16.897   5.466  0.00  0.00     0.210 HD
HETATM   69  H   UNK N   1      24.248  21.793   2.007  0.00  0.00     0.210 HD
HETATM   70  H   UNK N   1      19.093  19.099   2.549  0.00  0.00     0.213 HD
ENDROOT
TORSDOF 14
ENDMDL
MODEL 2
REMARK VINA RESULT:     -18.8      1.320      4.358
REMARK  14 active torsions:
REMARK  status: ('A' for Active; 'I' for Inactive)
REMARK    1  A    between atoms: C_34  and  C_22 
REMARK    2  A    between atoms: C_35  and  C_23 
REMARK    3  A    between atoms: C_37  and  C_27 
REMARK    4  A    between atoms: C_46  and  C_30 
REMARK    5  A    between atoms: C_47  and  C_33 
REMARK    6  A    between atoms: C_41  and  C_35 
REMARK    7  A    between atoms: C_38  and  C_36 
REMARK    8  A    between atoms: N_53  and  C_38 
REMARK    9  A    between atoms: N_54  and  C_39 
REMARK   10  A    between atoms: C_43  and  C_42 
REMARK   11  A    between atoms: C_42  and  O_65 
REMARK   12  A    between atoms: C_48  and  C_45 
REMARK   13  A    between atoms: O_66  and  C_51 
REMARK   14  A    between atoms: O_67  and  C_52 
ROOT
HETATM    1  C   UNK N   1      19.638  19.470   3.066  0.00  0.00     0.006 A 
HETATM    2  C   UNK N   1      21.962  20.840   2.349  0.00  0.00     0.046 A 
HETATM    3  C   UNK N   1      23.123  19.130   3.708  0.00  0.00     0.013 A 
HETATM    4  C   UNK N   1      22.230  16.778   5.294  0.00  0.00     0.046 A 
HETATM    5  C   UNK N   1      28.051  19.296   4.153  0.00  0.00     0.016 A 
HETATM    6  C   UNK N   1      23.516  18.563   4.161  0.00  0.00     0.015 A 
HETATM    7  C   UNK N   1      23.251  11.012   9.548  0.00  0.00     0.155 A 
HETATM    8  C   UNK N   1      20.516  14.398   6.806  0.00  0.00     0.202 A 
HETATM    9  C   UNK N   1      24.802  20.348   3.027  0.00  0.00     0.202 A 
HETATM   10  C   UNK N   1      26.052  20.970   2.723  0.00  0.00     0.202 A 
HETATM   11  C   UNK N   1      20.397  19.769   2.939  0.00  0.00     0.011 A 
HETATM   12  C   UNK N   1      26.729  16.348   6.117  0.00  0.00     0.003 A 
HETATM   13  C   UNK N   1      27.239  16.671   5.943  0.00  0.00     0.015 A 
HETATM   14  C   UNK N   1      25.908  16.320   6.043  0.00  0.00     0.030 A 
HETATM   15  C   UNK N   1      23.409  15.075   6.651  0.00  0.00     0.011 A 
HETATM   16  C   UNK N   1      21.694  12.695   8.162  0.00  0.00     0.039 A 
HETATM   17  C   UNK N   1      22.086  12.127   8.614  0.00  0.00     0.033 A 
HETATM   18  C   UNK N   1      22.980  14.480   7.028  0.00  0.00     0.036 A 
HETATM   19  C   UNK N   1      24.135  12.637   8.483  0.00  0.00     0.031 A 
HETATM   20  C   UNK N   1      27.103  17.596   5.264  0.00  0.00     0.100 A 
HETATM   21  C   UNK N   1      24.200  11.972   8.967  0.00  0.00     0.091 A 
HETATM   22  C   UNK N   1      23.444  16.237   5.821  0.00  0.00    -0.017 A 
HETATM   23  C   UNK N   1      21.836  19.630   3.203  0.00  0.00    -0.010 A 
HETATM   24  C   UNK N   1      24.373  19.753   3.405  0.00  0.00     0.041 A 
HETATM   25  C   UNK N   1      26.837  19.835   3.627  0.00  0.00     0.044 A 
HETATM   26  C   UNK N   1      22.194  15.615   6.124  0.00  0.00     0.043 A 
HETATM   27  C   UNK N   1      22.944  13.317   7.859  0.00  0.00     0.050 A 
HETATM   28  C   UNK N   1      21.803  18.544   3.978  0.00  0.00     0.111 A 
HETATM   29  C   UNK N   1      22.338  20.265   2.804  0.00  0.00    -0.058 A 
HETATM   30  C   UNK N   1      23.552  19.725   3.330  0.00  0.00     0.017 A 
HETATM   31  C   UNK N   1      23.052  16.805   5.369  0.00  0.00    -0.058 A 
HETATM   32  C   UNK N   1      27.229  19.268   4.079  0.00  0.00     0.055 A 
HETATM   33  C   UNK N   1      23.088  17.968   4.538  0.00  0.00     0.044 A 
HETATM   34  C   UNK N   1      23.016  15.643   6.198  0.00  0.00     0.011 A 
HETATM   35  C   UNK N   1      21.049  19.396   3.281  0.00  0.00     0.078 A 
HETATM   36  C   UNK N   1      23.336  12.750   8.311  0.00  0.00    -0.005 A 
HETATM   37  C   UNK N   1      22.123  13.290   7.785  0.00  0.00     0.070 A 
HETATM   38  C   UNK N   1      22.908  12.155   8.689  0.00  0.00     0.044 A 
HETATM   39  C   UNK N   1      25.516  16.888   5.591  0.00  0.00     0.166 A 
HETATM   40  C   UNK N   1      22.266  17.940   4.464  0.00  0.00     0.131 A 
HETATM   41  C   UNK N   1      21.029  18.725   3.760  0.00  0.00     0.137 A 
HETATM   42  C   UNK N   1      22.159  14.452   6.955  0.00  0.00     0.158 A 
HETATM   43  C   UNK N   1      21.766  15.020   6.502  0.00  0.00     0.151 A 
HETATM   44  C   UNK N   1      24.766  19.185   3.857  0.00  0.00     0.152 A 
HETATM   45  C   UNK N   1      26.015  19.808   3.553  0.00  0.00     0.153 A 
HETATM   46  C   UNK N   1      23.159  20.293   2.878  0.00  0.00     0.150 A 
HETATM   47  C   UNK N   1      23.480  17.400   4.991  0.00  0.00     0.166 A 
HETATM   48  C   UNK N   1      25.587  19.213   3.931  0.00  0.00     0.183 A 
HETATM   49  C   UNK N   1      27.194  18.105   4.909  0.00  0.00     0.273 A 
HETATM   50  C   UNK N   1      26.765  17.510   5.287  0.00  0.00     0.275 A 
HETATM   51  C   UNK N   1      24.694  16.860   5.517  0.00  0.00     0.278 A 
HETATM   52  C   UNK N   1      26.801  18.673   4.457  0.00  0.00     0.238 A 
HETATM   53  N   UNK N   1      23.442  11.674   9.095  0.00  0.00    -0.360 N 
HETATM   54  N   UNK N   1      25.944  17.483   5.213  0.00  0.00    -0.232 N 
HETATM   55  O   UNK N   1      21.853  17.338   4.849  0.00  0.00    -0.395 OA
HETATM   56  O   UNK N   1      20.351  18.308   3.981  0.00  0.00    -0.297 OA
HETATM   57  O   UNK N   1      23.588  20.887   2.501  0.00  0.00    -0.391 OA
HETATM   58  O   UNK N   1      28.015  18.133   4.983  0.00  0.00    -0.282 OA
HETATM   59  O   UNK N   1      27.157  16.943   5.739  0.00  0.00    -0.270 OA
HETATM   60  O   UNK N   1      24.266  16.265   5.895  0.00  0.00    -0.263 OA
HETATM   61  O   UNK N   1      27.622  18.700   4.531  0.00  0.00    -0.359 OA
HETATM   62  O   UNK N   1      20.944  14.993   6.428  0.00  0.00    -0.388 OA
HETATM   63  O   UNK N   1      25.194  19.780   3.479  0.00  0.00    -0.388 OA
HETATM   64  O   UNK N   1      25.623  20.376   3.101  0.00  0.00    -0.388 OA
HETATM   65  O   UNK N   1      21.730  13.857   7.333  0.00  0.00    -0.343 OA
HETATM   66  O   UNK N   1      24.301  17.428   5.064  0.00  0.00    -0.310 OA
HETATM   67  O   UNK N   1      25.979  18.645   4.383  0.00  0.00    -0.338 OA
HETATM   68  H   UNK N   1      22.333  16.680   5.376  0.00  0.00     0.210 HD
HETATM   69  H   UNK N   1      23.126  21.555   1.969  0.00  0.00     0.210 HD
HETATM   70  H   UNK N   1      28.126  19.400   4.086  0.00  0.00     0.213 HD
ENDROOT
TORSDOF 14
ENDMDL
MODEL 3
REMARK VINA RESULT:     -18.7      2.084      5.091
REMARK  14 active torsions:
REMARK  status: ('A' for Active; 'I' for Inactive)
REMARK    1  A    between atoms: C_34  and  C_22 
REMARK    2  A    between atoms: C_35  and  C_23 
REMARK    3  A    between atoms: C_37  and  C_27 
REMARK    4  A    between atoms: C_46  and  C_30 
REMARK    5  A    between atoms: C_47  and  C_33 
REMARK    6  A    between atoms: C_41  and  C_35 
REMARK    7  A    between atoms: C_38  and  C_36 
REMARK    8  A    between atoms: N_53  and  C_38 
REMARK    9  A    between atoms: N_54  and  C_39 
REMARK   10  A    between atoms: C_43  and  C_42 
REMARK   11  A    between atoms: C_42  and  O_65 
REMARK   12  A    between atoms: C_48  and  C_45 
REMARK   13  A    between atoms: O_66  and  C_51 
REMARK   14  A    between atoms: O_67  and  C_52 
ROOT
HETATM    1  C   UNK N   1      20.377  13.625   5.693  0.00  0.00     0.006 A 
HETATM    2  C   UNK N   1      18.953  15.703   4.491  0.00  0.00     0.046 A 
HETATM    3  C   UNK N   1      21.156  16.816   4.318  0.00  0.00     0.013 A 
HETATM    4  C   UNK N   1      23.927  16.072   5.107  0.00  0.00     0.046 A 
HETATM    5  C   UNK N   1      21.472  21.306   2.259  0.00  0.00     0.016 A 
HETATM    6  C   UNK N   1      21.888  17.191   4.258  0.00  0.00     0.015 A 
HETATM    7  C   UNK N   1      31.052  17.180   5.717  0.00  0.00     0.155 A 
HETATM    8  C   UNK N   1      26.644  14.582   6.238  0.00  0.00     0.202 A 
HETATM    9  C   UNK N   1      19.850  18.309   3.409  0.00  0.00     0.202 A 
HETATM   10  C   UNK N   1      19.224  19.431   2.783  0.00  0.00     0.202 A 
HETATM   11  C   UNK N   1      20.093  14.308   5.327  0.00  0.00     0.011 A 
HETATM   12  C   UNK N   1      24.922  20.191   3.330  0.00  0.00     0.003 A 
HETATM   13  C   UNK N   1      24.582  20.646   3.062  0.00  0.00     0.015 A 
HETATM   14  C   UNK N   1      24.869  19.442   3.674  0.00  0.00     0.030 A 
HETATM   15  C   UNK N   1      26.123  17.200   4.926  0.00  0.00     0.011 A 
HETATM   16  C   UNK N   1      28.840  15.708   6.057  0.00  0.00     0.039 A 
HETATM   17  C   UNK N   1      29.572  16.084   5.997  0.00  0.00     0.033 A 
HETATM   18  C   UNK N   1      26.802  16.827   5.209  0.00  0.00     0.036 A 
HETATM   19  C   UNK N   1      29.166  17.937   5.062  0.00  0.00     0.031 A 
HETATM   20  C   UNK N   1      23.442  20.494   2.953  0.00  0.00     0.100 A 
HETATM   21  C   UNK N   1      29.983  18.017   5.154  0.00  0.00     0.091 A 
HETATM   22  C   UNK N   1      24.712  17.197   4.703  0.00  0.00    -0.017 A 
HETATM   23  C   UNK N   1      20.413  15.626   4.759  0.00  0.00    -0.010 A 
HETATM   24  C   UNK N   1      20.530  17.937   3.692  0.00  0.00     0.041 A 
HETATM   25  C   UNK N   1      20.687  20.182   2.662  0.00  0.00     0.044 A 
HETATM   26  C   UNK N   1      25.338  16.076   5.329  0.00  0.00     0.043 A 
HETATM   27  C   UNK N   1      28.214  16.830   5.431  0.00  0.00     0.050 A 
HETATM   28  C   UNK N   1      21.732  15.629   4.967  0.00  0.00     0.111 A 
HETATM   29  C   UNK N   1      19.692  16.064   4.439  0.00  0.00    -0.058 A 
HETATM   30  C   UNK N   1      20.477  17.188   4.035  0.00  0.00     0.017 A 
HETATM   31  C   UNK N   1      23.979  16.822   4.763  0.00  0.00    -0.058 A 
HETATM   32  C   UNK N   1      21.420  20.558   2.602  0.00  0.00     0.055 A 
HETATM   33  C   UNK N   1      22.568  16.819   4.541  0.00  0.00     0.044 A 
HETATM   34  C   UNK N   1      25.390  16.824   4.986  0.00  0.00     0.011 A 
HETATM   35  C   UNK N   1      20.615  14.915   5.125  0.00  0.00     0.078 A 
HETATM   36  C   UNK N   1      28.946  17.205   5.371  0.00  0.00    -0.005 A 
HETATM   37  C   UNK N   1      28.161  16.082   5.774  0.00  0.00     0.070 A 
HETATM   38  C   UNK N   1      29.625  16.833   5.654  0.00  0.00     0.044 A 
HETATM   39  C   UNK N   1      24.137  19.067   3.734  0.00  0.00     0.166 A 
HETATM   40  C   UNK N   1      22.515  16.069   4.884  0.00  0.00     0.131 A 
HETATM   41  C   UNK N   1      21.430  14.917   5.253  0.00  0.00     0.137 A 
HETATM   42  C   UNK N   1      26.750  16.079   5.552  0.00  0.00     0.158 A 
HETATM   43  C   UNK N   1      26.018  15.703   5.612  0.00  0.00     0.151 A 
HETATM   44  C   UNK N   1      21.262  18.312   3.632  0.00  0.00     0.152 A 
HETATM   45  C   UNK N   1      20.635  19.433   3.006  0.00  0.00     0.153 A 
HETATM   46  C   UNK N   1      19.745  16.812   4.095  0.00  0.00     0.150 A 
HETATM   47  C   UNK N   1      23.300  17.194   4.480  0.00  0.00     0.166 A 
HETATM   48  C   UNK N   1      21.314  19.061   3.288  0.00  0.00     0.183 A 
HETATM   49  C   UNK N   1      22.831  20.561   2.825  0.00  0.00     0.273 A 
HETATM   50  C   UNK N   1      23.510  20.188   3.108  0.00  0.00     0.275 A 
HETATM   51  C   UNK N   1      24.084  18.318   4.077  0.00  0.00     0.278 A 
HETATM   52  C   UNK N   1      22.098  20.184   2.885  0.00  0.00     0.238 A 
HETATM   53  N   UNK N   1      30.266  17.334   5.520  0.00  0.00    -0.360 N 
HETATM   54  N   UNK N   1      23.458  19.439   3.451  0.00  0.00    -0.232 N 
HETATM   55  O   UNK N   1      23.204  15.712   5.161  0.00  0.00    -0.395 OA
HETATM   56  O   UNK N   1      21.866  14.311   5.607  0.00  0.00    -0.297 OA
HETATM   57  O   UNK N   1      19.066  17.186   3.812  0.00  0.00    -0.391 OA
HETATM   58  O   UNK N   1      22.884  21.309   2.482  0.00  0.00    -0.282 OA
HETATM   59  O   UNK N   1      24.242  20.563   3.048  0.00  0.00    -0.270 OA
HETATM   60  O   UNK N   1      24.764  17.945   4.360  0.00  0.00    -0.263 OA
HETATM   61  O   UNK N   1      22.152  20.933   2.542  0.00  0.00    -0.359 OA
HETATM   62  O   UNK N   1      25.965  14.954   5.955  0.00  0.00    -0.388 OA
HETATM   63  O   UNK N   1      20.582  18.685   3.349  0.00  0.00    -0.388 OA
HETATM   64  O   UNK N   1      19.902  19.058   3.066  0.00  0.00    -0.388 OA
HETATM   65  O   UNK N   1      27.429  15.706   5.834  0.00  0.00    -0.343 OA
HETATM   66  O   UNK N   1      23.352  17.942   4.137  0.00  0.00    -0.310 OA
HETATM   67  O   UNK N   1      22.046  19.436   3.228  0.00  0.00    -0.338 OA
HETATM   68  H   UNK N   1      24.056  16.169   5.082  0.00  0.00     0.210 HD
HETATM   69  H   UNK N   1      18.205  16.744   3.883  0.00  0.00     0.210 HD
HETATM   70  H   UNK N   1      21.352  21.371   2.209  0.00  0.00     0.213 HD
ENDROOT
TORSDOF 14
ENDMDL
MODEL 4
REMARK VINA RESULT:     -17.8     11.269     15.616
REMARK  14 active torsions:
REMARK  status: ('A' for Active; 'I' for Inactive)
REMARK    1  A    between atoms: C_34  and  C_22 
REMARK    2  A    between atoms: C_35  and  C_23 
REMARK    3  A    between atoms: C_37  and  C_27 
REMARK    4  A    between atoms: C_46  and  C_30 
REMARK    5  A    between atoms: C_47  and  C_33 
REMARK    6  A    between atoms: C_41  and  C_35 
REMARK    7  A    between atoms: C_38  and  C_36 
REMARK    8  A    between atoms: N_53  and  C_38 
REMARK    9  A    between atoms: N_54  and  C_39 
REMARK   10  A    between atoms: C_43  and  C_42 
REMARK   11  A    between atoms: C_42  and  O_65 
REMARK   12  A    between atoms: C_48  and  C_45 
REMARK   13  A    between atoms: O_66  and  C_51 
REMARK   14  A    between atoms: O_67  and  C_52 
ROOT
HETATM    1  C   UNK N   1      37.160  15.129  15.640  0.00  0.00     0.006 A 
HETATM    2  C   UNK N   1      36.743  12.378  15.864  0.00  0.00     0.046 A 
HETATM    3  C   UNK N   1      35.811  12.558  13.580  0.00  0.00     0.013 A 
HETATM    4  C   UNK N   1      35.419  14.802  11.666  0.00  0.00     0.046 A 
HETATM    5  C   UNK N   1      34.098   8.505  11.312  0.00  0.00     0.016 A 
HETATM    6  C   UNK N   1      35.499  12.613  12.818  0.00  0.00     0.015 A 
HETATM    7  C   UNK N   1      33.310  17.730   5.392  0.00  0.00     0.155 A 
HETATM    8  C   UNK N   1      35.312  17.720  10.130  0.00  0.00     0.202 A 
HETATM    9  C   UNK N   1      35.578  10.424  13.969  0.00  0.00     0.202 A 
HETATM   10  C   UNK N   1      35.319   9.018  13.975  0.00  0.00     0.202 A 
HETATM   11  C   UNK N   1      36.979  14.327  15.564  0.00  0.00     0.011 A 
HETATM   12  C   UNK N   1      33.679  11.478   9.015  0.00  0.00     0.003 A 
HETATM   13  C   UNK N   1      33.595  10.860   9.087  0.00  0.00     0.015 A 
HETATM   14  C   UNK N   1      33.965  12.154   9.392  0.00  0.00     0.030 A 
HETATM   15  C   UNK N   1      34.482  14.964   9.380  0.00  0.00     0.011 A 
HETATM   16  C   UNK N   1      34.376  17.883   7.845  0.00  0.00     0.039 A 
HETATM   17  C   UNK N   1      34.064  17.938   7.083  0.00  0.00     0.033 A 
HETATM   18  C   UNK N   1      34.456  15.694   8.997  0.00  0.00     0.036 A 
HETATM   19  C   UNK N   1      33.486  15.965   6.582  0.00  0.00     0.031 A 
HETATM   20  C   UNK N   1      33.923  10.368  10.079  0.00  0.00     0.100 A 
HETATM   21  C   UNK N   1      33.261  16.345   5.885  0.00  0.00     0.091 A 
HETATM   22  C   UNK N   1      34.821  14.180  10.526  0.00  0.00    -0.017 A 
HETATM   23  C   UNK N   1      36.422  13.264  14.715  0.00  0.00    -0.010 A 
HETATM   24  C   UNK N   1      35.552  11.153  13.585  0.00  0.00     0.041 A 
HETATM   25  C   UNK N   1      34.695   9.126  12.452  0.00  0.00     0.044 A 
HETATM   26  C   UNK N   1      35.080  15.586  10.520  0.00  0.00     0.043 A 
HETATM   27  C   UNK N   1      34.117  16.478   7.851  0.00  0.00     0.050 A 
HETATM   28  C   UNK N   1      36.106  13.997  13.645  0.00  0.00     0.111 A 
HETATM   29  C   UNK N   1      36.435  12.450  15.103  0.00  0.00    -0.058 A 
HETATM   30  C   UNK N   1      35.837  11.829  13.964  0.00  0.00     0.017 A 
HETATM   31  C   UNK N   1      35.133  14.126  11.288  0.00  0.00    -0.058 A 
HETATM   32  C   UNK N   1      34.383   9.181  11.690  0.00  0.00     0.055 A 
HETATM   33  C   UNK N   1      35.472  13.342  12.434  0.00  0.00     0.044 A 
HETATM   34  C   UNK N   1      34.795  14.910  10.143  0.00  0.00     0.011 A 
HETATM   35  C   UNK N   1      36.633  14.047  14.870  0.00  0.00     0.078 A 
HETATM   36  C   UNK N   1      33.805  16.532   7.089  0.00  0.00    -0.005 A 
HETATM   37  C   UNK N   1      34.403  17.153   8.228  0.00  0.00     0.070 A 
HETATM   38  C   UNK N   1      33.779  17.261   6.705  0.00  0.00     0.044 A 
HETATM   39  C   UNK N   1      34.277  12.099  10.154  0.00  0.00     0.166 A 
HETATM   40  C   UNK N   1      35.758  14.018  12.812  0.00  0.00     0.131 A 
HETATM   41  C   UNK N   1      36.438  14.499  14.208  0.00  0.00     0.137 A 
HETATM   42  C   UNK N   1      34.741  16.370   9.374  0.00  0.00     0.158 A 
HETATM   43  C   UNK N   1      35.053  16.315  10.136  0.00  0.00     0.151 A 
HETATM   44  C   UNK N   1      35.240  11.207  12.824  0.00  0.00     0.152 A 
HETATM   45  C   UNK N   1      34.981   9.802  12.830  0.00  0.00     0.153 A 
HETATM   46  C   UNK N   1      36.149  11.774  14.726  0.00  0.00     0.150 A 
HETATM   47  C   UNK N   1      35.160  13.397  11.672  0.00  0.00     0.166 A 
HETATM   48  C   UNK N   1      34.954  10.532  12.446  0.00  0.00     0.183 A 
HETATM   49  C   UNK N   1      34.044   9.965  10.544  0.00  0.00     0.273 A 
HETATM   50  C   UNK N   1      34.018  10.694  10.161  0.00  0.00     0.275 A 
HETATM   51  C   UNK N   1      34.563  12.775  10.533  0.00  0.00     0.278 A 
HETATM   52  C   UNK N   1      34.357   9.910  11.307  0.00  0.00     0.238 A 
HETATM   53  N   UNK N   1      33.442  17.147   5.961  0.00  0.00    -0.360 N 
HETATM   54  N   UNK N   1      34.303  11.370  10.538  0.00  0.00    -0.232 N 
HETATM   55  O   UNK N   1      35.723  14.739  12.413  0.00  0.00    -0.395 OA
HETATM   56  O   UNK N   1      36.554  15.313  14.125  0.00  0.00    -0.297 OA
HETATM   57  O   UNK N   1      36.176  11.045  15.109  0.00  0.00    -0.391 OA
HETATM   58  O   UNK N   1      33.759   9.289  10.167  0.00  0.00    -0.282 OA
HETATM   59  O   UNK N   1      33.706  10.749   9.399  0.00  0.00    -0.270 OA
HETATM   60  O   UNK N   1      34.536  13.505  10.149  0.00  0.00    -0.263 OA
HETATM   61  O   UNK N   1      34.071   9.235  10.928  0.00  0.00    -0.359 OA
HETATM   62  O   UNK N   1      35.339  16.991  10.515  0.00  0.00    -0.388 OA
HETATM   63  O   UNK N   1      35.266  10.478  13.208  0.00  0.00    -0.388 OA
HETATM   64  O   UNK N   1      35.293   9.748  13.592  0.00  0.00    -0.388 OA
HETATM   65  O   UNK N   1      34.715  17.099   8.990  0.00  0.00    -0.343 OA
HETATM   66  O   UNK N   1      34.875  12.721  11.294  0.00  0.00    -0.310 OA
HETATM   67  O   UNK N   1      34.642  10.586  11.684  0.00  0.00    -0.338 OA
HETATM   68  H   UNK N   1      35.353  14.783  11.518  0.00  0.00     0.210 HD
HETATM   69  H   UNK N   1      36.543  10.981  16.005  0.00  0.00     0.210 HD
HETATM   70  H   UNK N   1      34.103   8.377  11.380  0.00  0.00     0.213 HD
ENDROOT
TORSDOF 14
ENDMDL
MODEL 5
REMARK VINA RESULT:     -17.8     17.638     19.122
REMARK  14 active torsions:
REMARK  status: ('A' for Active; 'I' for Inactive)
REMARK    1  A    between atoms: C_34  and  C_22 
REMARK    2  A    between atoms: C_35  and  C_23 
REMARK    3  A    between atoms: C_37  and  C_27 
REMARK    4  A    between atoms: C_46  and  C_30 
REMARK    5  A    between atoms: C_47  and  C_33 
REMARK    6  A    between atoms: C_41  and  C_35 
REMARK    7  A    between atoms: C_38  and  C_36 
REMARK    8  A    between atoms: N_53  and  C_38 
REMARK    9  A    between atoms: N_54  and  C_39 
REMARK   10  A    between atoms: C_43  and  C_42 
REMARK   11  A    between atoms: C_42  and  O_65 
REMARK   12  A    between atoms: C_48  and  C_45 
REMARK   13  A    between atoms: O_66  and  C_51 
REMARK   14  A    between atoms: O_67  and  C_52 
ROOT
HETATM    1  C   UNK N   1      36.230   6.159  14.092  0.00  0.00     0.006 A 
HETATM    2  C   UNK N   1      37.077   8.466  12.769  0.00  0.00     0.046 A 
HETATM    3  C   UNK N   1      36.287   9.649  14.794  0.00  0.00     0.013 A 
HETATM    4  C   UNK N   1      35.036   8.784  17.350  0.00  0.00     0.046 A 
HETATM    5  C   UNK N   1      36.696  14.574  15.063  0.00  0.00     0.016 A 
HETATM    6  C   UNK N   1      36.026  10.048  15.467  0.00  0.00     0.015 A 
HETATM    7  C   UNK N   1      32.181   9.875  23.910  0.00  0.00     0.155 A 
HETATM    8  C   UNK N   1      33.716   7.099  19.861  0.00  0.00     0.202 A 
HETATM    9  C   UNK N   1      37.015  11.312  13.583  0.00  0.00     0.202 A 
HETATM   10  C   UNK N   1      37.413  12.555  13.000  0.00  0.00     0.202 A 
HETATM   11  C   UNK N   1      36.431   6.914  13.827  0.00  0.00     0.011 A 
HETATM   12  C   UNK N   1      35.115  13.289  18.247  0.00  0.00     0.003 A 
HETATM   13  C   UNK N   1      35.313  13.795  17.931  0.00  0.00     0.015 A 
HETATM   14  C   UNK N   1      35.047  12.468  18.202  0.00  0.00     0.030 A 
HETATM   15  C   UNK N   1      34.250   9.983  19.369  0.00  0.00     0.011 A 
HETATM   16  C   UNK N   1      32.931   8.297  21.879  0.00  0.00     0.039 A 
HETATM   17  C   UNK N   1      32.669   8.697  22.552  0.00  0.00     0.033 A 
HETATM   18  C   UNK N   1      33.921   9.562  19.996  0.00  0.00     0.036 A 
HETATM   19  C   UNK N   1      33.063  10.740  22.169  0.00  0.00     0.031 A 
HETATM   20  C   UNK N   1      35.772  13.648  16.882  0.00  0.00     0.100 A 
HETATM   21  C   UNK N   1      32.730  10.813  22.921  0.00  0.00     0.091 A 
HETATM   22  C   UNK N   1      34.842  10.005  18.068  0.00  0.00    -0.017 A 
HETATM   23  C   UNK N   1      36.456   8.355  14.115  0.00  0.00    -0.010 A 
HETATM   24  C   UNK N   1      36.685  10.891  14.211  0.00  0.00     0.041 A 
HETATM   25  C   UNK N   1      36.890  13.354  14.345  0.00  0.00     0.044 A 
HETATM   26  C   UNK N   1      34.444   8.762  18.651  0.00  0.00     0.043 A 
HETATM   27  C   UNK N   1      33.329   9.540  21.296  0.00  0.00     0.050 A 
HETATM   28  C   UNK N   1      35.903   8.335  15.330  0.00  0.00     0.111 A 
HETATM   29  C   UNK N   1      36.811   8.849  13.449  0.00  0.00    -0.058 A 
HETATM   30  C   UNK N   1      36.617  10.070  14.166  0.00  0.00     0.017 A 
HETATM   31  C   UNK N   1      35.104   9.605  17.395  0.00  0.00    -0.058 A 
HETATM   32  C   UNK N   1      36.628  13.753  15.018  0.00  0.00     0.055 A 
HETATM   33  C   UNK N   1      35.696   9.627  16.095  0.00  0.00     0.044 A 
HETATM   34  C   UNK N   1      34.512   9.583  18.695  0.00  0.00     0.011 A 
HETATM   35  C   UNK N   1      36.285   7.571  14.305  0.00  0.00     0.078 A 
HETATM   36  C   UNK N   1      33.067   9.939  21.969  0.00  0.00    -0.005 A 
HETATM   37  C   UNK N   1      33.261   8.719  21.252  0.00  0.00     0.070 A 
HETATM   38  C   UNK N   1      32.737   9.518  22.597  0.00  0.00     0.044 A 
HETATM   39  C   UNK N   1      35.309  12.068  17.529  0.00  0.00     0.166 A 
HETATM   40  C   UNK N   1      35.628   8.805  16.050  0.00  0.00     0.131 A 
HETATM   41  C   UNK N   1      35.943   7.558  15.056  0.00  0.00     0.137 A 
HETATM   42  C   UNK N   1      33.852   8.741  19.951  0.00  0.00     0.158 A 
HETATM   43  C   UNK N   1      34.114   8.341  19.279  0.00  0.00     0.151 A 
HETATM   44  C   UNK N   1      36.424  11.291  14.884  0.00  0.00     0.152 A 
HETATM   45  C   UNK N   1      36.822  12.532  14.300  0.00  0.00     0.153 A 
HETATM   46  C   UNK N   1      36.879   9.670  13.493  0.00  0.00     0.150 A 
HETATM   47  C   UNK N   1      35.434  10.026  16.767  0.00  0.00     0.166 A 
HETATM   48  C   UNK N   1      36.492  12.112  14.928  0.00  0.00     0.183 A 
HETATM   49  C   UNK N   1      36.036  13.732  16.319  0.00  0.00     0.273 A 
HETATM   50  C   UNK N   1      35.707  13.310  16.946  0.00  0.00     0.275 A 
HETATM   51  C   UNK N   1      35.240  11.247  17.485  0.00  0.00     0.278 A 
HETATM   52  C   UNK N   1      36.298  13.332  15.645  0.00  0.00     0.238 A 
HETATM   53  N   UNK N   1      32.529  10.058  23.185  0.00  0.00    -0.360 N 
HETATM   54  N   UNK N   1      35.638  12.489  16.902  0.00  0.00    -0.232 N 
HETATM   55  O   UNK N   1      35.295   8.400  16.686  0.00  0.00    -0.395 OA
HETATM   56  O   UNK N   1      35.688   6.886  15.461  0.00  0.00    -0.297 OA
HETATM   57  O   UNK N   1      37.209  10.092  12.866  0.00  0.00    -0.391 OA
HETATM   58  O   UNK N   1      36.105  14.553  16.363  0.00  0.00    -0.282 OA
HETATM   59  O   UNK N   1      35.445  13.710  17.619  0.00  0.00    -0.270 OA
HETATM   60  O   UNK N   1      34.910  10.826  18.112  0.00  0.00    -0.263 OA
HETATM   61  O   UNK N   1      36.366  14.153  15.691  0.00  0.00    -0.359 OA
HETATM   62  O   UNK N   1      34.046   7.520  19.234  0.00  0.00    -0.388 OA
HETATM   63  O   UNK N   1      36.753  11.712  14.256  0.00  0.00    -0.388 OA
HETATM   64  O   UNK N   1      37.084  12.133  13.628  0.00  0.00    -0.388 OA
HETATM   65  O   UNK N   1      33.523   8.320  20.579  0.00  0.00    -0.343 OA
HETATM   66  O   UNK N   1      35.502  10.847  16.812  0.00  0.00    -0.310 OA
HETATM   67  O   UNK N   1      36.230  12.511  15.601  0.00  0.00    -0.338 OA
HETATM   68  H   UNK N   1      34.993   8.888  17.469  0.00  0.00     0.210 HD
HETATM   69  H   UNK N   1      37.517   9.622  12.075  0.00  0.00     0.210 HD
HETATM   70  H   UNK N   1      36.755  14.648  14.952  0.00  0.00     0.213 HD
ENDROOT
TORSDOF 14
ENDMDL
MODEL 6
REMARK VINA RESULT:     -17.5     12.389     14.648
REMARK  14 active torsions:
REMARK  status: ('A' for Active; 'I' for Inactive)
REMARK    1  A    between atoms: C_34  and  C_22 
REMARK    2  A    between atoms: C_35  and  C_23 
REMARK    3  A    between atoms: C_37  and  C_27 
REMARK    4  A    between atoms: C_46  and  C_30 
REMARK    5  A    between atoms: C_47  and  C_33 
REMARK    6  A    between atoms: C_41  and  C_35 
REMARK    7  A    between atoms: C_38  and  C_36 
REMARK    8  A    between atoms: N_53  and  C_38 
REMARK    9  A    between atoms: N_54  and  C_39 
REMARK   10  A    between atoms: C_43  and  C_42 
REMARK   11  A    between atoms: C_42  and  O_65 
REMARK   12  A    between atoms: C_48  and  C_45 
REMARK   13  A    between atoms: O_66  and  C_51 
REMARK   14  A    between atoms: O_67  and  C_52 
ROOT
HETATM    1  C   UNK N   1      32.589  21.311  -2.888  0.00  0.00     0.006 A 
HETATM    2  C   UNK N   1      30.601  23.154  -2.225  0.00  0.00     0.046 A 
HETATM    3  C   UNK N   1      29.637  22.570  -4.428  0.00  0.00     0.013 A 
HETATM    4  C   UNK N   1      30.424  20.714  -6.615  0.00  0.00     0.046 A 
HETATM    5  C   UNK N   1      25.454  24.756  -5.921  0.00  0.00     0.016 A 
HETATM    6  C   UNK N   1      29.311  22.379  -5.161  0.00  0.00     0.015 A 
HETATM    7  C   UNK N   1      29.629  17.522 -13.061  0.00  0.00     0.155 A 
HETATM    8  C   UNK N   1      31.908  18.494  -8.553  0.00  0.00     0.202 A 
HETATM    9  C   UNK N   1      28.198  24.044  -3.707  0.00  0.00     0.202 A 
HETATM   10  C   UNK N   1      27.129  24.964  -3.472  0.00  0.00     0.202 A 
HETATM   11  C   UNK N   1      31.942  21.819  -2.829  0.00  0.00     0.011 A 
HETATM   12  C   UNK N   1      26.612  22.345  -8.592  0.00  0.00     0.003 A 
HETATM   13  C   UNK N   1      26.175  22.764  -8.423  0.00  0.00     0.015 A 
HETATM   14  C   UNK N   1      27.309  21.981  -8.344  0.00  0.00     0.030 A 
HETATM   15  C   UNK N   1      29.445  20.142  -8.816  0.00  0.00     0.011 A 
HETATM   16  C   UNK N   1      30.929  17.922 -10.753  0.00  0.00     0.039 A 
HETATM   17  C   UNK N   1      30.603  17.731 -11.487  0.00  0.00     0.033 A 
HETATM   18  C   UNK N   1      29.816  19.587  -9.300  0.00  0.00     0.036 A 
HETATM   19  C   UNK N   1      28.859  18.917 -11.641  0.00  0.00     0.031 A 
HETATM   20  C   UNK N   1      26.279  23.288  -7.399  0.00  0.00     0.100 A 
HETATM   21  C   UNK N   1      28.812  18.527 -12.366  0.00  0.00     0.091 A 
HETATM   22  C   UNK N   1      29.400  20.888  -7.598  0.00  0.00    -0.017 A 
HETATM   23  C   UNK N   1      30.722  22.340  -3.463  0.00  0.00    -0.010 A 
HETATM   24  C   UNK N   1      28.568  23.490  -4.192  0.00  0.00     0.041 A 
HETATM   25  C   UNK N   1      26.477  24.583  -4.939  0.00  0.00     0.044 A 
HETATM   26  C   UNK N   1      30.469  19.968  -7.833  0.00  0.00     0.043 A 
HETATM   27  C   UNK N   1      29.861  18.841 -10.518  0.00  0.00     0.050 A 
HETATM   28  C   UNK N   1      30.764  21.643  -4.601  0.00  0.00     0.111 A 
HETATM   29  C   UNK N   1      30.289  22.951  -2.961  0.00  0.00    -0.058 A 
HETATM   30  C   UNK N   1      29.266  23.125  -3.943  0.00  0.00     0.017 A 
HETATM   31  C   UNK N   1      29.726  21.078  -6.864  0.00  0.00    -0.058 A 
HETATM   32  C   UNK N   1      26.151  24.392  -5.672  0.00  0.00     0.055 A 
HETATM   33  C   UNK N   1      29.681  21.824  -5.646  0.00  0.00     0.044 A 
HETATM   34  C   UNK N   1      29.772  20.333  -8.081  0.00  0.00     0.011 A 
HETATM   35  C   UNK N   1      31.393  21.860  -3.444  0.00  0.00     0.078 A 
HETATM   36  C   UNK N   1      29.535  18.650 -11.251  0.00  0.00    -0.005 A 
HETATM   37  C   UNK N   1      30.558  18.477 -10.269  0.00  0.00     0.070 A 
HETATM   38  C   UNK N   1      29.906  18.095 -11.736  0.00  0.00     0.044 A 
HETATM   39  C   UNK N   1      27.635  22.172  -7.611  0.00  0.00     0.166 A 
HETATM   40  C   UNK N   1      30.379  21.460  -5.397  0.00  0.00     0.131 A 
HETATM   41  C   UNK N   1      31.419  21.430  -4.148  0.00  0.00     0.137 A 
HETATM   42  C   UNK N   1      30.513  19.222  -9.051  0.00  0.00     0.158 A 
HETATM   43  C   UNK N   1      30.839  19.413  -8.318  0.00  0.00     0.151 A 
HETATM   44  C   UNK N   1      28.242  23.299  -4.926  0.00  0.00     0.152 A 
HETATM   45  C   UNK N   1      27.175  24.218  -4.689  0.00  0.00     0.153 A 
HETATM   46  C   UNK N   1      29.592  23.316  -3.209  0.00  0.00     0.150 A 
HETATM   47  C   UNK N   1      29.356  21.633  -6.379  0.00  0.00     0.166 A 
HETATM   48  C   UNK N   1      27.545  23.663  -5.174  0.00  0.00     0.183 A 
HETATM   49  C   UNK N   1      26.196  23.646  -6.890  0.00  0.00     0.273 A 
HETATM   50  C   UNK N   1      26.567  23.091  -7.374  0.00  0.00     0.275 A 
HETATM   51  C   UNK N   1      28.333  21.807  -7.361  0.00  0.00     0.278 A 
HETATM   52  C   UNK N   1      26.522  23.837  -6.156  0.00  0.00     0.238 A 
HETATM   53  N   UNK N   1      29.459  18.019 -12.425  0.00  0.00    -0.360 N 
HETATM   54  N   UNK N   1      27.264  22.727  -7.126  0.00  0.00    -0.232 N 
HETATM   55  O   UNK N   1      30.736  20.907  -5.894  0.00  0.00    -0.395 OA
HETATM   56  O   UNK N   1      31.999  20.882  -4.359  0.00  0.00    -0.297 OA
HETATM   57  O   UNK N   1      29.221  23.871  -2.726  0.00  0.00    -0.391 OA
HETATM   58  O   UNK N   1      25.499  24.011  -7.139  0.00  0.00    -0.282 OA
HETATM   59  O   UNK N   1      26.241  22.900  -8.108  0.00  0.00    -0.270 OA
HETATM   60  O   UNK N   1      28.703  21.252  -7.846  0.00  0.00    -0.263 OA
HETATM   61  O   UNK N   1      25.825  24.201  -6.406  0.00  0.00    -0.359 OA
HETATM   62  O   UNK N   1      31.537  19.049  -8.068  0.00  0.00    -0.388 OA
HETATM   63  O   UNK N   1      27.872  23.854  -4.441  0.00  0.00    -0.388 OA
HETATM   64  O   UNK N   1      27.501  24.409  -3.956  0.00  0.00    -0.388 OA
HETATM   65  O   UNK N   1      30.884  18.667  -9.536  0.00  0.00    -0.343 OA
HETATM   66  O   UNK N   1      28.658  21.998  -6.628  0.00  0.00    -0.310 OA
HETATM   67  O   UNK N   1      27.219  23.472  -5.908  0.00  0.00    -0.338 OA
HETATM   68  H   UNK N   1      30.338  20.696  -6.752  0.00  0.00     0.210 HD
HETATM   69  H   UNK N   1      29.604  24.095  -1.863  0.00  0.00     0.210 HD
HETATM   70  H   UNK N   1      25.389  24.854  -5.835  0.00  0.00     0.213 HD
ENDROOT
TORSDOF 14
ENDMDL
MODEL 7
REMARK VINA RESULT:     -17.4     14.563     18.298
REMARK  14 active torsions:
REMARK  status: ('A' for Active; 'I' for Inactive)
REMARK    1  A    between atoms: C_34  and  C_22 
REMARK    2  A    between atoms: C_35  and  C_23 
REMARK    3  A    between atoms: C_37  and  C_27 
REMARK    4  A    between atoms: C_46  and  C_30 
REMARK    5  A    between atoms: C_47  and  C_33 
REMARK    6  A    between atoms: C_41  and  C_35 
REMARK    7  A    between atoms: C_38  and  C_36 
REMARK    8  A    between atoms: N_53  and  C_38 
REMARK    9  A    between atoms: N_54  and  C_39 
REMARK   10  A    between atoms: C_43  and  C_42 
REMARK   11  A    between atoms: C_42  and  O_65 
REMARK   12  A    between atoms: C_48  and  C_45 
REMARK   13  A    between atoms: O_66  and  C_51 
REMARK   14  A    between atoms: O_67  and  C_52 
ROOT
HETATM    1  C   UNK N   1      35.223  14.954  18.573  0.00  0.00     0.006 A 
HETATM    2  C   UNK N   1      35.232  12.344  19.562  0.00  0.00     0.046 A 
HETATM    3  C   UNK N   1      35.459  11.682  17.189  0.00  0.00     0.013 A 
HETATM    4  C   UNK N   1      35.624  13.176  14.622  0.00  0.00     0.046 A 
HETATM    5  C   UNK N   1      35.733   6.883  16.006  0.00  0.00     0.016 A 
HETATM    6  C   UNK N   1      35.535  11.456  16.399  0.00  0.00     0.015 A 
HETATM    7  C   UNK N   1      36.219  13.739   7.431  0.00  0.00     0.155 A 
HETATM    8  C   UNK N   1      35.744  15.469  12.252  0.00  0.00     0.202 A 
HETATM    9  C   UNK N   1      35.445   9.736  18.177  0.00  0.00     0.202 A 
HETATM   10  C   UNK N   1      35.461   8.363  18.572  0.00  0.00     0.202 A 
HETATM   11  C   UNK N   1      35.240  14.142  18.718  0.00  0.00     0.011 A 
HETATM   12  C   UNK N   1      35.929   8.950  12.846  0.00  0.00     0.003 A 
HETATM   13  C   UNK N   1      35.929   8.371  13.090  0.00  0.00     0.015 A 
HETATM   14  C   UNK N   1      35.883   9.750  13.043  0.00  0.00     0.030 A 
HETATM   15  C   UNK N   1      35.852  12.496  12.252  0.00  0.00     0.011 A 
HETATM   16  C   UNK N   1      35.971  14.789   9.883  0.00  0.00     0.039 A 
HETATM   17  C   UNK N   1      36.047  14.563   9.093  0.00  0.00     0.033 A 
HETATM   18  C   UNK N   1      35.881  13.069  11.660  0.00  0.00     0.036 A 
HETATM   19  C   UNK N   1      36.120  12.449   9.130  0.00  0.00     0.031 A 
HETATM   20  C   UNK N   1      35.835   8.254  14.236  0.00  0.00     0.100 A 
HETATM   21  C   UNK N   1      36.185  12.565   8.315  0.00  0.00     0.091 A 
HETATM   22  C   UNK N   1      35.746  12.149  13.634  0.00  0.00    -0.017 A 
HETATM   23  C   UNK N   1      35.337  12.790  18.148  0.00  0.00    -0.010 A 
HETATM   24  C   UNK N   1      35.475  10.309  17.584  0.00  0.00     0.041 A 
HETATM   25  C   UNK N   1      35.612   7.910  16.992  0.00  0.00     0.044 A 
HETATM   26  C   UNK N   1      35.730  13.523  13.240  0.00  0.00     0.043 A 
HETATM   27  C   UNK N   1      35.987  13.416  10.278  0.00  0.00     0.050 A 
HETATM   28  C   UNK N   1      35.436  13.114  16.857  0.00  0.00     0.111 A 
HETATM   29  C   UNK N   1      35.308  12.135  18.768  0.00  0.00    -0.058 A 
HETATM   30  C   UNK N   1      35.429  11.109  17.782  0.00  0.00     0.017 A 
HETATM   31  C   UNK N   1      35.670  12.375  14.424  0.00  0.00    -0.058 A 
HETATM   32  C   UNK N   1      35.687   7.683  16.203  0.00  0.00     0.055 A 
HETATM   33  C   UNK N   1      35.565  12.029  15.807  0.00  0.00     0.044 A 
HETATM   34  C   UNK N   1      35.776  12.723  13.043  0.00  0.00     0.011 A 
HETATM   35  C   UNK N   1      35.313  13.613  18.089  0.00  0.00     0.078 A 
HETATM   36  C   UNK N   1      36.063  13.190   9.488  0.00  0.00    -0.005 A 
HETATM   37  C   UNK N   1      35.941  14.216  10.475  0.00  0.00     0.070 A 
HETATM   38  C   UNK N   1      36.093  13.763   8.896  0.00  0.00     0.044 A 
HETATM   39  C   UNK N   1      35.807   9.976  13.833  0.00  0.00     0.166 A 
HETATM   40  C   UNK N   1      35.519  12.829  16.004  0.00  0.00     0.131 A 
HETATM   41  C   UNK N   1      35.373  13.812  17.290  0.00  0.00     0.137 A 
HETATM   42  C   UNK N   1      35.836  13.869  11.857  0.00  0.00     0.158 A 
HETATM   43  C   UNK N   1      35.760  14.095  12.647  0.00  0.00     0.151 A 
HETATM   44  C   UNK N   1      35.550  10.083  16.794  0.00  0.00     0.152 A 
HETATM   45  C   UNK N   1      35.566   8.710  17.190  0.00  0.00     0.153 A 
HETATM   46  C   UNK N   1      35.353  11.336  18.571  0.00  0.00     0.150 A 
HETATM   47  C   UNK N   1      35.640  11.803  15.017  0.00  0.00     0.166 A 
HETATM   48  C   UNK N   1      35.596   9.283  16.597  0.00  0.00     0.183 A 
HETATM   49  C   UNK N   1      35.793   8.030  14.820  0.00  0.00     0.273 A 
HETATM   50  C   UNK N   1      35.823   8.603  14.229  0.00  0.00     0.275 A 
HETATM   51  C   UNK N   1      35.762  10.777  14.030  0.00  0.00     0.278 A 
HETATM   52  C   UNK N   1      35.717   8.257  15.611  0.00  0.00     0.238 A 
HETATM   53  N   UNK N   1      36.169  13.377   8.170  0.00  0.00    -0.360 N 
HETATM   54  N   UNK N   1      35.777   9.403  14.425  0.00  0.00    -0.232 N 
HETATM   55  O   UNK N   1      35.550  13.389  15.399  0.00  0.00    -0.395 OA
HETATM   56  O   UNK N   1      35.372  14.578  16.981  0.00  0.00    -0.297 OA
HETATM   57  O   UNK N   1      35.323  10.762  19.163  0.00  0.00    -0.391 OA
HETATM   58  O   UNK N   1      35.839   7.230  14.624  0.00  0.00    -0.282 OA
HETATM   59  O   UNK N   1      35.899   8.377  13.439  0.00  0.00    -0.270 OA
HETATM   60  O   UNK N   1      35.792  11.349  13.438  0.00  0.00    -0.263 OA
HETATM   61  O   UNK N   1      35.763   7.457  15.413  0.00  0.00    -0.359 OA
HETATM   62  O   UNK N   1      35.714  14.896  12.845  0.00  0.00    -0.388 OA
HETATM   63  O   UNK N   1      35.520   9.510  17.387  0.00  0.00    -0.388 OA
HETATM   64  O   UNK N   1      35.490   8.936  17.980  0.00  0.00    -0.388 OA
HETATM   65  O   UNK N   1      35.866  14.442  11.265  0.00  0.00    -0.343 OA
HETATM   66  O   UNK N   1      35.686  11.003  14.820  0.00  0.00    -0.310 OA
HETATM   67  O   UNK N   1      35.672   9.057  15.808  0.00  0.00    -0.338 OA
HETATM   68  H   UNK N   1      35.640  13.103  14.477  0.00  0.00     0.210 HD
HETATM   69  H   UNK N   1      35.235  11.028  20.092  0.00  0.00     0.210 HD
HETATM   70  H   UNK N   1      35.728   6.783  16.110  0.00  0.00     0.213 HD
ENDROOT
TORSDOF 14
ENDMDL
MODEL 8
REMARK VINA RESULT:     -17.3     12.902     15.146
REMARK  14 active torsions:
REMARK  status: ('A' for Active; 'I' for Inactive)
REMARK    1  A    between atoms: C_34  and  C_22 
REMARK    2  A    between atoms: C_35  and  C_23 
REMARK    3  A    between atoms: C_37  and  C_27 
REMARK    4  A    between atoms: C_46  and  C_30 
REMARK    5  A    between atoms: C_47  and  C_33 
REMARK    6  A    between atoms: C_41  and  C_35 
REMARK    7  A    between atoms: C_38  and  C_36 
REMARK    8  A    between atoms: N_53  and  C_38 
REMARK    9  A    between atoms: N_54  and  C_39 
REMARK   10  A    between atoms: C_43  and  C_42 
REMARK   11  A    between atoms: C_42  and  O_65 
REMARK   12  A    between atoms: C_48  and  C_45 
REMARK   13  A    between atoms: O_66  and  C_51 
REMARK   14  A    between atoms: O_67  and  C_52 
ROOT
HETATM    1  C   UNK N   1      29.420  19.756 -10.186  0.00  0.00     0.006 A 
HETATM    2  C   UNK N   1      31.508  18.757  -8.626  0.00  0.00     0.046 A 
HETATM    3  C   UNK N   1      30.815  20.481  -6.991  0.00  0.00     0.013 A 
HETATM    4  C   UNK N   1      28.687  22.559  -6.939  0.00  0.00     0.046 A 
HETATM    5  C   UNK N   1      33.255  20.906  -2.705  0.00  0.00     0.016 A 
HETATM    6  C   UNK N   1      30.588  21.054  -6.442  0.00  0.00     0.015 A 
HETATM    7  C   UNK N   1      24.985  28.030  -3.982  0.00  0.00     0.155 A 
HETATM    8  C   UNK N   1      26.154  24.567  -7.601  0.00  0.00     0.202 A 
HETATM    9  C   UNK N   1      32.488  19.548  -5.946  0.00  0.00     0.202 A 
HETATM   10  C   UNK N   1      33.528  19.117  -5.066  0.00  0.00     0.202 A 
HETATM   11  C   UNK N   1      29.994  19.568  -9.623  0.00  0.00     0.011 A 
HETATM   12  C   UNK N   1      30.494  23.486  -2.819  0.00  0.00     0.003 A 
HETATM   13  C   UNK N   1      30.969  23.246  -2.484  0.00  0.00     0.015 A 
HETATM   14  C   UNK N   1      30.087  23.416  -3.533  0.00  0.00     0.030 A 
HETATM   15  C   UNK N   1      28.007  24.278  -5.292  0.00  0.00     0.011 A 
HETATM   16  C   UNK N   1      25.473  26.285  -5.955  0.00  0.00     0.039 A 
HETATM   17  C   UNK N   1      25.246  26.858  -5.407  0.00  0.00     0.033 A 
HETATM   18  C   UNK N   1      27.374  24.779  -5.458  0.00  0.00     0.036 A 
HETATM   19  C   UNK N   1      26.581  26.625  -3.782  0.00  0.00     0.031 A 
HETATM   20  C   UNK N   1      31.576  22.372  -2.934  0.00  0.00     0.100 A 
HETATM   21  C   UNK N   1      26.129  27.250  -3.487  0.00  0.00     0.091 A 
HETATM   22  C   UNK N   1      28.867  23.203  -5.676  0.00  0.00    -0.017 A 
HETATM   23  C   UNK N   1      30.571  19.866  -8.304  0.00  0.00    -0.010 A 
HETATM   24  C   UNK N   1      31.855  20.050  -6.111  0.00  0.00     0.041 A 
HETATM   25  C   UNK N   1      33.075  20.263  -3.968  0.00  0.00     0.044 A 
HETATM   26  C   UNK N   1      27.827  23.634  -6.556  0.00  0.00     0.043 A 
HETATM   27  C   UNK N   1      26.513  25.854  -5.075  0.00  0.00     0.050 A 
HETATM   28  C   UNK N   1      29.767  20.870  -7.946  0.00  0.00     0.111 A 
HETATM   29  C   UNK N   1      31.268  19.335  -8.089  0.00  0.00    -0.058 A 
HETATM   30  C   UNK N   1      31.448  19.979  -6.826  0.00  0.00     0.017 A 
HETATM   31  C   UNK N   1      29.094  22.630  -6.224  0.00  0.00    -0.058 A 
HETATM   32  C   UNK N   1      32.848  20.836  -3.419  0.00  0.00     0.055 A 
HETATM   33  C   UNK N   1      29.954  21.556  -6.608  0.00  0.00     0.044 A 
HETATM   34  C   UNK N   1      28.234  23.704  -5.842  0.00  0.00     0.011 A 
HETATM   35  C   UNK N   1      30.031  19.991  -8.915  0.00  0.00     0.078 A 
HETATM   36  C   UNK N   1      26.286  26.427  -4.526  0.00  0.00    -0.005 A 
HETATM   37  C   UNK N   1      26.106  25.783  -5.789  0.00  0.00     0.070 A 
HETATM   38  C   UNK N   1      25.653  26.929  -4.692  0.00  0.00     0.044 A 
HETATM   39  C   UNK N   1      30.314  22.843  -4.081  0.00  0.00     0.166 A 
HETATM   40  C   UNK N   1      29.548  21.484  -7.323  0.00  0.00     0.131 A 
HETATM   41  C   UNK N   1      29.534  20.611  -8.694  0.00  0.00     0.137 A 
HETATM   42  C   UNK N   1      26.967  24.709  -6.172  0.00  0.00     0.158 A 
HETATM   43  C   UNK N   1      27.194  24.136  -6.721  0.00  0.00     0.151 A 
HETATM   44  C   UNK N   1      31.628  20.623  -5.562  0.00  0.00     0.152 A 
HETATM   45  C   UNK N   1      32.668  20.192  -4.683  0.00  0.00     0.153 A 
HETATM   46  C   UNK N   1      31.675  19.406  -7.374  0.00  0.00     0.150 A 
HETATM   47  C   UNK N   1      29.727  22.128  -6.059  0.00  0.00     0.166 A 
HETATM   48  C   UNK N   1      32.035  20.693  -4.848  0.00  0.00     0.183 A 
HETATM   49  C   UNK N   1      31.988  21.910  -3.036  0.00  0.00     0.273 A 
HETATM   50  C   UNK N   1      31.354  22.412  -3.202  0.00  0.00     0.275 A 
HETATM   51  C   UNK N   1      29.907  22.772  -4.796  0.00  0.00     0.278 A 
HETATM   52  C   UNK N   1      32.215  21.337  -3.585  0.00  0.00     0.238 A 
HETATM   53  N   UNK N   1      25.555  27.438  -4.050  0.00  0.00    -0.360 N 
HETATM   54  N   UNK N   1      30.948  22.341  -3.916  0.00  0.00    -0.232 N 
HETATM   55  O   UNK N   1      28.917  21.994  -7.471  0.00  0.00    -0.395 OA
HETATM   56  O   UNK N   1      28.913  20.918  -9.142  0.00  0.00    -0.297 OA
HETATM   57  O   UNK N   1      32.308  18.905  -7.208  0.00  0.00    -0.391 OA
HETATM   58  O   UNK N   1      32.395  21.981  -2.322  0.00  0.00    -0.282 OA
HETATM   59  O   UNK N   1      31.127  22.985  -2.653  0.00  0.00    -0.270 OA
HETATM   60  O   UNK N   1      29.274  23.274  -4.962  0.00  0.00    -0.263 OA
HETATM   61  O   UNK N   1      32.621  21.408  -2.871  0.00  0.00    -0.359 OA
HETATM   62  O   UNK N   1      26.787  24.065  -7.436  0.00  0.00    -0.388 OA
HETATM   63  O   UNK N   1      32.261  20.121  -5.397  0.00  0.00    -0.388 OA
HETATM   64  O   UNK N   1      32.895  19.619  -5.232  0.00  0.00    -0.388 OA
HETATM   65  O   UNK N   1      26.333  25.211  -6.338  0.00  0.00    -0.343 OA
HETATM   66  O   UNK N   1      30.134  22.199  -5.345  0.00  0.00    -0.310 OA
HETATM   67  O   UNK N   1      31.808  21.266  -4.300  0.00  0.00    -0.338 OA
HETATM   68  H   UNK N   1      28.665  22.661  -6.814  0.00  0.00     0.210 HD
HETATM   69  H   UNK N   1      32.575  18.231  -7.854  0.00  0.00     0.210 HD
HETATM   70  H   UNK N   1      33.366  20.818  -2.676  0.00  0.00     0.213 HD
ENDROOT
TORSDOF 14
ENDMDL
MODEL 9
REMARK VINA RESULT:     -17.2      6.103      8.879
REMARK  14 active torsions:
REMARK  status: ('A' for Active; 'I' for Inactive)
REMARK    1  A    between atoms: C_34  and  C_22 
REMARK    2  A    between atoms: C_35  and  C_23 
REMARK    3  A    between atoms: C_37  and  C_27 
REMARK    4  A    between atoms: C_46  and  C_30 
REMARK    5  A    between atoms: C_47  and  C_33 
REMARK    6  A    between atoms: C_41  and  C_35 
REMARK    7  A    between atoms: C_38  and  C_36 
REMARK    8  A    between atoms: N_53  and  C_38 
REMARK    9  A    between atoms: N_54  and  C_39 
REMARK   10  A    between atoms: C_43  and  C_42 
REMARK   11  A    between atoms: C_42  and  O_65 
REMARK   12  A    between atoms: C_48  and  C_45 
REMARK   13  A    between atoms: O_66  and  C_51 
REMARK   14  A    between atoms: O_67  and  C_52 
ROOT
HETATM    1  C   UNK N   1      30.207  13.285   2.205  0.00  0.00     0.006 A 
HETATM    2  C   UNK N   1      28.349  15.365   2.308  0.00  0.00     0.046 A 
HETATM    3  C   UNK N   1      29.341  15.845   4.523  0.00  0.00     0.013 A 
HETATM    4  C   UNK N   1      31.521  14.619   6.133  0.00  0.00     0.046 A 
HETATM    5  C   UNK N   1      27.600  19.616   7.216  0.00  0.00     0.016 A 
HETATM    6  C   UNK N   1      29.669  16.010   5.262  0.00  0.00     0.015 A 
HETATM    7  C   UNK N   1      35.813  14.043  11.932  0.00  0.00     0.155 A 
HETATM    8  C   UNK N   1      33.990  12.764   7.295  0.00  0.00     0.202 A 
HETATM    9  C   UNK N   1      27.817  17.401   4.391  0.00  0.00     0.202 A 
HETATM   10  C   UNK N   1      26.909  18.494   4.549  0.00  0.00     0.202 A 
HETATM   11  C   UNK N   1      29.720  13.929   2.373  0.00  0.00     0.011 A 
HETATM   12  C   UNK N   1      30.396  17.926   9.117  0.00  0.00     0.003 A 
HETATM   13  C   UNK N   1      29.970  18.388   9.119  0.00  0.00     0.015 A 
HETATM   14  C   UNK N   1      30.687  17.297   8.668  0.00  0.00     0.030 A 
HETATM   15  C   UNK N   1      32.502  15.113   8.352  0.00  0.00     0.011 A 
HETATM   16  C   UNK N   1      34.971  13.258   9.513  0.00  0.00     0.039 A 
HETATM   17  C   UNK N   1      35.298  13.422  10.252  0.00  0.00     0.033 A 
HETATM   18  C   UNK N   1      33.119  14.649   8.642  0.00  0.00     0.036 A 
HETATM   19  C   UNK N   1      34.220  15.093  10.973  0.00  0.00     0.031 A 
HETATM   20  C   UNK N   1      29.273  18.501   8.205  0.00  0.00     0.100 A 
HETATM   21  C   UNK N   1      34.732  14.987  11.612  0.00  0.00     0.091 A 
HETATM   22  C   UNK N   1      31.557  15.412   7.322  0.00  0.00    -0.017 A 
HETATM   23  C   UNK N   1      29.361  14.988   3.329  0.00  0.00    -0.010 A 
HETATM   24  C   UNK N   1      28.434  16.938   4.682  0.00  0.00     0.041 A 
HETATM   25  C   UNK N   1      27.563  18.823   6.028  0.00  0.00     0.044 A 
HETATM   26  C   UNK N   1      32.465  14.320   7.163  0.00  0.00     0.043 A 
HETATM   27  C   UNK N   1      34.063  14.350   9.672  0.00  0.00     0.050 A 
HETATM   28  C   UNK N   1      30.243  14.708   4.291  0.00  0.00     0.111 A 
HETATM   29  C   UNK N   1      28.687  15.516   3.044  0.00  0.00    -0.058 A 
HETATM   30  C   UNK N   1      28.724  16.309   4.232  0.00  0.00     0.017 A 
HETATM   31  C   UNK N   1      31.230  15.247   6.583  0.00  0.00    -0.058 A 
HETATM   32  C   UNK N   1      27.890  18.988   6.767  0.00  0.00     0.055 A 
HETATM   33  C   UNK N   1      30.286  15.546   5.553  0.00  0.00     0.044 A 
HETATM   34  C   UNK N   1      32.174  14.948   7.612  0.00  0.00     0.011 A 
HETATM   35  C   UNK N   1      29.806  14.336   3.086  0.00  0.00     0.078 A 
HETATM   36  C   UNK N   1      34.391  14.514  10.411  0.00  0.00    -0.005 A 
HETATM   37  C   UNK N   1      34.354  13.722   9.223  0.00  0.00     0.070 A 
HETATM   38  C   UNK N   1      35.008  14.051  10.702  0.00  0.00     0.044 A 
HETATM   39  C   UNK N   1      30.359  17.133   7.929  0.00  0.00     0.166 A 
HETATM   40  C   UNK N   1      30.576  14.918   5.104  0.00  0.00     0.131 A 
HETATM   41  C   UNK N   1      30.351  14.164   3.681  0.00  0.00     0.137 A 
HETATM   42  C   UNK N   1      33.409  14.021   8.193  0.00  0.00     0.158 A 
HETATM   43  C   UNK N   1      33.082  13.856   7.454  0.00  0.00     0.151 A 
HETATM   44  C   UNK N   1      28.761  17.102   5.421  0.00  0.00     0.152 A 
HETATM   45  C   UNK N   1      27.853  18.194   5.579  0.00  0.00     0.153 A 
HETATM   46  C   UNK N   1      28.397  16.144   3.493  0.00  0.00     0.150 A 
HETATM   47  C   UNK N   1      30.613  15.711   6.292  0.00  0.00     0.166 A 
HETATM   48  C   UNK N   1      28.470  17.731   5.869  0.00  0.00     0.183 A 
HETATM   49  C   UNK N   1      28.835  18.689   7.797  0.00  0.00     0.273 A 
HETATM   50  C   UNK N   1      29.452  18.225   8.087  0.00  0.00     0.275 A 
HETATM   51  C   UNK N   1      30.650  16.504   7.480  0.00  0.00     0.278 A 
HETATM   52  C   UNK N   1      28.507  18.524   7.057  0.00  0.00     0.238 A 
HETATM   53  N   UNK N   1      35.219  14.342  11.444  0.00  0.00    -0.360 N 
HETATM   54  N   UNK N   1      29.742  17.596   7.638  0.00  0.00    -0.232 N 
HETATM   55  O   UNK N   1      31.194  14.464   5.409  0.00  0.00    -0.395 OA
HETATM   56  O   UNK N   1      30.906  13.553   3.667  0.00  0.00    -0.297 OA
HETATM   57  O   UNK N   1      27.780  16.608   3.203  0.00  0.00    -0.391 OA
HETATM   58  O   UNK N   1      28.544  19.317   8.246  0.00  0.00    -0.282 OA
HETATM   59  O   UNK N   1      29.779  18.389   8.826  0.00  0.00    -0.270 OA
HETATM   60  O   UNK N   1      31.267  16.040   7.771  0.00  0.00    -0.263 OA
HETATM   61  O   UNK N   1      28.217  19.152   7.506  0.00  0.00    -0.359 OA
HETATM   62  O   UNK N   1      33.373  13.227   7.005  0.00  0.00    -0.388 OA
HETATM   63  O   UNK N   1      28.144  17.566   5.130  0.00  0.00    -0.388 OA
HETATM   64  O   UNK N   1      27.526  18.030   4.839  0.00  0.00    -0.388 OA
HETATM   65  O   UNK N   1      34.027  13.557   8.484  0.00  0.00    -0.343 OA
HETATM   66  O   UNK N   1      30.322  16.339   6.741  0.00  0.00    -0.310 OA
HETATM   67  O   UNK N   1      28.798  17.895   6.609  0.00  0.00    -0.338 OA
HETATM   68  H   UNK N   1      31.565  14.674   6.281  0.00  0.00     0.210 HD
HETATM   69  H   UNK N   1      27.395  16.415   2.334  0.00  0.00     0.210 HD
HETATM   70  H   UNK N   1      27.491  19.698   7.164  0.00  0.00     0.213 HD
ENDROOT
TORSDOF 14
ENDMDL
