MODEL 1
REMARK VINA RESULT:      -4.6      0.000      0.000
REMARK  8 active torsions:
REMARK  status: ('A' for Active; 'I' for Inactive)
REMARK    1  A    between atoms: C_2  and  N_1 
REMARK    2  A    between atoms: C_2  and  C_3 
REMARK    3  A    between atoms: C_2  and  C_8 
REMARK    4  A    between atoms: C_3  and  C_4 
REMARK    5  A    between atoms: C_4  and  C_5 
REMARK    6  A    between atoms: C_5  and  C_6 
REMARK    7  A    between atoms: C_6  and  O_7 
REMARK    8  A    between atoms: C_8  and  O_9 
ROOT
HETATM    1  C   UNK N   1      33.200  17.762   8.669  0.00  0.00     0.173 C 
ENDROOT
BRANCH   1   2
HETATM    2  N   UNK N   1      33.580  16.579   9.432  0.00  0.00    -0.418 N 
HETATM    3  H   UNK N   1      33.444  16.474  10.437  0.00  0.00     0.150 HD
HETATM    4  H   UNK N   1      34.009  15.805   8.926  0.00  0.00     0.150 HD
ENDBRANCH   1   2
BRANCH   1   5
HETATM    5  C   UNK N   1      32.010  17.454   7.764  0.00  0.00     0.035 C 
BRANCH   5   6
HETATM    6  C   UNK N   1      30.815  16.983   8.582  0.00  0.00     0.004 C 
BRANCH   6   7
HETATM    7  C   UNK N   1      29.601  17.836   8.279  0.00  0.00     0.026 C 
BRANCH   7   8
HETATM    8  C   UNK N   1      28.863  18.140   9.568  0.00  0.00     0.164 C 
BRANCH   8   9
HETATM    9  O   UNK N   1      27.501  18.277   9.306  0.00  0.00    -0.401 OA
HETATM   10  H   UNK N   1      26.898  18.564  10.010  0.00  0.00     0.209 HD
ENDBRANCH   8   9
ENDBRANCH   7   8
ENDBRANCH   6   7
ENDBRANCH   5   6
ENDBRANCH   1   5
BRANCH   1  11
HETATM   11  C   UNK N   1      34.390  18.279   7.906  0.00  0.00     0.163 C 
HETATM   12  O   UNK N   1      34.550  17.976   6.728  0.00  0.00    -0.648 OA
BRANCH  11  13
HETATM   13  O   UNK N   1      35.240  19.148   8.482  0.00  0.00    -0.775 OA
HETATM   14  H   UNK N   1      36.100  19.270   8.130  0.00  0.00     0.167 HD
ENDBRANCH  11  13
ENDBRANCH   1  11
TORSDOF 8
ENDMDL
MODEL 2
REMARK VINA RESULT:      -4.5      3.577      5.444
REMARK  8 active torsions:
REMARK  status: ('A' for Active; 'I' for Inactive)
REMARK    1  A    between atoms: C_2  and  N_1 
REMARK    2  A    between atoms: C_2  and  C_3 
REMARK    3  A    between atoms: C_2  and  C_8 
REMARK    4  A    between atoms: C_3  and  C_4 
REMARK    5  A    between atoms: C_4  and  C_5 
REMARK    6  A    between atoms: C_5  and  C_6 
REMARK    7  A    between atoms: C_6  and  O_7 
REMARK    8  A    between atoms: C_8  and  O_9 
ROOT
HETATM    1  C   UNK N   1      34.192  17.069   8.924  0.00  0.00     0.173 C 
ENDROOT
BRANCH   1   2
HETATM    2  N   UNK N   1      34.810  17.224  10.234  0.00  0.00    -0.418 N 
HETATM    3  H   UNK N   1      35.667  17.750  10.409  0.00  0.00     0.150 HD
HETATM    4  H   UNK N   1      34.355  16.778  11.031  0.00  0.00     0.150 HD
ENDBRANCH   1   2
BRANCH   1   5
HETATM    5  C   UNK N   1      34.551  15.712   8.322  0.00  0.00     0.035 C 
BRANCH   5   6
HETATM    6  C   UNK N   1      35.000  14.741   9.404  0.00  0.00     0.004 C 
BRANCH   6   7
HETATM    7  C   UNK N   1      36.363  14.173   9.070  0.00  0.00     0.026 C 
BRANCH   7   8
HETATM    8  C   UNK N   1      37.297  14.376  10.247  0.00  0.00     0.164 C 
BRANCH   8   9
HETATM    9  O   UNK N   1      37.268  15.712  10.641  0.00  0.00    -0.401 OA
HETATM   10  H   UNK N   1      37.144  15.941  11.576  0.00  0.00     0.209 HD
ENDBRANCH   8   9
ENDBRANCH   7   8
ENDBRANCH   6   7
ENDBRANCH   5   6
ENDBRANCH   1   5
BRANCH   1  11
HETATM   11  C   UNK N   1      34.585  18.220   8.035  0.00  0.00     0.163 C 
HETATM   12  O   UNK N   1      35.181  19.186   8.501  0.00  0.00    -0.648 OA
BRANCH  11  13
HETATM   13  O   UNK N   1      34.365  18.159   6.710  0.00  0.00    -0.775 OA
HETATM   14  H   UNK N   1      33.826  17.481   6.353  0.00  0.00     0.167 HD
ENDBRANCH  11  13
ENDBRANCH   1  11
TORSDOF 8
ENDMDL
MODEL 3
REMARK VINA RESULT:      -4.3      1.639      5.358
REMARK  8 active torsions:
REMARK  status: ('A' for Active; 'I' for Inactive)
REMARK    1  A    between atoms: C_2  and  N_1 
REMARK    2  A    between atoms: C_2  and  C_3 
REMARK    3  A    between atoms: C_2  and  C_8 
REMARK    4  A    between atoms: C_3  and  C_4 
REMARK    5  A    between atoms: C_4  and  C_5 
REMARK    6  A    between atoms: C_5  and  C_6 
REMARK    7  A    between atoms: C_6  and  O_7 
REMARK    8  A    between atoms: C_8  and  O_9 
ROOT
HETATM    1  C   UNK N   1      29.736  17.482   9.133  0.00  0.00     0.173 C 
ENDROOT
BRANCH   1   2
HETATM    2  N   UNK N   1      30.004  18.632   9.987  0.00  0.00    -0.418 N 
HETATM    3  H   UNK N   1      29.377  18.966  10.719  0.00  0.00     0.150 HD
HETATM    4  H   UNK N   1      30.880  19.136   9.845  0.00  0.00     0.150 HD
ENDBRANCH   1   2
BRANCH   1   5
HETATM    5  C   UNK N   1      30.745  17.420   7.989  0.00  0.00     0.035 C 
BRANCH   5   6
HETATM    6  C   UNK N   1      32.156  17.217   8.521  0.00  0.00     0.004 C 
BRANCH   6   7
HETATM    7  C   UNK N   1      33.071  18.313   8.017  0.00  0.00     0.026 C 
BRANCH   7   8
HETATM    8  C   UNK N   1      34.507  17.972   8.367  0.00  0.00     0.164 C 
BRANCH   8   9
HETATM    9  O   UNK N   1      35.252  19.145   8.478  0.00  0.00    -0.401 OA
HETATM   10  H   UNK N   1      36.161  19.177   8.141  0.00  0.00     0.209 HD
ENDBRANCH   8   9
ENDBRANCH   7   8
ENDBRANCH   6   7
ENDBRANCH   5   6
ENDBRANCH   1   5
BRANCH   1  11
HETATM   11  C   UNK N   1      28.311  17.529   8.648  0.00  0.00     0.163 C 
HETATM   12  O   UNK N   1      27.982  16.923   7.633  0.00  0.00    -0.648 OA
BRANCH  11  13
HETATM   13  O   UNK N   1      27.370  18.162   9.370  0.00  0.00    -0.775 OA
HETATM   14  H   UNK N   1      26.472  17.903   9.305  0.00  0.00     0.167 HD
ENDBRANCH  11  13
ENDBRANCH   1  11
TORSDOF 8
ENDMDL
MODEL 4
REMARK VINA RESULT:      -4.2     10.730     11.323
REMARK  8 active torsions:
REMARK  status: ('A' for Active; 'I' for Inactive)
REMARK    1  A    between atoms: C_2  and  N_1 
REMARK    2  A    between atoms: C_2  and  C_3 
REMARK    3  A    between atoms: C_2  and  C_8 
REMARK    4  A    between atoms: C_3  and  C_4 
REMARK    5  A    between atoms: C_4  and  C_5 
REMARK    6  A    between atoms: C_5  and  C_6 
REMARK    7  A    between atoms: C_6  and  O_7 
REMARK    8  A    between atoms: C_8  and  O_9 
ROOT
HETATM    1  C   UNK N   1      24.072  11.766  11.101  0.00  0.00     0.173 C 
ENDROOT
BRANCH   1   2
HETATM    2  N   UNK N   1      24.966  12.914  11.010  0.00  0.00    -0.418 N 
HETATM    3  H   UNK N   1      25.724  13.002  10.333  0.00  0.00     0.150 HD
HETATM    4  H   UNK N   1      24.823  13.681  11.667  0.00  0.00     0.150 HD
ENDBRANCH   1   2
BRANCH   1   5
HETATM    5  C   UNK N   1      23.236  11.639   9.830  0.00  0.00     0.035 C 
BRANCH   5   6
HETATM    6  C   UNK N   1      23.023  13.000   9.183  0.00  0.00     0.004 C 
BRANCH   6   7
HETATM    7  C   UNK N   1      21.566  13.184   8.812  0.00  0.00     0.026 C 
BRANCH   7   8
HETATM    8  C   UNK N   1      20.919  14.160   9.775  0.00  0.00     0.164 C 
BRANCH   8   9
HETATM    9  O   UNK N   1      19.532  14.056   9.684  0.00  0.00    -0.401 OA
HETATM   10  H   UNK N   1      19.129  13.261   9.300  0.00  0.00     0.209 HD
ENDBRANCH   8   9
ENDBRANCH   7   8
ENDBRANCH   6   7
ENDBRANCH   5   6
ENDBRANCH   1   5
BRANCH   1  11
HETATM   11  C   UNK N   1      23.227  11.876  12.343  0.00  0.00     0.163 C 
HETATM   12  O   UNK N   1      23.744  12.151  13.421  0.00  0.00    -0.648 OA
BRANCH  11  13
HETATM   13  O   UNK N   1      21.890  11.758  12.265  0.00  0.00    -0.775 OA
HETATM   14  H   UNK N   1      21.337  12.426  12.620  0.00  0.00     0.167 HD
ENDBRANCH  11  13
ENDBRANCH   1  11
TORSDOF 8
ENDMDL
MODEL 5
REMARK VINA RESULT:      -4.2      3.683      5.028
REMARK  8 active torsions:
REMARK  status: ('A' for Active; 'I' for Inactive)
REMARK    1  A    between atoms: C_2  and  N_1 
REMARK    2  A    between atoms: C_2  and  C_3 
REMARK    3  A    between atoms: C_2  and  C_8 
REMARK    4  A    between atoms: C_3  and  C_4 
REMARK    5  A    between atoms: C_4  and  C_5 
REMARK    6  A    between atoms: C_5  and  C_6 
REMARK    7  A    between atoms: C_6  and  O_7 
REMARK    8  A    between atoms: C_8  and  O_9 
ROOT
HETATM    1  C   UNK N   1      34.490  16.967   9.046  0.00  0.00     0.173 C 
ENDROOT
BRANCH   1   2
HETATM    2  N   UNK N   1      33.062  16.839   9.308  0.00  0.00    -0.418 N 
HETATM    3  H   UNK N   1      32.532  17.456   9.924  0.00  0.00     0.150 HD
HETATM    4  H   UNK N   1      32.559  16.083   8.844  0.00  0.00     0.150 HD
ENDBRANCH   1   2
BRANCH   1   5
HETATM    5  C   UNK N   1      35.267  17.065  10.357  0.00  0.00     0.035 C 
BRANCH   5   6
HETATM    6  C   UNK N   1      36.107  15.816  10.584  0.00  0.00     0.004 C 
BRANCH   6   7
HETATM    7  C   UNK N   1      35.706  15.139  11.878  0.00  0.00     0.026 C 
BRANCH   7   8
HETATM    8  C   UNK N   1      34.806  13.957  11.571  0.00  0.00     0.164 C 
BRANCH   8   9
HETATM    9  O   UNK N   1      34.439  13.330  12.760  0.00  0.00    -0.401 OA
HETATM   10  H   UNK N   1      34.325  13.852  13.570  0.00  0.00     0.209 HD
ENDBRANCH   8   9
ENDBRANCH   7   8
ENDBRANCH   6   7
ENDBRANCH   5   6
ENDBRANCH   1   5
BRANCH   1  11
HETATM   11  C   UNK N   1      34.738  18.140   8.136  0.00  0.00     0.163 C 
HETATM   12  O   UNK N   1      34.339  18.119   6.976  0.00  0.00    -0.648 OA
BRANCH  11  13
HETATM   13  O   UNK N   1      35.322  19.255   8.611  0.00  0.00    -0.775 OA
HETATM   14  H   UNK N   1      35.768  19.239   9.434  0.00  0.00     0.167 HD
ENDBRANCH  11  13
ENDBRANCH   1  11
TORSDOF 8
ENDMDL
MODEL 6
REMARK VINA RESULT:      -4.2     11.630     12.799
REMARK  8 active torsions:
REMARK  status: ('A' for Active; 'I' for Inactive)
REMARK    1  A    between atoms: C_2  and  N_1 
REMARK    2  A    between atoms: C_2  and  C_3 
REMARK    3  A    between atoms: C_2  and  C_8 
REMARK    4  A    between atoms: C_3  and  C_4 
REMARK    5  A    between atoms: C_4  and  C_5 
REMARK    6  A    between atoms: C_5  and  C_6 
REMARK    7  A    between atoms: C_6  and  O_7 
REMARK    8  A    between atoms: C_8  and  O_9 
ROOT
HETATM    1  C   UNK N   1      20.553  19.154   2.027  0.00  0.00     0.173 C 
ENDROOT
BRANCH   1   2
HETATM    2  N   UNK N   1      19.158  19.151   2.445  0.00  0.00    -0.418 N 
HETATM    3  H   UNK N   1      18.847  19.177   3.417  0.00  0.00     0.150 HD
HETATM    4  H   UNK N   1      18.443  19.121   1.718  0.00  0.00     0.150 HD
ENDBRANCH   1   2
BRANCH   1   5
HETATM    5  C   UNK N   1      21.472  18.960   3.231  0.00  0.00     0.035 C 
BRANCH   5   6
HETATM    6  C   UNK N   1      20.781  18.144   4.314  0.00  0.00     0.004 C 
BRANCH   6   7
HETATM    7  C   UNK N   1      21.806  17.526   5.242  0.00  0.00     0.026 C 
BRANCH   7   8
HETATM    8  C   UNK N   1      21.241  17.465   6.648  0.00  0.00     0.164 C 
BRANCH   8   9
HETATM    9  O   UNK N   1      20.934  18.753   7.084  0.00  0.00    -0.401 OA
HETATM   10  H   UNK N   1      20.285  19.288   6.599  0.00  0.00     0.209 HD
ENDBRANCH   8   9
ENDBRANCH   7   8
ENDBRANCH   6   7
ENDBRANCH   5   6
ENDBRANCH   1   5
BRANCH   1  11
HETATM   11  C   UNK N   1      20.854  20.418   1.265  0.00  0.00     0.163 C 
HETATM   12  O   UNK N   1      21.396  21.365   1.827  0.00  0.00    -0.648 OA
BRANCH  11  13
HETATM   13  O   UNK N   1      20.612  20.487  -0.055  0.00  0.00    -0.775 OA
HETATM   14  H   UNK N   1      21.221  20.916  -0.624  0.00  0.00     0.167 HD
ENDBRANCH  11  13
ENDBRANCH   1  11
TORSDOF 8
ENDMDL
MODEL 7
REMARK VINA RESULT:      -4.2     12.513     13.133
REMARK  8 active torsions:
REMARK  status: ('A' for Active; 'I' for Inactive)
REMARK    1  A    between atoms: C_2  and  N_1 
REMARK    2  A    between atoms: C_2  and  C_3 
REMARK    3  A    between atoms: C_2  and  C_8 
REMARK    4  A    between atoms: C_3  and  C_4 
REMARK    5  A    between atoms: C_4  and  C_5 
REMARK    6  A    between atoms: C_5  and  C_6 
REMARK    7  A    between atoms: C_6  and  O_7 
REMARK    8  A    between atoms: C_8  and  O_9 
ROOT
HETATM    1  C   UNK N   1      20.642  19.343   2.033  0.00  0.00     0.173 C 
ENDROOT
BRANCH   1   2
HETATM    2  N   UNK N   1      19.206  19.221   2.248  0.00  0.00    -0.418 N 
HETATM    3  H   UNK N   1      18.530  19.001   1.517  0.00  0.00     0.150 HD
HETATM    4  H   UNK N   1      18.854  19.365   3.195  0.00  0.00     0.150 HD
ENDBRANCH   1   2
BRANCH   1   5
HETATM    5  C   UNK N   1      21.391  19.249   3.360  0.00  0.00     0.035 C 
BRANCH   5   6
HETATM    6  C   UNK N   1      21.859  17.824   3.618  0.00  0.00     0.004 C 
BRANCH   6   7
HETATM    7  C   UNK N   1      21.094  17.220   4.777  0.00  0.00     0.026 C 
BRANCH   7   8
HETATM    8  C   UNK N   1      20.107  16.195   4.251  0.00  0.00     0.164 C 
BRANCH   8   9
HETATM    9  O   UNK N   1      18.876  16.807   4.025  0.00  0.00    -0.401 OA
HETATM   10  H   UNK N   1      18.148  16.302   3.627  0.00  0.00     0.209 HD
ENDBRANCH   8   9
ENDBRANCH   7   8
ENDBRANCH   6   7
ENDBRANCH   5   6
ENDBRANCH   1   5
BRANCH   1  11
HETATM   11  C   UNK N   1      20.940  20.617   1.288  0.00  0.00     0.163 C 
HETATM   12  O   UNK N   1      21.068  20.605   0.067  0.00  0.00    -0.648 OA
BRANCH  11  13
HETATM   13  O   UNK N   1      20.981  21.791   1.942  0.00  0.00    -0.775 OA
HETATM   14  H   UNK N   1      21.803  22.157   2.202  0.00  0.00     0.167 HD
ENDBRANCH  11  13
ENDBRANCH   1  11
TORSDOF 8
ENDMDL
MODEL 8
REMARK VINA RESULT:      -4.0     16.107     16.758
REMARK  8 active torsions:
REMARK  status: ('A' for Active; 'I' for Inactive)
REMARK    1  A    between atoms: C_2  and  N_1 
REMARK    2  A    between atoms: C_2  and  C_3 
REMARK    3  A    between atoms: C_2  and  C_8 
REMARK    4  A    between atoms: C_3  and  C_4 
REMARK    5  A    between atoms: C_4  and  C_5 
REMARK    6  A    between atoms: C_5  and  C_6 
REMARK    7  A    between atoms: C_6  and  O_7 
REMARK    8  A    between atoms: C_8  and  O_9 
ROOT
HETATM    1  C   UNK N   1      25.489  24.571  -5.245  0.00  0.00     0.173 C 
ENDROOT
BRANCH   1   2
HETATM    2  N   UNK N   1      25.401  23.354  -6.042  0.00  0.00    -0.418 N 
HETATM    3  H   UNK N   1      25.948  23.176  -6.885  0.00  0.00     0.150 HD
HETATM    4  H   UNK N   1      24.749  22.632  -5.737  0.00  0.00     0.150 HD
ENDBRANCH   1   2
BRANCH   1   5
HETATM    5  C   UNK N   1      25.603  25.795  -6.151  0.00  0.00     0.035 C 
BRANCH   5   6
HETATM    6  C   UNK N   1      24.984  27.018  -5.489  0.00  0.00     0.004 C 
BRANCH   6   7
HETATM    7  C   UNK N   1      26.060  28.011  -5.105  0.00  0.00     0.026 C 
BRANCH   7   8
HETATM    8  C   UNK N   1      25.848  28.455  -3.671  0.00  0.00     0.164 C 
BRANCH   8   9
HETATM    9  O   UNK N   1      25.919  27.350  -2.824  0.00  0.00    -0.401 OA
HETATM   10  H   UNK N   1      26.587  26.663  -2.977  0.00  0.00     0.209 HD
ENDBRANCH   8   9
ENDBRANCH   7   8
ENDBRANCH   6   7
ENDBRANCH   5   6
ENDBRANCH   1   5
BRANCH   1  11
HETATM   11  C   UNK N   1      26.633  24.461  -4.272  0.00  0.00     0.163 C 
HETATM   12  O   UNK N   1      27.785  24.661  -4.645  0.00  0.00    -0.648 OA
BRANCH  11  13
HETATM   13  O   UNK N   1      26.394  24.228  -2.969  0.00  0.00    -0.775 OA
HETATM   14  H   UNK N   1      26.742  24.803  -2.317  0.00  0.00     0.167 HD
ENDBRANCH  11  13
ENDBRANCH   1  11
TORSDOF 8
ENDMDL
MODEL 9
REMARK VINA RESULT:      -3.9     10.016     11.908
REMARK  8 active torsions:
REMARK  status: ('A' for Active; 'I' for Inactive)
REMARK    1  A    between atoms: C_2  and  N_1 
REMARK    2  A    between atoms: C_2  and  C_3 
REMARK    3  A    between atoms: C_2  and  C_8 
REMARK    4  A    between atoms: C_3  and  C_4 
REMARK    5  A    between atoms: C_4  and  C_5 
REMARK    6  A    between atoms: C_5  and  C_6 
REMARK    7  A    between atoms: C_6  and  O_7 
REMARK    8  A    between atoms: C_8  and  O_9 
ROOT
HETATM    1  C   UNK N   1      21.573  14.195   9.149  0.00  0.00     0.173 C 
ENDROOT
BRANCH   1   2
HETATM    2  N   UNK N   1      22.116  14.272   7.799  0.00  0.00    -0.418 N 
HETATM    3  H   UNK N   1      22.946  13.770   7.482  0.00  0.00     0.150 HD
HETATM    4  H   UNK N   1      21.634  14.868   7.126  0.00  0.00     0.150 HD
ENDBRANCH   1   2
BRANCH   1   5
HETATM    5  C   UNK N   1      21.359  12.739   9.556  0.00  0.00     0.035 C 
BRANCH   5   6
HETATM    6  C   UNK N   1      22.032  12.445  10.889  0.00  0.00     0.004 C 
BRANCH   6   7
HETATM    7  C   UNK N   1      23.209  11.513  10.691  0.00  0.00     0.026 C 
BRANCH   7   8
HETATM    8  C   UNK N   1      24.462  12.329  10.444  0.00  0.00     0.164 C 
BRANCH   8   9
HETATM    9  O   UNK N   1      25.197  12.425  11.625  0.00  0.00    -0.401 OA
HETATM   10  H   UNK N   1      25.367  13.294  12.023  0.00  0.00     0.209 HD
ENDBRANCH   8   9
ENDBRANCH   7   8
ENDBRANCH   6   7
ENDBRANCH   5   6
ENDBRANCH   1   5
BRANCH   1  11
HETATM   11  C   UNK N   1      20.313  15.014   9.239  0.00  0.00     0.163 C 
HETATM   12  O   UNK N   1      20.295  16.170   8.827  0.00  0.00    -0.648 OA
BRANCH  11  13
HETATM   13  O   UNK N   1      19.175  14.459   9.691  0.00  0.00    -0.775 OA
HETATM   14  H   UNK N   1      18.589  14.035   9.095  0.00  0.00     0.167 HD
ENDBRANCH  11  13
ENDBRANCH   1  11
TORSDOF 8
ENDMDL
