MODEL 1
REMARK VINA RESULT:      -8.1      0.000      0.000
REMARK  4 active torsions:
REMARK  status: ('A' for Active; 'I' for Inactive)
REMARK    1  A    between atoms: C_29  and  C_22 
REMARK    2  A    between atoms: N_31  and  C_24 
REMARK    3  A    between atoms: N_32  and  C_25 
REMARK    4  A    between atoms: O_33  and  C_27 
ROOT
HETATM    1  C   UNK N   1      36.660  14.633  16.603  0.00  0.00     0.037 A 
HETATM    2  C   UNK N   1      36.899  14.216  15.298  0.00  0.00     0.013 A 
HETATM    3  C   UNK N   1      34.128  11.700  14.766  0.00  0.00     0.059 C 
HETATM    4  C   UNK N   1      34.875  10.798  13.795  0.00  0.00     0.129 C 
HETATM    5  C   UNK N   1      34.800  13.091  16.737  0.00  0.00     0.044 A 
HETATM    6  C   UNK N   1      35.036  12.679  15.419  0.00  0.00    -0.045 A 
HETATM    7  C   UNK N   1      35.615  14.067  17.327  0.00  0.00     0.066 A 
HETATM    8  C   UNK N   1      36.086  13.240  14.692  0.00  0.00    -0.024 A 
HETATM    9  C   UNK N   1      36.388  12.796  13.273  0.00  0.00     0.151 C 
HETATM   10  N   UNK N   1      35.760  11.508  12.880  0.00  0.00    -0.367 N 
ENDROOT
BRANCH   9  11
HETATM   11  C   UNK N   1      36.212  13.938  12.271  0.00  0.00    -0.031 C 
HETATM   12  C   UNK N   1      34.920  14.417  12.060  0.00  0.00     0.012 C 
HETATM   13  C   UNK N   1      34.488  14.747  10.794  0.00  0.00     0.030 C 
HETATM   14  C   UNK N   1      35.360  14.646   9.708  0.00  0.00     0.030 C 
HETATM   15  C   UNK N   1      36.708  14.376   9.928  0.00  0.00     0.030 C 
HETATM   16  C   UNK N   1      37.118  13.994  11.196  0.00  0.00     0.012 C 
BRANCH  14  17
HETATM   17  N   UNK N   1      34.838  14.661   8.399  0.00  0.00    -0.377 N 
HETATM   18  C   UNK N   1      35.256  13.720   7.394  0.00  0.00     0.153 C 
HETATM   19  C   UNK N   1      35.830  14.534   6.230  0.00  0.00     0.292 C 
HETATM   20  N   UNK N   1      34.928  15.626   5.806  0.00  0.00     0.096 N 
HETATM   21  C   UNK N   1      33.778  15.044   5.105  0.00  0.00     0.273 C 
HETATM   22  C   UNK N   1      34.505  16.485   6.943  0.00  0.00     0.240 C 
HETATM   23  C   UNK N   1      32.869  16.145   4.572  0.00  0.00     0.030 C 
HETATM   24  C   UNK N   1      32.360  16.990   5.731  0.00  0.00     0.004 C 
HETATM   25  C   UNK N   1      33.545  17.582   6.485  0.00  0.00     0.037 C 
HETATM   26  C   UNK N   1      33.869  15.654   8.028  0.00  0.00     0.159 C 
ENDBRANCH  14  17
ENDBRANCH   9  11
BRANCH  10  27
HETATM   27  C   UNK N   1      36.198  10.794  11.699  0.00  0.00     0.030 A 
HETATM   28  C   UNK N   1      37.465  10.180  11.627  0.00  0.00     0.029 A 
HETATM   29  C   UNK N   1      37.902   9.553  10.457  0.00  0.00     0.002 A 
HETATM   30  C   UNK N   1      37.068   9.507   9.341  0.00  0.00     0.000 A 
HETATM   31  C   UNK N   1      35.791  10.068   9.404  0.00  0.00     0.002 A 
HETATM   32  C   UNK N   1      35.356  10.705  10.573  0.00  0.00     0.029 A 
ENDBRANCH  10  27
BRANCH   7  33
HETATM   33  O   UNK N   1      35.386  14.464  18.588  0.00  0.00    -0.361 OA
HETATM   34  H   UNK N   1      34.678  15.048  18.774  0.00  0.00     0.217 HD
ENDBRANCH   7  33
TORSDOF 4
ENDMDL
MODEL 2
REMARK VINA RESULT:      -8.0      2.324      4.687
REMARK  4 active torsions:
REMARK  status: ('A' for Active; 'I' for Inactive)
REMARK    1  A    between atoms: C_29  and  C_22 
REMARK    2  A    between atoms: N_31  and  C_24 
REMARK    3  A    between atoms: N_32  and  C_25 
REMARK    4  A    between atoms: O_33  and  C_27 
ROOT
HETATM    1  C   UNK N   1      33.885   9.385  11.600  0.00  0.00     0.037 A 
HETATM    2  C   UNK N   1      34.137  10.631  12.163  0.00  0.00     0.013 A 
HETATM    3  C   UNK N   1      37.127   9.901  14.359  0.00  0.00     0.059 C 
HETATM    4  C   UNK N   1      36.831  10.937  15.433  0.00  0.00     0.129 C 
HETATM    5  C   UNK N   1      35.714   8.454  12.883  0.00  0.00     0.044 A 
HETATM    6  C   UNK N   1      35.972   9.712  13.442  0.00  0.00    -0.045 A 
HETATM    7  C   UNK N   1      34.668   8.293  11.963  0.00  0.00     0.066 A 
HETATM    8  C   UNK N   1      35.186  10.808  13.085  0.00  0.00    -0.024 A 
HETATM    9  C   UNK N   1      35.420  12.178  13.694  0.00  0.00     0.151 C 
HETATM   10  N   UNK N   1      36.250  12.174  14.926  0.00  0.00    -0.367 N 
ENDROOT
BRANCH   9  11
HETATM   11  C   UNK N   1      35.827  13.207  12.637  0.00  0.00    -0.031 C 
HETATM   12  C   UNK N   1      34.975  14.289  12.430  0.00  0.00     0.012 C 
HETATM   13  C   UNK N   1      34.723  14.756  11.159  0.00  0.00     0.030 C 
HETATM   14  C   UNK N   1      35.359  14.173  10.060  0.00  0.00     0.030 C 
HETATM   15  C   UNK N   1      36.370  13.237  10.264  0.00  0.00     0.030 C 
HETATM   16  C   UNK N   1      36.575  12.738  11.542  0.00  0.00     0.012 C 
BRANCH  14  17
HETATM   17  N   UNK N   1      34.863  14.419   8.764  0.00  0.00    -0.377 N 
HETATM   18  C   UNK N   1      35.209  13.593   7.639  0.00  0.00     0.153 C 
HETATM   19  C   UNK N   1      35.876  14.502   6.602  0.00  0.00     0.292 C 
HETATM   20  N   UNK N   1      35.086  15.723   6.333  0.00  0.00     0.096 N 
HETATM   21  C   UNK N   1      33.900  15.355   5.552  0.00  0.00     0.273 C 
HETATM   22  C   UNK N   1      34.726  16.451   7.576  0.00  0.00     0.240 C 
HETATM   23  C   UNK N   1      33.106  16.600   5.175  0.00  0.00     0.030 C 
HETATM   24  C   UNK N   1      32.658  17.320   6.439  0.00  0.00     0.004 C 
HETATM   25  C   UNK N   1      33.879  17.687   7.274  0.00  0.00     0.037 C 
HETATM   26  C   UNK N   1      33.997  15.541   8.533  0.00  0.00     0.159 C 
ENDBRANCH  14  17
ENDBRANCH   9  11
BRANCH  10  27
HETATM   27  C   UNK N   1      36.299  13.331  15.796  0.00  0.00     0.030 A 
HETATM   28  C   UNK N   1      37.157  14.421  15.540  0.00  0.00     0.029 A 
HETATM   29  C   UNK N   1      37.244  15.499  16.424  0.00  0.00     0.002 A 
HETATM   30  C   UNK N   1      36.454  15.519  17.573  0.00  0.00     0.000 A 
HETATM   31  C   UNK N   1      35.564  14.473  17.824  0.00  0.00     0.002 A 
HETATM   32  C   UNK N   1      35.483  13.388  16.943  0.00  0.00     0.029 A 
ENDBRANCH  10  27
BRANCH   7  33
HETATM   33  O   UNK N   1      34.423   7.090  11.424  0.00  0.00    -0.361 OA
HETATM   34  H   UNK N   1      34.442   6.980  10.494  0.00  0.00     0.217 HD
ENDBRANCH   7  33
TORSDOF 4
ENDMDL
MODEL 3
REMARK VINA RESULT:      -8.0      1.674      2.902
REMARK  4 active torsions:
REMARK  status: ('A' for Active; 'I' for Inactive)
REMARK    1  A    between atoms: C_29  and  C_22 
REMARK    2  A    between atoms: N_31  and  C_24 
REMARK    3  A    between atoms: N_32  and  C_25 
REMARK    4  A    between atoms: O_33  and  C_27 
ROOT
HETATM    1  C   UNK N   1      36.210  13.683  15.714  0.00  0.00     0.037 A 
HETATM    2  C   UNK N   1      36.400  14.129  14.411  0.00  0.00     0.013 A 
HETATM    3  C   UNK N   1      35.615  11.023  12.403  0.00  0.00     0.059 C 
HETATM    4  C   UNK N   1      36.553  11.308  11.240  0.00  0.00     0.129 C 
HETATM    5  C   UNK N   1      35.688  11.478  14.864  0.00  0.00     0.044 A 
HETATM    6  C   UNK N   1      35.871  11.932  13.552  0.00  0.00    -0.045 A 
HETATM    7  C   UNK N   1      35.860  12.355  15.943  0.00  0.00     0.066 A 
HETATM    8  C   UNK N   1      36.227  13.260  13.317  0.00  0.00    -0.024 A 
HETATM    9  C   UNK N   1      36.461  13.776  11.910  0.00  0.00     0.151 C 
HETATM   10  N   UNK N   1      36.657  12.718  10.886  0.00  0.00    -0.367 N 
ENDROOT
BRANCH   9  11
HETATM   11  C   UNK N   1      35.460  14.870  11.533  0.00  0.00    -0.031 C 
HETATM   12  C   UNK N   1      34.202  14.467  11.091  0.00  0.00     0.012 C 
HETATM   13  C   UNK N   1      33.582  15.112  10.043  0.00  0.00     0.030 C 
HETATM   14  C   UNK N   1      34.194  16.212   9.438  0.00  0.00     0.030 C 
HETATM   15  C   UNK N   1      35.344  16.758  10.001  0.00  0.00     0.030 C 
HETATM   16  C   UNK N   1      35.985  16.070  11.020  0.00  0.00     0.012 C 
BRANCH  14  17
HETATM   17  N   UNK N   1      33.732  16.656   8.182  0.00  0.00    -0.377 N 
HETATM   18  C   UNK N   1      32.822  17.760   8.044  0.00  0.00     0.153 C 
HETATM   19  C   UNK N   1      31.576  17.228   7.329  0.00  0.00     0.292 C 
HETATM   20  N   UNK N   1      31.909  16.464   6.108  0.00  0.00     0.096 N 
HETATM   21  C   UNK N   1      32.358  17.401   5.072  0.00  0.00     0.273 C 
HETATM   22  C   UNK N   1      32.914  15.400   6.362  0.00  0.00     0.240 C 
HETATM   23  C   UNK N   1      32.624  16.661   3.767  0.00  0.00     0.030 C 
HETATM   24  C   UNK N   1      33.710  15.617   3.987  0.00  0.00     0.004 C 
HETATM   25  C   UNK N   1      33.269  14.649   5.079  0.00  0.00     0.037 C 
HETATM   26  C   UNK N   1      34.157  15.981   6.988  0.00  0.00     0.159 C 
ENDBRANCH  14  17
ENDBRANCH   9  11
BRANCH  10  27
HETATM   27  C   UNK N   1      37.202  13.033   9.582  0.00  0.00     0.030 A 
HETATM   28  C   UNK N   1      38.560  13.371   9.404  0.00  0.00     0.029 A 
HETATM   29  C   UNK N   1      39.058  13.740   8.152  0.00  0.00     0.002 A 
HETATM   30  C   UNK N   1      38.210  13.753   7.045  0.00  0.00     0.000 A 
HETATM   31  C   UNK N   1      36.873  13.377   7.188  0.00  0.00     0.002 A 
HETATM   32  C   UNK N   1      36.371  13.017   8.446  0.00  0.00     0.029 A 
ENDBRANCH  10  27
BRANCH   7  33
HETATM   33  O   UNK N   1      35.681  11.922  17.201  0.00  0.00    -0.361 OA
HETATM   34  H   UNK N   1      36.151  12.323  17.905  0.00  0.00     0.217 HD
ENDBRANCH   7  33
TORSDOF 4
ENDMDL
MODEL 4
REMARK VINA RESULT:      -7.8      4.096     10.271
REMARK  4 active torsions:
REMARK  status: ('A' for Active; 'I' for Inactive)
REMARK    1  A    between atoms: C_29  and  C_22 
REMARK    2  A    between atoms: N_31  and  C_24 
REMARK    3  A    between atoms: N_32  and  C_25 
REMARK    4  A    between atoms: O_33  and  C_27 
ROOT
HETATM    1  C   UNK N   1      33.630  14.956   2.916  0.00  0.00     0.037 A 
HETATM    2  C   UNK N   1      33.058  15.942   3.712  0.00  0.00     0.013 A 
HETATM    3  C   UNK N   1      29.556  14.607   4.209  0.00  0.00     0.059 C 
HETATM    4  C   UNK N   1      28.855  15.952   4.328  0.00  0.00     0.129 C 
HETATM    5  C   UNK N   1      31.523  13.764   2.910  0.00  0.00     0.044 A 
HETATM    6  C   UNK N   1      30.952  14.754   3.720  0.00  0.00    -0.045 A 
HETATM    7  C   UNK N   1      32.862  13.869   2.508  0.00  0.00     0.066 A 
HETATM    8  C   UNK N   1      31.716  15.848   4.126  0.00  0.00    -0.024 A 
HETATM    9  C   UNK N   1      31.120  16.952   4.979  0.00  0.00     0.151 C 
HETATM   10  N   UNK N   1      29.635  16.973   5.016  0.00  0.00    -0.367 N 
ENDROOT
BRANCH   9  11
HETATM   11  C   UNK N   1      31.806  17.049   6.344  0.00  0.00    -0.031 C 
HETATM   12  C   UNK N   1      33.080  17.611   6.385  0.00  0.00     0.012 C 
HETATM   13  C   UNK N   1      34.061  17.077   7.192  0.00  0.00     0.030 C 
HETATM   14  C   UNK N   1      33.773  15.986   8.015  0.00  0.00     0.030 C 
HETATM   15  C   UNK N   1      32.458  15.547   8.145  0.00  0.00     0.030 C 
HETATM   16  C   UNK N   1      31.493  16.056   7.290  0.00  0.00     0.012 C 
BRANCH  14  17
HETATM   17  N   UNK N   1      34.833  15.245   8.576  0.00  0.00    -0.377 N 
HETATM   18  C   UNK N   1      35.739  14.470   7.771  0.00  0.00     0.153 C 
HETATM   19  C   UNK N   1      35.637  13.019   8.253  0.00  0.00     0.292 C 
HETATM   20  N   UNK N   1      35.761  12.902   9.721  0.00  0.00     0.096 N 
HETATM   21  C   UNK N   1      37.157  13.148  10.099  0.00  0.00     0.273 C 
HETATM   22  C   UNK N   1      34.827  13.805  10.442  0.00  0.00     0.240 C 
HETATM   23  C   UNK N   1      37.344  12.946  11.598  0.00  0.00     0.030 C 
HETATM   24  C   UNK N   1      36.453  13.918  12.357  0.00  0.00     0.004 C 
HETATM   25  C   UNK N   1      35.000  13.693  11.957  0.00  0.00     0.037 C 
HETATM   26  C   UNK N   1      35.020  15.233   9.999  0.00  0.00     0.159 C 
ENDBRANCH  14  17
ENDBRANCH   9  11
BRANCH  10  27
HETATM   27  C   UNK N   1      28.917  18.131   5.507  0.00  0.00     0.030 A 
HETATM   28  C   UNK N   1      28.633  18.306   6.878  0.00  0.00     0.029 A 
HETATM   29  C   UNK N   1      27.881  19.392   7.330  0.00  0.00     0.002 A 
HETATM   30  C   UNK N   1      27.416  20.341   6.421  0.00  0.00     0.000 A 
HETATM   31  C   UNK N   1      27.724  20.214   5.065  0.00  0.00     0.002 A 
HETATM   32  C   UNK N   1      28.470  19.120   4.609  0.00  0.00     0.029 A 
ENDBRANCH  10  27
BRANCH   7  33
HETATM   33  O   UNK N   1      33.412  12.919   1.736  0.00  0.00    -0.361 OA
HETATM   34  H   UNK N   1      34.158  12.442   2.040  0.00  0.00     0.217 HD
ENDBRANCH   7  33
TORSDOF 4
ENDMDL
MODEL 5
REMARK VINA RESULT:      -7.6      7.190     12.828
REMARK  4 active torsions:
REMARK  status: ('A' for Active; 'I' for Inactive)
REMARK    1  A    between atoms: C_29  and  C_22 
REMARK    2  A    between atoms: N_31  and  C_24 
REMARK    3  A    between atoms: N_32  and  C_25 
REMARK    4  A    between atoms: O_33  and  C_27 
ROOT
HETATM    1  C   UNK N   1      24.072  14.122   0.681  0.00  0.00     0.037 A 
HETATM    2  C   UNK N   1      25.060  14.907   1.264  0.00  0.00     0.013 A 
HETATM    3  C   UNK N   1      23.660  15.473   4.730  0.00  0.00     0.059 C 
HETATM    4  C   UNK N   1      24.276  16.845   4.962  0.00  0.00     0.129 C 
HETATM    5  C   UNK N   1      22.779  14.265   2.722  0.00  0.00     0.044 A 
HETATM    6  C   UNK N   1      23.780  15.048   3.310  0.00  0.00    -0.045 A 
HETATM    7  C   UNK N   1      22.927  13.805   1.406  0.00  0.00     0.066 A 
HETATM    8  C   UNK N   1      24.927  15.373   2.586  0.00  0.00    -0.024 A 
HETATM    9  C   UNK N   1      26.017  16.243   3.184  0.00  0.00     0.151 C 
HETATM   10  N   UNK N   1      25.608  17.006   4.391  0.00  0.00    -0.367 N 
ENDROOT
BRANCH   9  11
HETATM   11  C   UNK N   1      27.342  15.488   3.308  0.00  0.00    -0.031 C 
HETATM   12  C   UNK N   1      27.538  14.717   4.451  0.00  0.00     0.012 C 
HETATM   13  C   UNK N   1      28.763  14.690   5.082  0.00  0.00     0.030 C 
HETATM   14  C   UNK N   1      29.839  15.405   4.552  0.00  0.00     0.030 C 
HETATM   15  C   UNK N   1      29.720  16.006   3.302  0.00  0.00     0.030 C 
HETATM   16  C   UNK N   1      28.470  16.072   2.705  0.00  0.00     0.012 C 
BRANCH  14  17
HETATM   17  N   UNK N   1      30.972  15.645   5.356  0.00  0.00    -0.377 N 
HETATM   18  C   UNK N   1      32.062  14.710   5.446  0.00  0.00     0.153 C 
HETATM   19  C   UNK N   1      32.192  14.313   6.920  0.00  0.00     0.292 C 
HETATM   20  N   UNK N   1      32.226  15.486   7.819  0.00  0.00     0.096 N 
HETATM   21  C   UNK N   1      33.521  16.158   7.671  0.00  0.00     0.273 C 
HETATM   22  C   UNK N   1      31.091  16.416   7.581  0.00  0.00     0.240 C 
HETATM   23  C   UNK N   1      33.630  17.322   8.650  0.00  0.00     0.030 C 
HETATM   24  C   UNK N   1      32.522  18.326   8.370  0.00  0.00     0.004 C 
HETATM   25  C   UNK N   1      31.168  17.637   8.496  0.00  0.00     0.037 C 
HETATM   26  C   UNK N   1      31.051  16.847   6.137  0.00  0.00     0.159 C 
ENDBRANCH  14  17
ENDBRANCH   9  11
BRANCH  10  27
HETATM   27  C   UNK N   1      26.408  18.107   4.885  0.00  0.00     0.030 A 
HETATM   28  C   UNK N   1      26.481  19.339   4.202  0.00  0.00     0.029 A 
HETATM   29  C   UNK N   1      27.310  20.370   4.652  0.00  0.00     0.002 A 
HETATM   30  C   UNK N   1      28.067  20.196   5.810  0.00  0.00     0.000 A 
HETATM   31  C   UNK N   1      27.976  19.001   6.528  0.00  0.00     0.002 A 
HETATM   32  C   UNK N   1      27.152  17.965   6.072  0.00  0.00     0.029 A 
ENDBRANCH  10  27
BRANCH   7  33
HETATM   33  O   UNK N   1      21.971  13.051   0.843  0.00  0.00    -0.361 OA
HETATM   34  H   UNK N   1      21.627  13.282   0.002  0.00  0.00     0.217 HD
ENDBRANCH   7  33
TORSDOF 4
ENDMDL
MODEL 6
REMARK VINA RESULT:      -7.6     11.305     13.646
REMARK  4 active torsions:
REMARK  status: ('A' for Active; 'I' for Inactive)
REMARK    1  A    between atoms: C_29  and  C_22 
REMARK    2  A    between atoms: N_31  and  C_24 
REMARK    3  A    between atoms: N_32  and  C_25 
REMARK    4  A    between atoms: O_33  and  C_27 
ROOT
HETATM    1  C   UNK N   1      22.948  11.210  10.117  0.00  0.00     0.037 A 
HETATM    2  C   UNK N   1      23.051  11.612   8.790  0.00  0.00     0.013 A 
HETATM    3  C   UNK N   1      20.992  14.782   8.776  0.00  0.00     0.059 C 
HETATM    4  C   UNK N   1      20.508  14.688   7.337  0.00  0.00     0.129 C 
HETATM    5  C   UNK N   1      21.515  13.108  10.563  0.00  0.00     0.044 A 
HETATM    6  C   UNK N   1      21.628  13.517   9.228  0.00  0.00    -0.045 A 
HETATM    7  C   UNK N   1      22.175  11.953  11.004  0.00  0.00     0.066 A 
HETATM    8  C   UNK N   1      22.397  12.773   8.334  0.00  0.00    -0.024 A 
HETATM    9  C   UNK N   1      22.517  13.171   6.875  0.00  0.00     0.151 C 
HETATM   10  N   UNK N   1      21.490  14.139   6.411  0.00  0.00    -0.367 N 
ENDROOT
BRANCH   9  11
HETATM   11  C   UNK N   1      23.958  13.521   6.499  0.00  0.00    -0.031 C 
HETATM   12  C   UNK N   1      24.649  14.394   7.337  0.00  0.00     0.012 C 
HETATM   13  C   UNK N   1      25.471  15.370   6.817  0.00  0.00     0.030 C 
HETATM   14  C   UNK N   1      25.656  15.467   5.436  0.00  0.00     0.030 C 
HETATM   15  C   UNK N   1      25.146  14.476   4.600  0.00  0.00     0.030 C 
HETATM   16  C   UNK N   1      24.278  13.533   5.129  0.00  0.00     0.012 C 
BRANCH  14  17
HETATM   17  N   UNK N   1      26.214  16.642   4.894  0.00  0.00    -0.377 N 
HETATM   18  C   UNK N   1      27.567  17.046   5.167  0.00  0.00     0.153 C 
HETATM   19  C   UNK N   1      27.499  18.432   5.818  0.00  0.00     0.292 C 
HETATM   20  N   UNK N   1      26.648  19.371   5.056  0.00  0.00     0.096 N 
HETATM   21  C   UNK N   1      27.351  19.755   3.827  0.00  0.00     0.273 C 
HETATM   22  C   UNK N   1      25.301  18.812   4.771  0.00  0.00     0.240 C 
HETATM   23  C   UNK N   1      26.545  20.794   3.058  0.00  0.00     0.030 C 
HETATM   24  C   UNK N   1      25.189  20.213   2.686  0.00  0.00     0.004 C 
HETATM   25  C   UNK N   1      24.455  19.786   3.952  0.00  0.00     0.037 C 
HETATM   26  C   UNK N   1      25.416  17.490   4.055  0.00  0.00     0.159 C 
ENDBRANCH  14  17
ENDBRANCH   9  11
BRANCH  10  27
HETATM   27  C   UNK N   1      21.267  14.370   4.999  0.00  0.00     0.030 A 
HETATM   28  C   UNK N   1      21.533  15.617   4.396  0.00  0.00     0.029 A 
HETATM   29  C   UNK N   1      21.249  15.847   3.048  0.00  0.00     0.002 A 
HETATM   30  C   UNK N   1      20.713  14.824   2.268  0.00  0.00     0.000 A 
HETATM   31  C   UNK N   1      20.483  13.567   2.831  0.00  0.00     0.002 A 
HETATM   32  C   UNK N   1      20.760  13.339   4.185  0.00  0.00     0.029 A 
ENDBRANCH  10  27
BRANCH   7  33
HETATM   33  O   UNK N   1      22.070  11.563  12.283  0.00  0.00    -0.361 OA
HETATM   34  H   UNK N   1      21.502  10.854  12.511  0.00  0.00     0.217 HD
ENDBRANCH   7  33
TORSDOF 4
ENDMDL
MODEL 7
REMARK VINA RESULT:      -7.6      7.224     11.463
REMARK  4 active torsions:
REMARK  status: ('A' for Active; 'I' for Inactive)
REMARK    1  A    between atoms: C_29  and  C_22 
REMARK    2  A    between atoms: N_31  and  C_24 
REMARK    3  A    between atoms: N_32  and  C_25 
REMARK    4  A    between atoms: O_33  and  C_27 
ROOT
HETATM    1  C   UNK N   1      27.184  20.327   5.113  0.00  0.00     0.037 A 
HETATM    2  C   UNK N   1      28.097  19.304   4.884  0.00  0.00     0.013 A 
HETATM    3  C   UNK N   1      28.969  18.235   8.404  0.00  0.00     0.059 C 
HETATM    4  C   UNK N   1      30.396  17.792   8.119  0.00  0.00     0.129 C 
HETATM    5  C   UNK N   1      27.477  20.029   7.497  0.00  0.00     0.044 A 
HETATM    6  C   UNK N   1      28.389  18.993   7.264  0.00  0.00    -0.045 A 
HETATM    7  C   UNK N   1      26.877  20.696   6.420  0.00  0.00     0.066 A 
HETATM    8  C   UNK N   1      28.704  18.623   5.956  0.00  0.00    -0.024 A 
HETATM    9  C   UNK N   1      29.710  17.524   5.668  0.00  0.00     0.151 C 
HETATM   10  N   UNK N   1      30.579  17.163   6.818  0.00  0.00    -0.367 N 
ENDROOT
BRANCH   9  11
HETATM   11  C   UNK N   1      29.066  16.342   4.942  0.00  0.00    -0.031 C 
HETATM   12  C   UNK N   1      28.988  16.405   3.552  0.00  0.00     0.012 C 
HETATM   13  C   UNK N   1      27.861  15.970   2.888  0.00  0.00     0.030 C 
HETATM   14  C   UNK N   1      26.797  15.417   3.604  0.00  0.00     0.030 C 
HETATM   15  C   UNK N   1      26.943  15.151   4.963  0.00  0.00     0.030 C 
HETATM   16  C   UNK N   1      28.057  15.641   5.627  0.00  0.00     0.012 C 
BRANCH  14  17
HETATM   17  N   UNK N   1      25.540  15.283   2.979  0.00  0.00    -0.377 N 
HETATM   18  C   UNK N   1      24.369  15.970   3.454  0.00  0.00     0.153 C 
HETATM   19  C   UNK N   1      23.329  14.898   3.797  0.00  0.00     0.292 C 
HETATM   20  N   UNK N   1      23.147  13.919   2.704  0.00  0.00     0.096 N 
HETATM   21  C   UNK N   1      22.423  14.567   1.605  0.00  0.00     0.273 C 
HETATM   22  C   UNK N   1      24.434  13.333   2.248  0.00  0.00     0.240 C 
HETATM   23  C   UNK N   1      22.135  13.563   0.495  0.00  0.00     0.030 C 
HETATM   24  C   UNK N   1      23.447  13.008  -0.041  0.00  0.00     0.004 C 
HETATM   25  C   UNK N   1      24.223  12.353   1.095  0.00  0.00     0.037 C 
HETATM   26  C   UNK N   1      25.397  14.419   1.841  0.00  0.00     0.159 C 
ENDBRANCH  14  17
ENDBRANCH   9  11
BRANCH  10  27
HETATM   27  C   UNK N   1      31.782  16.380   6.626  0.00  0.00     0.030 A 
HETATM   28  C   UNK N   1      31.971  15.136   7.263  0.00  0.00     0.029 A 
HETATM   29  C   UNK N   1      33.165  14.424   7.124  0.00  0.00     0.002 A 
HETATM   30  C   UNK N   1      34.186  14.931   6.323  0.00  0.00     0.000 A 
HETATM   31  C   UNK N   1      34.004  16.139   5.646  0.00  0.00     0.002 A 
HETATM   32  C   UNK N   1      32.811  16.858   5.792  0.00  0.00     0.029 A 
ENDBRANCH  10  27
BRANCH   7  33
HETATM   33  O   UNK N   1      26.000  21.687   6.643  0.00  0.00    -0.361 OA
HETATM   34  H   UNK N   1      25.696  22.212   5.929  0.00  0.00     0.217 HD
ENDBRANCH   7  33
TORSDOF 4
ENDMDL
MODEL 8
REMARK VINA RESULT:      -7.6      9.629     14.488
REMARK  4 active torsions:
REMARK  status: ('A' for Active; 'I' for Inactive)
REMARK    1  A    between atoms: C_29  and  C_22 
REMARK    2  A    between atoms: N_31  and  C_24 
REMARK    3  A    between atoms: N_32  and  C_25 
REMARK    4  A    between atoms: O_33  and  C_27 
ROOT
HETATM    1  C   UNK N   1      20.027  17.667   1.756  0.00  0.00     0.037 A 
HETATM    2  C   UNK N   1      20.970  17.474   2.759  0.00  0.00     0.013 A 
HETATM    3  C   UNK N   1      22.111  13.934   2.083  0.00  0.00     0.059 C 
HETATM    4  C   UNK N   1      22.435  13.561   3.522  0.00  0.00     0.129 C 
HETATM    5  C   UNK N   1      20.396  15.399   0.996  0.00  0.00     0.044 A 
HETATM    6  C   UNK N   1      21.353  15.210   2.002  0.00  0.00    -0.045 A 
HETATM    7  C   UNK N   1      19.734  16.629   0.877  0.00  0.00     0.066 A 
HETATM    8  C   UNK N   1      21.646  16.246   2.888  0.00  0.00    -0.024 A 
HETATM    9  C   UNK N   1      22.656  16.065   4.006  0.00  0.00     0.151 C 
HETATM   10  N   UNK N   1      22.997  14.651   4.310  0.00  0.00    -0.367 N 
ENDROOT
BRANCH   9  11
HETATM   11  C   UNK N   1      23.853  17.004   3.848  0.00  0.00    -0.031 C 
HETATM   12  C   UNK N   1      24.974  16.512   3.183  0.00  0.00     0.012 C 
HETATM   13  C   UNK N   1      26.244  16.801   3.632  0.00  0.00     0.030 C 
HETATM   14  C   UNK N   1      26.423  17.633   4.740  0.00  0.00     0.030 C 
HETATM   15  C   UNK N   1      25.329  18.302   5.284  0.00  0.00     0.030 C 
HETATM   16  C   UNK N   1      24.054  17.961   4.859  0.00  0.00     0.012 C 
BRANCH  14  17
HETATM   17  N   UNK N   1      27.674  17.660   5.389  0.00  0.00    -0.377 N 
HETATM   18  C   UNK N   1      28.850  17.063   4.817  0.00  0.00     0.153 C 
HETATM   19  C   UNK N   1      29.345  16.007   5.811  0.00  0.00     0.292 C 
HETATM   20  N   UNK N   1      29.452  16.536   7.188  0.00  0.00     0.096 N 
HETATM   21  C   UNK N   1      30.603  17.443   7.258  0.00  0.00     0.273 C 
HETATM   22  C   UNK N   1      28.199  17.196   7.640  0.00  0.00     0.240 C 
HETATM   23  C   UNK N   1      30.801  17.938   8.686  0.00  0.00     0.030 C 
HETATM   24  C   UNK N   1      29.557  18.687   9.141  0.00  0.00     0.004 C 
HETATM   25  C   UNK N   1      28.347  17.765   9.050  0.00  0.00     0.037 C 
HETATM   26  C   UNK N   1      27.795  18.283   6.677  0.00  0.00     0.159 C 
ENDBRANCH  14  17
ENDBRANCH   9  11
BRANCH  10  27
HETATM   27  C   UNK N   1      23.681  14.295   5.535  0.00  0.00     0.030 A 
HETATM   28  C   UNK N   1      25.017  13.843   5.539  0.00  0.00     0.029 A 
HETATM   29  C   UNK N   1      25.642  13.437   6.721  0.00  0.00     0.002 A 
HETATM   30  C   UNK N   1      24.949  13.499   7.929  0.00  0.00     0.000 A 
HETATM   31  C   UNK N   1      23.641  13.987   7.957  0.00  0.00     0.002 A 
HETATM   32  C   UNK N   1      23.010  14.385   6.771  0.00  0.00     0.029 A 
ENDBRANCH  10  27
BRANCH   7  33
HETATM   33  O   UNK N   1      18.820  16.813  -0.088  0.00  0.00    -0.361 OA
HETATM   34  H   UNK N   1      19.065  16.725  -0.988  0.00  0.00     0.217 HD
ENDBRANCH   7  33
TORSDOF 4
ENDMDL
MODEL 9
REMARK VINA RESULT:      -7.6      3.587      6.718
REMARK  4 active torsions:
REMARK  status: ('A' for Active; 'I' for Inactive)
REMARK    1  A    between atoms: C_29  and  C_22 
REMARK    2  A    between atoms: N_31  and  C_24 
REMARK    3  A    between atoms: N_32  and  C_25 
REMARK    4  A    between atoms: O_33  and  C_27 
ROOT
HETATM    1  C   UNK N   1      35.937  16.100  11.188  0.00  0.00     0.037 A 
HETATM    2  C   UNK N   1      35.391  16.219   9.915  0.00  0.00     0.013 A 
HETATM    3  C   UNK N   1      33.781  12.832   9.440  0.00  0.00     0.059 C 
HETATM    4  C   UNK N   1      33.948  12.753   7.930  0.00  0.00     0.129 C 
HETATM    5  C   UNK N   1      35.129  13.822  11.302  0.00  0.00     0.044 A 
HETATM    6  C   UNK N   1      34.571  13.947  10.024  0.00  0.00    -0.045 A 
HETATM    7  C   UNK N   1      35.813  14.900  11.881  0.00  0.00     0.066 A 
HETATM    8  C   UNK N   1      34.698  15.147   9.323  0.00  0.00    -0.024 A 
HETATM    9  C   UNK N   1      34.130  15.306   7.925  0.00  0.00     0.151 C 
HETATM   10  N   UNK N   1      33.794  14.029   7.243  0.00  0.00    -0.367 N 
ENDROOT
BRANCH   9  11
HETATM   11  C   UNK N   1      33.040  16.379   7.874  0.00  0.00    -0.031 C 
HETATM   12  C   UNK N   1      31.855  16.125   8.560  0.00  0.00     0.012 C 
HETATM   13  C   UNK N   1      30.636  16.466   8.014  0.00  0.00     0.030 C 
HETATM   14  C   UNK N   1      30.580  17.113   6.778  0.00  0.00     0.030 C 
HETATM   15  C   UNK N   1      31.754  17.563   6.180  0.00  0.00     0.030 C 
HETATM   16  C   UNK N   1      32.972  17.168   6.711  0.00  0.00     0.012 C 
BRANCH  14  17
HETATM   17  N   UNK N   1      29.357  17.161   6.079  0.00  0.00    -0.377 N 
HETATM   18  C   UNK N   1      28.916  16.090   5.227  0.00  0.00     0.153 C 
HETATM   19  C   UNK N   1      28.730  16.678   3.825  0.00  0.00     0.292 C 
HETATM   20  N   UNK N   1      27.921  17.915   3.836  0.00  0.00     0.096 N 
HETATM   21  C   UNK N   1      26.521  17.563   4.099  0.00  0.00     0.273 C 
HETATM   22  C   UNK N   1      28.430  18.918   4.807  0.00  0.00     0.240 C 
HETATM   23  C   UNK N   1      25.639  18.803   4.028  0.00  0.00     0.030 C 
HETATM   24  C   UNK N   1      26.096  19.813   5.071  0.00  0.00     0.004 C 
HETATM   25  C   UNK N   1      27.557  20.171   4.826  0.00  0.00     0.037 C 
HETATM   26  C   UNK N   1      28.518  18.321   6.189  0.00  0.00     0.159 C 
ENDBRANCH  14  17
ENDBRANCH   9  11
BRANCH  10  27
HETATM   27  C   UNK N   1      33.553  13.987   5.816  0.00  0.00     0.030 A 
HETATM   28  C   UNK N   1      34.593  14.156   4.879  0.00  0.00     0.029 A 
HETATM   29  C   UNK N   1      34.336  14.181   3.506  0.00  0.00     0.002 A 
HETATM   30  C   UNK N   1      33.033  14.012   3.041  0.00  0.00     0.000 A 
HETATM   31  C   UNK N   1      31.993  13.797   3.948  0.00  0.00     0.002 A 
HETATM   32  C   UNK N   1      32.249  13.781   5.325  0.00  0.00     0.029 A 
ENDBRANCH  10  27
BRANCH   7  33
HETATM   33  O   UNK N   1      36.345  14.782  13.108  0.00  0.00    -0.361 OA
HETATM   34  H   UNK N   1      36.551  13.935  13.449  0.00  0.00     0.217 HD
ENDBRANCH   7  33
TORSDOF 4
ENDMDL
