REMARK  15 active torsions:
REMARK  status: ('A' for Active; 'I' for Inactive)
REMARK    1  A    between atoms: C_4  and  C_1 
REMARK    2  A    between atoms: O_30  and  C_1 
REMARK    3  A    between atoms: P_33  and  C_3 
REMARK    4  A    between atoms: P_34  and  C_3 
REMARK    5  A    between atoms: C_6  and  O_20 
REMARK    6  A    between atoms: C_7  and  O_21 
REMARK    7  A    between atoms: O_22  and  C_9 
REMARK    8  A    between atoms: C_10  and  N_19 
REMARK       I    between atoms: N_12  and  C_11 
REMARK    9  A    between atoms: P_33  and  O_23 
REMARK   10  A    between atoms: P_33  and  O_24 
REMARK   11  A    between atoms: P_34  and  O_26 
REMARK   12  A    between atoms: P_35  and  O_28 
REMARK   13  A    between atoms: P_35  and  O_30 
REMARK   14  A    between atoms: P_34  and  O_32 
REMARK   15  A    between atoms: P_35  and  O_32 
ROOT
HETATM    1  C   UNK N   1      -0.664  -4.388   0.575  0.00  0.00     0.180 C 
HETATM    2  C   UNK N   1       0.725  -4.764   0.053  0.00  0.00     0.182 C 
HETATM    3  C   UNK N   1       1.355  -3.399  -0.209  0.00  0.00     0.198 C 
HETATM    4  C   UNK N   1       0.280  -2.461   0.327  0.00  0.00     0.262 C 
HETATM    5  O   UNK N   1      -0.941  -3.104   0.033  0.00  0.00    -0.353 OA
ENDROOT
BRANCH   1   6
HETATM    6  C   UNK N   1      -1.665  -5.485   0.274  0.00  0.00     0.215 C 
BRANCH   6   7
HETATM    7  O   UNK N   1      -2.966  -5.007   0.294  0.00  0.00    -0.294 OA
BRANCH   7   8
HETATM    8  P   UNK N   1      -3.433  -5.196  -1.363  0.00  0.00     0.400 P 
HETATM    9  O   UNK N   1      -4.295  -6.262  -0.638  0.00  0.00    -0.631 OA
BRANCH   8  10
HETATM   10  O   UNK N   1      -3.344  -3.502  -1.003  0.00  0.00    -0.307 OA
HETATM   11  H   UNK N   1      -2.499  -3.071  -0.801  0.00  0.00     0.222 HD
ENDBRANCH   8  10
BRANCH   8  12
HETATM   12  O   UNK N   1      -5.034  -4.506  -1.644  0.00  0.00    -0.218 OA
BRANCH  12  13
HETATM   13  P   UNK N   1      -6.036  -3.993  -0.256  0.00  0.00     0.258 P 
HETATM   14  O   UNK N   1      -5.821  -5.139   0.757  0.00  0.00    -0.653 OA
BRANCH  13  15
HETATM   15  C   UNK N   1      -7.627  -4.825  -0.666  0.00  0.00     0.250 C 
BRANCH  15  16
HETATM   16  P   UNK N   1      -9.108  -3.778  -0.522  0.00  0.00     0.247 P 
HETATM   17  O   UNK N   1     -10.224  -4.489  -1.331  0.00  0.00    -0.653 OA
BRANCH  16  18
HETATM   18  O   UNK N   1      -9.751  -3.681   1.083  0.00  0.00    -0.329 OA
HETATM   19  H   UNK N   1      -9.884  -3.342   1.982  0.00  0.00     0.220 HD
ENDBRANCH  16  18
BRANCH  16  20
HETATM   20  O   UNK N   1      -9.015  -2.193  -1.216  0.00  0.00    -0.329 OA
HETATM   21  H   UNK N   1      -8.221  -1.794  -1.605  0.00  0.00     0.220 HD
ENDBRANCH  16  20
ENDBRANCH  15  16
ENDBRANCH  13  15
BRANCH  13  22
HETATM   22  O   UNK N   1      -5.155  -2.902   0.785  0.00  0.00    -0.328 OA
HETATM   23  H   UNK N   1      -4.386  -3.023   1.363  0.00  0.00     0.220 HD
ENDBRANCH  13  22
ENDBRANCH  12  13
ENDBRANCH   8  12
ENDBRANCH   7   8
ENDBRANCH   6   7
ENDBRANCH   1   6
BRANCH   2  24
HETATM   24  O   UNK N   1       0.633  -5.484  -1.148  0.00  0.00    -0.390 OA
HETATM   25  H   UNK N   1       0.170  -5.678  -1.979  0.00  0.00     0.210 HD
ENDBRANCH   2  24
BRANCH   3  26
HETATM   26  O   UNK N   1       1.512  -3.183  -1.585  0.00  0.00    -0.388 OA
HETATM   27  H   UNK N   1       1.695  -3.202  -2.537  0.00  0.00     0.210 HD
ENDBRANCH   3  26
BRANCH   4  28
HETATM   28  N   UNK N   1       0.384  -1.066  -0.107  0.00  0.00    -0.297 N 
HETATM   29  C   UNK N   1      -0.601  -0.124  -0.118  0.00  0.00     0.188 A 
HETATM   30  N   UNK N   1      -0.082   1.138  -0.163  0.00  0.00    -0.346 N 
HETATM   31  C   UNK N   1       1.254   0.949  -0.129  0.00  0.00     0.130 A 
ATOM     32  HN  UNK N   1      -0.588   2.022  -0.213  1.00  0.00     0.167 HD
HETATM   33  C   UNK N   1       1.519  -0.364  -0.111  0.00  0.00     0.157 A 
HETATM   34  C   UNK N   1       2.289   1.866  -0.021  0.00  0.00     0.186 A 
HETATM   35  N   UNK N   1       2.782  -0.851  -0.011  0.00  0.00    -0.174 N 
HETATM   36  C   UNK N   1       3.814   0.034   0.048  0.00  0.00     0.679 A 
HETATM   37  H   UNK N   1       2.948  -1.821   0.018  0.00  0.00     0.186 HD
HETATM   38  N   UNK N   1       5.016  -0.402   0.119  0.00  0.00    -0.234 N 
HETATM   39  N   UNK N   1       3.570   1.383   0.058  0.00  0.00    -0.168 N 
HETATM   40  H   UNK N   1       5.188  -1.370   0.173  0.00  0.00     0.174 HD
ATOM     41  HN  UNK N   1       5.796   0.255   0.119  1.00  0.00     0.174 HD
ATOM     42  HN  UNK N   1       4.352   2.036   0.124  1.00  0.00     0.186 HD
BRANCH  34  43
HETATM   43  O   UNK N   1       2.054   3.185   0.053  0.00  0.00    -0.344 OA
HETATM   44  H   UNK N   1       2.770   3.788   0.105  0.00  0.00     0.219 HD
ENDBRANCH  34  43
ENDBRANCH   4  28
TORSDOF 15
