MODEL 1
REMARK VINA RESULT:      -4.0      0.000      0.000
REMARK  3 active torsions:
REMARK  status: ('A' for Active; 'I' for Inactive)
REMARK    1  A    between atoms: C_3  and  N_4 
REMARK    2  A    between atoms: C_3  and  C_5 
REMARK    3  A    between atoms: C_5  and  O_6 
ROOT
HETATM    1  C   UNK N   1      33.467  14.882   9.530  0.00  0.00     0.038 C 
HETATM    2  C   UNK N   1      33.772  16.042   8.637  0.00  0.00     0.005 C 
HETATM    3  C   UNK N   1      34.446  17.110   9.081  0.00  0.00     0.096 C 
ENDROOT
BRANCH   3   4
HETATM    4  N   UNK N   1      34.889  17.164  10.424  0.00  0.00    -0.394 N 
HETATM    5  H   UNK N   1      34.536  16.526  11.086  0.00  0.00     0.156 HD
HETATM    6  H   UNK N   1      35.551  17.839  10.698  0.00  0.00     0.156 HD
ENDBRANCH   3   4
BRANCH   3   7
HETATM    7  C   UNK N   1      34.733  18.241   8.177  0.00  0.00     0.192 C 
HETATM    8  O   UNK N   1      34.382  18.185   7.008  0.00  0.00    -0.645 OA
BRANCH   7   9
HETATM    9  O   UNK N   1      35.377  19.335   8.625  0.00  0.00    -0.772 OA
HETATM   10  H   UNK N   1      35.069  20.189   8.391  0.00  0.00     0.167 HD
ENDBRANCH   7   9
ENDBRANCH   3   7
TORSDOF 3
ENDMDL
MODEL 2
REMARK VINA RESULT:      -4.0     12.520     13.153
REMARK  3 active torsions:
REMARK  status: ('A' for Active; 'I' for Inactive)
REMARK    1  A    between atoms: C_3  and  N_4 
REMARK    2  A    between atoms: C_3  and  C_5 
REMARK    3  A    between atoms: C_5  and  O_6 
ROOT
HETATM    1  C   UNK N   1      21.458  13.132   9.307  0.00  0.00     0.038 C 
HETATM    2  C   UNK N   1      22.637  12.957  10.211  0.00  0.00     0.005 C 
HETATM    3  C   UNK N   1      22.537  12.301  11.373  0.00  0.00     0.096 C 
ENDROOT
BRANCH   3   4
HETATM    4  N   UNK N   1      21.297  11.751  11.776  0.00  0.00    -0.394 N 
HETATM    5  H   UNK N   1      20.535  11.744  11.153  0.00  0.00     0.156 HD
HETATM    6  H   UNK N   1      21.195  11.375  12.681  0.00  0.00     0.156 HD
ENDBRANCH   3   4
BRANCH   3   7
HETATM    7  C   UNK N   1      23.717  12.144  12.245  0.00  0.00     0.192 C 
HETATM    8  O   UNK N   1      23.566  12.005  13.450  0.00  0.00    -0.645 OA
BRANCH   7   9
HETATM    9  O   UNK N   1      24.961  12.151  11.730  0.00  0.00    -0.772 OA
HETATM   10  H   UNK N   1      25.685  12.426  12.257  0.00  0.00     0.167 HD
ENDBRANCH   7   9
ENDBRANCH   3   7
TORSDOF 3
ENDMDL
MODEL 3
REMARK VINA RESULT:      -3.9     11.975     12.780
REMARK  3 active torsions:
REMARK  status: ('A' for Active; 'I' for Inactive)
REMARK    1  A    between atoms: C_3  and  N_4 
REMARK    2  A    between atoms: C_3  and  C_5 
REMARK    3  A    between atoms: C_5  and  O_6 
ROOT
HETATM    1  C   UNK N   1      20.444  12.244  11.362  0.00  0.00     0.038 C 
HETATM    2  C   UNK N   1      21.804  12.358  10.750  0.00  0.00     0.005 C 
HETATM    3  C   UNK N   1      22.910  12.055  11.441  0.00  0.00     0.096 C 
ENDROOT
BRANCH   3   4
HETATM    4  N   UNK N   1      22.814  11.614  12.782  0.00  0.00    -0.394 N 
HETATM    5  H   UNK N   1      22.651  10.663  12.978  0.00  0.00     0.156 HD
HETATM    6  H   UNK N   1      22.909  12.259  13.520  0.00  0.00     0.156 HD
ENDBRANCH   3   4
BRANCH   3   7
HETATM    7  C   UNK N   1      24.239  12.177  10.811  0.00  0.00     0.192 C 
HETATM    8  O   UNK N   1      24.379  11.890   9.631  0.00  0.00    -0.645 OA
BRANCH   7   9
HETATM    9  O   UNK N   1      25.302  12.601  11.521  0.00  0.00    -0.772 OA
HETATM   10  H   UNK N   1      25.747  13.388  11.273  0.00  0.00     0.167 HD
ENDBRANCH   7   9
ENDBRANCH   3   7
TORSDOF 3
ENDMDL
MODEL 4
REMARK VINA RESULT:      -3.9      1.845      1.953
REMARK  3 active torsions:
REMARK  status: ('A' for Active; 'I' for Inactive)
REMARK    1  A    between atoms: C_3  and  N_4 
REMARK    2  A    between atoms: C_3  and  C_5 
REMARK    3  A    between atoms: C_5  and  O_6 
ROOT
HETATM    1  C   UNK N   1      30.747  17.274   8.853  0.00  0.00     0.038 C 
HETATM    2  C   UNK N   1      31.919  17.902   8.170  0.00  0.00     0.005 C 
HETATM    3  C   UNK N   1      33.177  17.598   8.514  0.00  0.00     0.096 C 
ENDROOT
BRANCH   3   4
HETATM    4  N   UNK N   1      33.426  16.664   9.547  0.00  0.00    -0.394 N 
HETATM    5  H   UNK N   1      34.175  16.030   9.469  0.00  0.00     0.156 HD
HETATM    6  H   UNK N   1      32.849  16.646  10.346  0.00  0.00     0.156 HD
ENDBRANCH   3   4
BRANCH   3   7
HETATM    7  C   UNK N   1      34.314  18.234   7.822  0.00  0.00     0.192 C 
HETATM    8  O   UNK N   1      34.568  17.926   6.666  0.00  0.00    -0.645 OA
BRANCH   7   9
HETATM    9  O   UNK N   1      35.078  19.150   8.447  0.00  0.00    -0.772 OA
HETATM   10  H   UNK N   1      36.010  19.123   8.358  0.00  0.00     0.167 HD
ENDBRANCH   7   9
ENDBRANCH   3   7
TORSDOF 3
ENDMDL
MODEL 5
REMARK VINA RESULT:      -3.8     15.259     15.633
REMARK  3 active torsions:
REMARK  status: ('A' for Active; 'I' for Inactive)
REMARK    1  A    between atoms: C_3  and  N_4 
REMARK    2  A    between atoms: C_3  and  C_5 
REMARK    3  A    between atoms: C_5  and  O_6 
ROOT
HETATM    1  C   UNK N   1      20.569  17.238   3.923  0.00  0.00     0.038 C 
HETATM    2  C   UNK N   1      21.094  18.332   3.049  0.00  0.00     0.005 C 
HETATM    3  C   UNK N   1      20.279  19.067   2.282  0.00  0.00     0.096 C 
ENDROOT
BRANCH   3   4
HETATM    4  N   UNK N   1      18.886  18.819   2.282  0.00  0.00    -0.394 N 
HETATM    5  H   UNK N   1      18.254  19.559   2.128  0.00  0.00     0.156 HD
HETATM    6  H   UNK N   1      18.547  17.908   2.437  0.00  0.00     0.156 HD
ENDBRANCH   3   4
BRANCH   3   7
HETATM    7  C   UNK N   1      20.825  20.140   1.428  0.00  0.00     0.192 C 
HETATM    8  O   UNK N   1      21.486  21.036   1.932  0.00  0.00    -0.645 OA
BRANCH   7   9
HETATM    9  O   UNK N   1      20.604  20.145   0.100  0.00  0.00    -0.772 OA
HETATM   10  H   UNK N   1      20.948  20.836  -0.430  0.00  0.00     0.167 HD
ENDBRANCH   7   9
ENDBRANCH   3   7
TORSDOF 3
ENDMDL
MODEL 6
REMARK VINA RESULT:      -3.7     11.939     12.145
REMARK  3 active torsions:
REMARK  status: ('A' for Active; 'I' for Inactive)
REMARK    1  A    between atoms: C_3  and  N_4 
REMARK    2  A    between atoms: C_3  and  C_5 
REMARK    3  A    between atoms: C_5  and  O_6 
ROOT
HETATM    1  C   UNK N   1      45.424  19.589   3.254  0.00  0.00     0.038 C 
HETATM    2  C   UNK N   1      44.341  20.617   3.183  0.00  0.00     0.005 C 
HETATM    3  C   UNK N   1      44.529  21.865   3.629  0.00  0.00     0.096 C 
ENDROOT
BRANCH   3   4
HETATM    4  N   UNK N   1      45.775  22.242   4.185  0.00  0.00    -0.394 N 
HETATM    5  H   UNK N   1      46.143  21.745   4.951  0.00  0.00     0.156 HD
HETATM    6  H   UNK N   1      46.274  23.001   3.806  0.00  0.00     0.156 HD
ENDBRANCH   3   4
BRANCH   3   7
HETATM    7  C   UNK N   1      43.442  22.859   3.546  0.00  0.00     0.192 C 
HETATM    8  O   UNK N   1      42.475  22.640   2.831  0.00  0.00    -0.645 OA
BRANCH   7   9
HETATM    9  O   UNK N   1      43.501  24.006   4.249  0.00  0.00    -0.772 OA
HETATM   10  H   UNK N   1      43.864  24.008   5.112  0.00  0.00     0.167 HD
ENDBRANCH   7   9
ENDBRANCH   3   7
TORSDOF 3
ENDMDL
MODEL 7
REMARK VINA RESULT:      -3.5      2.479      2.770
REMARK  3 active torsions:
REMARK  status: ('A' for Active; 'I' for Inactive)
REMARK    1  A    between atoms: C_3  and  N_4 
REMARK    2  A    between atoms: C_3  and  C_5 
REMARK    3  A    between atoms: C_5  and  O_6 
ROOT
HETATM    1  C   UNK N   1      31.090  17.223   7.066  0.00  0.00     0.038 C 
HETATM    2  C   UNK N   1      32.166  17.598   8.034  0.00  0.00     0.005 C 
HETATM    3  C   UNK N   1      33.436  17.755   7.643  0.00  0.00     0.096 C 
ENDROOT
BRANCH   3   4
HETATM    4  N   UNK N   1      33.792  17.568   6.287  0.00  0.00    -0.394 N 
HETATM    5  H   UNK N   1      33.954  16.660   5.941  0.00  0.00     0.156 HD
HETATM    6  H   UNK N   1      33.878  18.344   5.688  0.00  0.00     0.156 HD
ENDBRANCH   3   4
BRANCH   3   7
HETATM    7  C   UNK N   1      34.477  18.126   8.622  0.00  0.00     0.192 C 
HETATM    8  O   UNK N   1      35.214  19.074   8.392  0.00  0.00    -0.645 OA
BRANCH   7   9
HETATM    9  O   UNK N   1      34.627  17.432   9.766  0.00  0.00    -0.772 OA
HETATM   10  H   UNK N   1      34.002  17.528  10.457  0.00  0.00     0.167 HD
ENDBRANCH   7   9
ENDBRANCH   3   7
TORSDOF 3
ENDMDL
MODEL 8
REMARK VINA RESULT:      -3.5      6.472      7.071
REMARK  3 active torsions:
REMARK  status: ('A' for Active; 'I' for Inactive)
REMARK    1  A    between atoms: C_3  and  N_4 
REMARK    2  A    between atoms: C_3  and  C_5 
REMARK    3  A    between atoms: C_5  and  O_6 
ROOT
HETATM    1  C   UNK N   1      35.303  13.049  16.978  0.00  0.00     0.038 C 
HETATM    2  C   UNK N   1      35.178  13.146  15.491  0.00  0.00     0.005 C 
HETATM    3  C   UNK N   1      36.106  13.761  14.748  0.00  0.00     0.096 C 
ENDROOT
BRANCH   3   4
HETATM    4  N   UNK N   1      37.241  14.341  15.364  0.00  0.00    -0.394 N 
HETATM    5  H   UNK N   1      37.153  14.790  16.236  0.00  0.00     0.156 HD
HETATM    6  H   UNK N   1      38.119  14.296  14.921  0.00  0.00     0.156 HD
ENDBRANCH   3   4
BRANCH   3   7
HETATM    7  C   UNK N   1      35.956  13.841  13.282  0.00  0.00     0.192 C 
HETATM    8  O   UNK N   1      34.838  13.855  12.788  0.00  0.00    -0.645 OA
BRANCH   7   9
HETATM    9  O   UNK N   1      37.037  13.898  12.481  0.00  0.00    -0.772 OA
HETATM   10  H   UNK N   1      37.793  14.383  12.747  0.00  0.00     0.167 HD
ENDBRANCH   7   9
ENDBRANCH   3   7
TORSDOF 3
ENDMDL
MODEL 9
REMARK VINA RESULT:      -3.4     15.412     15.676
REMARK  3 active torsions:
REMARK  status: ('A' for Active; 'I' for Inactive)
REMARK    1  A    between atoms: C_3  and  N_4 
REMARK    2  A    between atoms: C_3  and  C_5 
REMARK    3  A    between atoms: C_5  and  O_6 
ROOT
HETATM    1  C   UNK N   1      20.218  16.487   2.167  0.00  0.00     0.038 C 
HETATM    2  C   UNK N   1      20.778  17.837   2.484  0.00  0.00     0.005 C 
HETATM    3  C   UNK N   1      19.998  18.924   2.533  0.00  0.00     0.096 C 
ENDROOT
BRANCH   3   4
HETATM    4  N   UNK N   1      18.610  18.816   2.283  0.00  0.00    -0.394 N 
HETATM    5  H   UNK N   1      17.996  18.560   3.009  0.00  0.00     0.156 HD
HETATM    6  H   UNK N   1      18.256  18.998   1.382  0.00  0.00     0.156 HD
ENDBRANCH   3   4
BRANCH   3   7
HETATM    7  C   UNK N   1      20.578  20.244   2.849  0.00  0.00     0.192 C 
HETATM    8  O   UNK N   1      20.290  20.796   3.901  0.00  0.00    -0.645 OA
BRANCH   7   9
HETATM    9  O   UNK N   1      21.422  20.849   1.992  0.00  0.00    -0.772 OA
HETATM   10  H   UNK N   1      21.120  21.556   1.456  0.00  0.00     0.167 HD
ENDBRANCH   7   9
ENDBRANCH   3   7
TORSDOF 3
ENDMDL
