REMARK  8 active torsions:
REMARK  status: ('A' for Active; 'I' for Inactive)
REMARK    1  A    between atoms: C_2  and  N_1 
REMARK    2  A    between atoms: C_2  and  C_3 
REMARK    3  A    between atoms: C_2  and  C_8 
REMARK    4  A    between atoms: C_3  and  C_4 
REMARK    5  A    between atoms: C_4  and  C_5 
REMARK    6  A    between atoms: C_5  and  C_6 
REMARK    7  A    between atoms: C_6  and  O_7 
REMARK    8  A    between atoms: C_8  and  O_9 
ROOT
HETATM    1  C   UNK N   1       5.041   2.097  -0.346  0.00  0.00     0.173 C 
ENDROOT
BRANCH   1   2
HETATM    2  N   UNK N   1       5.058   3.456   0.179  0.00  0.00    -0.418 N 
HETATM    3  H   UNK N   1       5.888   3.922   0.546  0.00  0.00     0.150 HD
HETATM    4  H   UNK N   1       4.181   3.977   0.179  0.00  0.00     0.150 HD
ENDBRANCH   1   2
BRANCH   1   5
HETATM    5  C   UNK N   1       3.841   1.328   0.202  0.00  0.00     0.035 C 
BRANCH   5   6
HETATM    6  C   UNK N   1       2.542   2.058  -0.108  0.00  0.00     0.004 C 
BRANCH   6   7
HETATM    7  C   UNK N   1       1.361   1.125   0.058  0.00  0.00     0.026 C 
BRANCH   7   8
HETATM    8  C   UNK N   1       0.073   1.920  -0.034  0.00  0.00     0.164 C 
BRANCH   8   9
HETATM    9  O   UNK N   1      -1.016   1.051   0.009  0.00  0.00    -0.401 OA
HETATM   10  H   UNK N   1      -1.919   1.405   0.039  0.00  0.00     0.209 HD
ENDBRANCH   8   9
ENDBRANCH   7   8
ENDBRANCH   6   7
ENDBRANCH   5   6
ENDBRANCH   1   5
BRANCH   1  11
HETATM   11  C   UNK N   1       6.351   1.418  -0.046  0.00  0.00     0.163 C 
HETATM   12  O   UNK N   1       6.410   0.195   0.035  0.00  0.00    -0.648 OA
BRANCH  11  13
HETATM   13  O   UNK N   1       7.482   2.139   0.049  0.00  0.00    -0.775 OA
HETATM   14  H   UNK N   1       8.311   1.708   0.116  0.00  0.00     0.167 HD
ENDBRANCH  11  13
ENDBRANCH   1  11
TORSDOF 8
