MODEL 1
REMARK VINA RESULT:      -5.0      0.000      0.000
REMARK  4 active torsions:
REMARK  status: ('A' for Active; 'I' for Inactive)
REMARK    1  A    between atoms: O_2  and  C_3 
REMARK    2  A    between atoms: C_5  and  O_6 
REMARK    3  A    between atoms: O_6  and  O_7 
REMARK    4  A    between atoms: C_10  and  O_11 
ROOT
HETATM    1  C   UNK N   1      23.963  12.973   9.830  0.00  0.00     0.104 A 
HETATM    2  C   UNK N   1      22.729  13.277   9.253  0.00  0.00     0.079 A 
HETATM    3  C   UNK N   1      21.529  12.904   9.866  0.00  0.00     0.109 A 
HETATM    4  C   UNK N   1      21.559  12.213  11.080  0.00  0.00     0.043 A 
HETATM    5  C   UNK N   1      22.784  11.898  11.676  0.00  0.00     0.042 A 
HETATM    6  C   UNK N   1      23.986  12.271  11.064  0.00  0.00     0.099 A 
ENDROOT
BRANCH   3   7
HETATM    7  O   UNK N   1      20.345  13.206   9.295  0.00  0.00    -0.200 OA
BRANCH   7   8
HETATM    8  O   UNK N   1      19.525  14.038   9.854  0.00  0.00    -0.245 OA
HETATM    9  H   UNK N   1      19.003  13.761  10.623  0.00  0.00     0.254 HD
ENDBRANCH   7   8
ENDBRANCH   3   7
BRANCH   1  10
HETATM   10  O   UNK N   1      25.076  13.374   9.165  0.00  0.00    -0.353 OA
HETATM   11  C   UNK N   1      25.146  13.656   7.821  0.00  0.00     0.210 C 
ENDBRANCH   1  10
BRANCH   6  12
HETATM   12  O   UNK N   1      25.145  11.950  11.667  0.00  0.00    -0.358 OA
HETATM   13  H   UNK N   1      25.690  11.279  11.307  0.00  0.00     0.217 HD
ENDBRANCH   6  12
TORSDOF 4
ENDMDL
MODEL 2
REMARK VINA RESULT:      -4.9      1.357      3.888
REMARK  4 active torsions:
REMARK  status: ('A' for Active; 'I' for Inactive)
REMARK    1  A    between atoms: O_2  and  C_3 
REMARK    2  A    between atoms: C_5  and  O_6 
REMARK    3  A    between atoms: O_6  and  O_7 
REMARK    4  A    between atoms: C_10  and  O_11 
ROOT
HETATM    1  C   UNK N   1      21.428  12.912  10.271  0.00  0.00     0.104 A 
HETATM    2  C   UNK N   1      22.689  13.234   9.766  0.00  0.00     0.079 A 
HETATM    3  C   UNK N   1      23.857  12.802  10.403  0.00  0.00     0.109 A 
HETATM    4  C   UNK N   1      23.766  12.033  11.566  0.00  0.00     0.043 A 
HETATM    5  C   UNK N   1      22.513  11.699  12.088  0.00  0.00     0.042 A 
HETATM    6  C   UNK N   1      21.343  12.131  11.453  0.00  0.00     0.099 A 
ENDROOT
BRANCH   3   7
HETATM    7  O   UNK N   1      25.068  13.121   9.903  0.00  0.00    -0.200 OA
BRANCH   7   8
HETATM    8  O   UNK N   1      25.936  13.767  10.614  0.00  0.00    -0.245 OA
HETATM    9  H   UNK N   1      26.588  13.280  11.142  0.00  0.00     0.254 HD
ENDBRANCH   7   8
ENDBRANCH   3   7
BRANCH   1  10
HETATM   10  O   UNK N   1      20.350  13.375   9.588  0.00  0.00    -0.353 OA
HETATM   11  C   UNK N   1      20.071  14.696   9.334  0.00  0.00     0.210 C 
ENDBRANCH   1  10
BRANCH   6  12
HETATM   12  O   UNK N   1      20.156  11.790  11.985  0.00  0.00    -0.358 OA
HETATM   13  H   UNK N   1      20.052  11.753  12.915  0.00  0.00     0.217 HD
ENDBRANCH   6  12
TORSDOF 4
ENDMDL
MODEL 3
REMARK VINA RESULT:      -4.8      9.082     11.584
REMARK  4 active torsions:
REMARK  status: ('A' for Active; 'I' for Inactive)
REMARK    1  A    between atoms: O_2  and  C_3 
REMARK    2  A    between atoms: C_5  and  O_6 
REMARK    3  A    between atoms: O_6  and  O_7 
REMARK    4  A    between atoms: C_10  and  O_11 
ROOT
HETATM    1  C   UNK N   1      31.325  17.474   8.065  0.00  0.00     0.104 A 
HETATM    2  C   UNK N   1      32.630  17.911   8.300  0.00  0.00     0.079 A 
HETATM    3  C   UNK N   1      33.583  17.931   7.277  0.00  0.00     0.109 A 
HETATM    4  C   UNK N   1      33.230  17.506   5.995  0.00  0.00     0.043 A 
HETATM    5  C   UNK N   1      31.929  17.064   5.738  0.00  0.00     0.042 A 
HETATM    6  C   UNK N   1      30.973  17.043   6.759  0.00  0.00     0.099 A 
ENDROOT
BRANCH   3   7
HETATM    7  O   UNK N   1      34.840  18.357   7.521  0.00  0.00    -0.200 OA
BRANCH   7   8
HETATM    8  O   UNK N   1      35.080  19.244   8.433  0.00  0.00    -0.245 OA
HETATM    9  H   UNK N   1      35.104  18.985   9.368  0.00  0.00     0.254 HD
ENDBRANCH   7   8
ENDBRANCH   3   7
BRANCH   1  10
HETATM   10  O   UNK N   1      30.467  17.488   9.117  0.00  0.00    -0.353 OA
HETATM   11  C   UNK N   1      29.756  18.581   9.552  0.00  0.00     0.210 C 
ENDBRANCH   1  10
BRANCH   6  12
HETATM   12  O   UNK N   1      29.732  16.611   6.474  0.00  0.00    -0.358 OA
HETATM   13  H   UNK N   1      28.988  17.061   6.823  0.00  0.00     0.217 HD
ENDBRANCH   6  12
TORSDOF 4
ENDMDL
MODEL 4
REMARK VINA RESULT:      -4.8      1.078      2.814
REMARK  4 active torsions:
REMARK  status: ('A' for Active; 'I' for Inactive)
REMARK    1  A    between atoms: O_2  and  C_3 
REMARK    2  A    between atoms: C_5  and  O_6 
REMARK    3  A    between atoms: O_6  and  O_7 
REMARK    4  A    between atoms: C_10  and  O_11 
ROOT
HETATM    1  C   UNK N   1      22.963  12.082  11.569  0.00  0.00     0.104 A 
HETATM    2  C   UNK N   1      21.722  12.390  11.009  0.00  0.00     0.079 A 
HETATM    3  C   UNK N   1      21.616  12.875   9.702  0.00  0.00     0.109 A 
HETATM    4  C   UNK N   1      22.769  13.056   8.936  0.00  0.00     0.043 A 
HETATM    5  C   UNK N   1      24.023  12.754   9.477  0.00  0.00     0.042 A 
HETATM    6  C   UNK N   1      24.132  12.269  10.784  0.00  0.00     0.099 A 
ENDROOT
BRANCH   3   7
HETATM    7  O   UNK N   1      20.408  13.168   9.176  0.00  0.00    -0.200 OA
BRANCH   7   8
HETATM    8  O   UNK N   1      19.578  13.942   9.799  0.00  0.00    -0.245 OA
HETATM    9  H   UNK N   1      18.831  13.560  10.286  0.00  0.00     0.254 HD
ENDBRANCH   7   8
ENDBRANCH   3   7
BRANCH   1  10
HETATM   10  O   UNK N   1      22.971  11.617  12.844  0.00  0.00    -0.353 OA
HETATM   11  C   UNK N   1      23.465  12.289  13.936  0.00  0.00     0.210 C 
ENDBRANCH   1  10
BRANCH   6  12
HETATM   12  O   UNK N   1      25.354  11.989  11.270  0.00  0.00    -0.358 OA
HETATM   13  H   UNK N   1      25.940  12.685  11.495  0.00  0.00     0.217 HD
ENDBRANCH   6  12
TORSDOF 4
ENDMDL
MODEL 5
REMARK VINA RESULT:      -4.8     10.496     12.163
REMARK  4 active torsions:
REMARK  status: ('A' for Active; 'I' for Inactive)
REMARK    1  A    between atoms: O_2  and  C_3 
REMARK    2  A    between atoms: C_5  and  O_6 
REMARK    3  A    between atoms: O_6  and  O_7 
REMARK    4  A    between atoms: C_10  and  O_11 
ROOT
HETATM    1  C   UNK N   1      34.681  17.113   9.383  0.00  0.00     0.104 A 
HETATM    2  C   UNK N   1      33.877  15.975   9.297  0.00  0.00     0.079 A 
HETATM    3  C   UNK N   1      32.944  15.823   8.267  0.00  0.00     0.109 A 
HETATM    4  C   UNK N   1      32.808  16.824   7.303  0.00  0.00     0.043 A 
HETATM    5  C   UNK N   1      33.603  17.972   7.370  0.00  0.00     0.042 A 
HETATM    6  C   UNK N   1      34.538  18.127   8.400  0.00  0.00     0.099 A 
ENDROOT
BRANCH   3   7
HETATM    7  O   UNK N   1      32.175  14.717   8.198  0.00  0.00    -0.200 OA
BRANCH   7   8
HETATM    8  O   UNK N   1      32.302  13.759   9.060  0.00  0.00    -0.245 OA
HETATM    9  H   UNK N   1      32.983  13.813   9.749  0.00  0.00     0.254 HD
ENDBRANCH   7   8
ENDBRANCH   3   7
BRANCH   1  10
HETATM   10  O   UNK N   1      35.559  17.176  10.416  0.00  0.00    -0.353 OA
HETATM   11  C   UNK N   1      36.013  16.104  11.146  0.00  0.00     0.210 C 
ENDBRANCH   1  10
BRANCH   6  12
HETATM   12  O   UNK N   1      35.285  19.245   8.432  0.00  0.00    -0.358 OA
HETATM   13  H   UNK N   1      35.121  19.900   9.083  0.00  0.00     0.217 HD
ENDBRANCH   6  12
TORSDOF 4
ENDMDL
MODEL 6
REMARK VINA RESULT:      -4.8     18.135     20.189
REMARK  4 active torsions:
REMARK  status: ('A' for Active; 'I' for Inactive)
REMARK    1  A    between atoms: O_2  and  C_3 
REMARK    2  A    between atoms: C_5  and  O_6 
REMARK    3  A    between atoms: O_6  and  O_7 
REMARK    4  A    between atoms: C_10  and  O_11 
ROOT
HETATM    1  C   UNK N   1      26.202  25.345  -3.945  0.00  0.00     0.104 A 
HETATM    2  C   UNK N   1      26.360  26.553  -3.263  0.00  0.00     0.079 A 
HETATM    3  C   UNK N   1      25.882  27.754  -3.796  0.00  0.00     0.109 A 
HETATM    4  C   UNK N   1      25.232  27.752  -5.032  0.00  0.00     0.043 A 
HETATM    5  C   UNK N   1      25.062  26.554  -5.731  0.00  0.00     0.042 A 
HETATM    6  C   UNK N   1      25.540  25.350  -5.201  0.00  0.00     0.099 A 
ENDROOT
BRANCH   3   7
HETATM    7  O   UNK N   1      26.044  28.913  -3.124  0.00  0.00    -0.200 OA
BRANCH   7   8
HETATM    8  O   UNK N   1      25.994  30.053  -3.735  0.00  0.00    -0.245 OA
HETATM    9  H   UNK N   1      25.258  30.662  -3.567  0.00  0.00     0.254 HD
ENDBRANCH   7   8
ENDBRANCH   3   7
BRANCH   1  10
HETATM   10  O   UNK N   1      26.698  24.228  -3.354  0.00  0.00    -0.353 OA
HETATM   11  C   UNK N   1      28.030  23.935  -3.191  0.00  0.00     0.210 C 
ENDBRANCH   1  10
BRANCH   6  12
HETATM   12  O   UNK N   1      25.358  24.217  -5.903  0.00  0.00    -0.358 OA
HETATM   13  H   UNK N   1      24.906  23.494  -5.515  0.00  0.00     0.217 HD
ENDBRANCH   6  12
TORSDOF 4
ENDMDL
MODEL 7
REMARK VINA RESULT:      -4.6     21.738     23.642
REMARK  4 active torsions:
REMARK  status: ('A' for Active; 'I' for Inactive)
REMARK    1  A    between atoms: O_2  and  C_3 
REMARK    2  A    between atoms: C_5  and  O_6 
REMARK    3  A    between atoms: O_6  and  O_7 
REMARK    4  A    between atoms: C_10  and  O_11 
ROOT
HETATM    1  C   UNK N   1      43.968  23.210   3.092  0.00  0.00     0.104 A 
HETATM    2  C   UNK N   1      42.696  23.060   2.538  0.00  0.00     0.079 A 
HETATM    3  C   UNK N   1      42.042  21.824   2.546  0.00  0.00     0.109 A 
HETATM    4  C   UNK N   1      42.669  20.715   3.118  0.00  0.00     0.043 A 
HETATM    5  C   UNK N   1      43.944  20.843   3.678  0.00  0.00     0.042 A 
HETATM    6  C   UNK N   1      44.600  22.078   3.671  0.00  0.00     0.099 A 
ENDROOT
BRANCH   3   7
HETATM    7  O   UNK N   1      40.813  21.696   2.006  0.00  0.00    -0.200 OA
BRANCH   7   8
HETATM    8  O   UNK N   1      39.788  21.396   2.739  0.00  0.00    -0.245 OA
HETATM    9  H   UNK N   1      39.365  20.528   2.649  0.00  0.00     0.254 HD
ENDBRANCH   7   8
ENDBRANCH   3   7
BRANCH   1  10
HETATM   10  O   UNK N   1      44.527  24.446   3.039  0.00  0.00    -0.353 OA
HETATM   11  C   UNK N   1      45.453  24.866   2.115  0.00  0.00     0.210 C 
ENDBRANCH   1  10
BRANCH   6  12
HETATM   12  O   UNK N   1      45.825  22.163   4.220  0.00  0.00    -0.358 OA
HETATM   13  H   UNK N   1      46.241  21.394   4.558  0.00  0.00     0.217 HD
ENDBRANCH   6  12
TORSDOF 4
ENDMDL
MODEL 8
REMARK VINA RESULT:      -4.6      1.602      4.265
REMARK  4 active torsions:
REMARK  status: ('A' for Active; 'I' for Inactive)
REMARK    1  A    between atoms: O_2  and  C_3 
REMARK    2  A    between atoms: C_5  and  O_6 
REMARK    3  A    between atoms: O_6  and  O_7 
REMARK    4  A    between atoms: C_10  and  O_11 
ROOT
HETATM    1  C   UNK N   1      21.123  13.063   9.370  0.00  0.00     0.104 A 
HETATM    2  C   UNK N   1      21.889  12.939  10.531  0.00  0.00     0.079 A 
HETATM    3  C   UNK N   1      23.052  12.164  10.552  0.00  0.00     0.109 A 
HETATM    4  C   UNK N   1      23.462  11.501   9.393  0.00  0.00     0.043 A 
HETATM    5  C   UNK N   1      22.710  11.612   8.220  0.00  0.00     0.042 A 
HETATM    6  C   UNK N   1      21.545  12.385   8.196  0.00  0.00     0.099 A 
ENDROOT
BRANCH   3   7
HETATM    7  O   UNK N   1      23.781  12.055  11.682  0.00  0.00    -0.200 OA
BRANCH   7   8
HETATM    8  O   UNK N   1      25.050  12.313  11.688  0.00  0.00    -0.245 OA
HETATM    9  H   UNK N   1      25.601  12.020  12.430  0.00  0.00     0.254 HD
ENDBRANCH   7   8
ENDBRANCH   3   7
BRANCH   1  10
HETATM   10  O   UNK N   1      20.008  13.835   9.441  0.00  0.00    -0.353 OA
HETATM   11  C   UNK N   1      19.930  15.160   9.084  0.00  0.00     0.210 C 
ENDBRANCH   1  10
BRANCH   6  12
HETATM   12  O   UNK N   1      20.848  12.469   7.049  0.00  0.00    -0.358 OA
HETATM   13  H   UNK N   1      20.756  11.714   6.501  0.00  0.00     0.217 HD
ENDBRANCH   6  12
TORSDOF 4
ENDMDL
MODEL 9
REMARK VINA RESULT:      -4.5     10.147     12.321
REMARK  4 active torsions:
REMARK  status: ('A' for Active; 'I' for Inactive)
REMARK    1  A    between atoms: O_2  and  C_3 
REMARK    2  A    between atoms: C_5  and  O_6 
REMARK    3  A    between atoms: O_6  and  O_7 
REMARK    4  A    between atoms: C_10  and  O_11 
ROOT
HETATM    1  C   UNK N   1      34.197  15.624   9.488  0.00  0.00     0.104 A 
HETATM    2  C   UNK N   1      34.895  16.793   9.180  0.00  0.00     0.079 A 
HETATM    3  C   UNK N   1      34.265  17.867   8.545  0.00  0.00     0.109 A 
HETATM    4  C   UNK N   1      32.912  17.776   8.209  0.00  0.00     0.043 A 
HETATM    5  C   UNK N   1      32.194  16.614   8.508  0.00  0.00     0.042 A 
HETATM    6  C   UNK N   1      32.822  15.538   9.144  0.00  0.00     0.099 A 
ENDROOT
BRANCH   3   7
HETATM    7  O   UNK N   1      34.954  18.990   8.255  0.00  0.00    -0.200 OA
BRANCH   7   8
HETATM    8  O   UNK N   1      35.833  19.468   9.077  0.00  0.00    -0.245 OA
HETATM    9  H   UNK N   1      35.943  19.068   9.955  0.00  0.00     0.254 HD
ENDBRANCH   7   8
ENDBRANCH   3   7
BRANCH   1  10
HETATM   10  O   UNK N   1      34.888  14.632  10.104  0.00  0.00    -0.353 OA
HETATM   11  C   UNK N   1      36.161  14.225   9.782  0.00  0.00     0.210 C 
ENDBRANCH   1  10
BRANCH   6  12
HETATM   12  O   UNK N   1      32.099  14.436   9.415  0.00  0.00    -0.358 OA
HETATM   13  H   UNK N   1      31.448  14.142   8.808  0.00  0.00     0.217 HD
ENDBRANCH   6  12
TORSDOF 4
ENDMDL
