MODEL 1
REMARK VINA RESULT:      -6.0      0.000      0.000
REMARK  17 active torsions:
REMARK  status: ('A' for Active; 'I' for Inactive)
REMARK    1  A    between atoms: C_8  and  C_2 
REMARK    2  A    between atoms: C_4  and  C_3 
REMARK    3  A    between atoms: C_5  and  C_3 
REMARK    4  A    between atoms: C_7  and  C_4 
REMARK    5  A    between atoms: C_10  and  C_5 
REMARK    6  A    between atoms: C_9  and  C_6 
REMARK    7  A    between atoms: S_25  and  C_6 
REMARK    8  A    between atoms: C_12  and  C_7 
REMARK    9  A    between atoms: C_7  and  N_14 
REMARK   10  A    between atoms: C_13  and  C_8 
REMARK   11  A    between atoms: C_8  and  N_17 
REMARK   12  A    between atoms: C_11  and  C_9 
REMARK   13  A    between atoms: C_9  and  N_15 
REMARK   14  A    between atoms: C_10  and  O_19 
REMARK   15  A    between atoms: C_11  and  O_20 
REMARK   16  A    between atoms: O_22  and  C_12 
REMARK   17  A    between atoms: O_24  and  C_13 
ROOT
HETATM    1  C   UNK N   1      34.872  14.691  10.686  0.00  0.00     0.166 C 
ENDROOT
BRANCH   1   2
HETATM    2  C   UNK N   1      35.572  13.936   9.563  0.00  0.00     0.104 C 
BRANCH   2   3
HETATM    3  S   UNK N   1      37.378  14.160   9.647  0.00  0.00    -0.180 SA
HETATM    4  H   UNK N   1      38.241  13.218   9.182  0.00  0.00     0.101 HD
ENDBRANCH   2   3
ENDBRANCH   1   2
BRANCH   1   5
HETATM    5  C   UNK N   1      34.599  16.103  10.256  0.00  0.00     0.136 C 
HETATM    6  N   UNK N   1      33.803  16.325   9.265  0.00  0.00    -0.355 N 
ATOM      7  HN  UNK N   1      33.460  15.521   8.739  1.00  0.00     0.162 HD
BRANCH   6   8
HETATM    8  C   UNK N   1      33.365  17.648   8.850  0.00  0.00     0.204 C 
BRANCH   8   9
HETATM    9  C   UNK N   1      32.024  17.596   8.166  0.00  0.00    -0.002 C 
HETATM   10  C   UNK N   1      30.940  18.122   8.733  0.00  0.00     0.009 C 
ENDBRANCH   8   9
BRANCH   8  11
HETATM   11  C   UNK N   1      34.421  18.288   7.975  0.00  0.00     0.167 C 
HETATM   12  O   UNK N   1      35.209  19.082   8.461  0.00  0.00    -0.648 OA
BRANCH  11  13
HETATM   13  O   UNK N   1      34.508  17.987   6.663  0.00  0.00    -0.775 OA
HETATM   14  H   UNK N   1      34.112  17.918   5.817  0.00  0.00     0.167 HD
ENDBRANCH  11  13
ENDBRANCH   8  11
ENDBRANCH   6   8
BRANCH   5  15
HETATM   15  O   UNK N   1      35.124  17.126  10.969  0.00  0.00    -0.348 OA
HETATM   16  H   UNK N   1      35.745  17.752  11.287  0.00  0.00     0.219 HD
ENDBRANCH   5  15
ENDBRANCH   1   5
BRANCH   1  17
HETATM   17  N   UNK N   1      35.719  14.730  11.861  0.00  0.00    -0.362 N 
HETATM   18  C   UNK N   1      35.500  14.015  12.917  0.00  0.00     0.111 C 
ATOM     19  HN  UNK N   1      36.527  15.353  11.855  1.00  0.00     0.162 HD
BRANCH  18  20
HETATM   20  C   UNK N   1      36.387  14.131  14.128  0.00  0.00     0.083 C 
BRANCH  20  21
HETATM   21  C   UNK N   1      36.986  12.809  14.613  0.00  0.00     0.010 C 
BRANCH  21  22
HETATM   22  C   UNK N   1      36.301  12.322  15.887  0.00  0.00     0.036 C 
BRANCH  22  23
HETATM   23  C   UNK N   1      35.252  13.297  16.409  0.00  0.00     0.173 C 
BRANCH  23  24
HETATM   24  C   UNK N   1      35.335  13.408  17.903  0.00  0.00     0.163 C 
HETATM   25  O   UNK N   1      35.516  14.495  18.429  0.00  0.00    -0.648 OA
BRANCH  24  26
HETATM   26  O   UNK N   1      35.216  12.308  18.669  0.00  0.00    -0.775 OA
HETATM   27  H   UNK N   1      35.922  11.833  19.062  0.00  0.00     0.167 HD
ENDBRANCH  24  26
ENDBRANCH  23  24
BRANCH  23  28
HETATM   28  N   UNK N   1      33.936  12.810  16.034  0.00  0.00    -0.418 N 
HETATM   29  H   UNK N   1      33.122  12.870  16.644  0.00  0.00     0.150 HD
HETATM   30  H   UNK N   1      33.822  12.388  15.113  0.00  0.00     0.150 HD
ENDBRANCH  23  28
ENDBRANCH  22  23
ENDBRANCH  21  22
ENDBRANCH  20  21
ENDBRANCH  18  20
BRANCH  18  31
HETATM   31  O   UNK N   1      34.470  13.143  12.954  0.00  0.00    -0.350 OA
HETATM   32  H   UNK N   1      34.284  12.227  13.026  0.00  0.00     0.219 HD
ENDBRANCH  18  31
ENDBRANCH   1  17
TORSDOF 17
ENDMDL
MODEL 2
REMARK VINA RESULT:      -5.7      2.096      2.984
REMARK  17 active torsions:
REMARK  status: ('A' for Active; 'I' for Inactive)
REMARK    1  A    between atoms: C_8  and  C_2 
REMARK    2  A    between atoms: C_4  and  C_3 
REMARK    3  A    between atoms: C_5  and  C_3 
REMARK    4  A    between atoms: C_7  and  C_4 
REMARK    5  A    between atoms: C_10  and  C_5 
REMARK    6  A    between atoms: C_9  and  C_6 
REMARK    7  A    between atoms: S_25  and  C_6 
REMARK    8  A    between atoms: C_12  and  C_7 
REMARK    9  A    between atoms: C_7  and  N_14 
REMARK   10  A    between atoms: C_13  and  C_8 
REMARK   11  A    between atoms: C_8  and  N_17 
REMARK   12  A    between atoms: C_11  and  C_9 
REMARK   13  A    between atoms: C_9  and  N_15 
REMARK   14  A    between atoms: C_10  and  O_19 
REMARK   15  A    between atoms: C_11  and  O_20 
REMARK   16  A    between atoms: O_22  and  C_12 
REMARK   17  A    between atoms: O_24  and  C_13 
ROOT
HETATM    1  C   UNK N   1      35.025  14.660  10.614  0.00  0.00     0.166 C 
ENDROOT
BRANCH   1   2
HETATM    2  C   UNK N   1      35.793  13.975   9.492  0.00  0.00     0.104 C 
BRANCH   2   3
HETATM    3  S   UNK N   1      34.807  12.637   8.743  0.00  0.00    -0.180 SA
HETATM    4  H   UNK N   1      33.643  12.884   8.086  0.00  0.00     0.101 HD
ENDBRANCH   2   3
ENDBRANCH   1   2
BRANCH   1   5
HETATM    5  C   UNK N   1      34.678  16.064  10.208  0.00  0.00     0.136 C 
HETATM    6  N   UNK N   1      33.915  16.261   9.187  0.00  0.00    -0.355 N 
ATOM      7  HN  UNK N   1      33.651  15.452   8.625  1.00  0.00     0.162 HD
BRANCH   6   8
HETATM    8  C   UNK N   1      33.409  17.564   8.786  0.00  0.00     0.204 C 
BRANCH   8   9
HETATM    9  C   UNK N   1      32.092  17.446   8.065  0.00  0.00    -0.002 C 
HETATM   10  C   UNK N   1      30.971  17.934   8.593  0.00  0.00     0.009 C 
ENDBRANCH   8   9
BRANCH   8  11
HETATM   11  C   UNK N   1      34.446  18.285   7.953  0.00  0.00     0.167 C 
HETATM   12  O   UNK N   1      34.514  18.070   6.754  0.00  0.00    -0.648 OA
BRANCH  11  13
HETATM   13  O   UNK N   1      35.293  19.170   8.516  0.00  0.00    -0.775 OA
HETATM   14  H   UNK N   1      36.016  19.761   8.445  0.00  0.00     0.167 HD
ENDBRANCH  11  13
ENDBRANCH   8  11
ENDBRANCH   6   8
BRANCH   5  15
HETATM   15  O   UNK N   1      35.100  17.097  10.973  0.00  0.00    -0.348 OA
HETATM   16  H   UNK N   1      35.301  17.608  11.732  0.00  0.00     0.219 HD
ENDBRANCH   5  15
ENDBRANCH   1   5
BRANCH   1  17
HETATM   17  N   UNK N   1      35.843  14.723  11.808  0.00  0.00    -0.362 N 
HETATM   18  C   UNK N   1      35.567  14.071  12.892  0.00  0.00     0.111 C 
ATOM     19  HN  UNK N   1      36.678  15.310  11.794  1.00  0.00     0.162 HD
BRANCH  18  20
HETATM   20  C   UNK N   1      36.427  14.210  14.120  0.00  0.00     0.083 C 
BRANCH  20  21
HETATM   21  C   UNK N   1      36.485  12.964  15.007  0.00  0.00     0.010 C 
BRANCH  21  22
HETATM   22  C   UNK N   1      37.439  11.919  14.435  0.00  0.00     0.036 C 
BRANCH  22  23
HETATM   23  C   UNK N   1      36.732  10.636  14.013  0.00  0.00     0.173 C 
BRANCH  23  24
HETATM   24  C   UNK N   1      36.810  10.458  12.526  0.00  0.00     0.163 C 
HETATM   25  O   UNK N   1      37.820  10.004  12.013  0.00  0.00    -0.648 OA
BRANCH  24  26
HETATM   26  O   UNK N   1      35.766  10.805  11.749  0.00  0.00    -0.775 OA
HETATM   27  H   UNK N   1      35.363  10.266  11.097  0.00  0.00     0.167 HD
ENDBRANCH  24  26
ENDBRANCH  23  24
BRANCH  23  28
HETATM   28  N   UNK N   1      35.340  10.716  14.418  0.00  0.00    -0.418 N 
HETATM   29  H   UNK N   1      34.718  11.474  14.137  0.00  0.00     0.150 HD
HETATM   30  H   UNK N   1      34.965   9.977  15.011  0.00  0.00     0.150 HD
ENDBRANCH  23  28
ENDBRANCH  22  23
ENDBRANCH  21  22
ENDBRANCH  20  21
ENDBRANCH  18  20
BRANCH  18  31
HETATM   31  O   UNK N   1      34.500  13.246  12.944  0.00  0.00    -0.350 OA
HETATM   32  H   UNK N   1      34.057  12.584  12.449  0.00  0.00     0.219 HD
ENDBRANCH  18  31
ENDBRANCH   1  17
TORSDOF 17
ENDMDL
MODEL 3
REMARK VINA RESULT:      -5.5     12.545     16.894
REMARK  17 active torsions:
REMARK  status: ('A' for Active; 'I' for Inactive)
REMARK    1  A    between atoms: C_8  and  C_2 
REMARK    2  A    between atoms: C_4  and  C_3 
REMARK    3  A    between atoms: C_5  and  C_3 
REMARK    4  A    between atoms: C_7  and  C_4 
REMARK    5  A    between atoms: C_10  and  C_5 
REMARK    6  A    between atoms: C_9  and  C_6 
REMARK    7  A    between atoms: S_25  and  C_6 
REMARK    8  A    between atoms: C_12  and  C_7 
REMARK    9  A    between atoms: C_7  and  N_14 
REMARK   10  A    between atoms: C_13  and  C_8 
REMARK   11  A    between atoms: C_8  and  N_17 
REMARK   12  A    between atoms: C_11  and  C_9 
REMARK   13  A    between atoms: C_9  and  N_15 
REMARK   14  A    between atoms: C_10  and  O_19 
REMARK   15  A    between atoms: C_11  and  O_20 
REMARK   16  A    between atoms: O_22  and  C_12 
REMARK   17  A    between atoms: O_24  and  C_13 
ROOT
HETATM    1  C   UNK N   1      20.502  14.689   7.802  0.00  0.00     0.166 C 
ENDROOT
BRANCH   1   2
HETATM    2  C   UNK N   1      20.668  15.838   8.788  0.00  0.00     0.104 C 
BRANCH   2   3
HETATM    3  S   UNK N   1      19.224  16.949   8.753  0.00  0.00    -0.180 SA
HETATM    4  H   UNK N   1      18.166  16.779   9.589  0.00  0.00     0.101 HD
ENDBRANCH   2   3
ENDBRANCH   1   2
BRANCH   1   5
HETATM    5  C   UNK N   1      21.326  13.515   8.246  0.00  0.00     0.136 C 
HETATM    6  N   UNK N   1      22.195  13.666   9.186  0.00  0.00    -0.355 N 
ATOM      7  HN  UNK N   1      22.365  14.610   9.533  1.00  0.00     0.162 HD
BRANCH   6   8
HETATM    8  C   UNK N   1      22.949  12.576   9.784  0.00  0.00     0.204 C 
BRANCH   8   9
HETATM    9  C   UNK N   1      22.434  12.237  11.158  0.00  0.00    -0.002 C 
HETATM   10  C   UNK N   1      21.127  12.185  11.410  0.00  0.00     0.009 C 
ENDBRANCH   8   9
BRANCH   8  11
HETATM   11  C   UNK N   1      24.423  12.919   9.802  0.00  0.00     0.167 C 
HETATM   12  O   UNK N   1      24.956  13.350   8.792  0.00  0.00    -0.648 OA
BRANCH  11  13
HETATM   13  O   UNK N   1      25.156  12.763  10.923  0.00  0.00    -0.775 OA
HETATM   14  H   UNK N   1      25.232  12.473  11.810  0.00  0.00     0.167 HD
ENDBRANCH  11  13
ENDBRANCH   8  11
ENDBRANCH   6   8
BRANCH   5  15
HETATM   15  O   UNK N   1      21.082  12.296   7.711  0.00  0.00    -0.348 OA
HETATM   16  H   UNK N   1      20.658  11.480   7.534  0.00  0.00     0.219 HD
ENDBRANCH   5  15
ENDBRANCH   1   5
BRANCH   1  17
HETATM   17  N   UNK N   1      20.960  15.094   6.488  0.00  0.00    -0.362 N 
HETATM   18  C   UNK N   1      20.172  15.213   5.468  0.00  0.00     0.111 C 
ATOM     19  HN  UNK N   1      21.952  15.295   6.361  1.00  0.00     0.162 HD
BRANCH  18  20
HETATM   20  C   UNK N   1      20.711  15.592   4.114  0.00  0.00     0.083 C 
BRANCH  20  21
HETATM   21  C   UNK N   1      19.941  16.711   3.408  0.00  0.00     0.010 C 
BRANCH  21  22
HETATM   22  C   UNK N   1      20.890  17.699   2.734  0.00  0.00     0.036 C 
BRANCH  22  23
HETATM   23  C   UNK N   1      20.217  19.015   2.364  0.00  0.00     0.173 C 
BRANCH  23  24
HETATM   24  C   UNK N   1      20.633  20.102   3.310  0.00  0.00     0.163 C 
HETATM   25  O   UNK N   1      20.735  19.871   4.505  0.00  0.00    -0.648 OA
BRANCH  24  26
HETATM   26  O   UNK N   1      20.889  21.339   2.845  0.00  0.00    -0.775 OA
HETATM   27  H   UNK N   1      20.409  22.117   3.057  0.00  0.00     0.167 HD
ENDBRANCH  24  26
ENDBRANCH  23  24
BRANCH  23  28
HETATM   28  N   UNK N   1      18.777  18.837   2.437  0.00  0.00    -0.418 N 
HETATM   29  H   UNK N   1      18.110  19.516   2.071  0.00  0.00     0.150 HD
HETATM   30  H   UNK N   1      18.416  17.990   2.874  0.00  0.00     0.150 HD
ENDBRANCH  23  28
ENDBRANCH  22  23
ENDBRANCH  21  22
ENDBRANCH  20  21
ENDBRANCH  18  20
BRANCH  18  31
HETATM   31  O   UNK N   1      18.845  15.004   5.598  0.00  0.00    -0.350 OA
HETATM   32  H   UNK N   1      18.171  14.933   6.246  0.00  0.00     0.219 HD
ENDBRANCH  18  31
ENDBRANCH   1  17
TORSDOF 17
ENDMDL
MODEL 4
REMARK VINA RESULT:      -5.4      2.750      8.082
REMARK  17 active torsions:
REMARK  status: ('A' for Active; 'I' for Inactive)
REMARK    1  A    between atoms: C_8  and  C_2 
REMARK    2  A    between atoms: C_4  and  C_3 
REMARK    3  A    between atoms: C_5  and  C_3 
REMARK    4  A    between atoms: C_7  and  C_4 
REMARK    5  A    between atoms: C_10  and  C_5 
REMARK    6  A    between atoms: C_9  and  C_6 
REMARK    7  A    between atoms: S_25  and  C_6 
REMARK    8  A    between atoms: C_12  and  C_7 
REMARK    9  A    between atoms: C_7  and  N_14 
REMARK   10  A    between atoms: C_13  and  C_8 
REMARK   11  A    between atoms: C_8  and  N_17 
REMARK   12  A    between atoms: C_11  and  C_9 
REMARK   13  A    between atoms: C_9  and  N_15 
REMARK   14  A    between atoms: C_10  and  O_19 
REMARK   15  A    between atoms: C_11  and  O_20 
REMARK   16  A    between atoms: O_22  and  C_12 
REMARK   17  A    between atoms: O_24  and  C_13 
ROOT
HETATM    1  C   UNK N   1      35.655  14.988   9.009  0.00  0.00     0.166 C 
ENDROOT
BRANCH   1   2
HETATM    2  C   UNK N   1      34.959  13.683   8.648  0.00  0.00     0.104 C 
BRANCH   2   3
HETATM    3  S   UNK N   1      35.928  12.736   7.430  0.00  0.00    -0.180 SA
HETATM    4  H   UNK N   1      37.260  12.942   7.254  0.00  0.00     0.101 HD
ENDBRANCH   2   3
ENDBRANCH   1   2
BRANCH   1   5
HETATM    5  C   UNK N   1      36.327  14.852  10.345  0.00  0.00     0.136 C 
HETATM    6  N   UNK N   1      36.171  13.771  11.030  0.00  0.00    -0.355 N 
ATOM      7  HN  UNK N   1      35.510  13.077  10.682  1.00  0.00     0.162 HD
BRANCH   6   8
HETATM    8  C   UNK N   1      36.877  13.478  12.267  0.00  0.00     0.204 C 
BRANCH   8   9
HETATM    9  C   UNK N   1      37.234  12.019  12.367  0.00  0.00    -0.002 C 
HETATM   10  C   UNK N   1      37.713  11.501  13.497  0.00  0.00     0.009 C 
ENDBRANCH   8   9
BRANCH   8  11
HETATM   11  C   UNK N   1      36.055  13.941  13.450  0.00  0.00     0.167 C 
HETATM   12  O   UNK N   1      36.539  14.717  14.257  0.00  0.00    -0.648 OA
BRANCH  11  13
HETATM   13  O   UNK N   1      34.788  13.512  13.622  0.00  0.00    -0.775 OA
HETATM   14  H   UNK N   1      34.169  12.812  13.693  0.00  0.00     0.167 HD
ENDBRANCH  11  13
ENDBRANCH   8  11
ENDBRANCH   6   8
BRANCH   5  15
HETATM   15  O   UNK N   1      37.157  15.833  10.771  0.00  0.00    -0.348 OA
HETATM   16  H   UNK N   1      37.671  16.617  10.768  0.00  0.00     0.219 HD
ENDBRANCH   5  15
ENDBRANCH   1   5
BRANCH   1  17
HETATM   17  N   UNK N   1      34.685  16.061   9.096  0.00  0.00    -0.362 N 
HETATM   18  C   UNK N   1      34.358  16.805   8.089  0.00  0.00     0.111 C 
ATOM     19  HN  UNK N   1      34.238  16.238   9.997  1.00  0.00     0.162 HD
BRANCH  18  20
HETATM   20  C   UNK N   1      33.378  17.937   8.249  0.00  0.00     0.083 C 
BRANCH  20  21
HETATM   21  C   UNK N   1      31.939  17.599   7.850  0.00  0.00     0.010 C 
BRANCH  21  22
HETATM   22  C   UNK N   1      30.933  18.259   8.789  0.00  0.00     0.036 C 
BRANCH  22  23
HETATM   23  C   UNK N   1      29.654  17.448   8.958  0.00  0.00     0.173 C 
BRANCH  23  24
HETATM   24  C   UNK N   1      28.454  18.282   8.620  0.00  0.00     0.163 C 
HETATM   25  O   UNK N   1      28.457  18.988   7.624  0.00  0.00    -0.648 OA
BRANCH  24  26
HETATM   26  O   UNK N   1      27.370  18.260   9.418  0.00  0.00    -0.775 OA
HETATM   27  H   UNK N   1      26.807  17.525   9.562  0.00  0.00     0.167 HD
ENDBRANCH  24  26
ENDBRANCH  23  24
BRANCH  23  28
HETATM   28  N   UNK N   1      29.561  17.006  10.338  0.00  0.00    -0.418 N 
HETATM   29  H   UNK N   1      30.362  16.965  10.968  0.00  0.00     0.150 HD
HETATM   30  H   UNK N   1      28.649  16.725  10.695  0.00  0.00     0.150 HD
ENDBRANCH  23  28
ENDBRANCH  22  23
ENDBRANCH  21  22
ENDBRANCH  20  21
ENDBRANCH  18  20
BRANCH  18  31
HETATM   31  O   UNK N   1      34.888  16.579   6.868  0.00  0.00    -0.350 OA
HETATM   32  H   UNK N   1      34.794  16.823   5.968  0.00  0.00     0.219 HD
ENDBRANCH  18  31
ENDBRANCH   1  17
TORSDOF 17
ENDMDL
MODEL 5
REMARK VINA RESULT:      -5.3     12.034     16.331
REMARK  17 active torsions:
REMARK  status: ('A' for Active; 'I' for Inactive)
REMARK    1  A    between atoms: C_8  and  C_2 
REMARK    2  A    between atoms: C_4  and  C_3 
REMARK    3  A    between atoms: C_5  and  C_3 
REMARK    4  A    between atoms: C_7  and  C_4 
REMARK    5  A    between atoms: C_10  and  C_5 
REMARK    6  A    between atoms: C_9  and  C_6 
REMARK    7  A    between atoms: S_25  and  C_6 
REMARK    8  A    between atoms: C_12  and  C_7 
REMARK    9  A    between atoms: C_7  and  N_14 
REMARK   10  A    between atoms: C_13  and  C_8 
REMARK   11  A    between atoms: C_8  and  N_17 
REMARK   12  A    between atoms: C_11  and  C_9 
REMARK   13  A    between atoms: C_9  and  N_15 
REMARK   14  A    between atoms: C_10  and  O_19 
REMARK   15  A    between atoms: C_11  and  O_20 
REMARK   16  A    between atoms: O_22  and  C_12 
REMARK   17  A    between atoms: O_24  and  C_13 
ROOT
HETATM    1  C   UNK N   1      20.863  18.663   3.934  0.00  0.00     0.166 C 
ENDROOT
BRANCH   1   2
HETATM    2  C   UNK N   1      20.882  17.844   5.218  0.00  0.00     0.104 C 
BRANCH   2   3
HETATM    3  S   UNK N   1      22.565  17.259   5.599  0.00  0.00    -0.180 SA
HETATM    4  H   UNK N   1      22.911  15.949   5.493  0.00  0.00     0.101 HD
ENDBRANCH   2   3
ENDBRANCH   1   2
BRANCH   1   5
HETATM    5  C   UNK N   1      20.193  17.880   2.842  0.00  0.00     0.136 C 
HETATM    6  N   UNK N   1      20.745  16.800   2.401  0.00  0.00    -0.355 N 
ATOM      7  HN  UNK N   1      21.676  16.566   2.745  1.00  0.00     0.162 HD
BRANCH   6   8
HETATM    8  C   UNK N   1      20.124  15.897   1.445  0.00  0.00     0.204 C 
BRANCH   8   9
HETATM    9  C   UNK N   1      21.064  14.792   1.041  0.00  0.00    -0.002 C 
HETATM   10  C   UNK N   1      20.616  13.562   0.798  0.00  0.00     0.009 C 
ENDBRANCH   8   9
BRANCH   8  11
HETATM   11  C   UNK N   1      19.623  16.679   0.251  0.00  0.00     0.167 C 
HETATM   12  O   UNK N   1      20.397  17.374  -0.385  0.00  0.00    -0.648 OA
BRANCH  11  13
HETATM   13  O   UNK N   1      18.330  16.611  -0.127  0.00  0.00    -0.775 OA
HETATM   14  H   UNK N   1      17.679  16.627  -0.800  0.00  0.00     0.167 HD
ENDBRANCH  11  13
ENDBRANCH   8  11
ENDBRANCH   6   8
BRANCH   5  15
HETATM   15  O   UNK N   1      18.978  18.273   2.396  0.00  0.00    -0.348 OA
HETATM   16  H   UNK N   1      18.061  18.470   2.391  0.00  0.00     0.219 HD
ENDBRANCH   5  15
ENDBRANCH   1   5
BRANCH   1  17
HETATM   17  N   UNK N   1      22.218  18.960   3.514  0.00  0.00    -0.362 N 
HETATM   18  C   UNK N   1      22.600  20.135   3.128  0.00  0.00     0.111 C 
ATOM     19  HN  UNK N   1      22.904  18.205   3.524  1.00  0.00     0.162 HD
BRANCH  18  20
HETATM   20  C   UNK N   1      24.009  20.375   2.658  0.00  0.00     0.083 C 
BRANCH  20  21
HETATM   21  C   UNK N   1      25.054  19.428   3.254  0.00  0.00     0.010 C 
BRANCH  21  22
HETATM   22  C   UNK N   1      25.410  19.823   4.684  0.00  0.00     0.036 C 
BRANCH  22  23
HETATM   23  C   UNK N   1      26.878  19.585   5.020  0.00  0.00     0.173 C 
BRANCH  23  24
HETATM   24  C   UNK N   1      27.273  20.372   6.235  0.00  0.00     0.163 C 
HETATM   25  O   UNK N   1      27.770  21.481   6.113  0.00  0.00    -0.648 OA
BRANCH  24  26
HETATM   26  O   UNK N   1      27.088  19.855   7.464  0.00  0.00    -0.775 OA
HETATM   27  H   UNK N   1      27.144  20.326   8.273  0.00  0.00     0.167 HD
ENDBRANCH  24  26
ENDBRANCH  23  24
BRANCH  23  28
HETATM   28  N   UNK N   1      27.688  20.003   3.890  0.00  0.00    -0.418 N 
HETATM   29  H   UNK N   1      28.101  19.350   3.225  0.00  0.00     0.150 HD
HETATM   30  H   UNK N   1      27.850  21.000   3.754  0.00  0.00     0.150 HD
ENDBRANCH  23  28
ENDBRANCH  22  23
ENDBRANCH  21  22
ENDBRANCH  20  21
ENDBRANCH  18  20
BRANCH  18  31
HETATM   31  O   UNK N   1      21.739  21.175   3.142  0.00  0.00    -0.350 OA
HETATM   32  H   UNK N   1      21.436  21.886   2.613  0.00  0.00     0.219 HD
ENDBRANCH  18  31
ENDBRANCH   1  17
TORSDOF 17
ENDMDL
MODEL 6
REMARK VINA RESULT:      -5.2      4.805      7.610
REMARK  17 active torsions:
REMARK  status: ('A' for Active; 'I' for Inactive)
REMARK    1  A    between atoms: C_8  and  C_2 
REMARK    2  A    between atoms: C_4  and  C_3 
REMARK    3  A    between atoms: C_5  and  C_3 
REMARK    4  A    between atoms: C_7  and  C_4 
REMARK    5  A    between atoms: C_10  and  C_5 
REMARK    6  A    between atoms: C_9  and  C_6 
REMARK    7  A    between atoms: S_25  and  C_6 
REMARK    8  A    between atoms: C_12  and  C_7 
REMARK    9  A    between atoms: C_7  and  N_14 
REMARK   10  A    between atoms: C_13  and  C_8 
REMARK   11  A    between atoms: C_8  and  N_17 
REMARK   12  A    between atoms: C_11  and  C_9 
REMARK   13  A    between atoms: C_9  and  N_15 
REMARK   14  A    between atoms: C_10  and  O_19 
REMARK   15  A    between atoms: C_11  and  O_20 
REMARK   16  A    between atoms: O_22  and  C_12 
REMARK   17  A    between atoms: O_24  and  C_13 
ROOT
HETATM    1  C   UNK N   1      29.731  16.575   6.738  0.00  0.00     0.166 C 
ENDROOT
BRANCH   1   2
HETATM    2  C   UNK N   1      29.840  15.961   5.349  0.00  0.00     0.104 C 
BRANCH   2   3
HETATM    3  S   UNK N   1      31.498  16.230   4.640  0.00  0.00    -0.180 SA
HETATM    4  H   UNK N   1      32.202  15.223   4.058  0.00  0.00     0.101 HD
ENDBRANCH   2   3
ENDBRANCH   1   2
BRANCH   1   5
HETATM    5  C   UNK N   1      28.537  17.484   6.799  0.00  0.00     0.136 C 
HETATM    6  N   UNK N   1      28.337  18.337   5.852  0.00  0.00    -0.355 N 
ATOM      7  HN  UNK N   1      29.057  18.433   5.137  1.00  0.00     0.162 HD
BRANCH   6   8
HETATM    8  C   UNK N   1      27.149  19.169   5.741  0.00  0.00     0.204 C 
BRANCH   8   9
HETATM    9  C   UNK N   1      26.913  19.604   4.319  0.00  0.00    -0.002 C 
HETATM   10  C   UNK N   1      26.001  19.004   3.557  0.00  0.00     0.009 C 
ENDBRANCH   8   9
BRANCH   8  11
HETATM   11  C   UNK N   1      27.259  20.348   6.682  0.00  0.00     0.167 C 
HETATM   12  O   UNK N   1      27.794  21.377   6.303  0.00  0.00    -0.648 OA
BRANCH  11  13
HETATM   13  O   UNK N   1      26.765  20.282   7.935  0.00  0.00    -0.775 OA
HETATM   14  H   UNK N   1      26.880  20.090   8.845  0.00  0.00     0.167 HD
ENDBRANCH  11  13
ENDBRANCH   8  11
ENDBRANCH   6   8
BRANCH   5  15
HETATM   15  O   UNK N   1      27.643  17.335   7.803  0.00  0.00    -0.348 OA
HETATM   16  H   UNK N   1      27.186  16.956   8.529  0.00  0.00     0.219 HD
ENDBRANCH   5  15
ENDBRANCH   1   5
BRANCH   1  17
HETATM   17  N   UNK N   1      30.913  17.359   7.029  0.00  0.00    -0.362 N 
HETATM   18  C   UNK N   1      31.482  17.382   8.192  0.00  0.00     0.111 C 
ATOM     19  HN  UNK N   1      31.318  17.922   6.280  1.00  0.00     0.162 HD
BRANCH  18  20
HETATM   20  C   UNK N   1      32.682  18.253   8.450  0.00  0.00     0.083 C 
BRANCH  20  21
HETATM   21  C   UNK N   1      34.006  17.691   7.925  0.00  0.00     0.010 C 
BRANCH  21  22
HETATM   22  C   UNK N   1      34.249  16.273   8.434  0.00  0.00     0.036 C 
BRANCH  22  23
HETATM   23  C   UNK N   1      34.635  16.227   9.908  0.00  0.00     0.173 C 
BRANCH  23  24
HETATM   24  C   UNK N   1      35.964  15.552  10.082  0.00  0.00     0.163 C 
HETATM   25  O   UNK N   1      36.191  14.490   9.524  0.00  0.00    -0.648 OA
BRANCH  24  26
HETATM   26  O   UNK N   1      36.908  16.112  10.860  0.00  0.00    -0.775 OA
HETATM   27  H   UNK N   1      37.644  15.670  11.237  0.00  0.00     0.167 HD
ENDBRANCH  24  26
ENDBRANCH  23  24
BRANCH  23  28
HETATM   28  N   UNK N   1      33.619  15.485  10.633  0.00  0.00    -0.418 N 
HETATM   29  H   UNK N   1      33.103  14.703  10.231  0.00  0.00     0.150 HD
HETATM   30  H   UNK N   1      33.412  15.759  11.592  0.00  0.00     0.150 HD
ENDBRANCH  23  28
ENDBRANCH  22  23
ENDBRANCH  21  22
ENDBRANCH  20  21
ENDBRANCH  18  20
BRANCH  18  31
HETATM   31  O   UNK N   1      31.010  16.618   9.201  0.00  0.00    -0.350 OA
HETATM   32  H   UNK N   1      30.668  16.679  10.071  0.00  0.00     0.219 HD
ENDBRANCH  18  31
ENDBRANCH   1  17
TORSDOF 17
ENDMDL
MODEL 7
REMARK VINA RESULT:      -5.2      4.507      5.626
REMARK  17 active torsions:
REMARK  status: ('A' for Active; 'I' for Inactive)
REMARK    1  A    between atoms: C_8  and  C_2 
REMARK    2  A    between atoms: C_4  and  C_3 
REMARK    3  A    between atoms: C_5  and  C_3 
REMARK    4  A    between atoms: C_7  and  C_4 
REMARK    5  A    between atoms: C_10  and  C_5 
REMARK    6  A    between atoms: C_9  and  C_6 
REMARK    7  A    between atoms: S_25  and  C_6 
REMARK    8  A    between atoms: C_12  and  C_7 
REMARK    9  A    between atoms: C_7  and  N_14 
REMARK   10  A    between atoms: C_13  and  C_8 
REMARK   11  A    between atoms: C_8  and  N_17 
REMARK   12  A    between atoms: C_11  and  C_9 
REMARK   13  A    between atoms: C_9  and  N_15 
REMARK   14  A    between atoms: C_10  and  O_19 
REMARK   15  A    between atoms: C_11  and  O_20 
REMARK   16  A    between atoms: O_22  and  C_12 
REMARK   17  A    between atoms: O_24  and  C_13 
ROOT
HETATM    1  C   UNK N   1      33.271  13.104   6.165  0.00  0.00     0.166 C 
ENDROOT
BRANCH   1   2
HETATM    2  C   UNK N   1      33.856  13.146   4.759  0.00  0.00     0.104 C 
BRANCH   2   3
HETATM    3  S   UNK N   1      32.626  12.625   3.519  0.00  0.00    -0.180 SA
HETATM    4  H   UNK N   1      32.985  11.988   2.374  0.00  0.00     0.101 HD
ENDBRANCH   2   3
ENDBRANCH   1   2
BRANCH   1   5
HETATM    5  C   UNK N   1      32.734  14.457   6.531  0.00  0.00     0.136 C 
HETATM    6  N   UNK N   1      33.122  15.497   5.874  0.00  0.00    -0.355 N 
ATOM      7  HN  UNK N   1      33.863  15.376   5.184  1.00  0.00     0.162 HD
BRANCH   6   8
HETATM    8  C   UNK N   1      32.570  16.830   6.054  0.00  0.00     0.204 C 
BRANCH   8   9
HETATM    9  C   UNK N   1      32.386  17.533   4.735  0.00  0.00    -0.002 C 
HETATM   10  C   UNK N   1      32.802  16.982   3.596  0.00  0.00     0.009 C 
ENDBRANCH   8   9
BRANCH   8  11
HETATM   11  C   UNK N   1      33.443  17.624   7.000  0.00  0.00     0.167 C 
HETATM   12  O   UNK N   1      34.592  17.887   6.687  0.00  0.00    -0.648 OA
BRANCH  11  13
HETATM   13  O   UNK N   1      32.965  18.053   8.186  0.00  0.00    -0.775 OA
HETATM   14  H   UNK N   1      32.654  18.747   8.734  0.00  0.00     0.167 HD
ENDBRANCH  11  13
ENDBRANCH   8  11
ENDBRANCH   6   8
BRANCH   5  15
HETATM   15  O   UNK N   1      31.784  14.554   7.491  0.00  0.00    -0.348 OA
HETATM   16  H   UNK N   1      31.144  14.930   8.063  0.00  0.00     0.219 HD
ENDBRANCH   5  15
ENDBRANCH   1   5
BRANCH   1  17
HETATM   17  N   UNK N   1      34.301  12.751   7.120  0.00  0.00    -0.362 N 
HETATM   18  C   UNK N   1      34.056  12.137   8.233  0.00  0.00     0.111 C 
ATOM     19  HN  UNK N   1      35.267  12.999   6.905  1.00  0.00     0.162 HD
BRANCH  18  20
HETATM   20  C   UNK N   1      35.160  11.836   9.211  0.00  0.00     0.083 C 
BRANCH  20  21
HETATM   21  C   UNK N   1      35.965  13.057   9.664  0.00  0.00     0.010 C 
BRANCH  21  22
HETATM   22  C   UNK N   1      35.110  14.009  10.496  0.00  0.00     0.036 C 
BRANCH  22  23
HETATM   23  C   UNK N   1      34.777  15.304   9.765  0.00  0.00     0.173 C 
BRANCH  23  24
HETATM   24  C   UNK N   1      35.624  16.431  10.278  0.00  0.00     0.163 C 
HETATM   25  O   UNK N   1      35.296  17.589  10.073  0.00  0.00    -0.648 OA
BRANCH  24  26
HETATM   26  O   UNK N   1      36.754  16.168  10.962  0.00  0.00    -0.775 OA
HETATM   27  H   UNK N   1      37.245  15.371  10.927  0.00  0.00     0.167 HD
ENDBRANCH  24  26
ENDBRANCH  23  24
BRANCH  23  28
HETATM   28  N   UNK N   1      33.376  15.616   9.985  0.00  0.00    -0.418 N 
HETATM   29  H   UNK N   1      32.964  16.523   9.772  0.00  0.00     0.150 HD
HETATM   30  H   UNK N   1      32.774  14.889  10.371  0.00  0.00     0.150 HD
ENDBRANCH  23  28
ENDBRANCH  22  23
ENDBRANCH  21  22
ENDBRANCH  20  21
ENDBRANCH  18  20
BRANCH  18  31
HETATM   31  O   UNK N   1      32.800  11.748   8.540  0.00  0.00    -0.350 OA
HETATM   32  H   UNK N   1      32.326  11.054   8.954  0.00  0.00     0.219 HD
ENDBRANCH  18  31
ENDBRANCH   1  17
TORSDOF 17
ENDMDL
MODEL 8
REMARK VINA RESULT:      -5.2      2.231      8.339
REMARK  17 active torsions:
REMARK  status: ('A' for Active; 'I' for Inactive)
REMARK    1  A    between atoms: C_8  and  C_2 
REMARK    2  A    between atoms: C_4  and  C_3 
REMARK    3  A    between atoms: C_5  and  C_3 
REMARK    4  A    between atoms: C_7  and  C_4 
REMARK    5  A    between atoms: C_10  and  C_5 
REMARK    6  A    between atoms: C_9  and  C_6 
REMARK    7  A    between atoms: S_25  and  C_6 
REMARK    8  A    between atoms: C_12  and  C_7 
REMARK    9  A    between atoms: C_7  and  N_14 
REMARK   10  A    between atoms: C_13  and  C_8 
REMARK   11  A    between atoms: C_8  and  N_17 
REMARK   12  A    between atoms: C_11  and  C_9 
REMARK   13  A    between atoms: C_9  and  N_15 
REMARK   14  A    between atoms: C_10  and  O_19 
REMARK   15  A    between atoms: C_11  and  O_20 
REMARK   16  A    between atoms: O_22  and  C_12 
REMARK   17  A    between atoms: O_24  and  C_13 
ROOT
HETATM    1  C   UNK N   1      36.086  11.705  12.344  0.00  0.00     0.166 C 
ENDROOT
BRANCH   1   2
HETATM    2  C   UNK N   1      34.801  10.889  12.285  0.00  0.00     0.104 C 
BRANCH   2   3
HETATM    3  S   UNK N   1      34.288  10.596  10.562  0.00  0.00    -0.180 SA
HETATM    4  H   UNK N   1      34.374   9.367   9.986  0.00  0.00     0.101 HD
ENDBRANCH   2   3
ENDBRANCH   1   2
BRANCH   1   5
HETATM    5  C   UNK N   1      36.452  11.973  13.776  0.00  0.00     0.136 C 
HETATM    6  N   UNK N   1      35.560  11.838  14.698  0.00  0.00    -0.355 N 
ATOM      7  HN  UNK N   1      34.601  11.647  14.409  1.00  0.00     0.162 HD
BRANCH   6   8
HETATM    8  C   UNK N   1      35.836  11.941  16.122  0.00  0.00     0.204 C 
BRANCH   8   9
HETATM    9  C   UNK N   1      35.643  10.619  16.817  0.00  0.00    -0.002 C 
HETATM   10  C   UNK N   1      36.635  10.047  17.498  0.00  0.00     0.009 C 
ENDBRANCH   8   9
BRANCH   8  11
HETATM   11  C   UNK N   1      34.982  13.030  16.733  0.00  0.00     0.167 C 
HETATM   12  O   UNK N   1      35.349  13.584  17.756  0.00  0.00    -0.648 OA
BRANCH  11  13
HETATM   13  O   UNK N   1      33.822  13.406  16.157  0.00  0.00    -0.775 OA
HETATM   14  H   UNK N   1      33.361  13.879  15.493  0.00  0.00     0.167 HD
ENDBRANCH  11  13
ENDBRANCH   8  11
ENDBRANCH   6   8
BRANCH   5  15
HETATM   15  O   UNK N   1      37.736  12.269  14.086  0.00  0.00    -0.348 OA
HETATM   16  H   UNK N   1      38.669  12.202  14.135  0.00  0.00     0.219 HD
ENDBRANCH   5  15
ENDBRANCH   1   5
BRANCH   1  17
HETATM   17  N   UNK N   1      35.897  12.978  11.679  0.00  0.00    -0.362 N 
HETATM   18  C   UNK N   1      36.875  13.687  11.212  0.00  0.00     0.111 C 
ATOM     19  HN  UNK N   1      34.946  13.333  11.573  1.00  0.00     0.162 HD
BRANCH  18  20
HETATM   20  C   UNK N   1      36.623  15.025  10.570  0.00  0.00     0.083 C 
BRANCH  20  21
HETATM   21  C   UNK N   1      35.170  15.504  10.634  0.00  0.00     0.010 C 
BRANCH  21  22
HETATM   22  C   UNK N   1      35.023  16.909  10.057  0.00  0.00     0.036 C 
BRANCH  22  23
HETATM   23  C   UNK N   1      34.152  16.952   8.807  0.00  0.00     0.173 C 
BRANCH  23  24
HETATM   24  C   UNK N   1      34.558  18.094   7.923  0.00  0.00     0.163 C 
HETATM   25  O   UNK N   1      34.429  18.010   6.712  0.00  0.00    -0.648 OA
BRANCH  24  26
HETATM   26  O   UNK N   1      35.071  19.216   8.462  0.00  0.00    -0.775 OA
HETATM   27  H   UNK N   1      35.812  19.692   8.141  0.00  0.00     0.167 HD
ENDBRANCH  24  26
ENDBRANCH  23  24
BRANCH  23  28
HETATM   28  N   UNK N   1      32.767  17.122   9.209  0.00  0.00    -0.418 N 
HETATM   29  H   UNK N   1      32.174  17.878   8.869  0.00  0.00     0.150 HD
HETATM   30  H   UNK N   1      32.369  16.450   9.864  0.00  0.00     0.150 HD
ENDBRANCH  23  28
ENDBRANCH  22  23
ENDBRANCH  21  22
ENDBRANCH  20  21
ENDBRANCH  18  20
BRANCH  18  31
HETATM   31  O   UNK N   1      38.145  13.236  11.286  0.00  0.00    -0.350 OA
HETATM   32  H   UNK N   1      38.708  12.706  11.816  0.00  0.00     0.219 HD
ENDBRANCH  18  31
ENDBRANCH   1  17
TORSDOF 17
ENDMDL
MODEL 9
REMARK VINA RESULT:      -5.2     13.226     15.406
REMARK  17 active torsions:
REMARK  status: ('A' for Active; 'I' for Inactive)
REMARK    1  A    between atoms: C_8  and  C_2 
REMARK    2  A    between atoms: C_4  and  C_3 
REMARK    3  A    between atoms: C_5  and  C_3 
REMARK    4  A    between atoms: C_7  and  C_4 
REMARK    5  A    between atoms: C_10  and  C_5 
REMARK    6  A    between atoms: C_9  and  C_6 
REMARK    7  A    between atoms: S_25  and  C_6 
REMARK    8  A    between atoms: C_12  and  C_7 
REMARK    9  A    between atoms: C_7  and  N_14 
REMARK   10  A    between atoms: C_13  and  C_8 
REMARK   11  A    between atoms: C_8  and  N_17 
REMARK   12  A    between atoms: C_11  and  C_9 
REMARK   13  A    between atoms: C_9  and  N_15 
REMARK   14  A    between atoms: C_10  and  O_19 
REMARK   15  A    between atoms: C_11  and  O_20 
REMARK   16  A    between atoms: O_22  and  C_12 
REMARK   17  A    between atoms: O_24  and  C_13 
ROOT
HETATM    1  C   UNK N   1      19.059  15.565   5.192  0.00  0.00     0.166 C 
ENDROOT
BRANCH   1   2
HETATM    2  C   UNK N   1      18.782  14.179   4.625  0.00  0.00     0.104 C 
BRANCH   2   3
HETATM    3  S   UNK N   1      20.086  12.999   5.105  0.00  0.00    -0.180 SA
HETATM    4  H   UNK N   1      20.088  12.385   6.318  0.00  0.00     0.101 HD
ENDBRANCH   2   3
ENDBRANCH   1   2
BRANCH   1   5
HETATM    5  C   UNK N   1      19.621  16.450   4.117  0.00  0.00     0.136 C 
HETATM    6  N   UNK N   1      20.318  17.485   4.444  0.00  0.00    -0.355 N 
ATOM      7  HN  UNK N   1      20.381  17.725   5.433  1.00  0.00     0.162 HD
BRANCH   6   8
HETATM    8  C   UNK N   1      21.018  18.332   3.491  0.00  0.00     0.204 C 
BRANCH   8   9
HETATM    9  C   UNK N   1      22.380  18.725   3.999  0.00  0.00    -0.002 C 
HETATM   10  C   UNK N   1      22.947  18.081   5.018  0.00  0.00     0.009 C 
ENDBRANCH   8   9
BRANCH   8  11
HETATM   11  C   UNK N   1      20.170  19.539   3.157  0.00  0.00     0.167 C 
HETATM   12  O   UNK N   1      20.358  20.592   3.744  0.00  0.00    -0.648 OA
BRANCH  11  13
HETATM   13  O   UNK N   1      19.211  19.471   2.211  0.00  0.00    -0.775 OA
HETATM   14  H   UNK N   1      18.340  19.242   1.952  0.00  0.00     0.167 HD
ENDBRANCH  11  13
ENDBRANCH   8  11
ENDBRANCH   6   8
BRANCH   5  15
HETATM   15  O   UNK N   1      19.460  16.100   2.820  0.00  0.00    -0.348 OA
HETATM   16  H   UNK N   1      19.349  16.178   1.893  0.00  0.00     0.219 HD
ENDBRANCH   5  15
ENDBRANCH   1   5
BRANCH   1  17
HETATM   17  N   UNK N   1      20.031  15.478   6.262  0.00  0.00    -0.362 N 
HETATM   18  C   UNK N   1      19.795  15.880   7.470  0.00  0.00     0.111 C 
ATOM     19  HN  UNK N   1      20.948  15.081   6.054  1.00  0.00     0.162 HD
BRANCH  18  20
HETATM   20  C   UNK N   1      20.860  15.809   8.532  0.00  0.00     0.083 C 
BRANCH  20  21
HETATM   21  C   UNK N   1      21.610  14.476   8.599  0.00  0.00     0.010 C 
BRANCH  21  22
HETATM   22  C   UNK N   1      21.360  13.764   9.926  0.00  0.00     0.036 C 
BRANCH  22  23
HETATM   23  C   UNK N   1      22.376  12.664  10.213  0.00  0.00     0.173 C 
BRANCH  23  24
HETATM   24  C   UNK N   1      22.128  12.058  11.563  0.00  0.00     0.163 C 
HETATM   25  O   UNK N   1      23.057  11.869  12.331  0.00  0.00    -0.648 OA
BRANCH  24  26
HETATM   26  O   UNK N   1      20.879  11.715  11.929  0.00  0.00    -0.775 OA
HETATM   27  H   UNK N   1      20.102  11.838  11.418  0.00  0.00     0.167 HD
ENDBRANCH  24  26
ENDBRANCH  23  24
BRANCH  23  28
HETATM   28  N   UNK N   1      23.708  13.242  10.181  0.00  0.00    -0.418 N 
HETATM   29  H   UNK N   1      24.400  13.015   9.468  0.00  0.00     0.150 HD
HETATM   30  H   UNK N   1      23.963  13.908  10.909  0.00  0.00     0.150 HD
ENDBRANCH  23  28
ENDBRANCH  22  23
ENDBRANCH  21  22
ENDBRANCH  20  21
ENDBRANCH  18  20
BRANCH  18  31
HETATM   31  O   UNK N   1      18.582  16.369   7.805  0.00  0.00    -0.350 OA
HETATM   32  H   UNK N   1      17.741  16.564   7.440  0.00  0.00     0.219 HD
ENDBRANCH  18  31
ENDBRANCH   1  17
TORSDOF 17
ENDMDL
