MODEL 1
REMARK VINA RESULT:      -5.4      0.000      0.000
REMARK  2 active torsions:
REMARK  status: ('A' for Active; 'I' for Inactive)
REMARK    1  A    between atoms: N_2  and  C_3 
REMARK    2  A    between atoms: C_4  and  N_12 
REMARK       I    between atoms: C_8  and  N_9 
ROOT
HETATM    1  C   UNK N   1      31.611  17.705   8.008  0.00  0.00     0.155 A 
HETATM    2  C   UNK N   1      33.021  17.743   7.639  0.00  0.00     0.214 A 
HETATM    3  C   UNK N   1      33.327  17.411   6.279  0.00  0.00     0.296 A 
HETATM    4  O   UNK N   1      34.477  17.415   5.874  0.00  0.00    -0.265 OA
HETATM    5  N   UNK N   1      32.337  17.081   5.401  0.00  0.00    -0.154 N 
HETATM    6  C   UNK N   1      31.047  17.058   5.780  0.00  0.00     0.680 A 
HETATM    7  N   UNK N   1      30.046  16.714   4.852  0.00  0.00    -0.234 N 
HETATM    8  N   UNK N   1      30.710  17.363   7.049  0.00  0.00    -0.174 N 
ATOM      9  HN  UNK N   1      29.724  17.335   7.304  1.00  0.00     0.186 HD
HETATM   10  H   UNK N   1      32.572  16.857   4.471  0.00  0.00     0.187 HD
HETATM   11  H   UNK N   1      29.101  16.697   5.130  0.00  0.00     0.174 HD
HETATM   12  H   UNK N   1      30.289  16.491   3.925  0.00  0.00     0.174 HD
ENDROOT
BRANCH   1  13
HETATM   13  N   UNK N   1      31.024  17.988   9.284  0.00  0.00    -0.378 N 
HETATM   14  C   UNK N   1      29.779  18.575   9.690  0.00  0.00     0.147 C 
HETATM   15  H   UNK N   1      31.595  17.725  10.041  0.00  0.00     0.160 HD
ENDBRANCH   1  13
BRANCH   2  16
HETATM   16  N   UNK N   1      34.117  18.085   8.527  0.00  0.00    -0.106 N 
HETATM   17  O   UNK N   1      34.879  19.126   8.326  0.00  0.00    -0.531 OA
HETATM   18  O   UNK N   1      34.350  17.406   9.482  0.00  0.00    -0.531 OA
ENDBRANCH   2  16
TORSDOF 2
ENDMDL
MODEL 2
REMARK VINA RESULT:      -5.2      3.148      4.705
REMARK  2 active torsions:
REMARK  status: ('A' for Active; 'I' for Inactive)
REMARK    1  A    between atoms: N_2  and  C_3 
REMARK    2  A    between atoms: C_4  and  N_12 
REMARK       I    between atoms: C_8  and  N_9 
ROOT
HETATM    1  C   UNK N   1      33.170  15.383   9.041  0.00  0.00     0.155 A 
HETATM    2  C   UNK N   1      33.948  16.617   9.032  0.00  0.00     0.214 A 
HETATM    3  C   UNK N   1      34.934  16.748  10.064  0.00  0.00     0.296 A 
HETATM    4  O   UNK N   1      35.636  17.743  10.140  0.00  0.00    -0.265 OA
HETATM    5  N   UNK N   1      35.114  15.762  10.988  0.00  0.00    -0.154 N 
HETATM    6  C   UNK N   1      34.376  14.638  10.962  0.00  0.00     0.680 A 
HETATM    7  N   UNK N   1      34.584  13.636  11.929  0.00  0.00    -0.234 N 
HETATM    8  N   UNK N   1      33.437  14.469  10.011  0.00  0.00    -0.174 N 
ATOM      9  HN  UNK N   1      32.894  13.606  10.020  1.00  0.00     0.186 HD
HETATM   10  H   UNK N   1      35.798  15.875  11.687  0.00  0.00     0.187 HD
HETATM   11  H   UNK N   1      34.043  12.813  11.909  0.00  0.00     0.174 HD
HETATM   12  H   UNK N   1      35.269  13.757  12.624  0.00  0.00     0.174 HD
ENDROOT
BRANCH   1  13
HETATM   13  N   UNK N   1      32.130  14.989   8.138  0.00  0.00    -0.378 N 
HETATM   14  C   UNK N   1      32.078  14.785   6.719  0.00  0.00     0.147 C 
HETATM   15  H   UNK N   1      31.269  14.824   8.586  0.00  0.00     0.160 HD
ENDBRANCH   1  13
BRANCH   2  16
HETATM   16  N   UNK N   1      33.802  17.700   8.078  0.00  0.00    -0.106 N 
HETATM   17  O   UNK N   1      34.601  17.840   7.054  0.00  0.00    -0.531 OA
HETATM   18  O   UNK N   1      32.928  18.504   8.211  0.00  0.00    -0.531 OA
ENDBRANCH   2  16
TORSDOF 2
ENDMDL
MODEL 3
REMARK VINA RESULT:      -5.2      2.473      2.804
REMARK  2 active torsions:
REMARK  status: ('A' for Active; 'I' for Inactive)
REMARK    1  A    between atoms: N_2  and  C_3 
REMARK    2  A    between atoms: C_4  and  N_12 
REMARK       I    between atoms: C_8  and  N_9 
ROOT
HETATM    1  C   UNK N   1      33.466  15.803   9.081  0.00  0.00     0.155 A 
HETATM    2  C   UNK N   1      34.069  16.908   8.345  0.00  0.00     0.214 A 
HETATM    3  C   UNK N   1      33.804  16.948   6.938  0.00  0.00     0.296 A 
HETATM    4  O   UNK N   1      34.263  17.834   6.236  0.00  0.00    -0.265 OA
HETATM    5  N   UNK N   1      33.028  15.996   6.345  0.00  0.00    -0.154 N 
HETATM    6  C   UNK N   1      32.488  14.992   7.059  0.00  0.00     0.680 A 
HETATM    7  N   UNK N   1      31.691  14.023   6.421  0.00  0.00    -0.234 N 
HETATM    8  N   UNK N   1      32.710  14.912   8.386  0.00  0.00    -0.174 N 
ATOM      9  HN  UNK N   1      32.288  14.138   8.897  1.00  0.00     0.186 HD
HETATM   10  H   UNK N   1      32.859  16.045   5.376  0.00  0.00     0.187 HD
HETATM   11  H   UNK N   1      31.297  13.288   6.944  0.00  0.00     0.174 HD
HETATM   12  H   UNK N   1      31.528  14.080   5.453  0.00  0.00     0.174 HD
ENDROOT
BRANCH   1  13
HETATM   13  N   UNK N   1      33.562  15.517  10.482  0.00  0.00    -0.378 N 
HETATM   14  C   UNK N   1      34.448  14.706  11.265  0.00  0.00     0.147 C 
HETATM   15  H   UNK N   1      32.875  15.973  11.019  0.00  0.00     0.160 HD
ENDBRANCH   1  13
BRANCH   2  16
HETATM   16  N   UNK N   1      34.902  17.948   8.919  0.00  0.00    -0.106 N 
HETATM   17  O   UNK N   1      35.005  19.135   8.383  0.00  0.00    -0.531 OA
HETATM   18  O   UNK N   1      35.526  17.737   9.916  0.00  0.00    -0.531 OA
ENDBRANCH   2  16
TORSDOF 2
ENDMDL
MODEL 4
REMARK VINA RESULT:      -5.0     12.533     13.428
REMARK  2 active torsions:
REMARK  status: ('A' for Active; 'I' for Inactive)
REMARK    1  A    between atoms: N_2  and  C_3 
REMARK    2  A    between atoms: C_4  and  N_12 
REMARK       I    between atoms: C_8  and  N_9 
ROOT
HETATM    1  C   UNK N   1      20.054  17.773   1.721  0.00  0.00     0.155 A 
HETATM    2  C   UNK N   1      20.272  18.022   3.141  0.00  0.00     0.214 A 
HETATM    3  C   UNK N   1      20.648  19.358   3.497  0.00  0.00     0.296 A 
HETATM    4  O   UNK N   1      20.852  19.666   4.659  0.00  0.00    -0.265 OA
HETATM    5  N   UNK N   1      20.787  20.322   2.542  0.00  0.00    -0.154 N 
HETATM    6  C   UNK N   1      20.577  20.052   1.242  0.00  0.00     0.680 A 
HETATM    7  N   UNK N   1      20.728  21.067   0.278  0.00  0.00    -0.234 N 
HETATM    8  N   UNK N   1      20.222  18.810   0.859  0.00  0.00    -0.174 N 
ATOM      9  HN  UNK N   1      20.071  18.638  -0.134  1.00  0.00     0.186 HD
HETATM   10  H   UNK N   1      21.046  21.233   2.811  0.00  0.00     0.187 HD
HETATM   11  H   UNK N   1      20.574  20.869  -0.674  0.00  0.00     0.174 HD
HETATM   12  H   UNK N   1      20.987  21.975   0.556  0.00  0.00     0.174 HD
ENDROOT
BRANCH   1  13
HETATM   13  N   UNK N   1      19.676  16.544   1.088  0.00  0.00    -0.378 N 
HETATM   14  C   UNK N   1      20.213  15.214   1.111  0.00  0.00     0.147 C 
HETATM   15  H   UNK N   1      18.879  16.632   0.515  0.00  0.00     0.160 HD
ENDBRANCH   1  13
BRANCH   2  16
HETATM   16  N   UNK N   1      20.140  17.039   4.200  0.00  0.00    -0.106 N 
HETATM   17  O   UNK N   1      21.175  16.472   4.760  0.00  0.00    -0.531 OA
HETATM   18  O   UNK N   1      19.057  16.721   4.592  0.00  0.00    -0.531 OA
ENDBRANCH   2  16
TORSDOF 2
ENDMDL
MODEL 5
REMARK VINA RESULT:      -4.9     11.438     13.117
REMARK  2 active torsions:
REMARK  status: ('A' for Active; 'I' for Inactive)
REMARK    1  A    between atoms: N_2  and  C_3 
REMARK    2  A    between atoms: C_4  and  N_12 
REMARK       I    between atoms: C_8  and  N_9 
ROOT
HETATM    1  C   UNK N   1      42.525  23.032   2.378  0.00  0.00     0.155 A 
HETATM    2  C   UNK N   1      42.692  21.624   2.723  0.00  0.00     0.214 A 
HETATM    3  C   UNK N   1      44.019  21.214   3.071  0.00  0.00     0.296 A 
HETATM    4  O   UNK N   1      44.261  20.057   3.375  0.00  0.00    -0.265 OA
HETATM    5  N   UNK N   1      45.050  22.107   3.072  0.00  0.00    -0.154 N 
HETATM    6  C   UNK N   1      44.855  23.397   2.748  0.00  0.00     0.680 A 
HETATM    7  N   UNK N   1      45.937  24.298   2.758  0.00  0.00    -0.234 N 
HETATM    8  N   UNK N   1      43.624  23.831   2.414  0.00  0.00    -0.174 N 
ATOM      9  HN  UNK N   1      43.510  24.815   2.173  1.00  0.00     0.186 HD
HETATM   10  H   UNK N   1      45.954  21.801   3.315  0.00  0.00     0.187 HD
HETATM   11  H   UNK N   1      45.794  25.243   2.521  0.00  0.00     0.174 HD
HETATM   12  H   UNK N   1      46.837  23.983   3.002  0.00  0.00     0.174 HD
ENDROOT
BRANCH   1  13
HETATM   13  N   UNK N   1      41.322  23.711   1.995  0.00  0.00    -0.378 N 
HETATM   14  C   UNK N   1      40.877  24.316   0.773  0.00  0.00     0.147 C 
HETATM   15  H   UNK N   1      40.664  23.776   2.724  0.00  0.00     0.160 HD
ENDBRANCH   1  13
BRANCH   2  16
HETATM   16  N   UNK N   1      41.637  20.629   2.739  0.00  0.00    -0.106 N 
HETATM   17  O   UNK N   1      41.320  19.965   3.818  0.00  0.00    -0.531 OA
HETATM   18  O   UNK N   1      41.021  20.390   1.743  0.00  0.00    -0.531 OA
ENDBRANCH   2  16
TORSDOF 2
ENDMDL
MODEL 6
REMARK VINA RESULT:      -4.9      2.694      3.146
REMARK  2 active torsions:
REMARK  status: ('A' for Active; 'I' for Inactive)
REMARK    1  A    between atoms: N_2  and  C_3 
REMARK    2  A    between atoms: C_4  and  N_12 
REMARK       I    between atoms: C_8  and  N_9 
ROOT
HETATM    1  C   UNK N   1      32.637  16.355   8.570  0.00  0.00     0.155 A 
HETATM    2  C   UNK N   1      33.789  16.519   7.692  0.00  0.00     0.214 A 
HETATM    3  C   UNK N   1      34.507  15.324   7.362  0.00  0.00     0.296 A 
HETATM    4  O   UNK N   1      35.484  15.358   6.633  0.00  0.00    -0.265 OA
HETATM    5  N   UNK N   1      34.113  14.115   7.854  0.00  0.00    -0.154 N 
HETATM    6  C   UNK N   1      33.044  14.004   8.662  0.00  0.00     0.680 A 
HETATM    7  N   UNK N   1      32.661  12.742   9.155  0.00  0.00    -0.234 N 
HETATM    8  N   UNK N   1      32.338  15.100   9.001  0.00  0.00    -0.174 N 
ATOM      9  HN  UNK N   1      31.533  14.983   9.615  1.00  0.00     0.186 HD
HETATM   10  H   UNK N   1      34.623  13.307   7.613  0.00  0.00     0.187 HD
HETATM   11  H   UNK N   1      31.878  12.662   9.747  0.00  0.00     0.174 HD
HETATM   12  H   UNK N   1      33.176  11.941   8.910  0.00  0.00     0.174 HD
ENDROOT
BRANCH   1  13
HETATM   13  N   UNK N   1      31.746  17.366   9.059  0.00  0.00    -0.378 N 
HETATM   14  C   UNK N   1      30.507  17.906   8.578  0.00  0.00     0.147 C 
HETATM   15  H   UNK N   1      32.050  17.777   9.900  0.00  0.00     0.160 HD
ENDBRANCH   1  13
BRANCH   2  16
HETATM   16  N   UNK N   1      34.255  17.777   7.138  0.00  0.00    -0.106 N 
HETATM   17  O   UNK N   1      34.890  18.664   7.856  0.00  0.00    -0.531 OA
HETATM   18  O   UNK N   1      34.062  18.034   5.987  0.00  0.00    -0.531 OA
ENDBRANCH   2  16
TORSDOF 2
ENDMDL
MODEL 7
REMARK VINA RESULT:      -4.9     11.157     12.565
REMARK  2 active torsions:
REMARK  status: ('A' for Active; 'I' for Inactive)
REMARK    1  A    between atoms: N_2  and  C_3 
REMARK    2  A    between atoms: C_4  and  N_12 
REMARK       I    between atoms: C_8  and  N_9 
ROOT
HETATM    1  C   UNK N   1      23.089  12.914   9.866  0.00  0.00     0.155 A 
HETATM    2  C   UNK N   1      21.638  12.870   9.727  0.00  0.00     0.214 A 
HETATM    3  C   UNK N   1      20.906  12.440  10.881  0.00  0.00     0.296 A 
HETATM    4  O   UNK N   1      19.689  12.371  10.864  0.00  0.00    -0.265 OA
HETATM    5  N   UNK N   1      21.554  12.098  12.031  0.00  0.00    -0.154 N 
HETATM    6  C   UNK N   1      22.894  12.151  12.120  0.00  0.00     0.680 A 
HETATM    7  N   UNK N   1      23.537  11.792  13.320  0.00  0.00    -0.234 N 
HETATM    8  N   UNK N   1      23.626  12.550  11.061  0.00  0.00    -0.174 N 
ATOM      9  HN  UNK N   1      24.640  12.579  11.160  1.00  0.00     0.186 HD
HETATM   10  H   UNK N   1      21.029  11.805  12.812  0.00  0.00     0.187 HD
HETATM   11  H   UNK N   1      24.519  11.832  13.384  0.00  0.00     0.174 HD
HETATM   12  H   UNK N   1      23.005  11.501  14.095  0.00  0.00     0.174 HD
ENDROOT
BRANCH   1  13
HETATM   13  N   UNK N   1      24.059  13.301   8.885  0.00  0.00    -0.378 N 
HETATM   14  C   UNK N   1      24.545  12.689   7.682  0.00  0.00     0.147 C 
HETATM   15  H   UNK N   1      24.481  14.169   9.077  0.00  0.00     0.160 HD
ENDBRANCH   1  13
BRANCH   2  16
HETATM   16  N   UNK N   1      20.894  13.222   8.532  0.00  0.00    -0.106 N 
HETATM   17  O   UNK N   1      20.107  14.263   8.480  0.00  0.00    -0.531 OA
HETATM   18  O   UNK N   1      20.987  12.550   7.547  0.00  0.00    -0.531 OA
ENDBRANCH   2  16
TORSDOF 2
ENDMDL
MODEL 8
REMARK VINA RESULT:      -4.8      8.138      9.455
REMARK  2 active torsions:
REMARK  status: ('A' for Active; 'I' for Inactive)
REMARK    1  A    between atoms: N_2  and  C_3 
REMARK    2  A    between atoms: C_4  and  N_12 
REMARK       I    between atoms: C_8  and  N_9 
ROOT
HETATM    1  C   UNK N   1      35.115  12.814  13.792  0.00  0.00     0.155 A 
HETATM    2  C   UNK N   1      35.846  13.134  15.013  0.00  0.00     0.214 A 
HETATM    3  C   UNK N   1      36.704  14.280  14.952  0.00  0.00     0.296 A 
HETATM    4  O   UNK N   1      37.356  14.629  15.922  0.00  0.00    -0.265 OA
HETATM    5  N   UNK N   1      36.813  15.012  13.807  0.00  0.00    -0.154 N 
HETATM    6  C   UNK N   1      36.121  14.684  12.701  0.00  0.00     0.680 A 
HETATM    7  N   UNK N   1      36.253  15.458  11.532  0.00  0.00    -0.234 N 
HETATM    8  N   UNK N   1      35.301  13.615  12.709  0.00  0.00    -0.174 N 
ATOM      9  HN  UNK N   1      34.793  13.393  11.855  1.00  0.00     0.186 HD
HETATM   10  H   UNK N   1      37.409  15.795  13.789  0.00  0.00     0.187 HD
HETATM   11  H   UNK N   1      35.747  15.217  10.722  0.00  0.00     0.174 HD
HETATM   12  H   UNK N   1      36.851  16.239  11.524  0.00  0.00     0.174 HD
ENDROOT
BRANCH   1  13
HETATM   13  N   UNK N   1      34.197  11.737  13.569  0.00  0.00    -0.378 N 
HETATM   14  C   UNK N   1      33.625  10.734  14.421  0.00  0.00     0.147 C 
HETATM   15  H   UNK N   1      33.896  11.670  12.634  0.00  0.00     0.160 HD
ENDBRANCH   1  13
BRANCH   2  16
HETATM   16  N   UNK N   1      35.771  12.395  16.259  0.00  0.00    -0.106 N 
HETATM   17  O   UNK N   1      34.999  12.765  17.245  0.00  0.00    -0.531 OA
HETATM   18  O   UNK N   1      36.430  11.410  16.413  0.00  0.00    -0.531 OA
ENDBRANCH   2  16
TORSDOF 2
ENDMDL
MODEL 9
REMARK VINA RESULT:      -4.7     10.543     11.924
REMARK  2 active torsions:
REMARK  status: ('A' for Active; 'I' for Inactive)
REMARK    1  A    between atoms: N_2  and  C_3 
REMARK    2  A    between atoms: C_4  and  N_12 
REMARK       I    between atoms: C_8  and  N_9 
ROOT
HETATM    1  C   UNK N   1      42.510  22.318   3.011  0.00  0.00     0.155 A 
HETATM    2  C   UNK N   1      41.584  21.238   2.689  0.00  0.00     0.214 A 
HETATM    3  C   UNK N   1      40.628  21.514   1.659  0.00  0.00     0.296 A 
HETATM    4  O   UNK N   1      39.812  20.674   1.317  0.00  0.00    -0.265 OA
HETATM    5  N   UNK N   1      40.606  22.724   1.031  0.00  0.00    -0.154 N 
HETATM    6  C   UNK N   1      41.477  23.695   1.357  0.00  0.00     0.680 A 
HETATM    7  N   UNK N   1      41.432  24.935   0.692  0.00  0.00    -0.234 N 
HETATM    8  N   UNK N   1      42.395  23.483   2.320  0.00  0.00    -0.174 N 
ATOM      9  HN  UNK N   1      43.040  24.240   2.544  1.00  0.00     0.186 HD
HETATM   10  H   UNK N   1      39.939  22.890   0.325  0.00  0.00     0.187 HD
HETATM   11  H   UNK N   1      42.070  25.646   0.931  0.00  0.00     0.174 HD
HETATM   12  H   UNK N   1      40.763  25.092  -0.011  0.00  0.00     0.174 HD
ENDROOT
BRANCH   1  13
HETATM   13  N   UNK N   1      43.558  22.321   3.989  0.00  0.00    -0.378 N 
HETATM   14  C   UNK N   1      44.875  21.754   4.025  0.00  0.00     0.147 C 
HETATM   15  H   UNK N   1      43.324  22.815   4.807  0.00  0.00     0.160 HD
ENDBRANCH   1  13
BRANCH   2  16
HETATM   16  N   UNK N   1      41.558  19.932   3.321  0.00  0.00    -0.106 N 
HETATM   17  O   UNK N   1      42.463  19.022   3.079  0.00  0.00    -0.531 OA
HETATM   18  O   UNK N   1      40.689  19.656   4.093  0.00  0.00    -0.531 OA
ENDBRANCH   2  16
TORSDOF 2
ENDMDL
