REMARK  22 active torsions:
REMARK  status: ('A' for Active; 'I' for Inactive)
REMARK    1  A    between atoms: C_16  and  C_15 
REMARK    2  A    between atoms: C_28  and  C_15 
REMARK    3  A    between atoms: C_37  and  C_16 
REMARK    4  A    between atoms: C_29  and  C_17 
REMARK    5  A    between atoms: N_56  and  C_18 
REMARK    6  A    between atoms: C_40  and  C_22 
REMARK    7  A    between atoms: C_41  and  C_22 
REMARK    8  A    between atoms: N_56  and  C_26 
REMARK    9  A    between atoms: O_57  and  C_26 
REMARK   10  A    between atoms: C_40  and  C_28 
REMARK   11  A    between atoms: C_44  and  C_29 
REMARK   12  A    between atoms: C_37  and  C_30 
REMARK   13  A    between atoms: C_44  and  C_30 
REMARK   14  A    between atoms: C_33  and  O_69 
REMARK   15  A    between atoms: C_38  and  O_59 
REMARK   16  A    between atoms: C_39  and  O_62 
REMARK   17  A    between atoms: C_40  and  O_63 
REMARK   18  A    between atoms: C_44  and  O_64 
REMARK   19  A    between atoms: C_45  and  O_65 
REMARK   20  A    between atoms: C_48  and  N_49 
REMARK   21  A    between atoms: O_61  and  C_48 
REMARK   22  A    between atoms: O_69  and  C_48 
ROOT
HETATM    1  C   UNK N   1      21.886  -6.602  -1.332  0.00  0.00     0.010 C 
HETATM    2  C   UNK N   1      23.531  -5.365   1.120  0.00  0.00     0.015 C 
HETATM    3  C   UNK N   1      16.652  -5.282   2.009  0.00  0.00     0.015 C 
HETATM    4  C   UNK N   1      16.948  -1.323  -1.082  0.00  0.00    -0.020 C 
HETATM    5  C   UNK N   1      17.019  -2.830  -1.018  0.00  0.00     0.059 C 
HETATM    6  C   UNK N   1      17.666  -0.656  -0.183  0.00  0.00     0.052 C 
HETATM    7  C   UNK N   1      20.245  -7.619   0.215  0.00  0.00     0.037 C 
HETATM    8  C   UNK N   1      20.795  -5.284   0.581  0.00  0.00     0.036 C 
HETATM    9  C   UNK N   1      18.426  -9.353   0.042  0.00  0.00     0.143 C 
HETATM   10  C   UNK N   1      24.839  -0.920  -0.704  0.00  0.00     0.172 A 
HETATM   11  C   UNK N   1      18.417   2.719  -0.808  0.00  0.00     0.178 A 
HETATM   12  C   UNK N   1      22.533   2.805  -0.690  0.00  0.00     0.178 A 
HETATM   13  C   UNK N   1      20.632  -6.336  -0.525  0.00  0.00    -0.014 C 
HETATM   14  C   UNK N   1      23.101  -4.174   0.253  0.00  0.00     0.045 C 
HETATM   15  C   UNK N   1      17.082  -4.801   0.627  0.00  0.00     0.040 C 
HETATM   16  C   UNK N   1      19.664  -8.759  -0.644  0.00  0.00     0.136 C 
HETATM   17  C   UNK N   1      23.920  -1.594   0.091  0.00  0.00     0.063 A 
HETATM   18  C   UNK N   1      19.227   2.374   0.264  0.00  0.00     0.108 A 
HETATM   19  C   UNK N   1      22.533   1.653   0.078  0.00  0.00     0.108 A 
HETATM   20  C   UNK N   1      21.565  -3.951   0.406  0.00  0.00     0.125 C 
HETATM   21  C   UNK N   1      16.427  -3.443   0.272  0.00  0.00     0.130 C 
HETATM   22  C   UNK N   1      16.841  -5.914  -0.409  0.00  0.00     0.140 C 
HETATM   23  C   UNK N   1      17.894   0.777  -0.103  0.00  0.00     0.147 A 
HETATM   24  C   UNK N   1      17.363  -8.311   0.247  0.00  0.00     0.261 C 
HETATM   25  C   UNK N   1      24.066  -2.996   0.664  0.00  0.00     0.178 C 
HETATM   26  C   UNK N   1      20.661   2.613   0.318  0.00  0.00     0.177 A 
HETATM   27  C   UNK N   1      23.373   0.461  -0.033  0.00  0.00     0.176 A 
HETATM   28  N   UNK N   1      18.852   1.182   0.714  0.00  0.00    -0.332 N 
ATOM     29  HN  UNK N   1      19.225   0.682   1.521  1.00  0.00     0.168 HD
HETATM   30  N   UNK N   1      23.010  -0.712   0.529  0.00  0.00    -0.334 N 
ATOM     31  HN  UNK N   1      22.219  -0.888   1.149  1.00  0.00     0.168 HD
HETATM   32  N   UNK N   1      21.386   1.566   0.729  0.00  0.00    -0.330 N 
ATOM     33  HN  UNK N   1      21.111   0.851   1.403  1.00  0.00     0.168 HD
HETATM   34  O   UNK N   1      16.328  -8.628   0.797  0.00  0.00    -0.265 OA
HETATM   35  O   UNK N   1      17.597   1.695  -0.998  0.00  0.00    -0.303 OA
HETATM   36  O   UNK N   1      24.441   0.334  -0.781  0.00  0.00    -0.302 OA
HETATM   37  O   UNK N   1      21.339   3.359  -0.527  0.00  0.00    -0.301 OA
HETATM   38  O   UNK N   1      17.622  -7.022  -0.120  0.00  0.00    -0.315 OA
ENDROOT
BRANCH  22  39
HETATM   39  C   UNK N   1      15.391  -6.226  -0.782  0.00  0.00     0.065 C 
BRANCH  39  40
HETATM   40  C   UNK N   1      14.309  -6.596   0.250  0.00  0.00     0.127 C 
BRANCH  40  41
HETATM   41  C   UNK N   1      13.531  -5.332   0.738  0.00  0.00     0.011 C 
HETATM   42  C   UNK N   1      13.197  -4.362  -0.397  0.00  0.00     0.012 C 
BRANCH  41  43
HETATM   43  C   UNK N   1      12.241  -5.679   1.502  0.00  0.00     0.014 C 
BRANCH  43  44
HETATM   44  C   UNK N   1      11.251  -6.535   0.693  0.00  0.00     0.079 C 
BRANCH  44  45
HETATM   45  C   UNK N   1      10.949  -5.947  -0.669  0.00  0.00     0.133 C 
HETATM   46  O   UNK N   1      11.406  -6.463  -1.678  0.00  0.00    -0.297 OA
BRANCH  45  47
HETATM   47  C   UNK N   1      10.096  -4.714  -0.752  0.00  0.00     0.081 C 
HETATM   48  C   UNK N   1      10.203  -4.027  -2.113  0.00  0.00     0.020 C 
BRANCH  47  49
HETATM   49  C   UNK N   1       8.630  -5.091  -0.436  0.00  0.00     0.139 C 
BRANCH  49  50
HETATM   50  C   UNK N   1       7.960  -4.060   0.496  0.00  0.00     0.035 C 
HETATM   51  C   UNK N   1       7.790  -2.692  -0.153  0.00  0.00     0.017 C 
BRANCH  50  52
HETATM   52  C   UNK N   1       6.652  -4.660   0.931  0.00  0.00    -0.003 C 
HETATM   53  C   UNK N   1       5.693  -4.956   0.036  0.00  0.00     0.083 C 
BRANCH  53  54
HETATM   54  N   UNK N   1       4.543  -5.719   0.388  0.00  0.00    -0.374 N 
HETATM   55  C   UNK N   1       4.460  -6.419   1.646  0.00  0.00     0.151 C 
BRANCH  54  56
HETATM   56  C   UNK N   1       3.536  -5.973  -0.605  0.00  0.00     0.288 C 
BRANCH  56  57
HETATM   57  O   UNK N   1       2.850  -4.792  -0.884  0.00  0.00    -0.382 OA
HETATM   58  H   UNK N   1       3.322  -3.968  -1.078  0.00  0.00     0.211 HD
ENDBRANCH  56  57
ENDBRANCH  54  56
ENDBRANCH  53  54
ENDBRANCH  50  52
ENDBRANCH  49  50
BRANCH  49  59
HETATM   59  O   UNK N   1       8.551  -6.354   0.224  0.00  0.00    -0.389 OA
HETATM   60  C   UNK N   1       8.263  -7.361  -0.716  0.00  0.00     0.202 C 
ENDBRANCH  49  59
ENDBRANCH  47  49
ENDBRANCH  45  47
ENDBRANCH  44  45
ENDBRANCH  43  44
ENDBRANCH  41  43
ENDBRANCH  40  41
BRANCH  40  61
HETATM   61  O   UNK N   1      13.417  -7.479  -0.398  0.00  0.00    -0.390 OA
HETATM   62  C   UNK N   1      14.040  -8.697  -0.706  0.00  0.00     0.202 C 
ENDBRANCH  40  61
ENDBRANCH  39  40
ENDBRANCH  22  39
BRANCH  21  63
HETATM   63  O   UNK N   1      16.566  -2.590   1.398  0.00  0.00    -0.390 OA
HETATM   64  C   UNK N   1      15.346  -1.938   1.652  0.00  0.00     0.202 C 
ENDBRANCH  21  63
BRANCH  16  65
HETATM   65  O   UNK N   1      20.620  -9.735  -1.045  0.00  0.00    -0.339 OA
BRANCH  65  66
HETATM   66  C   UNK N   1      21.244 -10.463   0.006  0.00  0.00     0.361 C 
BRANCH  66  67
HETATM   67  N   UNK N   1      20.305 -11.312   0.723  0.00  0.00    -0.385 N 
HETATM   68  H   UNK N   1      19.461 -11.040   1.226  0.00  0.00     0.154 HD
HETATM   69  H   UNK N   1      20.520 -12.310   0.723  0.00  0.00     0.154 HD
ENDBRANCH  66  67
BRANCH  66  70
HETATM   70  O   UNK N   1      21.929  -9.632   0.895  0.00  0.00    -0.355 OA
HETATM   71  H   UNK N   1      22.666  -9.756   1.512  0.00  0.00     0.214 HD
ENDBRANCH  66  70
ENDBRANCH  65  66
ENDBRANCH  16  65
BRANCH  20  72
HETATM   72  O   UNK N   1      21.315  -3.211   1.562  0.00  0.00    -0.395 OA
HETATM   73  H   UNK N   1      21.673  -2.804   2.366  0.00  0.00     0.210 HD
ENDBRANCH  20  72
BRANCH  25  74
HETATM   74  O   UNK N   1      25.426  -3.399   0.624  0.00  0.00    -0.384 OA
HETATM   75  C   UNK N   1      25.784  -3.778  -0.681  0.00  0.00     0.202 C 
ENDBRANCH  25  74
TORSDOF 22
