MODEL 1
REMARK VINA RESULT:      -5.6      0.000      0.000
REMARK  12 active torsions:
REMARK  status: ('A' for Active; 'I' for Inactive)
REMARK    1  A    between atoms: C_4  and  C_3 
REMARK    2  A    between atoms: C_8  and  C_3 
REMARK    3  A    between atoms: N_14  and  C_4 
REMARK    4  A    between atoms: N_12  and  C_5 
REMARK    5  A    between atoms: S_20  and  C_6 
REMARK    6  A    between atoms: C_11  and  C_7 
REMARK    7  A    between atoms: O_16  and  C_7 
REMARK    8  A    between atoms: O_17  and  C_8 
REMARK    9  A    between atoms: C_10  and  C_9 
REMARK   10  A    between atoms: C_11  and  C_9 
REMARK   11  A    between atoms: C_9  and  O_18 
REMARK   12  A    between atoms: O_19  and  C_10 
ROOT
HETATM    1  C   UNK N   1      34.695  17.870   8.631  0.00  0.00     0.141 C 
HETATM    2  N   UNK N   1      34.962  17.451   9.821  0.00  0.00    -0.372 N 
ATOM      3  HN  UNK N   1      35.362  18.129  10.471  1.00  0.00     0.161 HD
ENDROOT
BRANCH   2   4
HETATM    4  C   UNK N   1      34.749  16.118  10.319  0.00  0.00     0.129 C 
BRANCH   4   5
HETATM    5  C   UNK N   1      36.003  15.597  11.015  0.00  0.00     0.103 C 
BRANCH   5   6
HETATM    6  C   UNK N   1      35.691  14.676  12.157  0.00  0.00     0.116 C 
HETATM    7  N   UNK N   1      36.548  14.565  13.120  0.00  0.00    -0.350 N 
ATOM      8  HN  UNK N   1      37.391  15.136  13.065  1.00  0.00     0.167 HD
BRANCH   7   9
HETATM    9  C   UNK N   1      36.411  13.708  14.253  0.00  0.00     0.096 C 
HETATM   10  C   UNK N   1      36.741  14.059  15.510  0.00  0.00     0.058 C 
BRANCH  10  11
HETATM   11  S   UNK N   1      37.381  15.678  15.962  0.00  0.00    -0.153 SA
HETATM   12  H   UNK N   1      36.757  16.423  16.913  0.00  0.00     0.106 HD
ENDBRANCH  10  11
ENDBRANCH   7   9
BRANCH   6  13
HETATM   13  O   UNK N   1      34.514  14.016  12.189  0.00  0.00    -0.349 OA
HETATM   14  H   UNK N   1      33.890  13.600  11.627  0.00  0.00     0.219 HD
ENDBRANCH   6  13
ENDBRANCH   5   6
ENDBRANCH   4   5
ENDBRANCH   2   4
BRANCH   1  15
HETATM   15  C   UNK N   1      34.114  17.005   7.516  0.00  0.00     0.202 C 
BRANCH  15  16
HETATM   16  C   UNK N   1      32.557  16.866   7.474  0.00  0.00     0.007 C 
HETATM   17  C   UNK N   1      31.870  17.839   8.421  0.00  0.00     0.020 C 
HETATM   18  C   UNK N   1      32.106  15.458   7.841  0.00  0.00     0.020 C 
BRANCH  16  19
HETATM   19  C   UNK N   1      32.034  17.182   6.071  0.00  0.00     0.175 C 
BRANCH  19  20
HETATM   20  O   UNK N   1      32.202  16.087   5.214  0.00  0.00    -0.400 OA
HETATM   21  H   UNK N   1      32.919  15.893   4.590  0.00  0.00     0.209 HD
ENDBRANCH  19  20
ENDBRANCH  16  19
ENDBRANCH  15  16
BRANCH  15  22
HETATM   22  O   UNK N   1      34.616  17.399   6.270  0.00  0.00    -0.387 OA
HETATM   23  H   UNK N   1      34.060  17.663   5.522  0.00  0.00     0.210 HD
ENDBRANCH  15  22
ENDBRANCH   1  15
BRANCH   1  24
HETATM   24  O   UNK N   1      34.953  19.161   8.345  0.00  0.00    -0.348 OA
HETATM   25  H   UNK N   1      35.759  19.618   8.206  0.00  0.00     0.219 HD
ENDBRANCH   1  24
TORSDOF 12
ENDMDL
MODEL 2
REMARK VINA RESULT:      -5.4      3.579      8.061
REMARK  12 active torsions:
REMARK  status: ('A' for Active; 'I' for Inactive)
REMARK    1  A    between atoms: C_4  and  C_3 
REMARK    2  A    between atoms: C_8  and  C_3 
REMARK    3  A    between atoms: N_14  and  C_4 
REMARK    4  A    between atoms: N_12  and  C_5 
REMARK    5  A    between atoms: S_20  and  C_6 
REMARK    6  A    between atoms: C_11  and  C_7 
REMARK    7  A    between atoms: O_16  and  C_7 
REMARK    8  A    between atoms: O_17  and  C_8 
REMARK    9  A    between atoms: C_10  and  C_9 
REMARK   10  A    between atoms: C_11  and  C_9 
REMARK   11  A    between atoms: C_9  and  O_18 
REMARK   12  A    between atoms: O_19  and  C_10 
ROOT
HETATM    1  C   UNK N   1      36.553  13.738  14.422  0.00  0.00     0.141 C 
HETATM    2  N   UNK N   1      36.796  14.134  13.219  0.00  0.00    -0.372 N 
ATOM      3  HN  UNK N   1      37.576  14.781  13.093  1.00  0.00     0.161 HD
ENDROOT
BRANCH   2   4
HETATM    4  C   UNK N   1      36.073  13.748  12.036  0.00  0.00     0.129 C 
BRANCH   4   5
HETATM    5  C   UNK N   1      34.959  14.748  11.737  0.00  0.00     0.103 C 
BRANCH   5   6
HETATM    6  C   UNK N   1      35.401  15.852  10.824  0.00  0.00     0.116 C 
HETATM    7  N   UNK N   1      34.517  16.439  10.082  0.00  0.00    -0.350 N 
ATOM      8  HN  UNK N   1      33.549  16.133  10.177  1.00  0.00     0.167 HD
BRANCH   7   9
HETATM    9  C   UNK N   1      34.787  17.478   9.143  0.00  0.00     0.096 C 
HETATM   10  C   UNK N   1      33.871  17.990   8.298  0.00  0.00     0.058 C 
BRANCH  10  11
HETATM   11  S   UNK N   1      32.153  17.460   8.244  0.00  0.00    -0.153 SA
HETATM   12  H   UNK N   1      31.283  17.846   9.216  0.00  0.00     0.106 HD
ENDBRANCH  10  11
ENDBRANCH   7   9
BRANCH   6  13
HETATM   13  O   UNK N   1      36.691  16.248  10.820  0.00  0.00    -0.349 OA
HETATM   14  H   UNK N   1      37.277  16.845  11.243  0.00  0.00     0.219 HD
ENDBRANCH   6  13
ENDBRANCH   5   6
ENDBRANCH   4   5
ENDBRANCH   2   4
BRANCH   1  15
HETATM   15  C   UNK N   1      35.422  12.790  14.812  0.00  0.00     0.202 C 
BRANCH  15  16
HETATM   16  C   UNK N   1      35.838  11.365  15.299  0.00  0.00     0.007 C 
HETATM   17  C   UNK N   1      35.835  11.255  16.817  0.00  0.00     0.020 C 
HETATM   18  C   UNK N   1      37.227  10.982  14.805  0.00  0.00     0.020 C 
BRANCH  16  19
HETATM   19  C   UNK N   1      34.846  10.319  14.786  0.00  0.00     0.175 C 
BRANCH  19  20
HETATM   20  O   UNK N   1      33.542  10.831  14.761  0.00  0.00    -0.400 OA
HETATM   21  H   UNK N   1      32.826  10.670  14.128  0.00  0.00     0.209 HD
ENDBRANCH  19  20
ENDBRANCH  16  19
ENDBRANCH  15  16
BRANCH  15  22
HETATM   22  O   UNK N   1      34.557  13.402  15.727  0.00  0.00    -0.387 OA
HETATM   23  H   UNK N   1      34.610  14.336  15.980  0.00  0.00     0.210 HD
ENDBRANCH  15  22
ENDBRANCH   1  15
BRANCH   1  24
HETATM   24  O   UNK N   1      37.345  14.199  15.408  0.00  0.00    -0.348 OA
HETATM   25  H   UNK N   1      37.861  14.977  15.480  0.00  0.00     0.219 HD
ENDBRANCH   1  24
TORSDOF 12
ENDMDL
MODEL 3
REMARK VINA RESULT:      -5.3      4.744      7.516
REMARK  12 active torsions:
REMARK  status: ('A' for Active; 'I' for Inactive)
REMARK    1  A    between atoms: C_4  and  C_3 
REMARK    2  A    between atoms: C_8  and  C_3 
REMARK    3  A    between atoms: N_14  and  C_4 
REMARK    4  A    between atoms: N_12  and  C_5 
REMARK    5  A    between atoms: S_20  and  C_6 
REMARK    6  A    between atoms: C_11  and  C_7 
REMARK    7  A    between atoms: O_16  and  C_7 
REMARK    8  A    between atoms: O_17  and  C_8 
REMARK    9  A    between atoms: C_10  and  C_9 
REMARK   10  A    between atoms: C_11  and  C_9 
REMARK   11  A    between atoms: C_9  and  O_18 
REMARK   12  A    between atoms: O_19  and  C_10 
ROOT
HETATM    1  C   UNK N   1      33.738  17.837   8.196  0.00  0.00     0.141 C 
HETATM    2  N   UNK N   1      32.490  18.036   7.937  0.00  0.00    -0.372 N 
ATOM      3  HN  UNK N   1      32.273  18.633   7.138  1.00  0.00     0.161 HD
ENDROOT
BRANCH   2   4
HETATM    4  C   UNK N   1      31.375  17.495   8.668  0.00  0.00     0.129 C 
BRANCH   4   5
HETATM    5  C   UNK N   1      30.342  18.581   8.956  0.00  0.00     0.103 C 
BRANCH   5   6
HETATM    6  C   UNK N   1      28.987  18.251   8.407  0.00  0.00     0.116 C 
HETATM    7  N   UNK N   1      28.907  17.655   7.261  0.00  0.00    -0.350 N 
ATOM      8  HN  UNK N   1      29.783  17.415   6.796  1.00  0.00     0.167 HD
BRANCH   7   9
HETATM    9  C   UNK N   1      27.695  17.308   6.593  0.00  0.00     0.096 C 
HETATM   10  C   UNK N   1      27.136  18.040   5.610  0.00  0.00     0.058 C 
BRANCH  10  11
HETATM   11  S   UNK N   1      27.850  19.560   4.967  0.00  0.00    -0.153 SA
HETATM   12  H   UNK N   1      29.162  19.847   5.177  0.00  0.00     0.106 HD
ENDBRANCH  10  11
ENDBRANCH   7   9
BRANCH   6  13
HETATM   13  O   UNK N   1      27.880  18.535   9.125  0.00  0.00    -0.349 OA
HETATM   14  H   UNK N   1      27.079  19.018   9.079  0.00  0.00     0.219 HD
ENDBRANCH   6  13
ENDBRANCH   5   6
ENDBRANCH   4   5
ENDBRANCH   2   4
BRANCH   1  15
HETATM   15  C   UNK N   1      34.260  16.994   9.356  0.00  0.00     0.202 C 
BRANCH  15  16
HETATM   16  C   UNK N   1      34.532  15.483   9.059  0.00  0.00     0.007 C 
HETATM   17  C   UNK N   1      35.858  15.016   9.638  0.00  0.00     0.020 C 
HETATM   18  C   UNK N   1      34.546  15.195   7.564  0.00  0.00     0.020 C 
BRANCH  16  19
HETATM   19  C   UNK N   1      33.447  14.614   9.700  0.00  0.00     0.175 C 
BRANCH  19  20
HETATM   20  O   UNK N   1      33.158  15.048  11.000  0.00  0.00    -0.400 OA
HETATM   21  H   UNK N   1      32.336  14.972  11.510  0.00  0.00     0.209 HD
ENDBRANCH  19  20
ENDBRANCH  16  19
ENDBRANCH  15  16
BRANCH  15  22
HETATM   22  O   UNK N   1      35.377  17.599   9.945  0.00  0.00    -0.387 OA
HETATM   23  H   UNK N   1      35.594  18.539   9.851  0.00  0.00     0.210 HD
ENDBRANCH  15  22
ENDBRANCH   1  15
BRANCH   1  24
HETATM   24  O   UNK N   1      34.648  18.420   7.393  0.00  0.00    -0.348 OA
HETATM   25  H   UNK N   1      35.222  19.148   7.529  0.00  0.00     0.219 HD
ENDBRANCH   1  24
TORSDOF 12
ENDMDL
MODEL 4
REMARK VINA RESULT:      -5.1      3.749      7.332
REMARK  12 active torsions:
REMARK  status: ('A' for Active; 'I' for Inactive)
REMARK    1  A    between atoms: C_4  and  C_3 
REMARK    2  A    between atoms: C_8  and  C_3 
REMARK    3  A    between atoms: N_14  and  C_4 
REMARK    4  A    between atoms: N_12  and  C_5 
REMARK    5  A    between atoms: S_20  and  C_6 
REMARK    6  A    between atoms: C_11  and  C_7 
REMARK    7  A    between atoms: O_16  and  C_7 
REMARK    8  A    between atoms: O_17  and  C_8 
REMARK    9  A    between atoms: C_10  and  C_9 
REMARK   10  A    between atoms: C_11  and  C_9 
REMARK   11  A    between atoms: C_9  and  O_18 
REMARK   12  A    between atoms: O_19  and  C_10 
ROOT
HETATM    1  C   UNK N   1      34.702  16.052   9.741  0.00  0.00     0.141 C 
HETATM    2  N   UNK N   1      34.811  16.147   8.459  0.00  0.00    -0.372 N 
ATOM      3  HN  UNK N   1      35.016  17.072   8.079  1.00  0.00     0.161 HD
ENDROOT
BRANCH   2   4
HETATM    4  C   UNK N   1      34.673  15.070   7.515  0.00  0.00     0.129 C 
BRANCH   4   5
HETATM    5  C   UNK N   1      34.955  15.559   6.097  0.00  0.00     0.103 C 
BRANCH   5   6
HETATM    6  C   UNK N   1      34.038  16.667   5.673  0.00  0.00     0.116 C 
HETATM    7  N   UNK N   1      33.104  16.410   4.814  0.00  0.00    -0.350 N 
ATOM      8  HN  UNK N   1      33.024  15.448   4.484  1.00  0.00     0.167 HD
BRANCH   7   9
HETATM    9  C   UNK N   1      32.180  17.361   4.289  0.00  0.00     0.096 C 
HETATM   10  C   UNK N   1      30.914  17.506   4.727  0.00  0.00     0.058 C 
BRANCH  10  11
HETATM   11  S   UNK N   1      30.201  16.538   6.065  0.00  0.00    -0.153 SA
HETATM   12  H   UNK N   1      30.981  16.104   7.090  0.00  0.00     0.106 HD
ENDBRANCH  10  11
ENDBRANCH   7   9
BRANCH   6  13
HETATM   13  O   UNK N   1      34.165  17.895   6.219  0.00  0.00    -0.349 OA
HETATM   14  H   UNK N   1      34.175  18.332   7.048  0.00  0.00     0.219 HD
ENDBRANCH   6  13
ENDBRANCH   5   6
ENDBRANCH   4   5
ENDBRANCH   2   4
BRANCH   1  15
HETATM   15  C   UNK N   1      34.381  14.763  10.493  0.00  0.00     0.202 C 
BRANCH  15  16
HETATM   16  C   UNK N   1      35.544  14.123  11.318  0.00  0.00     0.007 C 
HETATM   17  C   UNK N   1      35.881  14.938  12.557  0.00  0.00     0.020 C 
HETATM   18  C   UNK N   1      36.814  13.984  10.489  0.00  0.00     0.020 C 
BRANCH  16  19
HETATM   19  C   UNK N   1      35.142  12.730  11.808  0.00  0.00     0.175 C 
BRANCH  19  20
HETATM   20  O   UNK N   1      34.415  12.809  13.004  0.00  0.00    -0.400 OA
HETATM   21  H   UNK N   1      33.827  12.156  13.414  0.00  0.00     0.209 HD
ENDBRANCH  19  20
ENDBRANCH  16  19
ENDBRANCH  15  16
BRANCH  15  22
HETATM   22  O   UNK N   1      33.234  14.922  11.280  0.00  0.00    -0.387 OA
HETATM   23  H   UNK N   1      32.618  14.203  11.489  0.00  0.00     0.210 HD
ENDBRANCH  15  22
ENDBRANCH   1  15
BRANCH   1  24
HETATM   24  O   UNK N   1      34.875  17.170  10.472  0.00  0.00    -0.348 OA
HETATM   25  H   UNK N   1      35.647  17.643  10.713  0.00  0.00     0.219 HD
ENDBRANCH   1  24
TORSDOF 12
ENDMDL
MODEL 5
REMARK VINA RESULT:      -5.1     15.552     18.137
REMARK  12 active torsions:
REMARK  status: ('A' for Active; 'I' for Inactive)
REMARK    1  A    between atoms: C_4  and  C_3 
REMARK    2  A    between atoms: C_8  and  C_3 
REMARK    3  A    between atoms: N_14  and  C_4 
REMARK    4  A    between atoms: N_12  and  C_5 
REMARK    5  A    between atoms: S_20  and  C_6 
REMARK    6  A    between atoms: C_11  and  C_7 
REMARK    7  A    between atoms: O_16  and  C_7 
REMARK    8  A    between atoms: O_17  and  C_8 
REMARK    9  A    between atoms: C_10  and  C_9 
REMARK   10  A    between atoms: C_11  and  C_9 
REMARK   11  A    between atoms: C_9  and  O_18 
REMARK   12  A    between atoms: O_19  and  C_10 
ROOT
HETATM    1  C   UNK N   1      29.920  24.480  -3.315  0.00  0.00     0.141 C 
HETATM    2  N   UNK N   1      28.868  24.894  -3.937  0.00  0.00    -0.372 N 
ATOM      3  HN  UNK N   1      28.843  25.881  -4.196  1.00  0.00     0.161 HD
ENDROOT
BRANCH   2   4
HETATM    4  C   UNK N   1      27.729  24.094  -4.301  0.00  0.00     0.129 C 
BRANCH   4   5
HETATM    5  C   UNK N   1      26.432  24.789  -3.894  0.00  0.00     0.103 C 
BRANCH   5   6
HETATM    6  C   UNK N   1      26.381  26.222  -4.333  0.00  0.00     0.116 C 
HETATM    7  N   UNK N   1      25.987  27.119  -3.487  0.00  0.00    -0.350 N 
ATOM      8  HN  UNK N   1      25.753  26.804  -2.545  1.00  0.00     0.167 HD
BRANCH   7   9
HETATM    9  C   UNK N   1      25.852  28.512  -3.763  0.00  0.00     0.096 C 
HETATM   10  C   UNK N   1      26.816  29.425  -3.536  0.00  0.00     0.058 C 
BRANCH  10  11
HETATM   11  S   UNK N   1      28.438  29.023  -2.872  0.00  0.00    -0.153 SA
HETATM   12  H   UNK N   1      28.755  27.737  -2.563  0.00  0.00     0.106 HD
ENDBRANCH  10  11
ENDBRANCH   7   9
BRANCH   6  13
HETATM   13  O   UNK N   1      26.784  26.562  -5.575  0.00  0.00    -0.349 OA
HETATM   14  H   UNK N   1      27.555  26.640  -6.101  0.00  0.00     0.219 HD
ENDBRANCH   6  13
ENDBRANCH   5   6
ENDBRANCH   4   5
ENDBRANCH   2   4
BRANCH   1  15
HETATM   15  C   UNK N   1      30.135  23.049  -2.830  0.00  0.00     0.202 C 
BRANCH  15  16
HETATM   16  C   UNK N   1      31.036  22.134  -3.721  0.00  0.00     0.007 C 
HETATM   17  C   UNK N   1      31.184  22.678  -5.134  0.00  0.00     0.020 C 
HETATM   18  C   UNK N   1      30.481  20.718  -3.820  0.00  0.00     0.020 C 
BRANCH  16  19
HETATM   19  C   UNK N   1      32.448  22.050  -3.137  0.00  0.00     0.175 C 
BRANCH  19  20
HETATM   20  O   UNK N   1      32.498  21.147  -2.067  0.00  0.00    -0.400 OA
HETATM   21  H   UNK N   1      32.864  21.261  -1.176  0.00  0.00     0.209 HD
ENDBRANCH  19  20
ENDBRANCH  16  19
ENDBRANCH  15  16
BRANCH  15  22
HETATM   22  O   UNK N   1      30.568  23.038  -1.499  0.00  0.00    -0.387 OA
HETATM   23  H   UNK N   1      30.056  22.660  -0.767  0.00  0.00     0.210 HD
ENDBRANCH  15  22
ENDBRANCH   1  15
BRANCH   1  24
HETATM   24  O   UNK N   1      30.897  25.373  -3.067  0.00  0.00    -0.348 OA
HETATM   25  H   UNK N   1      31.320  26.002  -3.618  0.00  0.00     0.219 HD
ENDBRANCH   1  24
TORSDOF 12
ENDMDL
MODEL 6
REMARK VINA RESULT:      -5.0     12.427     15.460
REMARK  12 active torsions:
REMARK  status: ('A' for Active; 'I' for Inactive)
REMARK    1  A    between atoms: C_4  and  C_3 
REMARK    2  A    between atoms: C_8  and  C_3 
REMARK    3  A    between atoms: N_14  and  C_4 
REMARK    4  A    between atoms: N_12  and  C_5 
REMARK    5  A    between atoms: S_20  and  C_6 
REMARK    6  A    between atoms: C_11  and  C_7 
REMARK    7  A    between atoms: O_16  and  C_7 
REMARK    8  A    between atoms: O_17  and  C_8 
REMARK    9  A    between atoms: C_10  and  C_9 
REMARK   10  A    between atoms: C_11  and  C_9 
REMARK   11  A    between atoms: C_9  and  O_18 
REMARK   12  A    between atoms: O_19  and  C_10 
ROOT
HETATM    1  C   UNK N   1      19.780  18.500   2.363  0.00  0.00     0.141 C 
HETATM    2  N   UNK N   1      20.381  19.093   3.338  0.00  0.00    -0.372 N 
ATOM      3  HN  UNK N   1      19.796  19.604   4.000  1.00  0.00     0.161 HD
ENDROOT
BRANCH   2   4
HETATM    4  C   UNK N   1      21.799  19.099   3.581  0.00  0.00     0.129 C 
BRANCH   4   5
HETATM    5  C   UNK N   1      22.453  20.309   2.920  0.00  0.00     0.103 C 
BRANCH   5   6
HETATM    6  C   UNK N   1      23.948  20.296   3.038  0.00  0.00     0.116 C 
HETATM    7  N   UNK N   1      24.487  19.715   4.061  0.00  0.00    -0.350 N 
ATOM      8  HN  UNK N   1      23.860  19.269   4.730  1.00  0.00     0.167 HD
BRANCH   7   9
HETATM    9  C   UNK N   1      25.887  19.649   4.331  0.00  0.00     0.096 C 
HETATM   10  C   UNK N   1      26.651  18.565   4.101  0.00  0.00     0.058 C 
BRANCH  10  11
HETATM   11  S   UNK N   1      26.028  17.035   3.389  0.00  0.00    -0.153 SA
HETATM   12  H   UNK N   1      24.822  16.538   3.774  0.00  0.00     0.106 HD
ENDBRANCH  10  11
ENDBRANCH   7   9
BRANCH   6  13
HETATM   13  O   UNK N   1      24.706  20.843   2.065  0.00  0.00    -0.349 OA
HETATM   14  H   UNK N   1      25.312  20.611   1.389  0.00  0.00     0.219 HD
ENDBRANCH   6  13
ENDBRANCH   5   6
ENDBRANCH   4   5
ENDBRANCH   2   4
BRANCH   1  15
HETATM   15  C   UNK N   1      20.481  17.705   1.265  0.00  0.00     0.202 C 
BRANCH  15  16
HETATM   16  C   UNK N   1      20.192  16.170   1.217  0.00  0.00     0.007 C 
HETATM   17  C   UNK N   1      19.467  15.685   2.464  0.00  0.00     0.020 C 
HETATM   18  C   UNK N   1      21.473  15.357   1.075  0.00  0.00     0.020 C 
BRANCH  16  19
HETATM   19  C   UNK N   1      19.285  15.838   0.030  0.00  0.00     0.175 C 
BRANCH  19  20
HETATM   20  O   UNK N   1      18.135  16.638   0.037  0.00  0.00    -0.400 OA
HETATM   21  H   UNK N   1      17.541  16.861   0.770  0.00  0.00     0.209 HD
ENDBRANCH  19  20
ENDBRANCH  16  19
ENDBRANCH  15  16
BRANCH  15  22
HETATM   22  O   UNK N   1      20.270  18.296   0.013  0.00  0.00    -0.387 OA
HETATM   23  H   UNK N   1      19.436  18.711  -0.254  0.00  0.00     0.210 HD
ENDBRANCH  15  22
ENDBRANCH   1  15
BRANCH   1  24
HETATM   24  O   UNK N   1      18.438  18.595   2.300  0.00  0.00    -0.348 OA
HETATM   25  H   UNK N   1      17.845  19.251   2.610  0.00  0.00     0.219 HD
ENDBRANCH   1  24
TORSDOF 12
ENDMDL
MODEL 7
REMARK VINA RESULT:      -5.0     15.866     18.735
REMARK  12 active torsions:
REMARK  status: ('A' for Active; 'I' for Inactive)
REMARK    1  A    between atoms: C_4  and  C_3 
REMARK    2  A    between atoms: C_8  and  C_3 
REMARK    3  A    between atoms: N_14  and  C_4 
REMARK    4  A    between atoms: N_12  and  C_5 
REMARK    5  A    between atoms: S_20  and  C_6 
REMARK    6  A    between atoms: C_11  and  C_7 
REMARK    7  A    between atoms: O_16  and  C_7 
REMARK    8  A    between atoms: O_17  and  C_8 
REMARK    9  A    between atoms: C_10  and  C_9 
REMARK   10  A    between atoms: C_11  and  C_9 
REMARK   11  A    between atoms: C_9  and  O_18 
REMARK   12  A    between atoms: O_19  and  C_10 
ROOT
HETATM    1  C   UNK N   1      29.737  24.445  -3.181  0.00  0.00     0.141 C 
HETATM    2  N   UNK N   1      28.584  24.887  -3.553  0.00  0.00    -0.372 N 
ATOM      3  HN  UNK N   1      28.527  25.873  -3.809  1.00  0.00     0.161 HD
ENDROOT
BRANCH   2   4
HETATM    4  C   UNK N   1      27.370  24.120  -3.640  0.00  0.00     0.129 C 
BRANCH   4   5
HETATM    5  C   UNK N   1      26.301  24.889  -4.411  0.00  0.00     0.103 C 
BRANCH   5   6
HETATM    6  C   UNK N   1      26.522  24.858  -5.894  0.00  0.00     0.116 C 
HETATM    7  N   UNK N   1      25.549  24.482  -6.662  0.00  0.00    -0.350 N 
ATOM      8  HN  UNK N   1      24.663  24.248  -6.213  1.00  0.00     0.167 HD
BRANCH   7   9
HETATM    9  C   UNK N   1      25.615  24.368  -8.082  0.00  0.00     0.096 C 
HETATM   10  C   UNK N   1      25.456  23.212  -8.756  0.00  0.00     0.058 C 
BRANCH  10  11
HETATM   11  S   UNK N   1      25.108  21.634  -7.967  0.00  0.00    -0.153 SA
HETATM   12  H   UNK N   1      25.990  20.605  -8.070  0.00  0.00     0.106 HD
ENDBRANCH  10  11
ENDBRANCH   7   9
BRANCH   6  13
HETATM   13  O   UNK N   1      27.703  25.260  -6.409  0.00  0.00    -0.349 OA
HETATM   14  H   UNK N   1      28.116  25.463  -7.225  0.00  0.00     0.219 HD
ENDBRANCH   6  13
ENDBRANCH   5   6
ENDBRANCH   4   5
ENDBRANCH   2   4
BRANCH   1  15
HETATM   15  C   UNK N   1      30.017  23.011  -2.741  0.00  0.00     0.202 C 
BRANCH  15  16
HETATM   16  C   UNK N   1      30.897  22.143  -3.699  0.00  0.00     0.007 C 
HETATM   17  C   UNK N   1      30.912  22.692  -5.117  0.00  0.00     0.020 C 
HETATM   18  C   UNK N   1      30.412  20.700  -3.760  0.00  0.00     0.020 C 
BRANCH  16  19
HETATM   19  C   UNK N   1      32.351  22.135  -3.220  0.00  0.00     0.175 C 
BRANCH  19  20
HETATM   20  O   UNK N   1      32.522  21.252  -2.146  0.00  0.00    -0.400 OA
HETATM   21  H   UNK N   1      33.224  20.603  -1.983  0.00  0.00     0.209 HD
ENDBRANCH  19  20
ENDBRANCH  16  19
ENDBRANCH  15  16
BRANCH  15  22
HETATM   22  O   UNK N   1      30.517  22.982  -1.435  0.00  0.00    -0.387 OA
HETATM   23  H   UNK N   1      30.421  22.226  -0.835  0.00  0.00     0.210 HD
ENDBRANCH  15  22
ENDBRANCH   1  15
BRANCH   1  24
HETATM   24  O   UNK N   1      30.769  25.311  -3.170  0.00  0.00    -0.348 OA
HETATM   25  H   UNK N   1      31.607  25.275  -2.752  0.00  0.00     0.219 HD
ENDBRANCH   1  24
TORSDOF 12
ENDMDL
MODEL 8
REMARK VINA RESULT:      -4.9      3.890      7.400
REMARK  12 active torsions:
REMARK  status: ('A' for Active; 'I' for Inactive)
REMARK    1  A    between atoms: C_4  and  C_3 
REMARK    2  A    between atoms: C_8  and  C_3 
REMARK    3  A    between atoms: N_14  and  C_4 
REMARK    4  A    between atoms: N_12  and  C_5 
REMARK    5  A    between atoms: S_20  and  C_6 
REMARK    6  A    between atoms: C_11  and  C_7 
REMARK    7  A    between atoms: O_16  and  C_7 
REMARK    8  A    between atoms: O_17  and  C_8 
REMARK    9  A    between atoms: C_10  and  C_9 
REMARK   10  A    between atoms: C_11  and  C_9 
REMARK   11  A    between atoms: C_9  and  O_18 
REMARK   12  A    between atoms: O_19  and  C_10 
ROOT
HETATM    1  C   UNK N   1      36.741  13.280  13.095  0.00  0.00     0.141 C 
HETATM    2  N   UNK N   1      37.627  13.112  12.173  0.00  0.00    -0.372 N 
ATOM      3  HN  UNK N   1      38.481  13.666  12.247  1.00  0.00     0.161 HD
ENDROOT
BRANCH   2   4
HETATM    4  C   UNK N   1      37.525  12.217  11.052  0.00  0.00     0.129 C 
BRANCH   4   5
HETATM    5  C   UNK N   1      36.982  12.948   9.827  0.00  0.00     0.103 C 
BRANCH   5   6
HETATM    6  C   UNK N   1      36.770  14.412  10.074  0.00  0.00     0.116 C 
HETATM    7  N   UNK N   1      35.559  14.866  10.123  0.00  0.00    -0.350 N 
ATOM      8  HN  UNK N   1      34.801  14.192  10.016  1.00  0.00     0.167 HD
BRANCH   7   9
HETATM    9  C   UNK N   1      35.197  16.233  10.315  0.00  0.00     0.096 C 
HETATM   10  C   UNK N   1      34.685  17.022   9.351  0.00  0.00     0.058 C 
BRANCH  10  11
HETATM   11  S   UNK N   1      34.351  16.464   7.674  0.00  0.00    -0.153 SA
HETATM   12  H   UNK N   1      34.461  15.147   7.352  0.00  0.00     0.106 HD
ENDBRANCH  10  11
ENDBRANCH   7   9
BRANCH   6  13
HETATM   13  O   UNK N   1      37.829  15.222  10.284  0.00  0.00    -0.349 OA
HETATM   14  H   UNK N   1      38.708  15.211  10.609  0.00  0.00     0.219 HD
ENDBRANCH   6  13
ENDBRANCH   5   6
ENDBRANCH   4   5
ENDBRANCH   2   4
BRANCH   1  15
HETATM   15  C   UNK N   1      35.396  12.560  13.148  0.00  0.00     0.202 C 
BRANCH  15  16
HETATM   16  C   UNK N   1      35.044  11.828  14.484  0.00  0.00     0.007 C 
HETATM   17  C   UNK N   1      36.240  11.086  15.061  0.00  0.00     0.020 C 
HETATM   18  C   UNK N   1      33.915  10.822  14.297  0.00  0.00     0.020 C 
BRANCH  16  19
HETATM   19  C   UNK N   1      34.607  12.841  15.544  0.00  0.00     0.175 C 
BRANCH  19  20
HETATM   20  O   UNK N   1      35.641  13.093  16.456  0.00  0.00    -0.400 OA
HETATM   21  H   UNK N   1      35.821  13.887  16.983  0.00  0.00     0.209 HD
ENDBRANCH  19  20
ENDBRANCH  16  19
ENDBRANCH  15  16
BRANCH  15  22
HETATM   22  O   UNK N   1      34.360  13.417  12.757  0.00  0.00    -0.387 OA
HETATM   23  H   UNK N   1      33.428  13.276  12.981  0.00  0.00     0.210 HD
ENDBRANCH  15  22
ENDBRANCH   1  15
BRANCH   1  24
HETATM   24  O   UNK N   1      37.014  14.158  14.079  0.00  0.00    -0.348 OA
HETATM   25  H   UNK N   1      37.718  14.766  14.193  0.00  0.00     0.219 HD
ENDBRANCH   1  24
TORSDOF 12
ENDMDL
MODEL 9
REMARK VINA RESULT:      -4.9      3.418      8.047
REMARK  12 active torsions:
REMARK  status: ('A' for Active; 'I' for Inactive)
REMARK    1  A    between atoms: C_4  and  C_3 
REMARK    2  A    between atoms: C_8  and  C_3 
REMARK    3  A    between atoms: N_14  and  C_4 
REMARK    4  A    between atoms: N_12  and  C_5 
REMARK    5  A    between atoms: S_20  and  C_6 
REMARK    6  A    between atoms: C_11  and  C_7 
REMARK    7  A    between atoms: O_16  and  C_7 
REMARK    8  A    between atoms: O_17  and  C_8 
REMARK    9  A    between atoms: C_10  and  C_9 
REMARK   10  A    between atoms: C_11  and  C_9 
REMARK   11  A    between atoms: C_9  and  O_18 
REMARK   12  A    between atoms: O_19  and  C_10 
ROOT
HETATM    1  C   UNK N   1      36.510  13.450  14.285  0.00  0.00     0.141 C 
HETATM    2  N   UNK N   1      36.872  13.916  13.138  0.00  0.00    -0.372 N 
ATOM      3  HN  UNK N   1      37.798  14.341  13.084  1.00  0.00     0.161 HD
ENDROOT
BRANCH   2   4
HETATM    4  C   UNK N   1      36.094  13.891  11.928  0.00  0.00     0.129 C 
BRANCH   4   5
HETATM    5  C   UNK N   1      35.481  15.262  11.655  0.00  0.00     0.103 C 
BRANCH   5   6
HETATM    6  C   UNK N   1      34.355  15.206  10.667  0.00  0.00     0.116 C 
HETATM    7  N   UNK N   1      34.624  15.335   9.407  0.00  0.00    -0.350 N 
ATOM      8  HN  UNK N   1      35.605  15.443   9.147  1.00  0.00     0.167 HD
BRANCH   7   9
HETATM    9  C   UNK N   1      33.663  15.338   8.353  0.00  0.00     0.096 C 
HETATM   10  C   UNK N   1      33.301  16.436   7.663  0.00  0.00     0.058 C 
BRANCH  10  11
HETATM   11  S   UNK N   1      33.996  18.071   7.948  0.00  0.00    -0.153 SA
HETATM   12  H   UNK N   1      33.227  19.064   8.467  0.00  0.00     0.106 HD
ENDBRANCH  10  11
ENDBRANCH   7   9
BRANCH   6  13
HETATM   13  O   UNK N   1      33.094  14.980  11.091  0.00  0.00    -0.349 OA
HETATM   14  H   UNK N   1      32.241  14.758  10.773  0.00  0.00     0.219 HD
ENDBRANCH   6  13
ENDBRANCH   5   6
ENDBRANCH   4   5
ENDBRANCH   2   4
BRANCH   1  15
HETATM   15  C   UNK N   1      35.160  12.797  14.570  0.00  0.00     0.202 C 
BRANCH  15  16
HETATM   16  C   UNK N   1      35.134  11.235  14.626  0.00  0.00     0.007 C 
HETATM   17  C   UNK N   1      36.359  10.618  13.969  0.00  0.00     0.020 C 
HETATM   18  C   UNK N   1      33.899  10.665  13.940  0.00  0.00     0.020 C 
BRANCH  16  19
HETATM   19  C   UNK N   1      35.133  10.757  16.080  0.00  0.00     0.175 C 
BRANCH  19  20
HETATM   20  O   UNK N   1      36.335  11.086  16.718  0.00  0.00    -0.400 OA
HETATM   21  H   UNK N   1      36.493  11.376  17.630  0.00  0.00     0.209 HD
ENDBRANCH  19  20
ENDBRANCH  16  19
ENDBRANCH  15  16
BRANCH  15  22
HETATM   22  O   UNK N   1      34.573  13.351  15.713  0.00  0.00    -0.387 OA
HETATM   23  H   UNK N   1      33.632  13.272  15.931  0.00  0.00     0.210 HD
ENDBRANCH  15  22
ENDBRANCH   1  15
BRANCH   1  24
HETATM   24  O   UNK N   1      37.378  13.552  15.309  0.00  0.00    -0.348 OA
HETATM   25  H   UNK N   1      37.628  12.943  15.976  0.00  0.00     0.219 HD
ENDBRANCH   1  24
TORSDOF 12
ENDMDL
