REMARK  3 active torsions:
REMARK  status: ('A' for Active; 'I' for Inactive)
REMARK    1  A    between atoms: O_1  and  C_2 
REMARK    2  A    between atoms: C_2  and  C_3 
REMARK    3  A    between atoms: C_2  and  C_6 
ROOT
HETATM    1  C   UNK N   1       1.647   0.766   0.000  0.00  0.00     0.320 C 
ENDROOT
BRANCH   1   2
HETATM    2  O   UNK N   1       3.041   0.818   0.000  0.00  0.00    -0.375 OA
HETATM    3  H   UNK N   1       3.557  -0.003  -0.000  0.00  0.00     0.211 HD
ENDBRANCH   1   2
BRANCH   1   4
HETATM    4  C   UNK N   1       0.892   2.062  -0.000  0.00  0.00     0.214 C 
HETATM    5  O   UNK N   1       1.564   3.228  -0.000  0.00  0.00    -0.646 OA
HETATM    6  O   UNK N   1      -0.328   2.068   0.000  0.00  0.00    -0.646 OA
ENDBRANCH   1   4
BRANCH   1   7
HETATM    7  C   UNK N   1       0.993  -0.583   0.000  0.00  0.00     0.214 C 
HETATM    8  O   UNK N   1       1.752  -1.694   0.000  0.00  0.00    -0.646 OA
HETATM    9  O   UNK N   1      -0.223  -0.681  -0.000  0.00  0.00    -0.646 OA
ENDBRANCH   1   7
TORSDOF 3
