REMARK  3 active torsions:
REMARK  status: ('A' for Active; 'I' for Inactive)
REMARK    1  A    between atoms: C_2  and  C_3 
REMARK    2  A    between atoms: C_3  and  C_5 
REMARK    3  A    between atoms: C_5  and  O_6 
ROOT
HETATM    1  C   UNK N   1       1.565   0.683  -0.000  0.00  0.00     0.079 C 
HETATM    2  C   UNK N   1       2.976   0.131   0.000  0.00  0.00     0.021 C 
ENDROOT
BRANCH   1   3
HETATM    3  C   UNK N   1       1.445   2.213   0.000  0.00  0.00     0.010 C 
HETATM    4  C   UNK N   1       0.029   2.758  -0.000  0.00  0.00     0.006 C 
ENDBRANCH   1   3
BRANCH   1   5
HETATM    5  C   UNK N   1       0.426  -0.312   0.000  0.00  0.00     0.143 C 
HETATM    6  O   UNK N   1      -0.734   0.060   0.000  0.00  0.00    -0.650 OA
BRANCH   5   7
HETATM    7  O   UNK N   1       0.697  -1.633   0.000  0.00  0.00    -0.776 OA
HETATM    8  H   UNK N   1      -0.004  -2.255   0.000  0.00  0.00     0.167 HD
ENDBRANCH   5   7
ENDBRANCH   1   5
TORSDOF 3
