REMARK  6 active torsions:
REMARK  status: ('A' for Active; 'I' for Inactive)
REMARK    1  A    between atoms: C_1  and  O_7 
REMARK    2  A    between atoms: O_8  and  C_2 
REMARK    3  A    between atoms: C_3  and  O_9 
REMARK    4  A    between atoms: C_5  and  C_4 
REMARK    5  A    between atoms: O_10  and  C_5 
REMARK    6  A    between atoms: C_6  and  O_12 
ROOT
HETATM    1  C   UNK N   1      -0.679  -0.134   0.282  0.00  0.00     0.211 C 
HETATM    2  C   UNK N   1       0.640  -0.832   0.062  0.00  0.00     0.115 C 
HETATM    3  C   UNK N   1      -0.658   1.184  -0.481  0.00  0.00     0.208 C 
HETATM    4  C   UNK N   1       1.779  -0.092   0.049  0.00  0.00     0.177 C 
HETATM    5  C   UNK N   1       0.534   2.019   0.033  0.00  0.00     0.295 C 
HETATM    6  O   UNK N   1       1.704   1.269   0.140  0.00  0.00    -0.309 OA
ENDROOT
BRANCH   4   7
HETATM    7  C   UNK N   1       3.127  -0.709  -0.069  0.00  0.00     0.203 C 
HETATM    8  O   UNK N   1       3.268  -1.918  -0.137  0.00  0.00    -0.644 OA
BRANCH   7   9
HETATM    9  O   UNK N   1       4.217   0.083  -0.065  0.00  0.00    -0.771 OA
HETATM   10  H   UNK N   1       5.073  -0.298  -0.063  0.00  0.00     0.167 HD
ENDBRANCH   7   9
ENDBRANCH   4   7
BRANCH   2  11
HETATM   11  O   UNK N   1       0.668  -2.170  -0.108  0.00  0.00    -0.359 OA
HETATM   12  H   UNK N   1      -0.127  -2.652  -0.225  0.00  0.00     0.217 HD
ENDBRANCH   2  11
BRANCH   1  13
HETATM   13  O   UNK N   1      -1.743  -0.941  -0.129  0.00  0.00    -0.386 OA
HETATM   14  H   UNK N   1      -2.598  -0.581  -0.415  0.00  0.00     0.210 HD
ENDBRANCH   1  13
BRANCH   5  15
HETATM   15  O   UNK N   1       0.748   3.093  -0.832  0.00  0.00    -0.368 OA
HETATM   16  H   UNK N   1       1.468   3.338  -1.434  0.00  0.00     0.212 HD
ENDBRANCH   5  15
BRANCH   3  17
HETATM   17  O   UNK N   1      -1.851   1.886  -0.288  0.00  0.00    -0.388 OA
HETATM   18  H   UNK N   1      -1.843   2.847  -0.154  0.00  0.00     0.210 HD
ENDBRANCH   3  17
TORSDOF 6
