MODEL 1
REMARK VINA RESULT:      -4.6      0.000      0.000
REMARK  6 active torsions:
REMARK  status: ('A' for Active; 'I' for Inactive)
REMARK    1  A    between atoms: C_2  and  O_1 
REMARK    2  A    between atoms: C_2  and  C_3 
REMARK    3  A    between atoms: C_2  and  C_7 
REMARK    4  A    between atoms: C_3  and  C_4 
REMARK    5  A    between atoms: C_4  and  O_5 
REMARK    6  A    between atoms: C_7  and  O_8 
ROOT
HETATM    1  C   UNK N   1      34.001  17.192   9.042  0.00  0.00     0.225 C 
ENDROOT
BRANCH   1   2
HETATM    2  O   UNK N   1      34.597  17.080  10.301  0.00  0.00    -0.384 OA
HETATM    3  H   UNK N   1      34.122  16.644  11.026  0.00  0.00     0.210 HD
ENDBRANCH   1   2
BRANCH   1   4
HETATM    4  C   UNK N   1      32.791  16.320   8.664  0.00  0.00     0.152 C 
BRANCH   4   5
HETATM    5  C   UNK N   1      32.568  15.038   9.430  0.00  0.00     0.142 C 
HETATM    6  O   UNK N   1      32.299  13.992   8.863  0.00  0.00    -0.650 OA
BRANCH   5   7
HETATM    7  O   UNK N   1      32.669  15.055  10.772  0.00  0.00    -0.776 OA
HETATM    8  H   UNK N   1      32.127  15.631  11.276  0.00  0.00     0.167 HD
ENDBRANCH   5   7
ENDBRANCH   4   5
ENDBRANCH   1   4
BRANCH   1   9
HETATM    9  C   UNK N   1      34.585  18.188   8.084  0.00  0.00     0.170 C 
HETATM   10  O   UNK N   1      34.421  18.051   6.880  0.00  0.00    -0.648 OA
BRANCH   9  11
HETATM   11  O   UNK N   1      35.291  19.238   8.544  0.00  0.00    -0.774 OA
HETATM   12  H   UNK N   1      35.525  19.283   9.450  0.00  0.00     0.167 HD
ENDBRANCH   9  11
ENDBRANCH   1   9
TORSDOF 6
ENDMDL
MODEL 2
REMARK VINA RESULT:      -4.6     14.649     15.319
REMARK  6 active torsions:
REMARK  status: ('A' for Active; 'I' for Inactive)
REMARK    1  A    between atoms: C_2  and  O_1 
REMARK    2  A    between atoms: C_2  and  C_3 
REMARK    3  A    between atoms: C_2  and  C_7 
REMARK    4  A    between atoms: C_3  and  C_4 
REMARK    5  A    between atoms: C_4  and  O_5 
REMARK    6  A    between atoms: C_7  and  O_8 
ROOT
HETATM    1  C   UNK N   1      20.584  19.705   1.685  0.00  0.00     0.225 C 
ENDROOT
BRANCH   1   2
HETATM    2  O   UNK N   1      20.778  20.105   0.361  0.00  0.00    -0.384 OA
HETATM    3  H   UNK N   1      20.013  20.295  -0.205  0.00  0.00     0.210 HD
ENDBRANCH   1   2
BRANCH   1   4
HETATM    4  C   UNK N   1      20.056  18.298   2.015  0.00  0.00     0.152 C 
BRANCH   4   5
HETATM    5  C   UNK N   1      20.329  17.186   1.030  0.00  0.00     0.142 C 
HETATM    6  O   UNK N   1      20.629  16.063   1.401  0.00  0.00    -0.650 OA
BRANCH   5   7
HETATM    7  O   UNK N   1      20.236  17.445  -0.288  0.00  0.00    -0.776 OA
HETATM    8  H   UNK N   1      20.755  16.957  -0.898  0.00  0.00     0.167 HD
ENDBRANCH   5   7
ENDBRANCH   4   5
ENDBRANCH   1   4
BRANCH   1   9
HETATM    9  C   UNK N   1      20.910  20.697   2.764  0.00  0.00     0.170 C 
HETATM   10  O   UNK N   1      20.323  20.654   3.835  0.00  0.00    -0.648 OA
BRANCH   9  11
HETATM   11  O   UNK N   1      21.849  21.639   2.557  0.00  0.00    -0.774 OA
HETATM   12  H   UNK N   1      21.604  22.542   2.507  0.00  0.00     0.167 HD
ENDBRANCH   9  11
ENDBRANCH   1   9
TORSDOF 6
ENDMDL
MODEL 3
REMARK VINA RESULT:      -4.5      3.510      4.465
REMARK  6 active torsions:
REMARK  status: ('A' for Active; 'I' for Inactive)
REMARK    1  A    between atoms: C_2  and  O_1 
REMARK    2  A    between atoms: C_2  and  C_3 
REMARK    3  A    between atoms: C_2  and  C_7 
REMARK    4  A    between atoms: C_3  and  C_4 
REMARK    5  A    between atoms: C_4  and  O_5 
REMARK    6  A    between atoms: C_7  and  O_8 
ROOT
HETATM    1  C   UNK N   1      34.694  15.036  11.347  0.00  0.00     0.225 C 
ENDROOT
BRANCH   1   2
HETATM    2  O   UNK N   1      33.328  15.141  11.073  0.00  0.00    -0.384 OA
HETATM    3  H   UNK N   1      32.759  14.358  11.142  0.00  0.00     0.210 HD
ENDBRANCH   1   2
BRANCH   1   4
HETATM    4  C   UNK N   1      35.264  13.791  12.048  0.00  0.00     0.152 C 
BRANCH   4   5
HETATM    5  C   UNK N   1      35.695  13.920  13.489  0.00  0.00     0.142 C 
HETATM    6  O   UNK N   1      35.026  13.460  14.400  0.00  0.00    -0.650 OA
BRANCH   5   7
HETATM    7  O   UNK N   1      36.847  14.558  13.771  0.00  0.00    -0.776 OA
HETATM    8  H   UNK N   1      37.149  14.607  14.657  0.00  0.00     0.167 HD
ENDBRANCH   5   7
ENDBRANCH   4   5
ENDBRANCH   1   4
BRANCH   1   9
HETATM    9  C   UNK N   1      35.575  16.179  10.932  0.00  0.00     0.170 C 
HETATM   10  O   UNK N   1      35.078  17.233  10.561  0.00  0.00    -0.648 OA
BRANCH   9  11
HETATM   11  O   UNK N   1      36.914  16.050  10.966  0.00  0.00    -0.774 OA
HETATM   12  H   UNK N   1      37.452  16.602  10.433  0.00  0.00     0.167 HD
ENDBRANCH   9  11
ENDBRANCH   1   9
TORSDOF 6
ENDMDL
MODEL 4
REMARK VINA RESULT:      -4.5     14.601     15.728
REMARK  6 active torsions:
REMARK  status: ('A' for Active; 'I' for Inactive)
REMARK    1  A    between atoms: C_2  and  O_1 
REMARK    2  A    between atoms: C_2  and  C_3 
REMARK    3  A    between atoms: C_2  and  C_7 
REMARK    4  A    between atoms: C_3  and  C_4 
REMARK    5  A    between atoms: C_4  and  O_5 
REMARK    6  A    between atoms: C_7  and  O_8 
ROOT
HETATM    1  C   UNK N   1      19.770  18.409   2.167  0.00  0.00     0.225 C 
ENDROOT
BRANCH   1   2
HETATM    2  O   UNK N   1      18.433  18.549   2.545  0.00  0.00    -0.384 OA
HETATM    3  H   UNK N   1      17.975  17.818   2.989  0.00  0.00     0.210 HD
ENDBRANCH   1   2
BRANCH   1   4
HETATM    4  C   UNK N   1      20.859  19.309   2.776  0.00  0.00     0.152 C 
BRANCH   4   5
HETATM    5  C   UNK N   1      21.316  20.511   1.983  0.00  0.00     0.142 C 
HETATM    6  O   UNK N   1      21.292  20.519   0.763  0.00  0.00    -0.650 OA
BRANCH   5   7
HETATM    7  O   UNK N   1      21.760  21.597   2.643  0.00  0.00    -0.776 OA
HETATM    8  H   UNK N   1      21.792  22.427   2.209  0.00  0.00     0.167 HD
ENDBRANCH   5   7
ENDBRANCH   4   5
ENDBRANCH   1   4
BRANCH   1   9
HETATM    9  C   UNK N   1      20.098  17.353   1.151  0.00  0.00     0.170 C 
HETATM   10  O   UNK N   1      20.145  16.177   1.482  0.00  0.00    -0.648 OA
BRANCH   9  11
HETATM   11  O   UNK N   1      20.340  17.696  -0.128  0.00  0.00    -0.774 OA
HETATM   12  H   UNK N   1      19.640  17.710  -0.750  0.00  0.00     0.167 HD
ENDBRANCH   9  11
ENDBRANCH   1   9
TORSDOF 6
ENDMDL
MODEL 5
REMARK VINA RESULT:      -4.5     10.839     12.775
REMARK  6 active torsions:
REMARK  status: ('A' for Active; 'I' for Inactive)
REMARK    1  A    between atoms: C_2  and  O_1 
REMARK    2  A    between atoms: C_2  and  C_3 
REMARK    3  A    between atoms: C_2  and  C_7 
REMARK    4  A    between atoms: C_3  and  C_4 
REMARK    5  A    between atoms: C_4  and  O_5 
REMARK    6  A    between atoms: C_7  and  O_8 
ROOT
HETATM    1  C   UNK N   1      21.434  12.324  10.973  0.00  0.00     0.225 C 
ENDROOT
BRANCH   1   2
HETATM    2  O   UNK N   1      20.576  11.776  11.930  0.00  0.00    -0.384 OA
HETATM    3  H   UNK N   1      19.829  11.224  11.652  0.00  0.00     0.210 HD
ENDBRANCH   1   2
BRANCH   1   4
HETATM    4  C   UNK N   1      22.863  11.783  10.793  0.00  0.00     0.152 C 
BRANCH   4   5
HETATM    5  C   UNK N   1      23.866  12.044  11.891  0.00  0.00     0.142 C 
HETATM    6  O   UNK N   1      23.554  11.988  13.069  0.00  0.00    -0.650 OA
BRANCH   5   7
HETATM    7  O   UNK N   1      25.135  12.344  11.557  0.00  0.00    -0.776 OA
HETATM    8  H   UNK N   1      25.620  12.962  12.068  0.00  0.00     0.167 HD
ENDBRANCH   5   7
ENDBRANCH   4   5
ENDBRANCH   1   4
BRANCH   1   9
HETATM    9  C   UNK N   1      20.907  13.452  10.134  0.00  0.00     0.170 C 
HETATM   10  O   UNK N   1      21.680  14.244   9.615  0.00  0.00    -0.648 OA
BRANCH   9  11
HETATM   11  O   UNK N   1      19.581  13.596   9.948  0.00  0.00    -0.774 OA
HETATM   12  H   UNK N   1      19.083  12.898   9.572  0.00  0.00     0.167 HD
ENDBRANCH   9  11
ENDBRANCH   1   9
TORSDOF 6
ENDMDL
MODEL 6
REMARK VINA RESULT:      -4.5      1.567      2.097
REMARK  6 active torsions:
REMARK  status: ('A' for Active; 'I' for Inactive)
REMARK    1  A    between atoms: C_2  and  O_1 
REMARK    2  A    between atoms: C_2  and  C_3 
REMARK    3  A    between atoms: C_2  and  C_7 
REMARK    4  A    between atoms: C_3  and  C_4 
REMARK    5  A    between atoms: C_4  and  O_5 
REMARK    6  A    between atoms: C_7  and  O_8 
ROOT
HETATM    1  C   UNK N   1      34.152  17.151   9.069  0.00  0.00     0.225 C 
ENDROOT
BRANCH   1   2
HETATM    2  O   UNK N   1      32.781  17.098   9.329  0.00  0.00    -0.384 OA
HETATM    3  H   UNK N   1      32.331  16.240   9.388  0.00  0.00     0.210 HD
ENDBRANCH   1   2
BRANCH   1   4
HETATM    4  C   UNK N   1      35.119  16.156   9.734  0.00  0.00     0.152 C 
BRANCH   4   5
HETATM    5  C   UNK N   1      34.673  15.469  11.002  0.00  0.00     0.142 C 
HETATM    6  O   UNK N   1      35.442  15.281  11.932  0.00  0.00    -0.650 OA
BRANCH   5   7
HETATM    7  O   UNK N   1      33.397  15.055  11.106  0.00  0.00    -0.776 OA
HETATM    8  H   UNK N   1      32.962  15.081  11.937  0.00  0.00     0.167 HD
ENDBRANCH   5   7
ENDBRANCH   4   5
ENDBRANCH   1   4
BRANCH   1   9
HETATM    9  C   UNK N   1      34.639  18.210   8.122  0.00  0.00     0.170 C 
HETATM   10  O   UNK N   1      34.414  18.113   6.925  0.00  0.00    -0.648 OA
BRANCH   9  11
HETATM   11  O   UNK N   1      35.325  19.271   8.587  0.00  0.00    -0.774 OA
HETATM   12  H   UNK N   1      35.398  19.413   9.510  0.00  0.00     0.167 HD
ENDBRANCH   9  11
ENDBRANCH   1   9
TORSDOF 6
ENDMDL
MODEL 7
REMARK VINA RESULT:      -4.3     11.057     12.745
REMARK  6 active torsions:
REMARK  status: ('A' for Active; 'I' for Inactive)
REMARK    1  A    between atoms: C_2  and  O_1 
REMARK    2  A    between atoms: C_2  and  C_3 
REMARK    3  A    between atoms: C_2  and  C_7 
REMARK    4  A    between atoms: C_3  and  C_4 
REMARK    5  A    between atoms: C_4  and  O_5 
REMARK    6  A    between atoms: C_7  and  O_8 
ROOT
HETATM    1  C   UNK N   1      22.396  12.264  11.499  0.00  0.00     0.225 C 
ENDROOT
BRANCH   1   2
HETATM    2  O   UNK N   1      21.268  11.592  11.978  0.00  0.00    -0.384 OA
HETATM    3  H   UNK N   1      20.409  11.718  11.546  0.00  0.00     0.210 HD
ENDBRANCH   1   2
BRANCH   1   4
HETATM    4  C   UNK N   1      22.328  13.092  10.204  0.00  0.00     0.152 C 
BRANCH   4   5
HETATM    5  C   UNK N   1      21.041  13.815   9.887  0.00  0.00     0.142 C 
HETATM    6  O   UNK N   1      19.953  13.326  10.144  0.00  0.00    -0.650 OA
BRANCH   5   7
HETATM    7  O   UNK N   1      21.101  15.028   9.306  0.00  0.00    -0.776 OA
HETATM    8  H   UNK N   1      21.933  15.418   9.120  0.00  0.00     0.167 HD
ENDBRANCH   5   7
ENDBRANCH   4   5
ENDBRANCH   1   4
BRANCH   1   9
HETATM    9  C   UNK N   1      23.664  12.144  12.293  0.00  0.00     0.170 C 
HETATM   10  O   UNK N   1      23.618  12.005  13.506  0.00  0.00    -0.648 OA
BRANCH   9  11
HETATM   11  O   UNK N   1      24.859  12.190  11.673  0.00  0.00    -0.774 OA
HETATM   12  H   UNK N   1      25.400  11.427  11.643  0.00  0.00     0.167 HD
ENDBRANCH   9  11
ENDBRANCH   1   9
TORSDOF 6
ENDMDL
MODEL 8
REMARK VINA RESULT:      -4.2      0.957      4.315
REMARK  6 active torsions:
REMARK  status: ('A' for Active; 'I' for Inactive)
REMARK    1  A    between atoms: C_2  and  O_1 
REMARK    2  A    between atoms: C_2  and  C_3 
REMARK    3  A    between atoms: C_2  and  C_7 
REMARK    4  A    between atoms: C_3  and  C_4 
REMARK    5  A    between atoms: C_4  and  O_5 
REMARK    6  A    between atoms: C_7  and  O_8 
ROOT
HETATM    1  C   UNK N   1      32.959  16.339   8.723  0.00  0.00     0.225 C 
ENDROOT
BRANCH   1   2
HETATM    2  O   UNK N   1      32.113  16.746   7.688  0.00  0.00    -0.384 OA
HETATM    3  H   UNK N   1      32.138  16.288   6.833  0.00  0.00     0.210 HD
ENDBRANCH   1   2
BRANCH   1   4
HETATM    4  C   UNK N   1      34.194  17.174   9.104  0.00  0.00     0.152 C 
BRANCH   4   5
HETATM    5  C   UNK N   1      34.663  18.235   8.138  0.00  0.00     0.142 C 
HETATM    6  O   UNK N   1      35.262  19.227   8.520  0.00  0.00    -0.650 OA
BRANCH   5   7
HETATM    7  O   UNK N   1      34.411  18.080   6.825  0.00  0.00    -0.776 OA
HETATM    8  H   UNK N   1      35.106  17.849   6.240  0.00  0.00     0.167 HD
ENDBRANCH   5   7
ENDBRANCH   4   5
ENDBRANCH   1   4
BRANCH   1   9
HETATM    9  C   UNK N   1      32.616  15.066   9.440  0.00  0.00     0.170 C 
HETATM   10  O   UNK N   1      32.254  14.084   8.808  0.00  0.00    -0.648 OA
BRANCH   9  11
HETATM   11  O   UNK N   1      32.706  14.998  10.781  0.00  0.00    -0.774 OA
HETATM   12  H   UNK N   1      32.314  15.664  11.311  0.00  0.00     0.167 HD
ENDBRANCH   9  11
ENDBRANCH   1   9
TORSDOF 6
ENDMDL
MODEL 9
REMARK VINA RESULT:      -4.1      1.378      4.150
REMARK  6 active torsions:
REMARK  status: ('A' for Active; 'I' for Inactive)
REMARK    1  A    between atoms: C_2  and  O_1 
REMARK    2  A    between atoms: C_2  and  C_3 
REMARK    3  A    between atoms: C_2  and  C_7 
REMARK    4  A    between atoms: C_3  and  C_4 
REMARK    5  A    between atoms: C_4  and  O_5 
REMARK    6  A    between atoms: C_7  and  O_8 
ROOT
HETATM    1  C   UNK N   1      34.786  16.614  10.045  0.00  0.00     0.225 C 
ENDROOT
BRANCH   1   2
HETATM    2  O   UNK N   1      35.922  17.247  10.555  0.00  0.00    -0.384 OA
HETATM    3  H   UNK N   1      36.110  17.214  11.506  0.00  0.00     0.210 HD
ENDBRANCH   1   2
BRANCH   1   4
HETATM    4  C   UNK N   1      33.919  17.295   8.972  0.00  0.00     0.152 C 
BRANCH   4   5
HETATM    5  C   UNK N   1      34.580  18.291   8.048  0.00  0.00     0.142 C 
HETATM    6  O   UNK N   1      35.244  19.219   8.479  0.00  0.00    -0.650 OA
BRANCH   5   7
HETATM    7  O   UNK N   1      34.430  18.146   6.719  0.00  0.00    -0.776 OA
HETATM    8  H   UNK N   1      35.081  18.485   6.134  0.00  0.00     0.167 HD
ENDBRANCH   5   7
ENDBRANCH   4   5
ENDBRANCH   1   4
BRANCH   1   9
HETATM    9  C   UNK N   1      34.449  15.253  10.583  0.00  0.00     0.170 C 
HETATM   10  O   UNK N   1      33.734  14.499   9.940  0.00  0.00    -0.648 OA
BRANCH   9  11
HETATM   11  O   UNK N   1      34.933  14.857  11.775  0.00  0.00    -0.774 OA
HETATM   12  H   UNK N   1      35.845  14.668  11.870  0.00  0.00     0.167 HD
ENDBRANCH   9  11
ENDBRANCH   1   9
TORSDOF 6
ENDMDL
