MODEL 1
REMARK VINA RESULT:      -8.4      0.000      0.000
REMARK  16 active torsions:
REMARK  status: ('A' for Active; 'I' for Inactive)
REMARK    1  A    between atoms: C_10  and  C_7 
REMARK    2  A    between atoms: C_11  and  C_7 
REMARK    3  A    between atoms: C_17  and  C_10 
REMARK    4  A    between atoms: N_33  and  C_11 
REMARK    5  A    between atoms: C_16  and  C_12 
REMARK    6  A    between atoms: C_20  and  C_12 
REMARK    7  A    between atoms: C_18  and  C_26 
REMARK    8  A    between atoms: C_19  and  C_27 
REMARK    9  A    between atoms: C_21  and  O_44 
REMARK   10  A    between atoms: C_22  and  O_45 
REMARK   11  A    between atoms: C_23  and  O_46 
REMARK   12  A    between atoms: C_24  and  O_47 
REMARK   13  A    between atoms: O_50  and  C_26 
REMARK   14  A    between atoms: O_52  and  C_27 
REMARK       I    between atoms: N_30  and  C_28 
REMARK       I    between atoms: N_33  and  C_28 
REMARK       I    between atoms: N_42  and  C_28 
REMARK   15  A    between atoms: N_42  and  C_29 
REMARK   16  A    between atoms: O_53  and  C_29 
ROOT
HETATM    1  C   UNK N   1      20.993  12.603   5.061  0.00  0.00     0.041 C 
HETATM    2  C   UNK N   1      26.950  15.556   7.687  0.00  0.00     0.153 C 
HETATM    3  C   UNK N   1      20.134  16.975   4.460  0.00  0.00     0.119 C 
HETATM    4  C   UNK N   1      23.626  19.383   4.254  0.00  0.00     0.119 C 
HETATM    5  C   UNK N   1      21.068  14.098   4.809  0.00  0.00     0.153 C 
HETATM    6  C   UNK N   1      24.393  14.606   6.635  0.00  0.00     0.175 C 
HETATM    7  C   UNK N   1      20.808  17.135   3.094  0.00  0.00     0.189 C 
HETATM    8  C   UNK N   1      24.796  18.967   3.354  0.00  0.00     0.189 C 
HETATM    9  C   UNK N   1      27.040  17.426   6.060  0.00  0.00     0.165 C 
HETATM   10  C   UNK N   1      19.245  15.790   4.669  0.00  0.00     0.114 C 
HETATM   11  C   UNK N   1      22.271  18.888   3.893  0.00  0.00     0.114 C 
HETATM   12  C   UNK N   1      22.070  14.681   5.794  0.00  0.00     0.135 C 
HETATM   13  C   UNK N   1      26.123  18.387   5.320  0.00  0.00     0.136 C 
HETATM   14  C   UNK N   1      25.286  15.598   5.902  0.00  0.00     0.243 C 
HETATM   15  N   UNK N   1      19.695  14.591   4.864  0.00  0.00    -0.363 N 
ATOM     16  HN  UNK N   1      18.988  13.890   5.088  1.00  0.00     0.162 HD
HETATM   17  N   UNK N   1      22.111  17.725   3.346  0.00  0.00    -0.360 N 
ATOM     18  HN  UNK N   1      22.942  17.197   3.078  1.00  0.00     0.162 HD
HETATM   19  N   UNK N   1      23.281  14.210   5.776  0.00  0.00    -0.359 N 
ATOM     20  HN  UNK N   1      23.476  13.484   5.086  1.00  0.00     0.162 HD
HETATM   21  N   UNK N   1      25.759  18.164   4.096  0.00  0.00    -0.358 N 
ATOM     22  HN  UNK N   1      26.178  17.368   3.617  1.00  0.00     0.162 HD
HETATM   23  N   UNK N   1      26.425  16.145   6.470  0.00  0.00    -0.342 N 
HETATM   24  O   UNK N   1      24.910  15.966   4.799  0.00  0.00    -0.271 OA
ENDROOT
BRANCH   6  25
HETATM   25  C   UNK N   1      25.124  13.363   7.165  0.00  0.00     0.036 C 
BRANCH  25  26
HETATM   26  C   UNK N   1      24.422  12.025   6.926  0.00  0.00     0.022 C 
BRANCH  26  27
HETATM   27  C   UNK N   1      23.650  11.503   8.154  0.00  0.00     0.123 C 
BRANCH  27  28
HETATM   28  N   UNK N   1      22.330  12.091   8.294  0.00  0.00    -0.351 N 
HETATM   29  C   UNK N   1      21.980  13.033   9.303  0.00  0.00     0.250 C 
HETATM   30  N   UNK N   1      21.018  13.848   9.078  0.00  0.00    -0.425 NA
HETATM   31  N   UNK N   1      22.822  13.257  10.423  0.00  0.00    -0.283 N 
HETATM   32  H   UNK N   1      20.232  14.436   9.161  0.00  0.00     0.270 HD
HETATM   33  H   UNK N   1      22.858  14.161  10.810  0.00  0.00     0.173 HD
HETATM   34  H   UNK N   1      21.635  11.821   7.651  0.00  0.00     0.163 HD
BRANCH  31  35
HETATM   35  C   UNK N   1      23.615  12.235  11.011  0.00  0.00     0.220 C 
HETATM   36  N   UNK N   1      24.891  12.370  11.093  0.00  0.00    -0.361 N 
HETATM   37  C   UNK N   1      25.562  13.531  10.565  0.00  0.00     0.150 C 
ATOM     38  HN  UNK N   1      25.442  11.638  11.543  1.00  0.00     0.162 HD
BRANCH  35  39
HETATM   39  O   UNK N   1      23.034  11.108  11.470  0.00  0.00    -0.332 OA
HETATM   40  H   UNK N   1      22.999  10.801  12.355  0.00  0.00     0.220 HD
ENDBRANCH  35  39
ENDBRANCH  31  35
ENDBRANCH  27  28
ENDBRANCH  26  27
ENDBRANCH  25  26
ENDBRANCH   6  25
BRANCH  12  41
HETATM   41  O   UNK N   1      21.721  15.665   6.649  0.00  0.00    -0.348 OA
HETATM   42  H   UNK N   1      21.862  16.281   7.341  0.00  0.00     0.219 HD
ENDBRANCH  12  41
BRANCH   9  43
HETATM   43  C   UNK N   1      28.447  17.303   5.440  0.00  0.00     0.072 C 
BRANCH  43  44
HETATM   44  C   UNK N   1      29.579  17.435   6.454  0.00  0.00    -0.056 A 
HETATM   45  C   UNK N   1      29.331  18.042   7.691  0.00  0.00     0.007 A 
HETATM   46  C   UNK N   1      30.366  18.193   8.626  0.00  0.00     0.001 A 
HETATM   47  C   UNK N   1      31.654  17.735   8.332  0.00  0.00     0.000 A 
HETATM   48  C   UNK N   1      31.913  17.129   7.104  0.00  0.00     0.001 A 
HETATM   49  C   UNK N   1      30.884  16.986   6.173  0.00  0.00     0.007 A 
ENDBRANCH  43  44
ENDBRANCH   9  43
BRANCH  13  50
HETATM   50  O   UNK N   1      25.672  19.471   5.988  0.00  0.00    -0.348 OA
HETATM   51  H   UNK N   1      25.089  19.815   6.635  0.00  0.00     0.219 HD
ENDBRANCH  13  50
BRANCH  10  52
HETATM   52  O   UNK N   1      17.918  16.000   4.731  0.00  0.00    -0.349 OA
HETATM   53  H   UNK N   1      17.404  15.968   5.514  0.00  0.00     0.219 HD
ENDBRANCH  10  52
BRANCH   8  54
HETATM   54  C   UNK N   1      25.419  20.198   2.772  0.00  0.00     0.163 C 
HETATM   55  O   UNK N   1      24.814  20.876   1.958  0.00  0.00    -0.648 OA
BRANCH  54  56
HETATM   56  O   UNK N   1      26.676  20.536   3.120  0.00  0.00    -0.775 OA
HETATM   57  H   UNK N   1      27.503  20.238   3.443  0.00  0.00     0.167 HD
ENDBRANCH  54  56
ENDBRANCH   8  54
BRANCH   7  58
HETATM   58  C   UNK N   1      19.977  17.963   2.128  0.00  0.00     0.163 C 
HETATM   59  O   UNK N   1      20.311  18.082   0.958  0.00  0.00    -0.648 OA
BRANCH  58  60
HETATM   60  O   UNK N   1      18.842  18.554   2.549  0.00  0.00    -0.775 OA
HETATM   61  H   UNK N   1      18.010  18.177   2.338  0.00  0.00     0.167 HD
ENDBRANCH  58  60
ENDBRANCH   7  58
BRANCH  11  62
HETATM   62  O   UNK N   1      21.209  19.651   4.228  0.00  0.00    -0.349 OA
HETATM   63  H   UNK N   1      20.454  19.546   4.772  0.00  0.00     0.219 HD
ENDBRANCH  11  62
TORSDOF 16
ENDMDL
MODEL 2
REMARK VINA RESULT:      -7.9      4.957      9.468
REMARK  16 active torsions:
REMARK  status: ('A' for Active; 'I' for Inactive)
REMARK    1  A    between atoms: C_10  and  C_7 
REMARK    2  A    between atoms: C_11  and  C_7 
REMARK    3  A    between atoms: C_17  and  C_10 
REMARK    4  A    between atoms: N_33  and  C_11 
REMARK    5  A    between atoms: C_16  and  C_12 
REMARK    6  A    between atoms: C_20  and  C_12 
REMARK    7  A    between atoms: C_18  and  C_26 
REMARK    8  A    between atoms: C_19  and  C_27 
REMARK    9  A    between atoms: C_21  and  O_44 
REMARK   10  A    between atoms: C_22  and  O_45 
REMARK   11  A    between atoms: C_23  and  O_46 
REMARK   12  A    between atoms: C_24  and  O_47 
REMARK   13  A    between atoms: O_50  and  C_26 
REMARK   14  A    between atoms: O_52  and  C_27 
REMARK       I    between atoms: N_30  and  C_28 
REMARK       I    between atoms: N_33  and  C_28 
REMARK       I    between atoms: N_42  and  C_28 
REMARK   15  A    between atoms: N_42  and  C_29 
REMARK   16  A    between atoms: O_53  and  C_29 
ROOT
HETATM    1  C   UNK N   1      27.299  20.096   6.812  0.00  0.00     0.041 C 
HETATM    2  C   UNK N   1      26.258  14.399   2.622  0.00  0.00     0.153 C 
HETATM    3  C   UNK N   1      30.337  17.228   8.474  0.00  0.00     0.119 C 
HETATM    4  C   UNK N   1      31.542  14.236   5.711  0.00  0.00     0.119 C 
HETATM    5  C   UNK N   1      28.342  19.014   7.023  0.00  0.00     0.153 C 
HETATM    6  C   UNK N   1      26.822  16.555   4.515  0.00  0.00     0.175 C 
HETATM    7  C   UNK N   1      31.487  17.564   7.518  0.00  0.00     0.189 C 
HETATM    8  C   UNK N   1      31.938  14.623   4.281  0.00  0.00     0.189 C 
HETATM    9  C   UNK N   1      28.640  13.710   2.541  0.00  0.00     0.165 C 
HETATM   10  C   UNK N   1      29.580  18.364   9.085  0.00  0.00     0.114 C 
HETATM   11  C   UNK N   1      31.684  15.273   6.768  0.00  0.00     0.114 C 
HETATM   12  C   UNK N   1      27.770  17.712   6.483  0.00  0.00     0.135 C 
HETATM   13  C   UNK N   1      29.874  13.636   3.425  0.00  0.00     0.136 C 
HETATM   14  C   UNK N   1      27.900  15.836   3.715  0.00  0.00     0.243 C 
HETATM   15  N   UNK N   1      28.703  19.063   8.437  0.00  0.00    -0.363 N 
ATOM     16  HN  UNK N   1      28.189  19.745   8.995  1.00  0.00     0.162 HD
HETATM   17  N   UNK N   1      31.492  16.525   6.503  0.00  0.00    -0.360 N 
ATOM     18  HN  UNK N   1      31.337  16.796   5.531  1.00  0.00     0.162 HD
HETATM   19  N   UNK N   1      27.407  17.682   5.236  0.00  0.00    -0.359 N 
ATOM     20  HN  UNK N   1      27.546  18.540   4.701  1.00  0.00     0.162 HD
HETATM   21  N   UNK N   1      30.787  14.555   3.390  0.00  0.00    -0.358 N 
ATOM     22  HN  UNK N   1      30.692  15.287   2.686  1.00  0.00     0.162 HD
HETATM   23  N   UNK N   1      27.638  14.727   2.927  0.00  0.00    -0.342 N 
HETATM   24  O   UNK N   1      29.049  16.231   3.860  0.00  0.00    -0.271 OA
ENDROOT
BRANCH   6  25
HETATM   25  C   UNK N   1      25.619  17.023   3.682  0.00  0.00     0.036 C 
BRANCH  25  26
HETATM   26  C   UNK N   1      25.527  18.529   3.435  0.00  0.00     0.022 C 
BRANCH  26  27
HETATM   27  C   UNK N   1      24.258  19.176   4.026  0.00  0.00     0.123 C 
BRANCH  27  28
HETATM   28  N   UNK N   1      23.563  20.038   3.086  0.00  0.00    -0.351 N 
HETATM   29  C   UNK N   1      22.151  20.223   3.069  0.00  0.00     0.250 C 
HETATM   30  N   UNK N   1      21.679  21.313   2.590  0.00  0.00    -0.425 NA
HETATM   31  N   UNK N   1      21.288  19.360   3.792  0.00  0.00    -0.283 N 
HETATM   32  H   UNK N   1      21.127  21.989   2.134  0.00  0.00     0.270 HD
HETATM   33  H   UNK N   1      20.462  19.734   4.174  0.00  0.00     0.173 HD
HETATM   34  H   UNK N   1      24.102  20.523   2.420  0.00  0.00     0.163 HD
BRANCH  31  35
HETATM   35  C   UNK N   1      21.563  17.980   3.990  0.00  0.00     0.220 C 
HETATM   36  N   UNK N   1      21.592  17.487   5.177  0.00  0.00    -0.361 N 
HETATM   37  C   UNK N   1      21.388  18.312   6.341  0.00  0.00     0.150 C 
ATOM     38  HN  UNK N   1      21.765  16.489   5.299  1.00  0.00     0.162 HD
BRANCH  35  39
HETATM   39  O   UNK N   1      21.813  17.182   2.932  0.00  0.00    -0.332 OA
HETATM   40  H   UNK N   1      21.194  16.702   2.418  0.00  0.00     0.220 HD
ENDBRANCH  35  39
ENDBRANCH  31  35
ENDBRANCH  27  28
ENDBRANCH  26  27
ENDBRANCH  25  26
ENDBRANCH   6  25
BRANCH  12  41
HETATM   41  O   UNK N   1      27.656  16.618   7.265  0.00  0.00    -0.348 OA
HETATM   42  H   UNK N   1      27.949  15.821   7.661  0.00  0.00     0.219 HD
ENDBRANCH  12  41
BRANCH   9  43
HETATM   43  C   UNK N   1      28.950  13.643   1.032  0.00  0.00     0.072 C 
BRANCH  43  44
HETATM   44  C   UNK N   1      29.074  12.220   0.493  0.00  0.00    -0.056 A 
HETATM   45  C   UNK N   1      30.019  11.938  -0.501  0.00  0.00     0.007 A 
HETATM   46  C   UNK N   1      30.129  10.641  -1.023  0.00  0.00     0.001 A 
HETATM   47  C   UNK N   1      29.301   9.617  -0.553  0.00  0.00     0.000 A 
HETATM   48  C   UNK N   1      28.358   9.886   0.437  0.00  0.00     0.001 A 
HETATM   49  C   UNK N   1      28.244  11.178   0.950  0.00  0.00     0.007 A 
ENDBRANCH  43  44
ENDBRANCH   9  43
BRANCH  13  50
HETATM   50  O   UNK N   1      29.979  12.592   4.278  0.00  0.00    -0.348 OA
HETATM   51  H   UNK N   1      30.009  12.295   5.165  0.00  0.00     0.219 HD
ENDBRANCH  13  50
BRANCH  10  52
HETATM   52  O   UNK N   1      29.771  18.618  10.393  0.00  0.00    -0.349 OA
HETATM   53  H   UNK N   1      30.581  18.506  10.850  0.00  0.00     0.219 HD
ENDBRANCH  10  52
BRANCH   8  54
HETATM   54  C   UNK N   1      33.052  13.731   3.829  0.00  0.00     0.163 C 
HETATM   55  O   UNK N   1      33.099  12.565   4.187  0.00  0.00    -0.648 OA
BRANCH  54  56
HETATM   56  O   UNK N   1      34.033  14.230   3.053  0.00  0.00    -0.775 OA
HETATM   57  H   UNK N   1      34.328  14.395   2.180  0.00  0.00     0.167 HD
ENDBRANCH  54  56
ENDBRANCH   8  54
BRANCH   7  58
HETATM   58  C   UNK N   1      32.823  17.680   8.232  0.00  0.00     0.163 C 
HETATM   59  O   UNK N   1      33.745  18.313   7.736  0.00  0.00    -0.648 OA
BRANCH  58  60
HETATM   60  O   UNK N   1      32.996  17.106   9.438  0.00  0.00    -0.775 OA
HETATM   61  H   UNK N   1      32.427  17.328  10.149  0.00  0.00     0.167 HD
ENDBRANCH  58  60
ENDBRANCH   7  58
BRANCH  11  62
HETATM   62  O   UNK N   1      31.938  14.860   8.028  0.00  0.00    -0.349 OA
HETATM   63  H   UNK N   1      31.550  14.999   8.870  0.00  0.00     0.219 HD
ENDBRANCH  11  62
TORSDOF 16
ENDMDL
MODEL 3
REMARK VINA RESULT:      -7.8      1.195      2.044
REMARK  16 active torsions:
REMARK  status: ('A' for Active; 'I' for Inactive)
REMARK    1  A    between atoms: C_10  and  C_7 
REMARK    2  A    between atoms: C_11  and  C_7 
REMARK    3  A    between atoms: C_17  and  C_10 
REMARK    4  A    between atoms: N_33  and  C_11 
REMARK    5  A    between atoms: C_16  and  C_12 
REMARK    6  A    between atoms: C_20  and  C_12 
REMARK    7  A    between atoms: C_18  and  C_26 
REMARK    8  A    between atoms: C_19  and  C_27 
REMARK    9  A    between atoms: C_21  and  O_44 
REMARK   10  A    between atoms: C_22  and  O_45 
REMARK   11  A    between atoms: C_23  and  O_46 
REMARK   12  A    between atoms: C_24  and  O_47 
REMARK   13  A    between atoms: O_50  and  C_26 
REMARK   14  A    between atoms: O_52  and  C_27 
REMARK       I    between atoms: N_30  and  C_28 
REMARK       I    between atoms: N_33  and  C_28 
REMARK       I    between atoms: N_42  and  C_28 
REMARK   15  A    between atoms: N_42  and  C_29 
REMARK   16  A    between atoms: O_53  and  C_29 
ROOT
HETATM    1  C   UNK N   1      20.951  12.617   5.091  0.00  0.00     0.041 C 
HETATM    2  C   UNK N   1      26.999  15.523   7.554  0.00  0.00     0.153 C 
HETATM    3  C   UNK N   1      20.095  16.997   4.547  0.00  0.00     0.119 C 
HETATM    4  C   UNK N   1      23.591  19.390   4.250  0.00  0.00     0.119 C 
HETATM    5  C   UNK N   1      21.025  14.113   4.847  0.00  0.00     0.153 C 
HETATM    6  C   UNK N   1      24.407  14.593   6.574  0.00  0.00     0.175 C 
HETATM    7  C   UNK N   1      20.728  17.163   3.161  0.00  0.00     0.189 C 
HETATM    8  C   UNK N   1      24.731  18.974   3.312  0.00  0.00     0.189 C 
HETATM    9  C   UNK N   1      27.049  17.404   5.938  0.00  0.00     0.165 C 
HETATM   10  C   UNK N   1      19.207  15.814   4.774  0.00  0.00     0.114 C 
HETATM   11  C   UNK N   1      22.223  18.903   3.927  0.00  0.00     0.114 C 
HETATM   12  C   UNK N   1      22.059  14.684   5.805  0.00  0.00     0.135 C 
HETATM   13  C   UNK N   1      26.115  18.374   5.232  0.00  0.00     0.136 C 
HETATM   14  C   UNK N   1      25.282  15.585   5.821  0.00  0.00     0.243 C 
HETATM   15  N   UNK N   1      19.657  14.612   4.947  0.00  0.00    -0.363 N 
ATOM     16  HN  UNK N   1      18.954  13.913   5.188  1.00  0.00     0.162 HD
HETATM   17  N   UNK N   1      22.041  17.745   3.378  0.00  0.00    -0.360 N 
ATOM     18  HN  UNK N   1      22.860  17.215   3.081  1.00  0.00     0.162 HD
HETATM   19  N   UNK N   1      23.267  14.208   5.747  0.00  0.00    -0.359 N 
ATOM     20  HN  UNK N   1      23.437  13.486   5.046  1.00  0.00     0.162 HD
HETATM   21  N   UNK N   1      25.712  18.162   4.019  0.00  0.00    -0.358 N 
ATOM     22  HN  UNK N   1      26.113  17.367   3.521  1.00  0.00     0.162 HD
HETATM   23  N   UNK N   1      26.441  16.123   6.357  0.00  0.00    -0.342 N 
HETATM   24  O   UNK N   1      24.875  15.963   4.732  0.00  0.00    -0.271 OA
ENDROOT
BRANCH   6  25
HETATM   25  C   UNK N   1      25.147  13.342   7.072  0.00  0.00     0.036 C 
BRANCH  25  26
HETATM   26  C   UNK N   1      24.431  12.010   6.848  0.00  0.00     0.022 C 
BRANCH  26  27
HETATM   27  C   UNK N   1      23.679  11.495   8.092  0.00  0.00     0.123 C 
BRANCH  27  28
HETATM   28  N   UNK N   1      22.357  12.075   8.244  0.00  0.00    -0.351 N 
HETATM   29  C   UNK N   1      22.014  13.024   9.248  0.00  0.00     0.250 C 
HETATM   30  N   UNK N   1      21.044  13.830   9.028  0.00  0.00    -0.425 NA
HETATM   31  N   UNK N   1      22.869  13.265  10.354  0.00  0.00    -0.283 N 
HETATM   32  H   UNK N   1      20.255  14.413   9.116  0.00  0.00     0.270 HD
HETATM   33  H   UNK N   1      22.904  14.173  10.732  0.00  0.00     0.173 HD
HETATM   34  H   UNK N   1      21.655  11.794   7.613  0.00  0.00     0.163 HD
BRANCH  31  35
HETATM   35  C   UNK N   1      23.678  12.254  10.941  0.00  0.00     0.220 C 
HETATM   36  N   UNK N   1      24.953  12.401  11.010  0.00  0.00    -0.361 N 
HETATM   37  C   UNK N   1      25.608  13.564  10.466  0.00  0.00     0.150 C 
ATOM     38  HN  UNK N   1      25.515  11.677  11.459  1.00  0.00     0.162 HD
BRANCH  35  39
HETATM   39  O   UNK N   1      23.111  11.125  11.415  0.00  0.00    -0.332 OA
HETATM   40  H   UNK N   1      23.189  10.762  12.275  0.00  0.00     0.220 HD
ENDBRANCH  35  39
ENDBRANCH  31  35
ENDBRANCH  27  28
ENDBRANCH  26  27
ENDBRANCH  25  26
ENDBRANCH   6  25
BRANCH  12  41
HETATM   41  O   UNK N   1      21.742  15.664   6.677  0.00  0.00    -0.348 OA
HETATM   42  H   UNK N   1      21.289  16.431   6.967  0.00  0.00     0.219 HD
ENDBRANCH  12  41
BRANCH   9  43
HETATM   43  C   UNK N   1      28.435  17.279   5.273  0.00  0.00     0.072 C 
BRANCH  43  44
HETATM   44  C   UNK N   1      28.584  16.044   4.389  0.00  0.00    -0.056 A 
HETATM   45  C   UNK N   1      29.277  14.928   4.873  0.00  0.00     0.007 A 
HETATM   46  C   UNK N   1      29.443  13.794   4.064  0.00  0.00     0.001 A 
HETATM   47  C   UNK N   1      28.915  13.765   2.771  0.00  0.00     0.000 A 
HETATM   48  C   UNK N   1      28.221  14.870   2.279  0.00  0.00     0.001 A 
HETATM   49  C   UNK N   1      28.063  16.000   3.081  0.00  0.00     0.007 A 
ENDBRANCH  43  44
ENDBRANCH   9  43
BRANCH  13  50
HETATM   50  O   UNK N   1      25.689  19.456   5.921  0.00  0.00    -0.348 OA
HETATM   51  H   UNK N   1      25.691  19.931   6.729  0.00  0.00     0.219 HD
ENDBRANCH  13  50
BRANCH  10  52
HETATM   52  O   UNK N   1      17.883  16.031   4.878  0.00  0.00    -0.349 OA
HETATM   53  H   UNK N   1      17.346  15.744   5.590  0.00  0.00     0.219 HD
ENDBRANCH  10  52
BRANCH   8  54
HETATM   54  C   UNK N   1      25.342  20.206   2.719  0.00  0.00     0.163 C 
HETATM   55  O   UNK N   1      26.471  20.551   3.030  0.00  0.00    -0.648 OA
BRANCH  54  56
HETATM   56  O   UNK N   1      24.624  20.962   1.866  0.00  0.00    -0.775 OA
HETATM   57  H   UNK N   1      24.536  21.277   0.988  0.00  0.00     0.167 HD
ENDBRANCH  54  56
ENDBRANCH   8  54
BRANCH   7  58
HETATM   58  C   UNK N   1      19.872  18.002   2.227  0.00  0.00     0.163 C 
HETATM   59  O   UNK N   1      18.966  18.698   2.663  0.00  0.00    -0.648 OA
BRANCH  58  60
HETATM   60  O   UNK N   1      20.125  18.008   0.904  0.00  0.00    -0.775 OA
HETATM   61  H   UNK N   1      20.681  18.667   0.535  0.00  0.00     0.167 HD
ENDBRANCH  58  60
ENDBRANCH   7  58
BRANCH  11  62
HETATM   62  O   UNK N   1      21.176  19.669   4.300  0.00  0.00    -0.349 OA
HETATM   63  H   UNK N   1      20.687  20.370   3.916  0.00  0.00     0.219 HD
ENDBRANCH  11  62
TORSDOF 16
ENDMDL
MODEL 4
REMARK VINA RESULT:      -7.4      4.077      9.525
REMARK  16 active torsions:
REMARK  status: ('A' for Active; 'I' for Inactive)
REMARK    1  A    between atoms: C_10  and  C_7 
REMARK    2  A    between atoms: C_11  and  C_7 
REMARK    3  A    between atoms: C_17  and  C_10 
REMARK    4  A    between atoms: N_33  and  C_11 
REMARK    5  A    between atoms: C_16  and  C_12 
REMARK    6  A    between atoms: C_20  and  C_12 
REMARK    7  A    between atoms: C_18  and  C_26 
REMARK    8  A    between atoms: C_19  and  C_27 
REMARK    9  A    between atoms: C_21  and  O_44 
REMARK   10  A    between atoms: C_22  and  O_45 
REMARK   11  A    between atoms: C_23  and  O_46 
REMARK   12  A    between atoms: C_24  and  O_47 
REMARK   13  A    between atoms: O_50  and  C_26 
REMARK   14  A    between atoms: O_52  and  C_27 
REMARK       I    between atoms: N_30  and  C_28 
REMARK       I    between atoms: N_33  and  C_28 
REMARK       I    between atoms: N_42  and  C_28 
REMARK   15  A    between atoms: N_42  and  C_29 
REMARK   16  A    between atoms: O_53  and  C_29 
ROOT
HETATM    1  C   UNK N   1      27.429  20.111   7.096  0.00  0.00     0.041 C 
HETATM    2  C   UNK N   1      23.654  14.976   3.860  0.00  0.00     0.153 C 
HETATM    3  C   UNK N   1      30.301  16.658   7.306  0.00  0.00     0.119 C 
HETATM    4  C   UNK N   1      29.623  13.698   4.336  0.00  0.00     0.119 C 
HETATM    5  C   UNK N   1      28.242  18.854   6.846  0.00  0.00     0.153 C 
HETATM    6  C   UNK N   1      25.365  16.869   5.287  0.00  0.00     0.175 C 
HETATM    7  C   UNK N   1      30.966  16.856   5.939  0.00  0.00     0.189 C 
HETATM    8  C   UNK N   1      29.427  14.109   2.871  0.00  0.00     0.189 C 
HETATM    9  C   UNK N   1      25.595  13.896   2.757  0.00  0.00     0.165 C 
HETATM   10  C   UNK N   1      30.105  17.863   8.170  0.00  0.00     0.114 C 
HETATM   11  C   UNK N   1      30.395  14.621   5.210  0.00  0.00     0.114 C 
HETATM   12  C   UNK N   1      27.264  17.710   6.628  0.00  0.00     0.135 C 
HETATM   13  C   UNK N   1      27.054  13.551   3.016  0.00  0.00     0.136 C 
HETATM   14  C   UNK N   1      25.840  16.031   4.107  0.00  0.00     0.243 C 
HETATM   15  N   UNK N   1      29.179  18.744   7.960  0.00  0.00    -0.363 N 
ATOM     16  HN  UNK N   1      29.091  19.465   8.677  1.00  0.00     0.162 HD
HETATM   17  N   UNK N   1      30.341  15.903   5.038  0.00  0.00    -0.360 N 
ATOM     18  HN  UNK N   1      29.836  16.262   4.228  1.00  0.00     0.162 HD
HETATM   19  N   UNK N   1      26.400  17.828   5.664  0.00  0.00    -0.359 N 
ATOM     20  HN  UNK N   1      26.450  18.683   5.111  1.00  0.00     0.162 HD
HETATM   21  N   UNK N   1      28.014  14.300   2.573  0.00  0.00    -0.358 N 
ATOM     22  HN  UNK N   1      27.761  15.083   1.970  1.00  0.00     0.162 HD
HETATM   23  N   UNK N   1      25.064  15.041   3.528  0.00  0.00    -0.342 N 
HETATM   24  O   UNK N   1      26.989  16.213   3.730  0.00  0.00    -0.271 OA
ENDROOT
BRANCH   6  25
HETATM   25  C   UNK N   1      24.030  17.592   5.056  0.00  0.00     0.036 C 
BRANCH  25  26
HETATM   26  C   UNK N   1      24.024  18.642   3.945  0.00  0.00     0.022 C 
BRANCH  26  27
HETATM   27  C   UNK N   1      22.615  19.148   3.578  0.00  0.00     0.123 C 
BRANCH  27  28
HETATM   28  N   UNK N   1      21.560  18.220   3.944  0.00  0.00    -0.351 N 
HETATM   29  C   UNK N   1      20.275  18.191   3.331  0.00  0.00     0.250 C 
HETATM   30  N   UNK N   1      19.614  17.095   3.336  0.00  0.00    -0.425 NA
HETATM   31  N   UNK N   1      19.832  19.257   2.505  0.00  0.00    -0.283 N 
HETATM   32  H   UNK N   1      18.902  16.416   3.372  0.00  0.00     0.270 HD
HETATM   33  H   UNK N   1      19.242  19.047   1.745  0.00  0.00     0.173 HD
HETATM   34  H   UNK N   1      21.745  17.570   4.661  0.00  0.00     0.163 HD
BRANCH  31  35
HETATM   35  C   UNK N   1      20.201  20.611   2.724  0.00  0.00     0.220 C 
HETATM   36  N   UNK N   1      20.694  21.313   1.768  0.00  0.00    -0.361 N 
HETATM   37  C   UNK N   1      20.925  20.751   0.461  0.00  0.00     0.150 C 
ATOM     38  HN  UNK N   1      20.928  22.292   1.937  1.00  0.00     0.162 HD
BRANCH  35  39
HETATM   39  O   UNK N   1      20.051  21.163   3.946  0.00  0.00    -0.332 OA
HETATM   40  H   UNK N   1      19.900  22.064   4.154  0.00  0.00     0.220 HD
ENDBRANCH  35  39
ENDBRANCH  31  35
ENDBRANCH  27  28
ENDBRANCH  26  27
ENDBRANCH  25  26
ENDBRANCH   6  25
BRANCH  12  41
HETATM   41  O   UNK N   1      27.299  16.601   7.396  0.00  0.00    -0.348 OA
HETATM   42  H   UNK N   1      27.574  15.737   7.631  0.00  0.00     0.219 HD
ENDBRANCH  12  41
BRANCH   9  43
HETATM   43  C   UNK N   1      25.206  13.878   1.265  0.00  0.00     0.072 C 
BRANCH  43  44
HETATM   44  C   UNK N   1      24.240  12.757   0.896  0.00  0.00    -0.056 A 
HETATM   45  C   UNK N   1      22.869  13.027   0.809  0.00  0.00     0.007 A 
HETATM   46  C   UNK N   1      21.964  12.002   0.494  0.00  0.00     0.001 A 
HETATM   47  C   UNK N   1      22.423  10.703   0.259  0.00  0.00     0.000 A 
HETATM   48  C   UNK N   1      23.786  10.422   0.341  0.00  0.00     0.001 A 
HETATM   49  C   UNK N   1      24.683  11.441   0.662  0.00  0.00     0.007 A 
ENDBRANCH  43  44
ENDBRANCH   9  43
BRANCH  13  50
HETATM   50  O   UNK N   1      27.321  12.449   3.751  0.00  0.00    -0.348 OA
HETATM   51  H   UNK N   1      27.084  11.903   4.475  0.00  0.00     0.219 HD
ENDBRANCH  13  50
BRANCH  10  52
HETATM   52  O   UNK N   1      30.884  17.991   9.260  0.00  0.00    -0.349 OA
HETATM   53  H   UNK N   1      30.854  17.432  10.011  0.00  0.00     0.219 HD
ENDBRANCH  10  52
BRANCH   8  54
HETATM   54  C   UNK N   1      30.052  13.071   1.991  0.00  0.00     0.163 C 
HETATM   55  O   UNK N   1      31.088  12.517   2.322  0.00  0.00    -0.648 OA
BRANCH  54  56
HETATM   56  O   UNK N   1      29.486  12.775   0.805  0.00  0.00    -0.775 OA
HETATM   57  H   UNK N   1      29.223  12.097   0.214  0.00  0.00     0.167 HD
ENDBRANCH  54  56
ENDBRANCH   8  54
BRANCH   7  58
HETATM   58  C   UNK N   1      32.476  16.691   5.997  0.00  0.00     0.163 C 
HETATM   59  O   UNK N   1      33.014  16.194   6.975  0.00  0.00    -0.648 OA
BRANCH  58  60
HETATM   60  O   UNK N   1      33.235  17.068   4.950  0.00  0.00    -0.775 OA
HETATM   61  H   UNK N   1      32.862  17.111   4.091  0.00  0.00     0.167 HD
ENDBRANCH  58  60
ENDBRANCH   7  58
BRANCH  11  62
HETATM   62  O   UNK N   1      31.086  14.086   6.239  0.00  0.00    -0.349 OA
HETATM   63  H   UNK N   1      30.867  13.685   7.057  0.00  0.00     0.219 HD
ENDBRANCH  11  62
TORSDOF 16
ENDMDL
MODEL 5
REMARK VINA RESULT:      -7.3     10.910     16.327
REMARK  16 active torsions:
REMARK  status: ('A' for Active; 'I' for Inactive)
REMARK    1  A    between atoms: C_10  and  C_7 
REMARK    2  A    between atoms: C_11  and  C_7 
REMARK    3  A    between atoms: C_17  and  C_10 
REMARK    4  A    between atoms: N_33  and  C_11 
REMARK    5  A    between atoms: C_16  and  C_12 
REMARK    6  A    between atoms: C_20  and  C_12 
REMARK    7  A    between atoms: C_18  and  C_26 
REMARK    8  A    between atoms: C_19  and  C_27 
REMARK    9  A    between atoms: C_21  and  O_44 
REMARK   10  A    between atoms: C_22  and  O_45 
REMARK   11  A    between atoms: C_23  and  O_46 
REMARK   12  A    between atoms: C_24  and  O_47 
REMARK   13  A    between atoms: O_50  and  C_26 
REMARK   14  A    between atoms: O_52  and  C_27 
REMARK       I    between atoms: N_30  and  C_28 
REMARK       I    between atoms: N_33  and  C_28 
REMARK       I    between atoms: N_42  and  C_28 
REMARK   15  A    between atoms: N_42  and  C_29 
REMARK   16  A    between atoms: O_53  and  C_29 
ROOT
HETATM    1  C   UNK N   1      36.968  13.833   6.846  0.00  0.00     0.041 C 
HETATM    2  C   UNK N   1      36.312  14.550  13.928  0.00  0.00     0.153 C 
HETATM    3  C   UNK N   1      39.406  10.347   8.302  0.00  0.00     0.119 C 
HETATM    4  C   UNK N   1      38.346   9.039  12.201  0.00  0.00     0.119 C 
HETATM    5  C   UNK N   1      37.544  12.656   7.611  0.00  0.00     0.153 C 
HETATM    6  C   UNK N   1      36.802  14.084  11.084  0.00  0.00     0.175 C 
HETATM    7  C   UNK N   1      38.266   9.332   8.426  0.00  0.00     0.189 C 
HETATM    8  C   UNK N   1      36.872   8.816  12.564  0.00  0.00     0.189 C 
HETATM    9  C   UNK N   1      36.265  12.120  14.422  0.00  0.00     0.165 C 
HETATM   10  C   UNK N   1      39.472  11.178   7.060  0.00  0.00     0.114 C 
HETATM   11  C   UNK N   1      38.724   8.930  10.767  0.00  0.00     0.114 C 
HETATM   12  C   UNK N   1      37.797  13.115   9.039  0.00  0.00     0.135 C 
HETATM   13  C   UNK N   1      36.898  10.814  13.968  0.00  0.00     0.136 C 
HETATM   14  C   UNK N   1      36.325  13.001  12.043  0.00  0.00     0.243 C 
HETATM   15  N   UNK N   1      38.688  12.184   6.836  0.00  0.00    -0.363 N 
ATOM     16  HN  UNK N   1      38.899  12.725   5.997  1.00  0.00     0.162 HD
HETATM   17  N   UNK N   1      37.904   9.291   9.832  0.00  0.00    -0.360 N 
ATOM     18  HN  UNK N   1      36.956   9.559  10.097  1.00  0.00     0.162 HD
HETATM   19  N   UNK N   1      36.788  13.577   9.714  0.00  0.00    -0.359 N 
ATOM     20  HN  UNK N   1      35.887  13.586   9.235  1.00  0.00     0.162 HD
HETATM   21  N   UNK N   1      36.293  10.023  13.139  0.00  0.00    -0.358 N 
ATOM     22  HN  UNK N   1      35.340  10.263  12.869  1.00  0.00     0.162 HD
HETATM   23  N   UNK N   1      36.229  13.198  13.410  0.00  0.00    -0.342 N 
HETATM   24  O   UNK N   1      36.102  11.900  11.561  0.00  0.00    -0.271 OA
ENDROOT
BRANCH   6  25
HETATM   25  C   UNK N   1      36.015  15.401  11.170  0.00  0.00     0.036 C 
BRANCH  25  26
HETATM   26  C   UNK N   1      34.510  15.295  10.924  0.00  0.00     0.022 C 
BRANCH  26  27
HETATM   27  C   UNK N   1      34.059  15.900   9.579  0.00  0.00     0.123 C 
BRANCH  27  28
HETATM   28  N   UNK N   1      34.952  16.934   9.088  0.00  0.00    -0.351 N 
HETATM   29  C   UNK N   1      34.513  18.132   8.456  0.00  0.00     0.250 C 
HETATM   30  N   UNK N   1      35.265  19.168   8.507  0.00  0.00    -0.425 NA
HETATM   31  N   UNK N   1      33.176  18.277   8.005  0.00  0.00    -0.283 N 
HETATM   32  H   UNK N   1      35.751  19.999   8.302  0.00  0.00     0.270 HD
HETATM   33  H   UNK N   1      32.762  19.170   8.038  0.00  0.00     0.173 HD
HETATM   34  H   UNK N   1      35.921  16.798   9.200  0.00  0.00     0.163 HD
BRANCH  31  35
HETATM   35  C   UNK N   1      32.406  17.192   7.507  0.00  0.00     0.220 C 
HETATM   36  N   UNK N   1      31.185  17.037   7.879  0.00  0.00    -0.361 N 
HETATM   37  C   UNK N   1      30.569  17.925   8.833  0.00  0.00     0.150 C 
ATOM     38  HN  UNK N   1      30.639  16.267   7.490  1.00  0.00     0.162 HD
BRANCH  35  39
HETATM   39  O   UNK N   1      32.959  16.306   6.653  0.00  0.00    -0.332 OA
HETATM   40  H   UNK N   1      32.738  16.162   5.754  0.00  0.00     0.220 HD
ENDBRANCH  35  39
ENDBRANCH  31  35
ENDBRANCH  27  28
ENDBRANCH  26  27
ENDBRANCH  25  26
ENDBRANCH   6  25
BRANCH  12  41
HETATM   41  O   UNK N   1      39.024  13.032   9.595  0.00  0.00    -0.348 OA
HETATM   42  H   UNK N   1      39.654  12.751  10.230  0.00  0.00     0.219 HD
ENDBRANCH  12  41
BRANCH   9  43
HETATM   43  C   UNK N   1      34.960  11.934  15.222  0.00  0.00     0.072 C 
BRANCH  43  44
HETATM   44  C   UNK N   1      35.130  12.121  16.727  0.00  0.00    -0.056 A 
HETATM   45  C   UNK N   1      35.374  11.007  17.538  0.00  0.00     0.007 A 
HETATM   46  C   UNK N   1      35.509  11.158  18.926  0.00  0.00     0.001 A 
HETATM   47  C   UNK N   1      35.406  12.423  19.512  0.00  0.00     0.000 A 
HETATM   48  C   UNK N   1      35.164  13.540  18.714  0.00  0.00     0.001 A 
HETATM   49  C   UNK N   1      35.023  13.387  17.335  0.00  0.00     0.007 A 
ENDBRANCH  43  44
ENDBRANCH   9  43
BRANCH  13  50
HETATM   50  O   UNK N   1      38.132  10.515  14.432  0.00  0.00    -0.348 OA
HETATM   51  H   UNK N   1      38.655  10.203  15.143  0.00  0.00     0.219 HD
ENDBRANCH  13  50
BRANCH  10  52
HETATM   52  O   UNK N   1      40.446  10.907   6.171  0.00  0.00    -0.349 OA
HETATM   53  H   UNK N   1      41.361  11.047   6.317  0.00  0.00     0.219 HD
ENDBRANCH  10  52
BRANCH   8  54
HETATM   54  C   UNK N   1      36.776   7.647  13.495  0.00  0.00     0.163 C 
HETATM   55  O   UNK N   1      35.896   6.813  13.357  0.00  0.00    -0.648 OA
BRANCH  54  56
HETATM   56  O   UNK N   1      37.645   7.538  14.519  0.00  0.00    -0.775 OA
HETATM   57  H   UNK N   1      38.506   7.727  14.834  0.00  0.00     0.167 HD
ENDBRANCH  54  56
ENDBRANCH   8  54
BRANCH   7  58
HETATM   58  C   UNK N   1      38.644   7.962   7.888  0.00  0.00     0.163 C 
HETATM   59  O   UNK N   1      39.804   7.700   7.604  0.00  0.00    -0.648 OA
BRANCH  58  60
HETATM   60  O   UNK N   1      37.703   7.009   7.748  0.00  0.00    -0.775 OA
HETATM   61  H   UNK N   1      37.762   6.214   8.241  0.00  0.00     0.167 HD
ENDBRANCH  58  60
ENDBRANCH   7  58
BRANCH  11  62
HETATM   62  O   UNK N   1      39.977   8.523  10.474  0.00  0.00    -0.349 OA
HETATM   63  H   UNK N   1      40.366   7.951   9.842  0.00  0.00     0.219 HD
ENDBRANCH  11  62
TORSDOF 16
ENDMDL
MODEL 6
REMARK VINA RESULT:      -7.3      2.290      7.135
REMARK  16 active torsions:
REMARK  status: ('A' for Active; 'I' for Inactive)
REMARK    1  A    between atoms: C_10  and  C_7 
REMARK    2  A    between atoms: C_11  and  C_7 
REMARK    3  A    between atoms: C_17  and  C_10 
REMARK    4  A    between atoms: N_33  and  C_11 
REMARK    5  A    between atoms: C_16  and  C_12 
REMARK    6  A    between atoms: C_20  and  C_12 
REMARK    7  A    between atoms: C_18  and  C_26 
REMARK    8  A    between atoms: C_19  and  C_27 
REMARK    9  A    between atoms: C_21  and  O_44 
REMARK   10  A    between atoms: C_22  and  O_45 
REMARK   11  A    between atoms: C_23  and  O_46 
REMARK   12  A    between atoms: C_24  and  O_47 
REMARK   13  A    between atoms: O_50  and  C_26 
REMARK   14  A    between atoms: O_52  and  C_27 
REMARK       I    between atoms: N_30  and  C_28 
REMARK       I    between atoms: N_33  and  C_28 
REMARK       I    between atoms: N_42  and  C_28 
REMARK   15  A    between atoms: N_42  and  C_29 
REMARK   16  A    between atoms: O_53  and  C_29 
ROOT
HETATM    1  C   UNK N   1      26.582  19.304   5.763  0.00  0.00     0.041 C 
HETATM    2  C   UNK N   1      25.406  12.273   5.247  0.00  0.00     0.153 C 
HETATM    3  C   UNK N   1      23.106  19.212   2.913  0.00  0.00     0.119 C 
HETATM    4  C   UNK N   1      20.750  15.691   3.217  0.00  0.00     0.119 C 
HETATM    5  C   UNK N   1      25.314  18.977   4.998  0.00  0.00     0.153 C 
HETATM    6  C   UNK N   1      25.730  15.178   5.221  0.00  0.00     0.175 C 
HETATM    7  C   UNK N   1      21.982  19.196   3.954  0.00  0.00     0.189 C 
HETATM    8  C   UNK N   1      20.294  15.186   4.592  0.00  0.00     0.189 C 
HETATM    9  C   UNK N   1      22.939  12.444   5.067  0.00  0.00     0.165 C 
HETATM   10  C   UNK N   1      24.228  20.182   3.108  0.00  0.00     0.114 C 
HETATM   11  C   UNK N   1      21.048  17.142   3.082  0.00  0.00     0.114 C 
HETATM   12  C   UNK N   1      25.418  17.532   4.533  0.00  0.00     0.135 C 
HETATM   13  C   UNK N   1      21.862  13.320   4.445  0.00  0.00     0.136 C 
HETATM   14  C   UNK N   1      24.397  14.484   5.464  0.00  0.00     0.243 C 
HETATM   15  N   UNK N   1      25.173  20.010   3.976  0.00  0.00    -0.363 N 
ATOM     16  HN  UNK N   1      25.928  20.696   3.943  1.00  0.00     0.162 HD
HETATM   17  N   UNK N   1      21.549  17.814   4.069  0.00  0.00    -0.360 N 
ATOM     18  HN  UNK N   1      21.644  17.349   4.972  1.00  0.00     0.162 HD
HETATM   19  N   UNK N   1      25.589  16.615   5.438  0.00  0.00    -0.359 N 
ATOM     20  HN  UNK N   1      25.628  16.935   6.406  1.00  0.00     0.162 HD
HETATM   21  N   UNK N   1      21.250  14.230   5.135  0.00  0.00    -0.358 N 
ATOM     22  HN  UNK N   1      21.453  14.282   6.133  1.00  0.00     0.162 HD
HETATM   23  N   UNK N   1      24.229  13.115   5.338  0.00  0.00    -0.342 N 
HETATM   24  O   UNK N   1      23.437  15.203   5.701  0.00  0.00    -0.271 OA
ENDROOT
BRANCH   6  25
HETATM   25  C   UNK N   1      26.895  14.627   6.057  0.00  0.00     0.036 C 
BRANCH  25  26
HETATM   26  C   UNK N   1      28.258  14.600   5.364  0.00  0.00     0.022 C 
BRANCH  26  27
HETATM   27  C   UNK N   1      29.044  15.920   5.493  0.00  0.00     0.123 C 
BRANCH  27  28
HETATM   28  N   UNK N   1      28.842  16.585   6.768  0.00  0.00    -0.351 N 
HETATM   29  C   UNK N   1      29.837  17.359   7.430  0.00  0.00     0.250 C 
HETATM   30  N   UNK N   1      29.465  18.281   8.237  0.00  0.00    -0.425 NA
HETATM   31  N   UNK N   1      31.197  17.307   7.027  0.00  0.00    -0.283 N 
HETATM   32  H   UNK N   1      29.391  18.910   8.991  0.00  0.00     0.270 HD
HETATM   33  H   UNK N   1      31.743  18.122   7.110  0.00  0.00     0.173 HD
HETATM   34  H   UNK N   1      27.962  16.494   7.201  0.00  0.00     0.163 HD
BRANCH  31  35
HETATM   35  C   UNK N   1      31.805  16.133   6.507  0.00  0.00     0.220 C 
HETATM   36  N   UNK N   1      32.499  16.184   5.426  0.00  0.00    -0.361 N 
HETATM   37  C   UNK N   1      32.652  17.411   4.687  0.00  0.00     0.150 C 
ATOM     38  HN  UNK N   1      32.951  15.336   5.083  1.00  0.00     0.162 HD
BRANCH  35  39
HETATM   39  O   UNK N   1      31.643  14.952   7.138  0.00  0.00    -0.332 OA
HETATM   40  H   UNK N   1      31.052  14.752   7.838  0.00  0.00     0.220 HD
ENDBRANCH  35  39
ENDBRANCH  31  35
ENDBRANCH  27  28
ENDBRANCH  26  27
ENDBRANCH  25  26
ENDBRANCH   6  25
BRANCH  12  41
HETATM   41  O   UNK N   1      25.321  17.206   3.227  0.00  0.00    -0.348 OA
HETATM   42  H   UNK N   1      25.629  16.872   2.407  0.00  0.00     0.219 HD
ENDBRANCH  12  41
BRANCH   9  43
HETATM   43  C   UNK N   1      22.425  11.539   6.205  0.00  0.00     0.072 C 
BRANCH  43  44
HETATM   44  C   UNK N   1      22.741  12.067   7.601  0.00  0.00    -0.056 A 
HETATM   45  C   UNK N   1      23.801  11.509   8.327  0.00  0.00     0.007 A 
HETATM   46  C   UNK N   1      24.090  11.966   9.621  0.00  0.00     0.001 A 
HETATM   47  C   UNK N   1      23.327  12.987  10.196  0.00  0.00     0.000 A 
HETATM   48  C   UNK N   1      22.271  13.551   9.482  0.00  0.00     0.001 A 
HETATM   49  C   UNK N   1      21.979  13.090   8.199  0.00  0.00     0.007 A 
ENDBRANCH  43  44
ENDBRANCH   9  43
BRANCH  13  50
HETATM   50  O   UNK N   1      21.581  13.141   3.135  0.00  0.00    -0.348 OA
HETATM   51  H   UNK N   1      21.345  13.529   2.316  0.00  0.00     0.219 HD
ENDBRANCH  13  50
BRANCH  10  52
HETATM   52  O   UNK N   1      24.291  21.245   2.285  0.00  0.00    -0.349 OA
HETATM   53  H   UNK N   1      24.254  21.205   1.350  0.00  0.00     0.219 HD
ENDBRANCH  10  52
BRANCH   8  54
HETATM   54  C   UNK N   1      18.924  14.598   4.460  0.00  0.00     0.163 C 
HETATM   55  O   UNK N   1      18.668  13.811   3.562  0.00  0.00    -0.648 OA
BRANCH  54  56
HETATM   56  O   UNK N   1      17.953  14.971   5.316  0.00  0.00    -0.775 OA
HETATM   57  H   UNK N   1      17.081  15.299   5.411  0.00  0.00     0.167 HD
ENDBRANCH  54  56
ENDBRANCH   8  54
BRANCH   7  58
HETATM   58  C   UNK N   1      20.840  20.130   3.593  0.00  0.00     0.163 C 
HETATM   59  O   UNK N   1      19.677  19.793   3.767  0.00  0.00    -0.648 OA
BRANCH  58  60
HETATM   60  O   UNK N   1      21.101  21.356   3.102  0.00  0.00    -0.775 OA
HETATM   61  H   UNK N   1      21.514  22.001   3.643  0.00  0.00     0.167 HD
ENDBRANCH  58  60
ENDBRANCH   7  58
BRANCH  11  62
HETATM   62  O   UNK N   1      20.858  17.716   1.875  0.00  0.00    -0.349 OA
HETATM   63  H   UNK N   1      20.912  18.585   1.530  0.00  0.00     0.219 HD
ENDBRANCH  11  62
TORSDOF 16
ENDMDL
MODEL 7
REMARK VINA RESULT:      -7.2      3.217      7.736
REMARK  16 active torsions:
REMARK  status: ('A' for Active; 'I' for Inactive)
REMARK    1  A    between atoms: C_10  and  C_7 
REMARK    2  A    between atoms: C_11  and  C_7 
REMARK    3  A    between atoms: C_17  and  C_10 
REMARK    4  A    between atoms: N_33  and  C_11 
REMARK    5  A    between atoms: C_16  and  C_12 
REMARK    6  A    between atoms: C_20  and  C_12 
REMARK    7  A    between atoms: C_18  and  C_26 
REMARK    8  A    between atoms: C_19  and  C_27 
REMARK    9  A    between atoms: C_21  and  O_44 
REMARK   10  A    between atoms: C_22  and  O_45 
REMARK   11  A    between atoms: C_23  and  O_46 
REMARK   12  A    between atoms: C_24  and  O_47 
REMARK   13  A    between atoms: O_50  and  C_26 
REMARK   14  A    between atoms: O_52  and  C_27 
REMARK       I    between atoms: N_30  and  C_28 
REMARK       I    between atoms: N_33  and  C_28 
REMARK       I    between atoms: N_42  and  C_28 
REMARK   15  A    between atoms: N_42  and  C_29 
REMARK   16  A    between atoms: O_53  and  C_29 
ROOT
HETATM    1  C   UNK N   1      29.056  11.360   4.562  0.00  0.00     0.041 C 
HETATM    2  C   UNK N   1      23.528  15.446   2.603  0.00  0.00     0.153 C 
HETATM    3  C   UNK N   1      31.031  15.384   4.211  0.00  0.00     0.119 C 
HETATM    4  C   UNK N   1      28.340  18.643   4.632  0.00  0.00     0.119 C 
HETATM    5  C   UNK N   1      29.394  12.840   4.556  0.00  0.00     0.153 C 
HETATM    6  C   UNK N   1      25.959  13.987   3.315  0.00  0.00     0.175 C 
HETATM    7  C   UNK N   1      30.737  15.886   5.629  0.00  0.00     0.189 C 
HETATM    8  C   UNK N   1      27.337  18.668   5.792  0.00  0.00     0.189 C 
HETATM    9  C   UNK N   1      24.246  17.459   3.862  0.00  0.00     0.165 C 
HETATM   10  C   UNK N   1      31.546  13.989   4.055  0.00  0.00     0.114 C 
HETATM   11  C   UNK N   1      29.586  17.853   4.818  0.00  0.00     0.114 C 
HETATM   12  C   UNK N   1      28.362  13.543   3.685  0.00  0.00     0.135 C 
HETATM   13  C   UNK N   1      25.505  18.225   4.239  0.00  0.00     0.136 C 
HETATM   14  C   UNK N   1      25.511  15.264   4.013  0.00  0.00     0.243 C 
HETATM   15  N   UNK N   1      30.796  12.939   4.162  0.00  0.00    -0.363 N 
ATOM     16  HN  UNK N   1      31.250  12.052   3.938  1.00  0.00     0.162 HD
HETATM   17  N   UNK N   1      29.587  16.766   5.522  0.00  0.00    -0.360 N 
ATOM     18  HN  UNK N   1      28.737  16.516   6.028  1.00  0.00     0.162 HD
HETATM   19  N   UNK N   1      27.110  13.418   4.010  0.00  0.00    -0.359 N 
ATOM     20  HN  UNK N   1      26.910  12.861   4.842  1.00  0.00     0.162 HD
HETATM   21  N   UNK N   1      26.071  18.066   5.394  0.00  0.00    -0.358 N 
ATOM     22  HN  UNK N   1      25.595  17.476   6.075  1.00  0.00     0.162 HD
HETATM   23  N   UNK N   1      24.435  16.020   3.578  0.00  0.00    -0.342 N 
HETATM   24  O   UNK N   1      26.200  15.652   4.946  0.00  0.00    -0.271 OA
ENDROOT
BRANCH   6  25
HETATM   25  C   UNK N   1      24.857  12.928   3.158  0.00  0.00     0.036 C 
BRANCH  25  26
HETATM   26  C   UNK N   1      24.829  11.833   4.225  0.00  0.00     0.022 C 
BRANCH  26  27
HETATM   27  C   UNK N   1      23.797  12.085   5.342  0.00  0.00     0.123 C 
BRANCH  27  28
HETATM   28  N   UNK N   1      23.993  11.238   6.505  0.00  0.00    -0.351 N 
HETATM   29  C   UNK N   1      23.803  11.671   7.848  0.00  0.00     0.250 C 
HETATM   30  N   UNK N   1      23.509  10.801   8.740  0.00  0.00    -0.425 NA
HETATM   31  N   UNK N   1      23.677  13.048   8.165  0.00  0.00    -0.283 N 
HETATM   32  H   UNK N   1      23.437  10.284   9.576  0.00  0.00     0.270 HD
HETATM   33  H   UNK N   1      23.093  13.307   8.915  0.00  0.00     0.173 HD
HETATM   34  H   UNK N   1      24.276  10.307   6.355  0.00  0.00     0.163 HD
BRANCH  31  35
HETATM   35  C   UNK N   1      24.355  14.072   7.449  0.00  0.00     0.220 C 
HETATM   36  N   UNK N   1      23.701  15.060   6.952  0.00  0.00    -0.361 N 
HETATM   37  C   UNK N   1      22.266  15.147   7.065  0.00  0.00     0.150 C 
ATOM     38  HN  UNK N   1      24.208  15.799   6.464  1.00  0.00     0.162 HD
BRANCH  35  39
HETATM   39  O   UNK N   1      25.691  14.002   7.273  0.00  0.00    -0.332 OA
HETATM   40  H   UNK N   1      26.228  13.234   7.259  0.00  0.00     0.220 HD
ENDBRANCH  35  39
ENDBRANCH  31  35
ENDBRANCH  27  28
ENDBRANCH  26  27
ENDBRANCH  25  26
ENDBRANCH   6  25
BRANCH  12  41
HETATM   41  O   UNK N   1      28.732  14.285   2.621  0.00  0.00    -0.348 OA
HETATM   42  H   UNK N   1      28.663  14.994   2.012  0.00  0.00     0.219 HD
ENDBRANCH  12  41
BRANCH   9  43
HETATM   43  C   UNK N   1      23.026  17.794   4.744  0.00  0.00     0.072 C 
BRANCH  43  44
HETATM   44  C   UNK N   1      21.848  18.375   3.967  0.00  0.00    -0.056 A 
HETATM   45  C   UNK N   1      20.693  17.605   3.786  0.00  0.00     0.007 A 
HETATM   46  C   UNK N   1      19.610  18.115   3.053  0.00  0.00     0.001 A 
HETATM   47  C   UNK N   1      19.673  19.398   2.502  0.00  0.00     0.000 A 
HETATM   48  C   UNK N   1      20.817  20.175   2.677  0.00  0.00     0.001 A 
HETATM   49  C   UNK N   1      21.896  19.663   3.398  0.00  0.00     0.007 A 
ENDBRANCH  43  44
ENDBRANCH   9  43
BRANCH  13  50
HETATM   50  O   UNK N   1      26.037  19.058   3.317  0.00  0.00    -0.348 OA
HETATM   51  H   UNK N   1      26.809  19.390   2.903  0.00  0.00     0.219 HD
ENDBRANCH  13  50
BRANCH  10  52
HETATM   52  O   UNK N   1      32.838  13.828   3.713  0.00  0.00    -0.349 OA
HETATM   53  H   UNK N   1      33.566  13.942   4.291  0.00  0.00     0.219 HD
ENDBRANCH  10  52
BRANCH   8  54
HETATM   54  C   UNK N   1      27.167  20.083   6.252  0.00  0.00     0.163 C 
HETATM   55  O   UNK N   1      27.050  20.341   7.439  0.00  0.00    -0.648 OA
BRANCH  54  56
HETATM   56  O   UNK N   1      27.101  21.076   5.344  0.00  0.00    -0.775 OA
HETATM   57  H   UNK N   1      26.851  21.323   4.476  0.00  0.00     0.167 HD
ENDBRANCH  54  56
ENDBRANCH   8  54
BRANCH   7  58
HETATM   58  C   UNK N   1      31.934  16.576   6.263  0.00  0.00     0.163 C 
HETATM   59  O   UNK N   1      32.920  16.856   5.597  0.00  0.00    -0.648 OA
BRANCH  58  60
HETATM   60  O   UNK N   1      31.905  16.912   7.567  0.00  0.00    -0.775 OA
HETATM   61  H   UNK N   1      31.799  17.809   7.818  0.00  0.00     0.167 HD
ENDBRANCH  58  60
ENDBRANCH   7  58
BRANCH  11  62
HETATM   62  O   UNK N   1      30.694  18.257   4.162  0.00  0.00    -0.349 OA
HETATM   63  H   UNK N   1      31.597  18.006   4.153  0.00  0.00     0.219 HD
ENDBRANCH  11  62
TORSDOF 16
ENDMDL
MODEL 8
REMARK VINA RESULT:      -7.1      2.446      7.254
REMARK  16 active torsions:
REMARK  status: ('A' for Active; 'I' for Inactive)
REMARK    1  A    between atoms: C_10  and  C_7 
REMARK    2  A    between atoms: C_11  and  C_7 
REMARK    3  A    between atoms: C_17  and  C_10 
REMARK    4  A    between atoms: N_33  and  C_11 
REMARK    5  A    between atoms: C_16  and  C_12 
REMARK    6  A    between atoms: C_20  and  C_12 
REMARK    7  A    between atoms: C_18  and  C_26 
REMARK    8  A    between atoms: C_19  and  C_27 
REMARK    9  A    between atoms: C_21  and  O_44 
REMARK   10  A    between atoms: C_22  and  O_45 
REMARK   11  A    between atoms: C_23  and  O_46 
REMARK   12  A    between atoms: C_24  and  O_47 
REMARK   13  A    between atoms: O_50  and  C_26 
REMARK   14  A    between atoms: O_52  and  C_27 
REMARK       I    between atoms: N_30  and  C_28 
REMARK       I    between atoms: N_33  and  C_28 
REMARK       I    between atoms: N_42  and  C_28 
REMARK   15  A    between atoms: N_42  and  C_29 
REMARK   16  A    between atoms: O_53  and  C_29 
ROOT
HETATM    1  C   UNK N   1      26.351  19.553   5.878  0.00  0.00     0.041 C 
HETATM    2  C   UNK N   1      25.562  12.472   5.302  0.00  0.00     0.153 C 
HETATM    3  C   UNK N   1      23.008  19.292   2.884  0.00  0.00     0.119 C 
HETATM    4  C   UNK N   1      20.825  15.654   3.083  0.00  0.00     0.119 C 
HETATM    5  C   UNK N   1      25.135  19.163   5.060  0.00  0.00     0.153 C 
HETATM    6  C   UNK N   1      25.737  15.390   5.295  0.00  0.00     0.175 C 
HETATM    7  C   UNK N   1      21.843  19.214   3.877  0.00  0.00     0.189 C 
HETATM    8  C   UNK N   1      20.339  15.121   4.436  0.00  0.00     0.189 C 
HETATM    9  C   UNK N   1      23.099  12.517   5.018  0.00  0.00     0.165 C 
HETATM   10  C   UNK N   1      24.068  20.319   3.128  0.00  0.00     0.114 C 
HETATM   11  C   UNK N   1      21.053  17.119   2.962  0.00  0.00     0.114 C 
HETATM   12  C   UNK N   1      25.333  17.727   4.597  0.00  0.00     0.135 C 
HETATM   13  C   UNK N   1      22.005  13.339   4.353  0.00  0.00     0.136 C 
HETATM   14  C   UNK N   1      24.432  14.627   5.480  0.00  0.00     0.243 C 
HETATM   15  N   UNK N   1      24.984  20.192   4.035  0.00  0.00    -0.363 N 
ATOM     16  HN  UNK N   1      25.703  20.916   4.034  1.00  0.00     0.162 HD
HETATM   17  N   UNK N   1      21.478  17.812   3.971  0.00  0.00    -0.360 N 
ATOM     18  HN  UNK N   1      21.558  17.350   4.876  1.00  0.00     0.162 HD
HETATM   19  N   UNK N   1      25.513  16.818   5.507  0.00  0.00    -0.359 N 
ATOM     20  HN  UNK N   1      25.494  17.135   6.477  1.00  0.00     0.162 HD
HETATM   21  N   UNK N   1      21.319  14.214   5.017  0.00  0.00    -0.358 N 
ATOM     22  HN  UNK N   1      21.477  14.272   6.023  1.00  0.00     0.162 HD
HETATM   23  N   UNK N   1      24.340  13.252   5.344  0.00  0.00    -0.342 N 
HETATM   24  O   UNK N   1      23.427  15.295   5.677  0.00  0.00    -0.271 OA
ENDROOT
BRANCH   6  25
HETATM   25  C   UNK N   1      26.892  14.897   6.178  0.00  0.00     0.036 C 
BRANCH  25  26
HETATM   26  C   UNK N   1      27.738  15.987   6.838  0.00  0.00     0.022 C 
BRANCH  26  27
HETATM   27  C   UNK N   1      29.024  16.328   6.059  0.00  0.00     0.123 C 
BRANCH  27  28
HETATM   28  N   UNK N   1      29.765  15.155   5.633  0.00  0.00    -0.351 N 
HETATM   29  C   UNK N   1      30.369  15.014   4.351  0.00  0.00     0.250 C 
HETATM   30  N   UNK N   1      31.375  14.232   4.226  0.00  0.00    -0.425 NA
HETATM   31  N   UNK N   1      30.052  15.900   3.289  0.00  0.00    -0.283 N 
HETATM   32  H   UNK N   1      32.036  13.581   3.897  0.00  0.00     0.270 HD
HETATM   33  H   UNK N   1      30.755  16.122   2.637  0.00  0.00     0.173 HD
HETATM   34  H   UNK N   1      29.856  14.410   6.271  0.00  0.00     0.163 HD
BRANCH  31  35
HETATM   35  C   UNK N   1      28.766  16.482   3.125  0.00  0.00     0.220 C 
HETATM   36  N   UNK N   1      27.800  15.794   2.630  0.00  0.00    -0.361 N 
HETATM   37  C   UNK N   1      27.991  14.434   2.191  0.00  0.00     0.150 C 
ATOM     38  HN  UNK N   1      26.876  16.219   2.545  1.00  0.00     0.162 HD
BRANCH  35  39
HETATM   39  O   UNK N   1      28.556  17.768   3.473  0.00  0.00    -0.332 OA
HETATM   40  H   UNK N   1      27.961  18.098   4.117  0.00  0.00     0.220 HD
ENDBRANCH  35  39
ENDBRANCH  31  35
ENDBRANCH  27  28
ENDBRANCH  26  27
ENDBRANCH  25  26
ENDBRANCH   6  25
BRANCH  12  41
HETATM   41  O   UNK N   1      25.308  17.402   3.288  0.00  0.00    -0.348 OA
HETATM   42  H   UNK N   1      25.086  16.875   2.545  0.00  0.00     0.219 HD
ENDBRANCH  12  41
BRANCH   9  43
HETATM   43  C   UNK N   1      22.585  11.582   6.132  0.00  0.00     0.072 C 
BRANCH  43  44
HETATM   44  C   UNK N   1      22.629  12.204   7.525  0.00  0.00    -0.056 A 
HETATM   45  C   UNK N   1      23.727  11.957   8.357  0.00  0.00     0.007 A 
HETATM   46  C   UNK N   1      23.772  12.501   9.649  0.00  0.00     0.001 A 
HETATM   47  C   UNK N   1      22.724  13.298  10.116  0.00  0.00     0.000 A 
HETATM   48  C   UNK N   1      21.625  13.553   9.296  0.00  0.00     0.001 A 
HETATM   49  C   UNK N   1      21.578  13.004   8.014  0.00  0.00     0.007 A 
ENDBRANCH  43  44
ENDBRANCH   9  43
BRANCH  13  50
HETATM   50  O   UNK N   1      21.789  13.150   3.032  0.00  0.00    -0.348 OA
HETATM   51  H   UNK N   1      21.277  13.359   2.276  0.00  0.00     0.219 HD
ENDBRANCH  13  50
BRANCH  10  52
HETATM   52  O   UNK N   1      24.112  21.386   2.310  0.00  0.00    -0.349 OA
HETATM   53  H   UNK N   1      23.717  21.431   1.461  0.00  0.00     0.219 HD
ENDBRANCH  10  52
BRANCH   8  54
HETATM   54  C   UNK N   1      19.007  14.464   4.246  0.00  0.00     0.163 C 
HETATM   55  O   UNK N   1      18.778  13.800   3.247  0.00  0.00    -0.648 OA
BRANCH  54  56
HETATM   56  O   UNK N   1      18.039  14.639   5.166  0.00  0.00    -0.775 OA
HETATM   57  H   UNK N   1      17.822  14.648   6.077  0.00  0.00     0.167 HD
ENDBRANCH  54  56
ENDBRANCH   8  54
BRANCH   7  58
HETATM   58  C   UNK N   1      20.670  20.090   3.469  0.00  0.00     0.163 C 
HETATM   59  O   UNK N   1      19.527  19.656   3.493  0.00  0.00    -0.648 OA
BRANCH  58  60
HETATM   60  O   UNK N   1      20.879  21.369   3.103  0.00  0.00    -0.775 OA
HETATM   61  H   UNK N   1      20.780  21.623   2.206  0.00  0.00     0.167 HD
ENDBRANCH  58  60
ENDBRANCH   7  58
BRANCH  11  62
HETATM   62  O   UNK N   1      20.885  17.687   1.750  0.00  0.00    -0.349 OA
HETATM   63  H   UNK N   1      20.918  17.392   0.861  0.00  0.00     0.219 HD
ENDBRANCH  11  62
TORSDOF 16
ENDMDL
MODEL 9
REMARK VINA RESULT:      -7.1      5.033      8.870
REMARK  16 active torsions:
REMARK  status: ('A' for Active; 'I' for Inactive)
REMARK    1  A    between atoms: C_10  and  C_7 
REMARK    2  A    between atoms: C_11  and  C_7 
REMARK    3  A    between atoms: C_17  and  C_10 
REMARK    4  A    between atoms: N_33  and  C_11 
REMARK    5  A    between atoms: C_16  and  C_12 
REMARK    6  A    between atoms: C_20  and  C_12 
REMARK    7  A    between atoms: C_18  and  C_26 
REMARK    8  A    between atoms: C_19  and  C_27 
REMARK    9  A    between atoms: C_21  and  O_44 
REMARK   10  A    between atoms: C_22  and  O_45 
REMARK   11  A    between atoms: C_23  and  O_46 
REMARK   12  A    between atoms: C_24  and  O_47 
REMARK   13  A    between atoms: O_50  and  C_26 
REMARK   14  A    between atoms: O_52  and  C_27 
REMARK       I    between atoms: N_30  and  C_28 
REMARK       I    between atoms: N_33  and  C_28 
REMARK       I    between atoms: N_42  and  C_28 
REMARK   15  A    between atoms: N_42  and  C_29 
REMARK   16  A    between atoms: O_53  and  C_29 
ROOT
HETATM    1  C   UNK N   1      27.337  20.012   6.501  0.00  0.00     0.041 C 
HETATM    2  C   UNK N   1      26.511  14.177   2.456  0.00  0.00     0.153 C 
HETATM    3  C   UNK N   1      30.339  17.231   8.364  0.00  0.00     0.119 C 
HETATM    4  C   UNK N   1      31.677  14.169   5.743  0.00  0.00     0.119 C 
HETATM    5  C   UNK N   1      28.382  18.949   6.785  0.00  0.00     0.153 C 
HETATM    6  C   UNK N   1      26.982  16.396   4.300  0.00  0.00     0.175 C 
HETATM    7  C   UNK N   1      31.520  17.550   7.441  0.00  0.00     0.189 C 
HETATM    8  C   UNK N   1      32.121  14.516   4.316  0.00  0.00     0.189 C 
HETATM    9  C   UNK N   1      28.900  13.513   2.484  0.00  0.00     0.165 C 
HETATM   10  C   UNK N   1      29.548  18.377   8.910  0.00  0.00     0.114 C 
HETATM   11  C   UNK N   1      31.769  15.239   6.771  0.00  0.00     0.114 C 
HETATM   12  C   UNK N   1      27.843  17.625   6.264  0.00  0.00     0.135 C 
HETATM   13  C   UNK N   1      30.102  13.480   3.416  0.00  0.00     0.136 C 
HETATM   14  C   UNK N   1      28.097  15.665   3.563  0.00  0.00     0.243 C 
HETATM   15  N   UNK N   1      28.689  19.045   8.209  0.00  0.00    -0.363 N 
ATOM     16  HN  UNK N   1      28.148  19.739   8.726  1.00  0.00     0.162 HD
HETATM   17  N   UNK N   1      31.574  16.481   6.459  0.00  0.00    -0.360 N 
ATOM     18  HN  UNK N   1      31.453  16.719   5.475  1.00  0.00     0.162 HD
HETATM   19  N   UNK N   1      27.528  17.552   5.006  0.00  0.00    -0.359 N 
ATOM     20  HN  UNK N   1      27.679  18.395   4.450  1.00  0.00     0.162 HD
HETATM   21  N   UNK N   1      31.005  14.407   3.386  0.00  0.00    -0.358 N 
ATOM     22  HN  UNK N   1      30.930  15.115   2.656  1.00  0.00     0.162 HD
HETATM   23  N   UNK N   1      27.875  14.530   2.801  0.00  0.00    -0.342 N 
HETATM   24  O   UNK N   1      29.234  16.077   3.738  0.00  0.00    -0.271 OA
ENDROOT
BRANCH   6  25
HETATM   25  C   UNK N   1      25.806  16.825   3.409  0.00  0.00     0.036 C 
BRANCH  25  26
HETATM   26  C   UNK N   1      24.417  16.407   3.892  0.00  0.00     0.022 C 
BRANCH  26  27
HETATM   27  C   UNK N   1      24.265  16.425   5.427  0.00  0.00     0.123 C 
BRANCH  27  28
HETATM   28  N   UNK N   1      22.939  16.817   5.866  0.00  0.00    -0.351 N 
HETATM   29  C   UNK N   1      22.164  16.087   6.812  0.00  0.00     0.250 C 
HETATM   30  N   UNK N   1      21.282  16.712   7.500  0.00  0.00    -0.425 NA
HETATM   31  N   UNK N   1      22.518  14.765   7.188  0.00  0.00    -0.283 N 
HETATM   32  H   UNK N   1      20.472  16.967   7.997  0.00  0.00     0.270 HD
HETATM   33  H   UNK N   1      22.331  14.473   8.109  0.00  0.00     0.173 HD
HETATM   34  H   UNK N   1      22.551  17.639   5.487  0.00  0.00     0.163 HD
BRANCH  31  35
HETATM   35  C   UNK N   1      23.130  13.845   6.295  0.00  0.00     0.220 C 
HETATM   36  N   UNK N   1      24.194  13.213   6.641  0.00  0.00    -0.361 N 
HETATM   37  C   UNK N   1      24.822  13.438   7.919  0.00  0.00     0.150 C 
ATOM     38  HN  UNK N   1      24.604  12.536   5.997  1.00  0.00     0.162 HD
BRANCH  35  39
HETATM   39  O   UNK N   1      22.606  13.644   5.068  0.00  0.00    -0.332 OA
HETATM   40  H   UNK N   1      22.558  12.839   4.591  0.00  0.00     0.220 HD
ENDBRANCH  35  39
ENDBRANCH  31  35
ENDBRANCH  27  28
ENDBRANCH  26  27
ENDBRANCH  25  26
ENDBRANCH   6  25
BRANCH  12  41
HETATM   41  O   UNK N   1      27.712  16.554   7.075  0.00  0.00    -0.348 OA
HETATM   42  H   UNK N   1      28.008  15.796   7.540  0.00  0.00     0.219 HD
ENDBRANCH  12  41
BRANCH   9  43
HETATM   43  C   UNK N   1      29.268  13.402   0.991  0.00  0.00     0.072 C 
BRANCH  43  44
HETATM   44  C   UNK N   1      29.170  11.983   0.438  0.00  0.00    -0.056 A 
HETATM   45  C   UNK N   1      29.967  11.609  -0.651  0.00  0.00     0.007 A 
HETATM   46  C   UNK N   1      29.872  10.316  -1.186  0.00  0.00     0.001 A 
HETATM   47  C   UNK N   1      28.985   9.387  -0.635  0.00  0.00     0.000 A 
HETATM   48  C   UNK N   1      28.188   9.747   0.451  0.00  0.00     0.001 A 
HETATM   49  C   UNK N   1      28.278  11.035   0.977  0.00  0.00     0.007 A 
ENDBRANCH  43  44
ENDBRANCH   9  43
BRANCH  13  50
HETATM   50  O   UNK N   1      30.185  12.464   4.304  0.00  0.00    -0.348 OA
HETATM   51  H   UNK N   1      30.175  11.539   4.452  0.00  0.00     0.219 HD
ENDBRANCH  13  50
BRANCH  10  52
HETATM   52  O   UNK N   1      29.687  18.674  10.215  0.00  0.00    -0.349 OA
HETATM   53  H   UNK N   1      29.161  19.290  10.686  0.00  0.00     0.219 HD
ENDBRANCH  10  52
BRANCH   8  54
HETATM   54  C   UNK N   1      33.261  13.622   3.935  0.00  0.00     0.163 C 
HETATM   55  O   UNK N   1      33.317  12.475   4.348  0.00  0.00    -0.648 OA
BRANCH  54  56
HETATM   56  O   UNK N   1      34.253  14.101   3.160  0.00  0.00    -0.775 OA
HETATM   57  H   UNK N   1      34.725  14.015   2.356  0.00  0.00     0.167 HD
ENDBRANCH  54  56
ENDBRANCH   8  54
BRANCH   7  58
HETATM   58  C   UNK N   1      32.828  17.702   8.200  0.00  0.00     0.163 C 
HETATM   59  O   UNK N   1      33.768  18.313   7.711  0.00  0.00    -0.648 OA
BRANCH  58  60
HETATM   60  O   UNK N   1      32.953  17.188   9.438  0.00  0.00    -0.775 OA
HETATM   61  H   UNK N   1      33.445  17.647  10.090  0.00  0.00     0.167 HD
ENDBRANCH  58  60
ENDBRANCH   7  58
BRANCH  11  62
HETATM   62  O   UNK N   1      31.979  14.868   8.052  0.00  0.00    -0.349 OA
HETATM   63  H   UNK N   1      32.728  14.668   8.578  0.00  0.00     0.219 HD
ENDBRANCH  11  62
TORSDOF 16
ENDMDL
