REMARK  9 active torsions:
REMARK  status: ('A' for Active; 'I' for Inactive)
REMARK    1  A    between atoms: C_4  and  O_5 
REMARK    2  A    between atoms: O_5  and  C_6 
REMARK    3  A    between atoms: C_6  and  C_7 
REMARK    4  A    between atoms: C_7  and  O_8 
REMARK    5  A    between atoms: C_13  and  C_14 
REMARK    6  A    between atoms: C_14  and  C_15 
REMARK    7  A    between atoms: C_18  and  O_19 
REMARK    8  A    between atoms: C_20  and  C_21 
REMARK    9  A    between atoms: C_21  and  C_22 
ROOT
HETATM    1  C   UNK N   1      -4.393  -3.357  -0.150  0.00  0.00    -0.053 A 
HETATM    2  C   UNK N   1      -4.342  -4.135  -1.313  0.00  0.00     0.010 A 
HETATM    3  C   UNK N   1      -5.409  -4.968  -1.646  0.00  0.00     0.037 A 
HETATM    4  C   UNK N   1      -6.536  -5.034  -0.824  0.00  0.00     0.072 A 
HETATM    5  C   UNK N   1      -6.619  -4.224   0.328  0.00  0.00    -0.020 A 
HETATM    6  C   UNK N   1      -5.536  -3.397   0.663  0.00  0.00     0.017 A 
ENDROOT
BRANCH   1   7
HETATM    7  C   UNK N   1      -3.180  -2.591   0.302  0.00  0.00     0.078 C 
BRANCH   7   8
HETATM    8  C   UNK N   1      -1.935  -3.461   0.279  0.00  0.00    -0.042 A 
HETATM    9  C   UNK N   1      -1.889  -4.702   0.963  0.00  0.00    -0.052 A 
HETATM   10  C   UNK N   1      -0.758  -5.512   0.860  0.00  0.00     0.044 A 
HETATM   11  C   UNK N   1      -3.031  -5.199   1.783  0.00  0.00     0.049 C 
HETATM   12  C   UNK N   1       0.350  -5.109   0.105  0.00  0.00     0.070 A 
HETATM   13  C   UNK N   1       0.327  -3.867  -0.535  0.00  0.00     0.044 A 
HETATM   14  C   UNK N   1      -0.805  -3.046  -0.458  0.00  0.00    -0.052 A 
HETATM   15  C   UNK N   1      -0.788  -1.740  -1.180  0.00  0.00     0.049 C 
BRANCH  12  16
HETATM   16  O   UNK N   1       1.433  -5.910  -0.042  0.00  0.00    -0.341 OA
BRANCH  16  17
HETATM   17  C   UNK N   1       1.439  -7.229   0.376  0.00  0.00     0.285 C 
BRANCH  17  18
HETATM   18  C   UNK N   1       2.744  -7.895   0.058  0.00  0.00     0.164 C 
HETATM   19  O   UNK N   1       3.681  -7.262  -0.381  0.00  0.00    -0.648 OA
BRANCH  18  20
HETATM   20  O   UNK N   1       2.868  -9.224   0.265  0.00  0.00    -0.775 OA
HETATM   21  H   UNK N   1       2.113  -9.760   0.408  0.00  0.00     0.167 HD
ENDBRANCH  18  20
ENDBRANCH  17  18
ENDBRANCH  16  17
ENDBRANCH  12  16
ENDBRANCH   7   8
ENDBRANCH   1   7
BRANCH   5  22
HETATM   22  C   UNK N   1      -7.790  -4.308   1.273  0.00  0.00     0.080 C 
BRANCH  22  23
HETATM   23  C   UNK N   1      -9.140  -4.184   0.631  0.00  0.00    -0.054 A 
HETATM   24  C   UNK N   1      -9.909  -5.341   0.454  0.00  0.00     0.007 A 
HETATM   25  C   UNK N   1     -11.181  -5.266  -0.118  0.00  0.00     0.001 A 
HETATM   26  C   UNK N   1     -11.701  -4.026  -0.498  0.00  0.00     0.000 A 
HETATM   27  C   UNK N   1     -10.946  -2.863  -0.307  0.00  0.00     0.001 A 
HETATM   28  C   UNK N   1      -9.664  -2.940   0.255  0.00  0.00     0.007 A 
ENDBRANCH  22  23
ENDBRANCH   5  22
BRANCH   4  29
HETATM   29  O   UNK N   1      -7.524  -5.886  -1.143  0.00  0.00    -0.360 OA
HETATM   30  H   UNK N   1      -8.383  -5.586  -1.365  0.00  0.00     0.217 HD
ENDBRANCH   4  29
TORSDOF 9
