MODEL 1
REMARK VINA RESULT:      -4.3      0.000      0.000
REMARK  25 active torsions:
REMARK  status: ('A' for Active; 'I' for Inactive)
REMARK    1  A    between atoms: C_2  and  O_3 
REMARK    2  A    between atoms: O_3  and  C_4 
REMARK    3  A    between atoms: C_4  and  C_5 
REMARK    4  A    between atoms: C_5  and  O_6 
REMARK    5  A    between atoms: O_6  and  C_7 
REMARK    6  A    between atoms: C_7  and  C_8 
REMARK    7  A    between atoms: C_8  and  O_9 
REMARK    8  A    between atoms: O_9  and  C_10 
REMARK    9  A    between atoms: C_10  and  C_11 
REMARK   10  A    between atoms: C_11  and  O_12 
REMARK   11  A    between atoms: O_12  and  C_13 
REMARK   12  A    between atoms: C_13  and  C_14 
REMARK   13  A    between atoms: C_14  and  O_15 
REMARK   14  A    between atoms: O_15  and  C_16 
REMARK   15  A    between atoms: C_16  and  C_17 
REMARK   16  A    between atoms: C_17  and  O_18 
REMARK   17  A    between atoms: O_18  and  C_19 
REMARK   18  A    between atoms: C_19  and  C_20 
REMARK   19  A    between atoms: C_20  and  O_21 
REMARK   20  A    between atoms: O_21  and  C_22 
REMARK   21  A    between atoms: C_22  and  C_23 
REMARK   22  A    between atoms: C_23  and  O_24 
REMARK   23  A    between atoms: O_24  and  C_25 
REMARK   24  A    between atoms: C_25  and  C_26 
REMARK   25  A    between atoms: C_26  and  O_27 
ROOT
HETATM    1  C   UNK N   1      20.666  14.777   3.043  0.00  0.00     0.193 C 
ENDROOT
BRANCH   1   2
HETATM    2  C   UNK N   1      20.390  16.128   2.409  0.00  0.00     0.193 C 
BRANCH   2   3
HETATM    3  O   UNK N   1      20.439  16.023   1.016  0.00  0.00    -0.387 OA
BRANCH   3   4
HETATM    4  C   UNK N   1      19.937  17.236   0.541  0.00  0.00     0.193 C 
BRANCH   4   5
HETATM    5  C   UNK N   1      20.326  18.365   1.482  0.00  0.00     0.193 C 
BRANCH   5   6
HETATM    6  O   UNK N   1      20.966  19.378   0.765  0.00  0.00    -0.387 OA
BRANCH   6   7
HETATM    7  C   UNK N   1      20.677  20.551   1.466  0.00  0.00     0.193 C 
BRANCH   7   8
HETATM    8  C   UNK N   1      21.239  20.455   2.875  0.00  0.00     0.193 C 
BRANCH   8   9
HETATM    9  O   UNK N   1      22.600  20.777   2.872  0.00  0.00    -0.387 OA
BRANCH   9  10
HETATM   10  C   UNK N   1      23.234  19.693   3.486  0.00  0.00     0.193 C 
BRANCH  10  11
HETATM   11  C   UNK N   1      24.700  20.011   3.733  0.00  0.00     0.193 C 
BRANCH  11  12
HETATM   12  O   UNK N   1      25.110  19.402   4.918  0.00  0.00    -0.389 OA
BRANCH  12  13
HETATM   13  C   UNK N   1      26.494  19.579   4.961  0.00  0.00     0.163 C 
HETATM   14  C   UNK N   1      26.969  20.132   3.632  0.00  0.00     0.033 C 
ENDBRANCH  12  13
ENDBRANCH  11  12
ENDBRANCH  10  11
ENDBRANCH   9  10
ENDBRANCH   8   9
ENDBRANCH   7   8
ENDBRANCH   6   7
ENDBRANCH   5   6
ENDBRANCH   4   5
ENDBRANCH   3   4
ENDBRANCH   2   3
ENDBRANCH   1   2
BRANCH   1  15
HETATM   15  O   UNK N   1      19.872  14.608   4.182  0.00  0.00    -0.387 OA
BRANCH  15  16
HETATM   16  C   UNK N   1      19.662  15.899   4.670  0.00  0.00     0.193 C 
BRANCH  16  17
HETATM   17  C   UNK N   1      20.026  15.970   6.147  0.00  0.00     0.193 C 
BRANCH  17  18
HETATM   18  O   UNK N   1      18.863  16.009   6.918  0.00  0.00    -0.387 OA
BRANCH  18  19
HETATM   19  C   UNK N   1      19.233  16.642   8.107  0.00  0.00     0.193 C 
BRANCH  19  20
HETATM   20  C   UNK N   1      20.515  16.027   8.645  0.00  0.00     0.193 C 
BRANCH  20  21
HETATM   21  O   UNK N   1      20.235  14.773   9.194  0.00  0.00    -0.387 OA
BRANCH  21  22
HETATM   22  C   UNK N   1      21.476  14.184   9.446  0.00  0.00     0.193 C 
BRANCH  22  23
HETATM   23  C   UNK N   1      21.517  12.794   8.828  0.00  0.00     0.193 C 
BRANCH  23  24
HETATM   24  O   UNK N   1      22.113  11.899   9.717  0.00  0.00    -0.387 OA
BRANCH  24  25
HETATM   25  C   UNK N   1      22.832  12.694  10.611  0.00  0.00     0.193 C 
BRANCH  25  26
HETATM   26  C   UNK N   1      23.047  11.934  11.905  0.00  0.00     0.190 C 
BRANCH  26  27
HETATM   27  O   UNK N   1      24.258  12.316  12.481  0.00  0.00    -0.399 OA
HETATM   28  H   UNK N   1      24.764  11.695  13.029  0.00  0.00     0.209 HD
ENDBRANCH  26  27
ENDBRANCH  25  26
ENDBRANCH  24  25
ENDBRANCH  23  24
ENDBRANCH  22  23
ENDBRANCH  21  22
ENDBRANCH  20  21
ENDBRANCH  19  20
ENDBRANCH  18  19
ENDBRANCH  17  18
ENDBRANCH  16  17
ENDBRANCH  15  16
ENDBRANCH   1  15
TORSDOF 25
ENDMDL
MODEL 2
REMARK VINA RESULT:      -4.3      2.270      8.264
REMARK  25 active torsions:
REMARK  status: ('A' for Active; 'I' for Inactive)
REMARK    1  A    between atoms: C_2  and  O_3 
REMARK    2  A    between atoms: O_3  and  C_4 
REMARK    3  A    between atoms: C_4  and  C_5 
REMARK    4  A    between atoms: C_5  and  O_6 
REMARK    5  A    between atoms: O_6  and  C_7 
REMARK    6  A    between atoms: C_7  and  C_8 
REMARK    7  A    between atoms: C_8  and  O_9 
REMARK    8  A    between atoms: O_9  and  C_10 
REMARK    9  A    between atoms: C_10  and  C_11 
REMARK   10  A    between atoms: C_11  and  O_12 
REMARK   11  A    between atoms: O_12  and  C_13 
REMARK   12  A    between atoms: C_13  and  C_14 
REMARK   13  A    between atoms: C_14  and  O_15 
REMARK   14  A    between atoms: O_15  and  C_16 
REMARK   15  A    between atoms: C_16  and  C_17 
REMARK   16  A    between atoms: C_17  and  O_18 
REMARK   17  A    between atoms: O_18  and  C_19 
REMARK   18  A    between atoms: C_19  and  C_20 
REMARK   19  A    between atoms: C_20  and  O_21 
REMARK   20  A    between atoms: O_21  and  C_22 
REMARK   21  A    between atoms: C_22  and  C_23 
REMARK   22  A    between atoms: C_23  and  O_24 
REMARK   23  A    between atoms: O_24  and  C_25 
REMARK   24  A    between atoms: C_25  and  C_26 
REMARK   25  A    between atoms: C_26  and  O_27 
ROOT
HETATM    1  C   UNK N   1      20.411  15.143   8.842  0.00  0.00     0.193 C 
ENDROOT
BRANCH   1   2
HETATM    2  C   UNK N   1      20.977  14.093   9.779  0.00  0.00     0.193 C 
BRANCH   2   3
HETATM    3  O   UNK N   1      20.923  12.833   9.177  0.00  0.00    -0.387 OA
BRANCH   3   4
HETATM    4  C   UNK N   1      21.729  12.014   9.971  0.00  0.00     0.193 C 
BRANCH   4   5
HETATM    5  C   UNK N   1      22.825  12.840  10.626  0.00  0.00     0.193 C 
BRANCH   5   6
HETATM    6  O   UNK N   1      24.047  12.175  10.517  0.00  0.00    -0.387 OA
BRANCH   6   7
HETATM    7  C   UNK N   1      24.324  12.156   9.148  0.00  0.00     0.193 C 
BRANCH   7   8
HETATM    8  C   UNK N   1      25.059  13.428   8.758  0.00  0.00     0.193 C 
BRANCH   8   9
HETATM    9  O   UNK N   1      25.228  13.479   7.371  0.00  0.00    -0.387 OA
BRANCH   9  10
HETATM   10  C   UNK N   1      25.333  14.839   7.064  0.00  0.00     0.193 C 
BRANCH  10  11
HETATM   11  C   UNK N   1      24.083  15.314   6.342  0.00  0.00     0.193 C 
BRANCH  11  12
HETATM   12  O   UNK N   1      24.376  15.509   4.992  0.00  0.00    -0.389 OA
BRANCH  12  13
HETATM   13  C   UNK N   1      23.761  14.448   4.328  0.00  0.00     0.163 C 
HETATM   14  C   UNK N   1      24.160  14.472   2.866  0.00  0.00     0.033 C 
ENDBRANCH  12  13
ENDBRANCH  11  12
ENDBRANCH  10  11
ENDBRANCH   9  10
ENDBRANCH   8   9
ENDBRANCH   7   8
ENDBRANCH   6   7
ENDBRANCH   5   6
ENDBRANCH   4   5
ENDBRANCH   3   4
ENDBRANCH   2   3
ENDBRANCH   1   2
BRANCH   1  15
HETATM   15  O   UNK N   1      19.096  15.451   9.200  0.00  0.00    -0.387 OA
BRANCH  15  16
HETATM   16  C   UNK N   1      18.765  16.569   8.433  0.00  0.00     0.193 C 
BRANCH  16  17
HETATM   17  C   UNK N   1      19.315  16.422   7.021  0.00  0.00     0.193 C 
BRANCH  17  18
HETATM   18  O   UNK N   1      18.285  16.060   6.149  0.00  0.00    -0.387 OA
BRANCH  18  19
HETATM   19  C   UNK N   1      18.899  15.895   4.906  0.00  0.00     0.193 C 
BRANCH  19  20
HETATM   20  C   UNK N   1      20.410  15.964   5.060  0.00  0.00     0.193 C 
BRANCH  20  21
HETATM   21  O   UNK N   1      20.967  16.574   3.933  0.00  0.00    -0.387 OA
BRANCH  21  22
HETATM   22  C   UNK N   1      19.891  17.114   3.225  0.00  0.00     0.193 C 
BRANCH  22  23
HETATM   23  C   UNK N   1      20.381  18.253   2.342  0.00  0.00     0.193 C 
BRANCH  23  24
HETATM   24  O   UNK N   1      19.613  19.395   2.575  0.00  0.00    -0.387 OA
BRANCH  24  25
HETATM   25  C   UNK N   1      20.411  20.217   3.373  0.00  0.00     0.193 C 
BRANCH  25  26
HETATM   26  C   UNK N   1      21.765  20.399   2.716  0.00  0.00     0.190 C 
BRANCH  26  27
HETATM   27  O   UNK N   1      22.144  21.738   2.779  0.00  0.00    -0.399 OA
HETATM   28  H   UNK N   1      22.203  22.277   1.974  0.00  0.00     0.209 HD
ENDBRANCH  26  27
ENDBRANCH  25  26
ENDBRANCH  24  25
ENDBRANCH  23  24
ENDBRANCH  22  23
ENDBRANCH  21  22
ENDBRANCH  20  21
ENDBRANCH  19  20
ENDBRANCH  18  19
ENDBRANCH  17  18
ENDBRANCH  16  17
ENDBRANCH  15  16
ENDBRANCH   1  15
TORSDOF 25
ENDMDL
MODEL 3
REMARK VINA RESULT:      -4.3      2.549      5.003
REMARK  25 active torsions:
REMARK  status: ('A' for Active; 'I' for Inactive)
REMARK    1  A    between atoms: C_2  and  O_3 
REMARK    2  A    between atoms: O_3  and  C_4 
REMARK    3  A    between atoms: C_4  and  C_5 
REMARK    4  A    between atoms: C_5  and  O_6 
REMARK    5  A    between atoms: O_6  and  C_7 
REMARK    6  A    between atoms: C_7  and  C_8 
REMARK    7  A    between atoms: C_8  and  O_9 
REMARK    8  A    between atoms: O_9  and  C_10 
REMARK    9  A    between atoms: C_10  and  C_11 
REMARK   10  A    between atoms: C_11  and  O_12 
REMARK   11  A    between atoms: O_12  and  C_13 
REMARK   12  A    between atoms: C_13  and  C_14 
REMARK   13  A    between atoms: C_14  and  O_15 
REMARK   14  A    between atoms: O_15  and  C_16 
REMARK   15  A    between atoms: C_16  and  C_17 
REMARK   16  A    between atoms: C_17  and  O_18 
REMARK   17  A    between atoms: O_18  and  C_19 
REMARK   18  A    between atoms: C_19  and  C_20 
REMARK   19  A    between atoms: C_20  and  O_21 
REMARK   20  A    between atoms: O_21  and  C_22 
REMARK   21  A    between atoms: C_22  and  C_23 
REMARK   22  A    between atoms: C_23  and  O_24 
REMARK   23  A    between atoms: O_24  and  C_25 
REMARK   24  A    between atoms: C_25  and  C_26 
REMARK   25  A    between atoms: C_26  and  O_27 
ROOT
HETATM    1  C   UNK N   1      21.394  13.467   8.712  0.00  0.00     0.193 C 
ENDROOT
BRANCH   1   2
HETATM    2  C   UNK N   1      20.430  13.956   9.777  0.00  0.00     0.193 C 
BRANCH   2   3
HETATM    3  O   UNK N   1      19.593  14.943   9.250  0.00  0.00    -0.387 OA
BRANCH   3   4
HETATM    4  C   UNK N   1      20.452  15.947   8.798  0.00  0.00     0.193 C 
BRANCH   4   5
HETATM    5  C   UNK N   1      19.740  17.290   8.822  0.00  0.00     0.193 C 
BRANCH   5   6
HETATM    6  O   UNK N   1      20.458  18.218   8.066  0.00  0.00    -0.387 OA
BRANCH   6   7
HETATM    7  C   UNK N   1      20.478  17.689   6.773  0.00  0.00     0.193 C 
BRANCH   7   8
HETATM    8  C   UNK N   1      21.583  18.355   5.967  0.00  0.00     0.193 C 
BRANCH   8   9
HETATM    9  O   UNK N   1      21.049  19.369   5.167  0.00  0.00    -0.387 OA
BRANCH   9  10
HETATM   10  C   UNK N   1      21.660  19.213   3.920  0.00  0.00     0.193 C 
BRANCH  10  11
HETATM   11  C   UNK N   1      21.395  20.428   3.047  0.00  0.00     0.193 C 
BRANCH  11  12
HETATM   12  O   UNK N   1      22.610  21.016   2.694  0.00  0.00    -0.389 OA
BRANCH  12  13
HETATM   13  C   UNK N   1      23.586  20.091   3.068  0.00  0.00     0.163 C 
HETATM   14  C   UNK N   1      24.956  20.642   2.724  0.00  0.00     0.033 C 
ENDBRANCH  12  13
ENDBRANCH  11  12
ENDBRANCH  10  11
ENDBRANCH   9  10
ENDBRANCH   8   9
ENDBRANCH   7   8
ENDBRANCH   6   7
ENDBRANCH   5   6
ENDBRANCH   4   5
ENDBRANCH   3   4
ENDBRANCH   2   3
ENDBRANCH   1   2
BRANCH   1  15
HETATM   15  O   UNK N   1      20.812  12.431   7.974  0.00  0.00    -0.387 OA
BRANCH  15  16
HETATM   16  C   UNK N   1      21.518  12.405   6.770  0.00  0.00     0.193 C 
BRANCH  16  17
HETATM   17  C   UNK N   1      21.933  13.814   6.370  0.00  0.00     0.193 C 
BRANCH  17  18
HETATM   18  O   UNK N   1      22.406  13.811   5.056  0.00  0.00    -0.387 OA
BRANCH  18  19
HETATM   19  C   UNK N   1      23.108  15.010   4.917  0.00  0.00     0.193 C 
BRANCH  19  20
HETATM   20  C   UNK N   1      24.565  14.807   5.302  0.00  0.00     0.193 C 
BRANCH  20  21
HETATM   21  O   UNK N   1      24.909  15.705   6.315  0.00  0.00    -0.387 OA
BRANCH  21  22
HETATM   22  C   UNK N   1      25.891  15.064   7.074  0.00  0.00     0.193 C 
BRANCH  22  23
HETATM   23  C   UNK N   1      25.439  13.648   7.401  0.00  0.00     0.193 C 
BRANCH  23  24
HETATM   24  O   UNK N   1      24.603  13.666   8.519  0.00  0.00    -0.387 OA
BRANCH  24  25
HETATM   25  C   UNK N   1      24.672  12.376   9.049  0.00  0.00     0.193 C 
BRANCH  25  26
HETATM   26  C   UNK N   1      24.510  12.440  10.555  0.00  0.00     0.190 C 
BRANCH  26  27
HETATM   27  O   UNK N   1      25.638  13.025  11.127  0.00  0.00    -0.399 OA
HETATM   28  H   UNK N   1      25.999  13.855  10.778  0.00  0.00     0.209 HD
ENDBRANCH  26  27
ENDBRANCH  25  26
ENDBRANCH  24  25
ENDBRANCH  23  24
ENDBRANCH  22  23
ENDBRANCH  21  22
ENDBRANCH  20  21
ENDBRANCH  19  20
ENDBRANCH  18  19
ENDBRANCH  17  18
ENDBRANCH  16  17
ENDBRANCH  15  16
ENDBRANCH   1  15
TORSDOF 25
ENDMDL
MODEL 4
REMARK VINA RESULT:      -4.3     10.540     14.444
REMARK  25 active torsions:
REMARK  status: ('A' for Active; 'I' for Inactive)
REMARK    1  A    between atoms: C_2  and  O_3 
REMARK    2  A    between atoms: O_3  and  C_4 
REMARK    3  A    between atoms: C_4  and  C_5 
REMARK    4  A    between atoms: C_5  and  O_6 
REMARK    5  A    between atoms: O_6  and  C_7 
REMARK    6  A    between atoms: C_7  and  C_8 
REMARK    7  A    between atoms: C_8  and  O_9 
REMARK    8  A    between atoms: O_9  and  C_10 
REMARK    9  A    between atoms: C_10  and  C_11 
REMARK   10  A    between atoms: C_11  and  O_12 
REMARK   11  A    between atoms: O_12  and  C_13 
REMARK   12  A    between atoms: C_13  and  C_14 
REMARK   13  A    between atoms: C_14  and  O_15 
REMARK   14  A    between atoms: O_15  and  C_16 
REMARK   15  A    between atoms: C_16  and  C_17 
REMARK   16  A    between atoms: C_17  and  O_18 
REMARK   17  A    between atoms: O_18  and  C_19 
REMARK   18  A    between atoms: C_19  and  C_20 
REMARK   19  A    between atoms: C_20  and  O_21 
REMARK   20  A    between atoms: O_21  and  C_22 
REMARK   21  A    between atoms: C_22  and  C_23 
REMARK   22  A    between atoms: C_23  and  O_24 
REMARK   23  A    between atoms: O_24  and  C_25 
REMARK   24  A    between atoms: C_25  and  C_26 
REMARK   25  A    between atoms: C_26  and  O_27 
ROOT
HETATM    1  C   UNK N   1      34.594  15.277  10.739  0.00  0.00     0.193 C 
ENDROOT
BRANCH   1   2
HETATM    2  C   UNK N   1      35.787  16.212  10.820  0.00  0.00     0.193 C 
BRANCH   2   3
HETATM    3  O   UNK N   1      35.453  17.462  10.292  0.00  0.00    -0.387 OA
BRANCH   3   4
HETATM    4  C   UNK N   1      34.761  17.187   9.111  0.00  0.00     0.193 C 
BRANCH   4   5
HETATM    5  C   UNK N   1      34.596  18.461   8.296  0.00  0.00     0.193 C 
BRANCH   5   6
HETATM    6  O   UNK N   1      34.533  18.147   6.938  0.00  0.00    -0.387 OA
BRANCH   6   7
HETATM    7  C   UNK N   1      34.005  16.855   6.891  0.00  0.00     0.193 C 
BRANCH   7   8
HETATM    8  C   UNK N   1      33.247  16.660   5.588  0.00  0.00     0.193 C 
BRANCH   8   9
HETATM    9  O   UNK N   1      32.017  17.325   5.644  0.00  0.00    -0.387 OA
BRANCH   9  10
HETATM   10  C   UNK N   1      31.283  16.654   6.626  0.00  0.00     0.193 C 
BRANCH  10  11
HETATM   11  C   UNK N   1      29.808  16.635   6.259  0.00  0.00     0.193 C 
BRANCH  11  12
HETATM   12  O   UNK N   1      29.333  17.944   6.190  0.00  0.00    -0.389 OA
BRANCH  12  13
HETATM   13  C   UNK N   1      28.222  17.886   5.347  0.00  0.00     0.163 C 
HETATM   14  C   UNK N   1      28.046  19.225   4.658  0.00  0.00     0.033 C 
ENDBRANCH  12  13
ENDBRANCH  11  12
ENDBRANCH  10  11
ENDBRANCH   9  10
ENDBRANCH   8   9
ENDBRANCH   7   8
ENDBRANCH   6   7
ENDBRANCH   5   6
ENDBRANCH   4   5
ENDBRANCH   3   4
ENDBRANCH   2   3
ENDBRANCH   1   2
BRANCH   1  15
HETATM   15  O   UNK N   1      34.508  14.503  11.900  0.00  0.00    -0.387 OA
BRANCH  15  16
HETATM   16  C   UNK N   1      35.779  14.568  12.472  0.00  0.00     0.193 C 
BRANCH  16  17
HETATM   17  C   UNK N   1      35.774  13.910  13.846  0.00  0.00     0.193 C 
BRANCH  17  18
HETATM   18  O   UNK N   1      34.605  13.162  14.005  0.00  0.00    -0.387 OA
BRANCH  18  19
HETATM   19  C   UNK N   1      35.037  11.855  14.244  0.00  0.00     0.193 C 
BRANCH  19  20
HETATM   20  C   UNK N   1      34.224  10.879  13.409  0.00  0.00     0.193 C 
BRANCH  20  21
HETATM   21  O   UNK N   1      34.431  11.142  12.052  0.00  0.00    -0.387 OA
BRANCH  21  22
HETATM   22  C   UNK N   1      35.725  10.698  11.772  0.00  0.00     0.193 C 
BRANCH  22  23
HETATM   23  C   UNK N   1      35.968  10.745  10.270  0.00  0.00     0.193 C 
BRANCH  23  24
HETATM   24  O   UNK N   1      37.264  11.194  10.015  0.00  0.00    -0.387 OA
BRANCH  24  25
HETATM   25  C   UNK N   1      37.137  12.564   9.778  0.00  0.00     0.193 C 
BRANCH  25  26
HETATM   26  C   UNK N   1      38.427  13.265  10.157  0.00  0.00     0.190 C 
BRANCH  26  27
HETATM   27  O   UNK N   1      39.512  12.594   9.594  0.00  0.00    -0.399 OA
HETATM   28  H   UNK N   1      39.380  11.944   8.885  0.00  0.00     0.209 HD
ENDBRANCH  26  27
ENDBRANCH  25  26
ENDBRANCH  24  25
ENDBRANCH  23  24
ENDBRANCH  22  23
ENDBRANCH  21  22
ENDBRANCH  20  21
ENDBRANCH  19  20
ENDBRANCH  18  19
ENDBRANCH  17  18
ENDBRANCH  16  17
ENDBRANCH  15  16
ENDBRANCH   1  15
TORSDOF 25
ENDMDL
MODEL 5
REMARK VINA RESULT:      -4.2     10.240     14.231
REMARK  25 active torsions:
REMARK  status: ('A' for Active; 'I' for Inactive)
REMARK    1  A    between atoms: C_2  and  O_3 
REMARK    2  A    between atoms: O_3  and  C_4 
REMARK    3  A    between atoms: C_4  and  C_5 
REMARK    4  A    between atoms: C_5  and  O_6 
REMARK    5  A    between atoms: O_6  and  C_7 
REMARK    6  A    between atoms: C_7  and  C_8 
REMARK    7  A    between atoms: C_8  and  O_9 
REMARK    8  A    between atoms: O_9  and  C_10 
REMARK    9  A    between atoms: C_10  and  C_11 
REMARK   10  A    between atoms: C_11  and  O_12 
REMARK   11  A    between atoms: O_12  and  C_13 
REMARK   12  A    between atoms: C_13  and  C_14 
REMARK   13  A    between atoms: C_14  and  O_15 
REMARK   14  A    between atoms: O_15  and  C_16 
REMARK   15  A    between atoms: C_16  and  C_17 
REMARK   16  A    between atoms: C_17  and  O_18 
REMARK   17  A    between atoms: O_18  and  C_19 
REMARK   18  A    between atoms: C_19  and  C_20 
REMARK   19  A    between atoms: C_20  and  O_21 
REMARK   20  A    between atoms: O_21  and  C_22 
REMARK   21  A    between atoms: C_22  and  C_23 
REMARK   22  A    between atoms: C_23  and  O_24 
REMARK   23  A    between atoms: O_24  and  C_25 
REMARK   24  A    between atoms: C_25  and  C_26 
REMARK   25  A    between atoms: C_26  and  O_27 
ROOT
HETATM    1  C   UNK N   1      34.693  15.338  10.751  0.00  0.00     0.193 C 
ENDROOT
BRANCH   1   2
HETATM    2  C   UNK N   1      35.814  16.353  10.885  0.00  0.00     0.193 C 
BRANCH   2   3
HETATM    3  O   UNK N   1      35.470  17.537  10.227  0.00  0.00    -0.387 OA
BRANCH   3   4
HETATM    4  C   UNK N   1      34.650  17.142   9.169  0.00  0.00     0.193 C 
BRANCH   4   5
HETATM    5  C   UNK N   1      34.572  18.249   8.129  0.00  0.00     0.193 C 
BRANCH   5   6
HETATM    6  O   UNK N   1      34.485  17.692   6.852  0.00  0.00    -0.387 OA
BRANCH   6   7
HETATM    7  C   UNK N   1      33.118  17.659   6.567  0.00  0.00     0.193 C 
BRANCH   7   8
HETATM    8  C   UNK N   1      32.699  16.233   6.245  0.00  0.00     0.193 C 
BRANCH   8   9
HETATM    9  O   UNK N   1      31.504  15.924   6.902  0.00  0.00    -0.387 OA
BRANCH   9  10
HETATM   10  C   UNK N   1      30.556  16.805   6.373  0.00  0.00     0.193 C 
BRANCH  10  11
HETATM   11  C   UNK N   1      29.439  17.043   7.375  0.00  0.00     0.193 C 
BRANCH  11  12
HETATM   12  O   UNK N   1      29.593  18.307   7.946  0.00  0.00    -0.389 OA
BRANCH  12  13
HETATM   13  C   UNK N   1      28.675  18.349   8.995  0.00  0.00     0.163 C 
HETATM   14  C   UNK N   1      29.037  17.293  10.021  0.00  0.00     0.033 C 
ENDBRANCH  12  13
ENDBRANCH  11  12
ENDBRANCH  10  11
ENDBRANCH   9  10
ENDBRANCH   8   9
ENDBRANCH   7   8
ENDBRANCH   6   7
ENDBRANCH   5   6
ENDBRANCH   4   5
ENDBRANCH   3   4
ENDBRANCH   2   3
ENDBRANCH   1   2
BRANCH   1  15
HETATM   15  O   UNK N   1      34.905  14.267  11.625  0.00  0.00    -0.387 OA
BRANCH  15  16
HETATM   16  C   UNK N   1      36.291  14.177  11.757  0.00  0.00     0.193 C 
BRANCH  16  17
HETATM   17  C   UNK N   1      36.804  12.908  11.090  0.00  0.00     0.193 C 
BRANCH  17  18
HETATM   18  O   UNK N   1      36.551  11.808  11.914  0.00  0.00    -0.387 OA
BRANCH  18  19
HETATM   19  C   UNK N   1      35.896  10.883  11.098  0.00  0.00     0.193 C 
BRANCH  19  20
HETATM   20  C   UNK N   1      35.237   9.812  11.953  0.00  0.00     0.193 C 
BRANCH  20  21
HETATM   21  O   UNK N   1      34.150  10.364  12.636  0.00  0.00    -0.387 OA
BRANCH  21  22
HETATM   22  C   UNK N   1      34.377  10.100  13.988  0.00  0.00     0.193 C 
BRANCH  22  23
HETATM   23  C   UNK N   1      33.846  11.251  14.830  0.00  0.00     0.193 C 
BRANCH  23  24
HETATM   24  O   UNK N   1      34.294  12.465  14.308  0.00  0.00    -0.387 OA
BRANCH  24  25
HETATM   25  C   UNK N   1      35.217  12.945  15.238  0.00  0.00     0.193 C 
BRANCH  25  26
HETATM   26  C   UNK N   1      34.517  13.202  16.558  0.00  0.00     0.190 C 
BRANCH  26  27
HETATM   27  O   UNK N   1      35.422  13.731  17.477  0.00  0.00    -0.399 OA
HETATM   28  H   UNK N   1      35.207  14.531  17.983  0.00  0.00     0.209 HD
ENDBRANCH  26  27
ENDBRANCH  25  26
ENDBRANCH  24  25
ENDBRANCH  23  24
ENDBRANCH  22  23
ENDBRANCH  21  22
ENDBRANCH  20  21
ENDBRANCH  19  20
ENDBRANCH  18  19
ENDBRANCH  17  18
ENDBRANCH  16  17
ENDBRANCH  15  16
ENDBRANCH   1  15
TORSDOF 25
ENDMDL
MODEL 6
REMARK VINA RESULT:      -4.2      1.872      8.028
REMARK  25 active torsions:
REMARK  status: ('A' for Active; 'I' for Inactive)
REMARK    1  A    between atoms: C_2  and  O_3 
REMARK    2  A    between atoms: O_3  and  C_4 
REMARK    3  A    between atoms: C_4  and  C_5 
REMARK    4  A    between atoms: C_5  and  O_6 
REMARK    5  A    between atoms: O_6  and  C_7 
REMARK    6  A    between atoms: C_7  and  C_8 
REMARK    7  A    between atoms: C_8  and  O_9 
REMARK    8  A    between atoms: O_9  and  C_10 
REMARK    9  A    between atoms: C_10  and  C_11 
REMARK   10  A    between atoms: C_11  and  O_12 
REMARK   11  A    between atoms: O_12  and  C_13 
REMARK   12  A    between atoms: C_13  and  C_14 
REMARK   13  A    between atoms: C_14  and  O_15 
REMARK   14  A    between atoms: O_15  and  C_16 
REMARK   15  A    between atoms: C_16  and  C_17 
REMARK   16  A    between atoms: C_17  and  O_18 
REMARK   17  A    between atoms: O_18  and  C_19 
REMARK   18  A    between atoms: C_19  and  C_20 
REMARK   19  A    between atoms: C_20  and  O_21 
REMARK   20  A    between atoms: O_21  and  C_22 
REMARK   21  A    between atoms: C_22  and  C_23 
REMARK   22  A    between atoms: C_23  and  O_24 
REMARK   23  A    between atoms: O_24  and  C_25 
REMARK   24  A    between atoms: C_25  and  C_26 
REMARK   25  A    between atoms: C_26  and  O_27 
ROOT
HETATM    1  C   UNK N   1      21.235  17.145   3.083  0.00  0.00     0.193 C 
ENDROOT
BRANCH   1   2
HETATM    2  C   UNK N   1      20.004  16.268   3.205  0.00  0.00     0.193 C 
BRANCH   2   3
HETATM    3  O   UNK N   1      19.094  16.841   4.098  0.00  0.00    -0.387 OA
BRANCH   3   4
HETATM    4  C   UNK N   1      18.842  15.849   5.049  0.00  0.00     0.193 C 
BRANCH   4   5
HETATM    5  C   UNK N   1      19.229  14.487   4.495  0.00  0.00     0.193 C 
BRANCH   5   6
HETATM    6  O   UNK N   1      19.569  13.630   5.543  0.00  0.00    -0.387 OA
BRANCH   6   7
HETATM    7  C   UNK N   1      20.366  14.401   6.393  0.00  0.00     0.193 C 
BRANCH   7   8
HETATM    8  C   UNK N   1      21.600  13.608   6.794  0.00  0.00     0.193 C 
BRANCH   8   9
HETATM    9  O   UNK N   1      22.359  14.334   7.717  0.00  0.00    -0.387 OA
BRANCH   9  10
HETATM   10  C   UNK N   1      22.506  13.487   8.818  0.00  0.00     0.193 C 
BRANCH  10  11
HETATM   11  C   UNK N   1      21.417  13.758   9.842  0.00  0.00     0.193 C 
BRANCH  11  12
HETATM   12  O   UNK N   1      21.263  12.638  10.660  0.00  0.00    -0.389 OA
BRANCH  12  13
HETATM   13  C   UNK N   1      22.515  12.023  10.678  0.00  0.00     0.163 C 
HETATM   14  C   UNK N   1      23.003  11.921  12.110  0.00  0.00     0.033 C 
ENDBRANCH  12  13
ENDBRANCH  11  12
ENDBRANCH  10  11
ENDBRANCH   9  10
ENDBRANCH   8   9
ENDBRANCH   7   8
ENDBRANCH   6   7
ENDBRANCH   5   6
ENDBRANCH   4   5
ENDBRANCH   3   4
ENDBRANCH   2   3
ENDBRANCH   1   2
BRANCH   1  15
HETATM   15  O   UNK N   1      20.876  18.424   2.645  0.00  0.00    -0.387 OA
BRANCH  15  16
HETATM   16  C   UNK N   1      21.659  19.298   3.400  0.00  0.00     0.193 C 
BRANCH  16  17
HETATM   17  C   UNK N   1      21.735  20.659   2.721  0.00  0.00     0.193 C 
BRANCH  17  18
HETATM   18  O   UNK N   1      23.036  21.159   2.813  0.00  0.00    -0.387 OA
BRANCH  18  19
HETATM   19  C   UNK N   1      23.830  20.057   3.139  0.00  0.00     0.193 C 
BRANCH  19  20
HETATM   20  C   UNK N   1      25.299  20.402   2.955  0.00  0.00     0.193 C 
BRANCH  20  21
HETATM   21  O   UNK N   1      26.088  19.343   3.411  0.00  0.00    -0.387 OA
BRANCH  21  22
HETATM   22  C   UNK N   1      27.241  19.927   3.937  0.00  0.00     0.193 C 
BRANCH  22  23
HETATM   23  C   UNK N   1      26.867  20.853   5.085  0.00  0.00     0.193 C 
BRANCH  23  24
HETATM   24  O   UNK N   1      27.724  20.636   6.166  0.00  0.00    -0.387 OA
BRANCH  24  25
HETATM   25  C   UNK N   1      27.704  19.256   6.377  0.00  0.00     0.193 C 
BRANCH  25  26
HETATM   26  C   UNK N   1      28.312  18.943   7.730  0.00  0.00     0.190 C 
BRANCH  26  27
HETATM   27  O   UNK N   1      27.718  17.799   8.261  0.00  0.00    -0.399 OA
HETATM   28  H   UNK N   1      26.985  17.868   8.894  0.00  0.00     0.209 HD
ENDBRANCH  26  27
ENDBRANCH  25  26
ENDBRANCH  24  25
ENDBRANCH  23  24
ENDBRANCH  22  23
ENDBRANCH  21  22
ENDBRANCH  20  21
ENDBRANCH  19  20
ENDBRANCH  18  19
ENDBRANCH  17  18
ENDBRANCH  16  17
ENDBRANCH  15  16
ENDBRANCH   1  15
TORSDOF 25
ENDMDL
MODEL 7
REMARK VINA RESULT:      -4.0      3.021      7.796
REMARK  25 active torsions:
REMARK  status: ('A' for Active; 'I' for Inactive)
REMARK    1  A    between atoms: C_2  and  O_3 
REMARK    2  A    between atoms: O_3  and  C_4 
REMARK    3  A    between atoms: C_4  and  C_5 
REMARK    4  A    between atoms: C_5  and  O_6 
REMARK    5  A    between atoms: O_6  and  C_7 
REMARK    6  A    between atoms: C_7  and  C_8 
REMARK    7  A    between atoms: C_8  and  O_9 
REMARK    8  A    between atoms: O_9  and  C_10 
REMARK    9  A    between atoms: C_10  and  C_11 
REMARK   10  A    between atoms: C_11  and  O_12 
REMARK   11  A    between atoms: O_12  and  C_13 
REMARK   12  A    between atoms: C_13  and  C_14 
REMARK   13  A    between atoms: C_14  and  O_15 
REMARK   14  A    between atoms: O_15  and  C_16 
REMARK   15  A    between atoms: C_16  and  C_17 
REMARK   16  A    between atoms: C_17  and  O_18 
REMARK   17  A    between atoms: O_18  and  C_19 
REMARK   18  A    between atoms: C_19  and  C_20 
REMARK   19  A    between atoms: C_20  and  O_21 
REMARK   20  A    between atoms: O_21  and  C_22 
REMARK   21  A    between atoms: C_22  and  C_23 
REMARK   22  A    between atoms: C_23  and  O_24 
REMARK   23  A    between atoms: O_24  and  C_25 
REMARK   24  A    between atoms: C_25  and  C_26 
REMARK   25  A    between atoms: C_26  and  O_27 
ROOT
HETATM    1  C   UNK N   1      21.568  13.904   8.358  0.00  0.00     0.193 C 
ENDROOT
BRANCH   1   2
HETATM    2  C   UNK N   1      21.960  12.541   7.819  0.00  0.00     0.193 C 
BRANCH   2   3
HETATM    3  O   UNK N   1      20.845  11.902   7.271  0.00  0.00    -0.387 OA
BRANCH   3   4
HETATM    4  C   UNK N   1      21.175  11.673   5.934  0.00  0.00     0.193 C 
BRANCH   4   5
HETATM    5  C   UNK N   1      19.920  11.698   5.076  0.00  0.00     0.193 C 
BRANCH   5   6
HETATM    6  O   UNK N   1      19.224  12.888   5.292  0.00  0.00    -0.387 OA
BRANCH   6   7
HETATM    7  C   UNK N   1      18.440  13.058   4.149  0.00  0.00     0.193 C 
BRANCH   7   8
HETATM    8  C   UNK N   1      19.323  13.473   2.982  0.00  0.00     0.193 C 
BRANCH   8   9
HETATM    9  O   UNK N   1      18.551  13.620   1.825  0.00  0.00    -0.387 OA
BRANCH   9  10
HETATM   10  C   UNK N   1      19.421  14.155   0.870  0.00  0.00     0.193 C 
BRANCH  10  11
HETATM   11  C   UNK N   1      20.853  13.751   1.177  0.00  0.00     0.193 C 
BRANCH  11  12
HETATM   12  O   UNK N   1      21.726  14.678   0.606  0.00  0.00    -0.389 OA
BRANCH  12  13
HETATM   13  C   UNK N   1      22.998  14.288   1.024  0.00  0.00     0.163 C 
HETATM   14  C   UNK N   1      23.155  14.589   2.502  0.00  0.00     0.033 C 
ENDBRANCH  12  13
ENDBRANCH  11  12
ENDBRANCH  10  11
ENDBRANCH   9  10
ENDBRANCH   8   9
ENDBRANCH   7   8
ENDBRANCH   6   7
ENDBRANCH   5   6
ENDBRANCH   4   5
ENDBRANCH   3   4
ENDBRANCH   2   3
ENDBRANCH   1   2
BRANCH   1  15
HETATM   15  O   UNK N   1      20.200  14.122   8.167  0.00  0.00    -0.387 OA
BRANCH  15  16
HETATM   16  C   UNK N   1      19.896  15.230   8.960  0.00  0.00     0.193 C 
BRANCH  16  17
HETATM   17  C   UNK N   1      20.660  16.454   8.471  0.00  0.00     0.193 C 
BRANCH  17  18
HETATM   18  O   UNK N   1      20.332  16.712   7.138  0.00  0.00    -0.387 OA
BRANCH  18  19
HETATM   19  C   UNK N   1      21.026  17.879   6.810  0.00  0.00     0.193 C 
BRANCH  19  20
HETATM   20  C   UNK N   1      21.472  17.828   5.358  0.00  0.00     0.193 C 
BRANCH  20  21
HETATM   21  O   UNK N   1      20.661  16.935   4.652  0.00  0.00    -0.387 OA
BRANCH  21  22
HETATM   22  C   UNK N   1      20.008  17.701   3.684  0.00  0.00     0.193 C 
BRANCH  22  23
HETATM   23  C   UNK N   1      20.547  17.349   2.305  0.00  0.00     0.193 C 
BRANCH  23  24
HETATM   24  O   UNK N   1      20.276  18.388   1.413  0.00  0.00    -0.387 OA
BRANCH  24  25
HETATM   25  C   UNK N   1      20.225  19.541   2.197  0.00  0.00     0.193 C 
BRANCH  25  26
HETATM   26  C   UNK N   1      20.719  20.725   1.389  0.00  0.00     0.190 C 
BRANCH  26  27
HETATM   27  O   UNK N   1      20.655  20.427   0.029  0.00  0.00    -0.399 OA
HETATM   28  H   UNK N   1      21.002  19.587  -0.313  0.00  0.00     0.209 HD
ENDBRANCH  26  27
ENDBRANCH  25  26
ENDBRANCH  24  25
ENDBRANCH  23  24
ENDBRANCH  22  23
ENDBRANCH  21  22
ENDBRANCH  20  21
ENDBRANCH  19  20
ENDBRANCH  18  19
ENDBRANCH  17  18
ENDBRANCH  16  17
ENDBRANCH  15  16
ENDBRANCH   1  15
TORSDOF 25
ENDMDL
MODEL 8
REMARK VINA RESULT:      -4.0      2.334      8.433
REMARK  25 active torsions:
REMARK  status: ('A' for Active; 'I' for Inactive)
REMARK    1  A    between atoms: C_2  and  O_3 
REMARK    2  A    between atoms: O_3  and  C_4 
REMARK    3  A    between atoms: C_4  and  C_5 
REMARK    4  A    between atoms: C_5  and  O_6 
REMARK    5  A    between atoms: O_6  and  C_7 
REMARK    6  A    between atoms: C_7  and  C_8 
REMARK    7  A    between atoms: C_8  and  O_9 
REMARK    8  A    between atoms: O_9  and  C_10 
REMARK    9  A    between atoms: C_10  and  C_11 
REMARK   10  A    between atoms: C_11  and  O_12 
REMARK   11  A    between atoms: O_12  and  C_13 
REMARK   12  A    between atoms: C_13  and  C_14 
REMARK   13  A    between atoms: C_14  and  O_15 
REMARK   14  A    between atoms: O_15  and  C_16 
REMARK   15  A    between atoms: C_16  and  C_17 
REMARK   16  A    between atoms: C_17  and  O_18 
REMARK   17  A    between atoms: O_18  and  C_19 
REMARK   18  A    between atoms: C_19  and  C_20 
REMARK   19  A    between atoms: C_20  and  O_21 
REMARK   20  A    between atoms: O_21  and  C_22 
REMARK   21  A    between atoms: C_22  and  C_23 
REMARK   22  A    between atoms: C_23  and  O_24 
REMARK   23  A    between atoms: O_24  and  C_25 
REMARK   24  A    between atoms: C_25  and  C_26 
REMARK   25  A    between atoms: C_26  and  O_27 
ROOT
HETATM    1  C   UNK N   1      20.791  16.503   7.591  0.00  0.00     0.193 C 
ENDROOT
BRANCH   1   2
HETATM    2  C   UNK N   1      19.848  16.308   8.763  0.00  0.00     0.193 C 
BRANCH   2   3
HETATM    3  O   UNK N   1      19.755  14.952   9.084  0.00  0.00    -0.387 OA
BRANCH   3   4
HETATM    4  C   UNK N   1      21.042  14.580   9.479  0.00  0.00     0.193 C 
BRANCH   4   5
HETATM    5  C   UNK N   1      21.079  13.095   9.804  0.00  0.00     0.193 C 
BRANCH   5   6
HETATM    6  O   UNK N   1      21.983  12.862  10.842  0.00  0.00    -0.387 OA
BRANCH   6   7
HETATM    7  C   UNK N   1      22.811  11.839  10.372  0.00  0.00     0.193 C 
BRANCH   7   8
HETATM    8  C   UNK N   1      24.265  12.202  10.630  0.00  0.00     0.193 C 
BRANCH   8   9
HETATM    9  O   UNK N   1      24.780  12.921   9.546  0.00  0.00    -0.387 OA
BRANCH   9  10
HETATM   10  C   UNK N   1      24.340  12.236   8.410  0.00  0.00     0.193 C 
BRANCH  10  11
HETATM   11  C   UNK N   1      24.738  12.991   7.152  0.00  0.00     0.193 C 
BRANCH  11  12
HETATM   12  O   UNK N   1      23.917  14.109   7.006  0.00  0.00    -0.389 OA
BRANCH  12  13
HETATM   13  C   UNK N   1      24.787  15.175   6.780  0.00  0.00     0.163 C 
HETATM   14  C   UNK N   1      24.626  15.661   5.353  0.00  0.00     0.033 C 
ENDBRANCH  12  13
ENDBRANCH  11  12
ENDBRANCH  10  11
ENDBRANCH   9  10
ENDBRANCH   8   9
ENDBRANCH   7   8
ENDBRANCH   6   7
ENDBRANCH   5   6
ENDBRANCH   4   5
ENDBRANCH   3   4
ENDBRANCH   2   3
ENDBRANCH   1   2
BRANCH   1  15
HETATM   15  O   UNK N   1      20.066  16.784   6.429  0.00  0.00    -0.387 OA
BRANCH  15  16
HETATM   16  C   UNK N   1      21.028  16.925   5.428  0.00  0.00     0.193 C 
BRANCH  16  17
HETATM   17  C   UNK N   1      21.866  18.173   5.674  0.00  0.00     0.193 C 
BRANCH  17  18
HETATM   18  O   UNK N   1      21.355  19.239   4.930  0.00  0.00    -0.387 OA
BRANCH  18  19
HETATM   19  C   UNK N   1      22.010  19.173   3.699  0.00  0.00     0.193 C 
BRANCH  19  20
HETATM   20  C   UNK N   1      23.516  19.169   3.912  0.00  0.00     0.193 C 
BRANCH  20  21
HETATM   21  O   UNK N   1      24.041  20.413   3.554  0.00  0.00    -0.387 OA
BRANCH  21  22
HETATM   22  C   UNK N   1      25.207  20.141   2.835  0.00  0.00     0.193 C 
BRANCH  22  23
HETATM   23  C   UNK N   1      26.422  20.497   3.679  0.00  0.00     0.193 C 
BRANCH  23  24
HETATM   24  O   UNK N   1      27.219  19.365   3.859  0.00  0.00    -0.387 OA
BRANCH  24  25
HETATM   25  C   UNK N   1      27.109  19.050   5.214  0.00  0.00     0.193 C 
BRANCH  25  26
HETATM   26  C   UNK N   1      27.368  20.291   6.045  0.00  0.00     0.190 C 
BRANCH  26  27
HETATM   27  O   UNK N   1      26.708  20.188   7.268  0.00  0.00    -0.399 OA
HETATM   28  H   UNK N   1      25.797  20.508   7.369  0.00  0.00     0.209 HD
ENDBRANCH  26  27
ENDBRANCH  25  26
ENDBRANCH  24  25
ENDBRANCH  23  24
ENDBRANCH  22  23
ENDBRANCH  21  22
ENDBRANCH  20  21
ENDBRANCH  19  20
ENDBRANCH  18  19
ENDBRANCH  17  18
ENDBRANCH  16  17
ENDBRANCH  15  16
ENDBRANCH   1  15
TORSDOF 25
ENDMDL
MODEL 9
REMARK VINA RESULT:      -4.0     13.609     16.184
REMARK  25 active torsions:
REMARK  status: ('A' for Active; 'I' for Inactive)
REMARK    1  A    between atoms: C_2  and  O_3 
REMARK    2  A    between atoms: O_3  and  C_4 
REMARK    3  A    between atoms: C_4  and  C_5 
REMARK    4  A    between atoms: C_5  and  O_6 
REMARK    5  A    between atoms: O_6  and  C_7 
REMARK    6  A    between atoms: C_7  and  C_8 
REMARK    7  A    between atoms: C_8  and  O_9 
REMARK    8  A    between atoms: O_9  and  C_10 
REMARK    9  A    between atoms: C_10  and  C_11 
REMARK   10  A    between atoms: C_11  and  O_12 
REMARK   11  A    between atoms: O_12  and  C_13 
REMARK   12  A    between atoms: C_13  and  C_14 
REMARK   13  A    between atoms: C_14  and  O_15 
REMARK   14  A    between atoms: O_15  and  C_16 
REMARK   15  A    between atoms: C_16  and  C_17 
REMARK   16  A    between atoms: C_17  and  O_18 
REMARK   17  A    between atoms: O_18  and  C_19 
REMARK   18  A    between atoms: C_19  and  C_20 
REMARK   19  A    between atoms: C_20  and  O_21 
REMARK   20  A    between atoms: O_21  and  C_22 
REMARK   21  A    between atoms: C_22  and  C_23 
REMARK   22  A    between atoms: C_23  and  O_24 
REMARK   23  A    between atoms: O_24  and  C_25 
REMARK   24  A    between atoms: C_25  and  C_26 
REMARK   25  A    between atoms: C_26  and  O_27 
ROOT
HETATM    1  C   UNK N   1      27.837  29.757  -5.594  0.00  0.00     0.193 C 
ENDROOT
BRANCH   1   2
HETATM    2  C   UNK N   1      28.381  28.878  -6.704  0.00  0.00     0.193 C 
BRANCH   2   3
HETATM    3  O   UNK N   1      27.756  27.628  -6.677  0.00  0.00    -0.387 OA
BRANCH   3   4
HETATM    4  C   UNK N   1      27.675  27.231  -8.013  0.00  0.00     0.193 C 
BRANCH   4   5
HETATM    5  C   UNK N   1      26.932  25.908  -8.119  0.00  0.00     0.193 C 
BRANCH   5   6
HETATM    6  O   UNK N   1      26.642  25.426  -6.842  0.00  0.00    -0.387 OA
BRANCH   6   7
HETATM    7  C   UNK N   1      26.005  24.201  -7.056  0.00  0.00     0.193 C 
BRANCH   7   8
HETATM    8  C   UNK N   1      25.431  24.165  -8.463  0.00  0.00     0.193 C 
BRANCH   8   9
HETATM    9  O   UNK N   1      24.479  23.146  -8.567  0.00  0.00    -0.387 OA
BRANCH   9  10
HETATM   10  C   UNK N   1      25.077  22.024  -7.986  0.00  0.00     0.193 C 
BRANCH  10  11
HETATM   11  C   UNK N   1      25.962  21.315  -8.999  0.00  0.00     0.193 C 
BRANCH  11  12
HETATM   12  O   UNK N   1      26.696  20.320  -8.353  0.00  0.00    -0.389 OA
BRANCH  12  13
HETATM   13  C   UNK N   1      28.029  20.713  -8.472  0.00  0.00     0.163 C 
HETATM   14  C   UNK N   1      28.921  19.652  -7.859  0.00  0.00     0.033 C 
ENDBRANCH  12  13
ENDBRANCH  11  12
ENDBRANCH  10  11
ENDBRANCH   9  10
ENDBRANCH   8   9
ENDBRANCH   7   8
ENDBRANCH   6   7
ENDBRANCH   5   6
ENDBRANCH   4   5
ENDBRANCH   3   4
ENDBRANCH   2   3
ENDBRANCH   1   2
BRANCH   1  15
HETATM   15  O   UNK N   1      28.732  29.788  -4.521  0.00  0.00    -0.387 OA
BRANCH  15  16
HETATM   16  C   UNK N   1      27.977  30.229  -3.433  0.00  0.00     0.193 C 
BRANCH  16  17
HETATM   17  C   UNK N   1      26.607  29.564  -3.437  0.00  0.00     0.193 C 
BRANCH  17  18
HETATM   18  O   UNK N   1      26.640  28.412  -2.647  0.00  0.00    -0.387 OA
BRANCH  18  19
HETATM   19  C   UNK N   1      25.961  27.442  -3.388  0.00  0.00     0.193 C 
BRANCH  19  20
HETATM   20  C   UNK N   1      26.802  26.179  -3.484  0.00  0.00     0.193 C 
BRANCH  20  21
HETATM   21  O   UNK N   1      25.963  25.067  -3.586  0.00  0.00    -0.387 OA
BRANCH  21  22
HETATM   22  C   UNK N   1      26.801  23.952  -3.516  0.00  0.00     0.193 C 
BRANCH  22  23
HETATM   23  C   UNK N   1      28.242  24.379  -3.752  0.00  0.00     0.193 C 
BRANCH  23  24
HETATM   24  O   UNK N   1      28.847  23.514  -4.665  0.00  0.00    -0.387 OA
BRANCH  24  25
HETATM   25  C   UNK N   1      29.975  23.020  -4.008  0.00  0.00     0.193 C 
BRANCH  25  26
HETATM   26  C   UNK N   1      30.232  23.839  -2.758  0.00  0.00     0.190 C 
BRANCH  26  27
HETATM   27  O   UNK N   1      30.757  23.022  -1.758  0.00  0.00    -0.399 OA
HETATM   28  H   UNK N   1      31.627  22.605  -1.863  0.00  0.00     0.209 HD
ENDBRANCH  26  27
ENDBRANCH  25  26
ENDBRANCH  24  25
ENDBRANCH  23  24
ENDBRANCH  22  23
ENDBRANCH  21  22
ENDBRANCH  20  21
ENDBRANCH  19  20
ENDBRANCH  18  19
ENDBRANCH  17  18
ENDBRANCH  16  17
ENDBRANCH  15  16
ENDBRANCH   1  15
TORSDOF 25
ENDMDL
