REMARK  4 active torsions:
REMARK  status: ('A' for Active; 'I' for Inactive)
REMARK    1  A    between atoms: C_29  and  C_22 
REMARK    2  A    between atoms: N_31  and  C_24 
REMARK    3  A    between atoms: N_32  and  C_25 
REMARK    4  A    between atoms: O_33  and  C_27 
ROOT
HETATM    1  C   UNK N   1      14.965   2.639   0.717  0.00  0.00     0.037 A 
HETATM    2  C   UNK N   1      13.741   3.298   0.742  0.00  0.00     0.013 A 
HETATM    3  C   UNK N   1      14.551   6.512  -1.076  0.00  0.00     0.059 C 
HETATM    4  C   UNK N   1      13.556   7.400  -0.344  0.00  0.00     0.129 C 
HETATM    5  C   UNK N   1      15.942   4.534  -0.428  0.00  0.00     0.044 A 
HETATM    6  C   UNK N   1      14.706   5.192  -0.410  0.00  0.00    -0.045 A 
HETATM    7  C   UNK N   1      16.069   3.258   0.138  0.00  0.00     0.066 A 
HETATM    8  C   UNK N   1      13.598   4.578   0.174  0.00  0.00    -0.024 A 
HETATM    9  C   UNK N   1      12.252   5.275   0.236  0.00  0.00     0.151 C 
HETATM   10  N   UNK N   1      12.301   6.740  -0.007  0.00  0.00    -0.367 N 
ENDROOT
BRANCH   9  11
HETATM   11  C   UNK N   1      11.184   4.519  -0.557  0.00  0.00    -0.031 C 
HETATM   12  C   UNK N   1       9.974   5.169  -0.789  0.00  0.00     0.012 C 
HETATM   13  C   UNK N   1       8.779   4.488  -0.702  0.00  0.00     0.030 C 
HETATM   14  C   UNK N   1       8.772   3.120  -0.422  0.00  0.00     0.030 C 
HETATM   15  C   UNK N   1       9.972   2.414  -0.398  0.00  0.00     0.030 C 
HETATM   16  C   UNK N   1      11.166   3.118  -0.433  0.00  0.00     0.012 C 
BRANCH  14  17
HETATM   17  N   UNK N   1       7.572   2.505  -0.011  0.00  0.00    -0.377 N 
HETATM   18  C   UNK N   1       7.420   1.076   0.043  0.00  0.00     0.153 C 
HETATM   19  C   UNK N   1       6.257   0.713  -0.886  0.00  0.00     0.292 C 
HETATM   20  N   UNK N   1       5.055   1.535  -0.632  0.00  0.00     0.096 N 
HETATM   21  C   UNK N   1       4.449   1.108   0.634  0.00  0.00     0.273 C 
HETATM   22  C   UNK N   1       5.352   2.991  -0.639  0.00  0.00     0.240 C 
HETATM   23  C   UNK N   1       3.154   1.871   0.886  0.00  0.00     0.030 C 
HETATM   24  C   UNK N   1       3.449   3.362   0.962  0.00  0.00     0.004 C 
HETATM   25  C   UNK N   1       4.102   3.817  -0.338  0.00  0.00     0.037 C 
HETATM   26  C   UNK N   1       6.443   3.315   0.350  0.00  0.00     0.159 C 
ENDBRANCH  14  17
ENDBRANCH   9  11
BRANCH  10  27
HETATM   27  C   UNK N   1      11.178   7.590   0.329  0.00  0.00     0.030 A 
HETATM   28  C   UNK N   1      10.098   7.125   1.108  0.00  0.00     0.029 A 
HETATM   29  C   UNK N   1       8.989   7.934   1.367  0.00  0.00     0.002 A 
HETATM   30  C   UNK N   1       8.949   9.236   0.871  0.00  0.00     0.000 A 
HETATM   31  C   UNK N   1      10.027   9.734   0.136  0.00  0.00     0.002 A 
HETATM   32  C   UNK N   1      11.135   8.920  -0.132  0.00  0.00     0.029 A 
ENDBRANCH  10  27
BRANCH   7  33
HETATM   33  O   UNK N   1      17.252   2.625   0.118  0.00  0.00    -0.361 OA
HETATM   34  H   UNK N   1      17.282   1.689   0.105  0.00  0.00     0.217 HD
ENDBRANCH   7  33
TORSDOF 4
