MODEL 1
REMARK VINA RESULT:      -6.0      0.000      0.000
REMARK  12 active torsions:
REMARK  status: ('A' for Active; 'I' for Inactive)
REMARK    1  A    between atoms: C_2  and  C_1 
REMARK    2  A    between atoms: C_4  and  C_1 
REMARK    3  A    between atoms: C_6  and  C_2 
REMARK    4  A    between atoms: C_5  and  C_3 
REMARK    5  A    between atoms: O_13  and  C_3 
REMARK    6  A    between atoms: C_8  and  C_4 
REMARK    7  A    between atoms: C_4  and  N_12 
REMARK    8  A    between atoms: O_20  and  C_6 
REMARK    9  A    between atoms: C_7  and  O_15 
REMARK   10  A    between atoms: O_17  and  C_8 
REMARK   11  A    between atoms: C_9  and  O_20 
REMARK   12  A    between atoms: C_10  and  O_18 
ROOT
HETATM    1  C   UNK N   1      21.009  19.276   2.094  0.00  0.00     0.183 C 
HETATM    2  C   UNK N   1      19.721  18.568   2.467  0.00  0.00     0.221 C 
HETATM    3  C   UNK N   1      21.319  18.423   4.171  0.00  0.00     0.340 C 
HETATM    4  C   UNK N   1      20.277  17.558   3.431  0.00  0.00     0.282 C 
HETATM    5  F   UNK N   1      19.299  17.004   4.240  0.00  0.00    -0.203 F 
HETATM    6  O   UNK N   1      21.666  19.509   3.319  0.00  0.00    -0.345 OA
ENDROOT
BRANCH   3   7
HETATM    7  O   UNK N   1      20.819  18.914   5.365  0.00  0.00    -0.284 OA
BRANCH   7   8
HETATM    8  C   UNK N   1      21.040  18.314   6.571  0.00  0.00     0.261 C 
HETATM    9  O   UNK N   1      20.877  18.954   7.596  0.00  0.00    -0.265 OA
BRANCH   8  10
HETATM   10  C   UNK N   1      21.482  16.874   6.660  0.00  0.00     0.114 C 
BRANCH  10  11
HETATM   11  C   UNK N   1      20.386  15.964   7.208  0.00  0.00     0.045 C 
BRANCH  11  12
HETATM   12  C   UNK N   1      20.182  16.104   8.718  0.00  0.00     0.173 C 
BRANCH  12  13
HETATM   13  C   UNK N   1      18.826  16.688   9.042  0.00  0.00     0.163 C 
HETATM   14  O   UNK N   1      17.849  15.967   9.156  0.00  0.00    -0.648 OA
BRANCH  13  15
HETATM   15  O   UNK N   1      18.693  18.016   9.227  0.00  0.00    -0.775 OA
HETATM   16  H   UNK N   1      19.199  18.475   9.869  0.00  0.00     0.167 HD
ENDBRANCH  13  15
ENDBRANCH  12  13
BRANCH  12  17
HETATM   17  N   UNK N   1      20.324  14.789   9.324  0.00  0.00    -0.418 N 
HETATM   18  H   UNK N   1      20.390  14.663  10.334  0.00  0.00     0.150 HD
HETATM   19  H   UNK N   1      20.358  13.967   8.721  0.00  0.00     0.150 HD
ENDBRANCH  12  17
ENDBRANCH  11  12
ENDBRANCH  10  11
ENDBRANCH   8  10
ENDBRANCH   7   8
ENDBRANCH   3   7
BRANCH   4  20
HETATM   20  O   UNK N   1      20.930  16.537   2.731  0.00  0.00    -0.356 OA
HETATM   21  H   UNK N   1      21.275  15.900   2.085  0.00  0.00     0.213 HD
ENDBRANCH   4  20
BRANCH   2  22
HETATM   22  O   UNK N   1      19.075  17.981   1.374  0.00  0.00    -0.387 OA
HETATM   23  H   UNK N   1      19.317  18.164   0.453  0.00  0.00     0.210 HD
ENDBRANCH   2  22
BRANCH   1  24
HETATM   24  C   UNK N   1      20.766  20.581   1.346  0.00  0.00     0.199 C 
BRANCH  24  25
HETATM   25  O   UNK N   1      20.548  20.326  -0.010  0.00  0.00    -0.398 OA
HETATM   26  H   UNK N   1      20.072  20.941  -0.591  0.00  0.00     0.209 HD
ENDBRANCH  24  25
ENDBRANCH   1  24
TORSDOF 12
ENDMDL
MODEL 2
REMARK VINA RESULT:      -5.9     10.849     12.182
REMARK  12 active torsions:
REMARK  status: ('A' for Active; 'I' for Inactive)
REMARK    1  A    between atoms: C_2  and  C_1 
REMARK    2  A    between atoms: C_4  and  C_1 
REMARK    3  A    between atoms: C_6  and  C_2 
REMARK    4  A    between atoms: C_5  and  C_3 
REMARK    5  A    between atoms: O_13  and  C_3 
REMARK    6  A    between atoms: C_8  and  C_4 
REMARK    7  A    between atoms: C_4  and  N_12 
REMARK    8  A    between atoms: O_20  and  C_6 
REMARK    9  A    between atoms: C_7  and  O_15 
REMARK   10  A    between atoms: O_17  and  C_8 
REMARK   11  A    between atoms: C_9  and  O_20 
REMARK   12  A    between atoms: C_10  and  O_18 
ROOT
HETATM    1  C   UNK N   1      28.227  18.098   6.737  0.00  0.00     0.183 C 
HETATM    2  C   UNK N   1      28.273  19.150   7.827  0.00  0.00     0.221 C 
HETATM    3  C   UNK N   1      29.734  17.374   8.267  0.00  0.00     0.340 C 
HETATM    4  C   UNK N   1      28.705  18.281   8.975  0.00  0.00     0.282 C 
HETATM    5  F   UNK N   1      29.208  19.016  10.035  0.00  0.00    -0.203 F 
HETATM    6  O   UNK N   1      29.427  17.372   6.878  0.00  0.00    -0.345 OA
ENDROOT
BRANCH   3   7
HETATM    7  O   UNK N   1      31.028  17.830   8.453  0.00  0.00    -0.284 OA
BRANCH   7   8
HETATM    8  C   UNK N   1      32.131  17.119   8.077  0.00  0.00     0.261 C 
HETATM    9  O   UNK N   1      32.813  17.518   7.148  0.00  0.00    -0.265 OA
BRANCH   8  10
HETATM   10  C   UNK N   1      32.523  15.847   8.788  0.00  0.00     0.114 C 
BRANCH  10  11
HETATM   11  C   UNK N   1      34.011  15.535   8.640  0.00  0.00     0.045 C 
BRANCH  11  12
HETATM   12  C   UNK N   1      34.704  15.246   9.973  0.00  0.00     0.173 C 
BRANCH  12  13
HETATM   13  C   UNK N   1      35.646  16.363  10.360  0.00  0.00     0.163 C 
HETATM   14  O   UNK N   1      35.344  17.528  10.166  0.00  0.00    -0.648 OA
BRANCH  13  15
HETATM   15  O   UNK N   1      36.825  16.074  10.946  0.00  0.00    -0.775 OA
HETATM   16  H   UNK N   1      37.358  15.363  10.650  0.00  0.00     0.167 HD
ENDBRANCH  13  15
ENDBRANCH  12  13
BRANCH  12  17
HETATM   17  N   UNK N   1      33.681  15.072  10.993  0.00  0.00    -0.418 N 
HETATM   18  H   UNK N   1      33.707  15.578  11.878  0.00  0.00     0.150 HD
HETATM   19  H   UNK N   1      32.913  14.423  10.818  0.00  0.00     0.150 HD
ENDBRANCH  12  17
ENDBRANCH  11  12
ENDBRANCH  10  11
ENDBRANCH   8  10
ENDBRANCH   7   8
ENDBRANCH   3   7
BRANCH   4  20
HETATM   20  O   UNK N   1      27.628  17.505   9.420  0.00  0.00    -0.356 OA
HETATM   21  H   UNK N   1      26.845  17.129   9.851  0.00  0.00     0.213 HD
ENDBRANCH   4  20
BRANCH   2  22
HETATM   22  O   UNK N   1      27.041  19.773   8.049  0.00  0.00    -0.387 OA
HETATM   23  H   UNK N   1      26.744  20.553   7.554  0.00  0.00     0.210 HD
ENDBRANCH   2  22
BRANCH   1  24
HETATM   24  C   UNK N   1      28.113  18.703   5.343  0.00  0.00     0.199 C 
BRANCH  24  25
HETATM   25  O   UNK N   1      27.991  20.092   5.428  0.00  0.00    -0.398 OA
HETATM   26  H   UNK N   1      27.999  20.669   4.648  0.00  0.00     0.209 HD
ENDBRANCH  24  25
ENDBRANCH   1  24
TORSDOF 12
ENDMDL
MODEL 3
REMARK VINA RESULT:      -5.9     10.065     11.471
REMARK  12 active torsions:
REMARK  status: ('A' for Active; 'I' for Inactive)
REMARK    1  A    between atoms: C_2  and  C_1 
REMARK    2  A    between atoms: C_4  and  C_1 
REMARK    3  A    between atoms: C_6  and  C_2 
REMARK    4  A    between atoms: C_5  and  C_3 
REMARK    5  A    between atoms: O_13  and  C_3 
REMARK    6  A    between atoms: C_8  and  C_4 
REMARK    7  A    between atoms: C_4  and  N_12 
REMARK    8  A    between atoms: O_20  and  C_6 
REMARK    9  A    between atoms: C_7  and  O_15 
REMARK   10  A    between atoms: O_17  and  C_8 
REMARK   11  A    between atoms: C_9  and  O_20 
REMARK   12  A    between atoms: C_10  and  O_18 
ROOT
HETATM    1  C   UNK N   1      27.625  18.901   5.988  0.00  0.00     0.183 C 
HETATM    2  C   UNK N   1      28.072  19.243   7.395  0.00  0.00     0.221 C 
HETATM    3  C   UNK N   1      29.190  17.365   6.559  0.00  0.00     0.340 C 
HETATM    4  C   UNK N   1      28.506  17.876   7.844  0.00  0.00     0.282 C 
HETATM    5  F   UNK N   1      29.324  17.920   8.961  0.00  0.00    -0.203 F 
HETATM    6  O   UNK N   1      28.656  18.097   5.461  0.00  0.00    -0.345 OA
ENDROOT
BRANCH   3   7
HETATM    7  O   UNK N   1      30.563  17.540   6.606  0.00  0.00    -0.284 OA
BRANCH   7   8
HETATM    8  C   UNK N   1      31.445  16.506   6.728  0.00  0.00     0.261 C 
HETATM    9  O   UNK N   1      31.940  16.020   5.724  0.00  0.00    -0.265 OA
BRANCH   8  10
HETATM   10  C   UNK N   1      31.819  15.950   8.080  0.00  0.00     0.114 C 
BRANCH  10  11
HETATM   11  C   UNK N   1      32.516  16.986   8.959  0.00  0.00     0.045 C 
BRANCH  11  12
HETATM   12  C   UNK N   1      34.038  16.987   8.800  0.00  0.00     0.173 C 
BRANCH  12  13
HETATM   13  C   UNK N   1      34.499  18.105   7.893  0.00  0.00     0.163 C 
HETATM   14  O   UNK N   1      34.979  19.125   8.357  0.00  0.00    -0.648 OA
BRANCH  13  15
HETATM   15  O   UNK N   1      34.400  17.970   6.556  0.00  0.00    -0.775 OA
HETATM   16  H   UNK N   1      34.618  17.165   6.127  0.00  0.00     0.167 HD
ENDBRANCH  13  15
ENDBRANCH  12  13
BRANCH  12  17
HETATM   17  N   UNK N   1      34.637  17.127  10.119  0.00  0.00    -0.418 N 
HETATM   18  H   UNK N   1      34.650  18.018  10.616  0.00  0.00     0.150 HD
HETATM   19  H   UNK N   1      35.056  16.309  10.561  0.00  0.00     0.150 HD
ENDBRANCH  12  17
ENDBRANCH  11  12
ENDBRANCH  10  11
ENDBRANCH   8  10
ENDBRANCH   7   8
ENDBRANCH   3   7
BRANCH   4  20
HETATM   20  O   UNK N   1      27.385  17.085   8.123  0.00  0.00    -0.356 OA
HETATM   21  H   UNK N   1      26.677  16.547   8.510  0.00  0.00     0.213 HD
ENDBRANCH   4  20
BRANCH   2  22
HETATM   22  O   UNK N   1      27.051  19.778   8.187  0.00  0.00    -0.387 OA
HETATM   23  H   UNK N   1      27.217  20.275   9.003  0.00  0.00     0.210 HD
ENDBRANCH   2  22
BRANCH   1  24
HETATM   24  C   UNK N   1      27.401  20.138   5.126  0.00  0.00     0.199 C 
BRANCH  24  25
HETATM   25  O   UNK N   1      27.500  21.293   5.905  0.00  0.00    -0.398 OA
HETATM   26  H   UNK N   1      28.346  21.631   6.240  0.00  0.00     0.209 HD
ENDBRANCH  24  25
ENDBRANCH   1  24
TORSDOF 12
ENDMDL
MODEL 4
REMARK VINA RESULT:      -5.8     14.137     15.967
REMARK  12 active torsions:
REMARK  status: ('A' for Active; 'I' for Inactive)
REMARK    1  A    between atoms: C_2  and  C_1 
REMARK    2  A    between atoms: C_4  and  C_1 
REMARK    3  A    between atoms: C_6  and  C_2 
REMARK    4  A    between atoms: C_5  and  C_3 
REMARK    5  A    between atoms: O_13  and  C_3 
REMARK    6  A    between atoms: C_8  and  C_4 
REMARK    7  A    between atoms: C_4  and  N_12 
REMARK    8  A    between atoms: O_20  and  C_6 
REMARK    9  A    between atoms: C_7  and  O_15 
REMARK   10  A    between atoms: O_17  and  C_8 
REMARK   11  A    between atoms: C_9  and  O_20 
REMARK   12  A    between atoms: C_10  and  O_18 
ROOT
HETATM    1  C   UNK N   1      36.088  14.525  10.700  0.00  0.00     0.183 C 
HETATM    2  C   UNK N   1      34.943  13.965   9.880  0.00  0.00     0.221 C 
HETATM    3  C   UNK N   1      34.909  16.305   9.939  0.00  0.00     0.340 C 
HETATM    4  C   UNK N   1      33.962  15.091  10.044  0.00  0.00     0.282 C 
HETATM    5  F   UNK N   1      32.953  15.056   9.097  0.00  0.00    -0.203 F 
HETATM    6  O   UNK N   1      36.219  15.865  10.280  0.00  0.00    -0.345 OA
ENDROOT
BRANCH   3   7
HETATM    7  O   UNK N   1      34.919  16.835   8.660  0.00  0.00    -0.284 OA
BRANCH   7   8
HETATM    8  C   UNK N   1      34.467  18.090   8.368  0.00  0.00     0.261 C 
HETATM    9  O   UNK N   1      35.214  19.043   8.511  0.00  0.00    -0.265 OA
BRANCH   8  10
HETATM   10  C   UNK N   1      33.061  18.320   7.871  0.00  0.00     0.114 C 
BRANCH  10  11
HETATM   11  C   UNK N   1      32.640  17.289   6.825  0.00  0.00     0.045 C 
BRANCH  11  12
HETATM   12  C   UNK N   1      33.461  17.367   5.536  0.00  0.00     0.173 C 
BRANCH  12  13
HETATM   13  C   UNK N   1      34.181  16.067   5.259  0.00  0.00     0.163 C 
HETATM   14  O   UNK N   1      33.758  15.287   4.423  0.00  0.00    -0.648 OA
BRANCH  13  15
HETATM   15  O   UNK N   1      35.314  15.772   5.925  0.00  0.00    -0.775 OA
HETATM   16  H   UNK N   1      36.100  16.267   5.799  0.00  0.00     0.167 HD
ENDBRANCH  13  15
ENDBRANCH  12  13
BRANCH  12  17
HETATM   17  N   UNK N   1      32.562  17.690   4.439  0.00  0.00    -0.418 N 
HETATM   18  H   UNK N   1      32.249  18.644   4.258  0.00  0.00     0.150 HD
HETATM   19  H   UNK N   1      32.234  16.940   3.830  0.00  0.00     0.150 HD
ENDBRANCH  12  17
ENDBRANCH  11  12
ENDBRANCH  10  11
ENDBRANCH   8  10
ENDBRANCH   7   8
ENDBRANCH   3   7
BRANCH   4  20
HETATM   20  O   UNK N   1      33.396  15.050  11.324  0.00  0.00    -0.356 OA
HETATM   21  H   UNK N   1      32.876  15.165  12.135  0.00  0.00     0.213 HD
ENDBRANCH   4  20
BRANCH   2  22
HETATM   22  O   UNK N   1      34.460  12.745  10.363  0.00  0.00    -0.387 OA
HETATM   23  H   UNK N   1      35.017  11.959  10.473  0.00  0.00     0.210 HD
ENDBRANCH   2  22
BRANCH   1  24
HETATM   24  C   UNK N   1      37.388  13.758  10.495  0.00  0.00     0.199 C 
BRANCH  24  25
HETATM   25  O   UNK N   1      38.417  14.635  10.143  0.00  0.00    -0.398 OA
HETATM   26  H   UNK N   1      38.956  15.104  10.800  0.00  0.00     0.209 HD
ENDBRANCH  24  25
ENDBRANCH   1  24
TORSDOF 12
ENDMDL
MODEL 5
REMARK VINA RESULT:      -5.7      5.099      8.676
REMARK  12 active torsions:
REMARK  status: ('A' for Active; 'I' for Inactive)
REMARK    1  A    between atoms: C_2  and  C_1 
REMARK    2  A    between atoms: C_4  and  C_1 
REMARK    3  A    between atoms: C_6  and  C_2 
REMARK    4  A    between atoms: C_5  and  C_3 
REMARK    5  A    between atoms: O_13  and  C_3 
REMARK    6  A    between atoms: C_8  and  C_4 
REMARK    7  A    between atoms: C_4  and  N_12 
REMARK    8  A    between atoms: O_20  and  C_6 
REMARK    9  A    between atoms: C_7  and  O_15 
REMARK   10  A    between atoms: O_17  and  C_8 
REMARK   11  A    between atoms: C_9  and  O_20 
REMARK   12  A    between atoms: C_10  and  O_18 
ROOT
HETATM    1  C   UNK N   1      22.913  11.735  11.683  0.00  0.00     0.183 C 
HETATM    2  C   UNK N   1      24.018  12.570  11.066  0.00  0.00     0.221 C 
HETATM    3  C   UNK N   1      21.998  12.804   9.906  0.00  0.00     0.340 C 
HETATM    4  C   UNK N   1      23.510  12.627   9.653  0.00  0.00     0.282 C 
HETATM    5  F   UNK N   1      24.101  13.641   8.919  0.00  0.00    -0.203 F 
HETATM    6  O   UNK N   1      21.714  12.306  11.209  0.00  0.00    -0.345 OA
ENDROOT
BRANCH   3   7
HETATM    7  O   UNK N   1      21.620  14.134   9.829  0.00  0.00    -0.284 OA
BRANCH   7   8
HETATM    8  C   UNK N   1      20.415  14.541   9.335  0.00  0.00     0.261 C 
HETATM    9  O   UNK N   1      19.388  14.114   9.835  0.00  0.00    -0.265 OA
BRANCH   8  10
HETATM   10  C   UNK N   1      20.328  15.508   8.179  0.00  0.00     0.114 C 
BRANCH  10  11
HETATM   11  C   UNK N   1      20.666  14.848   6.844  0.00  0.00     0.045 C 
BRANCH  11  12
HETATM   12  C   UNK N   1      20.567  15.805   5.655  0.00  0.00     0.173 C 
BRANCH  12  13
HETATM   13  C   UNK N   1      19.187  15.779   5.037  0.00  0.00     0.163 C 
HETATM   14  O   UNK N   1      18.391  14.901   5.327  0.00  0.00    -0.648 OA
BRANCH  13  15
HETATM   15  O   UNK N   1      18.820  16.745   4.172  0.00  0.00    -0.775 OA
HETATM   16  H   UNK N   1      19.262  17.571   4.144  0.00  0.00     0.167 HD
ENDBRANCH  13  15
ENDBRANCH  12  13
BRANCH  12  17
HETATM   17  N   UNK N   1      20.887  17.147   6.118  0.00  0.00    -0.418 N 
HETATM   18  H   UNK N   1      20.642  17.978   5.580  0.00  0.00     0.150 HD
HETATM   19  H   UNK N   1      21.373  17.260   7.008  0.00  0.00     0.150 HD
ENDBRANCH  12  17
ENDBRANCH  11  12
ENDBRANCH  10  11
ENDBRANCH   8  10
ENDBRANCH   7   8
ENDBRANCH   3   7
BRANCH   4  20
HETATM   20  O   UNK N   1      23.735  11.402   9.014  0.00  0.00    -0.356 OA
HETATM   21  H   UNK N   1      24.089  10.611   8.577  0.00  0.00     0.213 HD
ENDBRANCH   4  20
BRANCH   2  22
HETATM   22  O   UNK N   1      25.281  11.980  11.169  0.00  0.00    -0.387 OA
HETATM   23  H   UNK N   1      25.415  11.051  11.415  0.00  0.00     0.210 HD
ENDBRANCH   2  22
BRANCH   1  24
HETATM   24  C   UNK N   1      22.956  11.738  13.206  0.00  0.00     0.199 C 
BRANCH  24  25
HETATM   25  O   UNK N   1      23.979  12.574  13.659  0.00  0.00    -0.398 OA
HETATM   26  H   UNK N   1      24.754  12.795  13.119  0.00  0.00     0.209 HD
ENDBRANCH  24  25
ENDBRANCH   1  24
TORSDOF 12
ENDMDL
MODEL 6
REMARK VINA RESULT:      -5.6     11.617     13.183
REMARK  12 active torsions:
REMARK  status: ('A' for Active; 'I' for Inactive)
REMARK    1  A    between atoms: C_2  and  C_1 
REMARK    2  A    between atoms: C_4  and  C_1 
REMARK    3  A    between atoms: C_6  and  C_2 
REMARK    4  A    between atoms: C_5  and  C_3 
REMARK    5  A    between atoms: O_13  and  C_3 
REMARK    6  A    between atoms: C_8  and  C_4 
REMARK    7  A    between atoms: C_4  and  N_12 
REMARK    8  A    between atoms: O_20  and  C_6 
REMARK    9  A    between atoms: C_7  and  O_15 
REMARK   10  A    between atoms: O_17  and  C_8 
REMARK   11  A    between atoms: C_9  and  O_20 
REMARK   12  A    between atoms: C_10  and  O_18 
ROOT
HETATM    1  C   UNK N   1      34.853  15.794   8.404  0.00  0.00     0.183 C 
HETATM    2  C   UNK N   1      34.260  17.008   9.091  0.00  0.00     0.221 C 
HETATM    3  C   UNK N   1      33.112  16.475   7.122  0.00  0.00     0.340 C 
HETATM    4  C   UNK N   1      33.667  17.692   7.892  0.00  0.00     0.282 C 
HETATM    5  F   UNK N   1      32.721  18.643   8.238  0.00  0.00    -0.203 F 
HETATM    6  O   UNK N   1      33.836  15.326   7.547  0.00  0.00    -0.345 OA
ENDROOT
BRANCH   3   7
HETATM    7  O   UNK N   1      31.763  16.287   7.368  0.00  0.00    -0.284 OA
BRANCH   7   8
HETATM    8  C   UNK N   1      30.854  16.021   6.385  0.00  0.00     0.261 C 
HETATM    9  O   UNK N   1      31.178  15.315   5.445  0.00  0.00    -0.265 OA
BRANCH   8  10
HETATM   10  C   UNK N   1      29.455  16.585   6.437  0.00  0.00     0.114 C 
BRANCH  10  11
HETATM   11  C   UNK N   1      29.352  17.793   7.367  0.00  0.00     0.045 C 
BRANCH  11  12
HETATM   12  C   UNK N   1      28.396  17.572   8.541  0.00  0.00     0.173 C 
BRANCH  12  13
HETATM   13  C   UNK N   1      29.133  17.100   9.773  0.00  0.00     0.163 C 
HETATM   14  O   UNK N   1      28.524  16.650  10.729  0.00  0.00    -0.648 OA
BRANCH  13  15
HETATM   15  O   UNK N   1      30.479  17.157   9.814  0.00  0.00    -0.775 OA
HETATM   16  H   UNK N   1      30.992  17.205   9.031  0.00  0.00     0.167 HD
ENDBRANCH  13  15
ENDBRANCH  12  13
BRANCH  12  17
HETATM   17  N   UNK N   1      27.707  18.824   8.813  0.00  0.00    -0.418 N 
HETATM   18  H   UNK N   1      26.753  18.850   9.173  0.00  0.00     0.150 HD
HETATM   19  H   UNK N   1      28.192  19.704   8.638  0.00  0.00     0.150 HD
ENDBRANCH  12  17
ENDBRANCH  11  12
ENDBRANCH  10  11
ENDBRANCH   8  10
ENDBRANCH   7   8
ENDBRANCH   3   7
BRANCH   4  20
HETATM   20  O   UNK N   1      34.678  18.300   7.138  0.00  0.00    -0.356 OA
HETATM   21  H   UNK N   1      35.254  18.885   6.621  0.00  0.00     0.213 HD
ENDBRANCH   4  20
BRANCH   2  22
HETATM   22  O   UNK N   1      35.212  17.792   9.750  0.00  0.00    -0.387 OA
HETATM   23  H   UNK N   1      35.173  17.989  10.699  0.00  0.00     0.210 HD
ENDBRANCH   2  22
BRANCH   1  24
HETATM   24  C   UNK N   1      35.280  14.713   9.389  0.00  0.00     0.199 C 
BRANCH  24  25
HETATM   25  O   UNK N   1      36.418  15.119  10.088  0.00  0.00    -0.398 OA
HETATM   26  H   UNK N   1      36.745  14.656  10.876  0.00  0.00     0.209 HD
ENDBRANCH  24  25
ENDBRANCH   1  24
TORSDOF 12
ENDMDL
MODEL 7
REMARK VINA RESULT:      -5.4      2.606      3.540
REMARK  12 active torsions:
REMARK  status: ('A' for Active; 'I' for Inactive)
REMARK    1  A    between atoms: C_2  and  C_1 
REMARK    2  A    between atoms: C_4  and  C_1 
REMARK    3  A    between atoms: C_6  and  C_2 
REMARK    4  A    between atoms: C_5  and  C_3 
REMARK    5  A    between atoms: O_13  and  C_3 
REMARK    6  A    between atoms: C_8  and  C_4 
REMARK    7  A    between atoms: C_4  and  N_12 
REMARK    8  A    between atoms: O_20  and  C_6 
REMARK    9  A    between atoms: C_7  and  O_15 
REMARK   10  A    between atoms: O_17  and  C_8 
REMARK   11  A    between atoms: C_9  and  O_20 
REMARK   12  A    between atoms: C_10  and  O_18 
ROOT
HETATM    1  C   UNK N   1      20.010  19.806   2.801  0.00  0.00     0.183 C 
HETATM    2  C   UNK N   1      21.069  19.940   1.724  0.00  0.00     0.221 C 
HETATM    3  C   UNK N   1      22.015  19.580   3.834  0.00  0.00     0.340 C 
HETATM    4  C   UNK N   1      22.204  20.444   2.570  0.00  0.00     0.282 C 
HETATM    5  F   UNK N   1      23.432  20.302   1.946  0.00  0.00    -0.203 F 
HETATM    6  O   UNK N   1      20.657  19.154   3.871  0.00  0.00    -0.345 OA
ENDROOT
BRANCH   3   7
HETATM    7  O   UNK N   1      22.845  18.472   3.825  0.00  0.00    -0.284 OA
BRANCH   7   8
HETATM    8  C   UNK N   1      22.391  17.197   3.998  0.00  0.00     0.261 C 
HETATM    9  O   UNK N   1      21.887  16.608   3.057  0.00  0.00    -0.265 OA
BRANCH   8  10
HETATM   10  C   UNK N   1      22.499  16.501   5.333  0.00  0.00     0.114 C 
BRANCH  10  11
HETATM   11  C   UNK N   1      21.200  16.577   6.133  0.00  0.00     0.045 C 
BRANCH  11  12
HETATM   12  C   UNK N   1      20.296  15.359   5.935  0.00  0.00     0.173 C 
BRANCH  12  13
HETATM   13  C   UNK N   1      19.052  15.714   5.154  0.00  0.00     0.163 C 
HETATM   14  O   UNK N   1      17.990  15.899   5.724  0.00  0.00    -0.648 OA
BRANCH  13  15
HETATM   15  O   UNK N   1      19.116  15.850   3.814  0.00  0.00    -0.775 OA
HETATM   16  H   UNK N   1      18.372  16.122   3.313  0.00  0.00     0.167 HD
ENDBRANCH  13  15
ENDBRANCH  12  13
BRANCH  12  17
HETATM   17  N   UNK N   1      21.056  14.333   5.236  0.00  0.00    -0.418 N 
HETATM   18  H   UNK N   1      21.147  13.385   5.600  0.00  0.00     0.150 HD
HETATM   19  H   UNK N   1      21.512  14.569   4.355  0.00  0.00     0.150 HD
ENDBRANCH  12  17
ENDBRANCH  11  12
ENDBRANCH  10  11
ENDBRANCH   8  10
ENDBRANCH   7   8
ENDBRANCH   3   7
BRANCH   4  20
HETATM   20  O   UNK N   1      22.001  21.791   2.890  0.00  0.00    -0.356 OA
HETATM   21  H   UNK N   1      22.046  22.709   3.201  0.00  0.00     0.213 HD
ENDBRANCH   4  20
BRANCH   2  22
HETATM   22  O   UNK N   1      20.712  20.828   0.704  0.00  0.00    -0.387 OA
HETATM   23  H   UNK N   1      21.293  21.038  -0.044  0.00  0.00     0.210 HD
ENDBRANCH   2  22
BRANCH   1  24
HETATM   24  C   UNK N   1      18.794  19.016   2.334  0.00  0.00     0.199 C 
BRANCH  24  25
HETATM   25  O   UNK N   1      19.194  17.804   1.768  0.00  0.00    -0.398 OA
HETATM   26  H   UNK N   1      19.772  17.752   0.990  0.00  0.00     0.209 HD
ENDBRANCH  24  25
ENDBRANCH   1  24
TORSDOF 12
ENDMDL
MODEL 8
REMARK VINA RESULT:      -5.4     15.494     17.434
REMARK  12 active torsions:
REMARK  status: ('A' for Active; 'I' for Inactive)
REMARK    1  A    between atoms: C_2  and  C_1 
REMARK    2  A    between atoms: C_4  and  C_1 
REMARK    3  A    between atoms: C_6  and  C_2 
REMARK    4  A    between atoms: C_5  and  C_3 
REMARK    5  A    between atoms: O_13  and  C_3 
REMARK    6  A    between atoms: C_8  and  C_4 
REMARK    7  A    between atoms: C_4  and  N_12 
REMARK    8  A    between atoms: O_20  and  C_6 
REMARK    9  A    between atoms: C_7  and  O_15 
REMARK   10  A    between atoms: O_17  and  C_8 
REMARK   11  A    between atoms: C_9  and  O_20 
REMARK   12  A    between atoms: C_10  and  O_18 
ROOT
HETATM    1  C   UNK N   1      35.797  11.965  11.665  0.00  0.00     0.183 C 
HETATM    2  C   UNK N   1      35.129  13.237  12.148  0.00  0.00     0.221 C 
HETATM    3  C   UNK N   1      37.160  13.675  11.071  0.00  0.00     0.340 C 
HETATM    4  C   UNK N   1      36.350  14.097  12.315  0.00  0.00     0.282 C 
HETATM    5  F   UNK N   1      36.044  15.446  12.381  0.00  0.00    -0.203 F 
HETATM    6  O   UNK N   1      36.710  12.384  10.676  0.00  0.00    -0.345 OA
ENDROOT
BRANCH   3   7
HETATM    7  O   UNK N   1      36.986  14.564  10.023  0.00  0.00    -0.284 OA
BRANCH   7   8
HETATM    8  C   UNK N   1      36.395  14.219   8.841  0.00  0.00     0.261 C 
HETATM    9  O   UNK N   1      37.077  13.753   7.945  0.00  0.00    -0.265 OA
BRANCH   8  10
HETATM   10  C   UNK N   1      34.914  14.405   8.622  0.00  0.00     0.114 C 
BRANCH  10  11
HETATM   11  C   UNK N   1      34.599  15.680   7.841  0.00  0.00     0.045 C 
BRANCH  11  12
HETATM   12  C   UNK N   1      34.428  16.909   8.735  0.00  0.00     0.173 C 
BRANCH  12  13
HETATM   13  C   UNK N   1      34.646  18.190   7.962  0.00  0.00     0.163 C 
HETATM   14  O   UNK N   1      34.244  18.302   6.816  0.00  0.00    -0.648 OA
BRANCH  13  15
HETATM   15  O   UNK N   1      35.271  19.230   8.548  0.00  0.00    -0.775 OA
HETATM   16  H   UNK N   1      36.177  19.410   8.390  0.00  0.00     0.167 HD
ENDBRANCH  13  15
ENDBRANCH  12  13
BRANCH  12  17
HETATM   17  N   UNK N   1      33.088  16.883   9.301  0.00  0.00    -0.418 N 
HETATM   18  H   UNK N   1      32.510  16.042   9.286  0.00  0.00     0.150 HD
HETATM   19  H   UNK N   1      32.714  17.731   9.728  0.00  0.00     0.150 HD
ENDBRANCH  12  17
ENDBRANCH  11  12
ENDBRANCH  10  11
ENDBRANCH   8  10
ENDBRANCH   7   8
ENDBRANCH   3   7
BRANCH   4  20
HETATM   20  O   UNK N   1      37.045  13.724  13.471  0.00  0.00    -0.356 OA
HETATM   21  H   UNK N   1      37.692  13.526  14.167  0.00  0.00     0.213 HD
ENDBRANCH   4  20
BRANCH   2  22
HETATM   22  O   UNK N   1      34.413  13.071  13.338  0.00  0.00    -0.387 OA
HETATM   23  H   UNK N   1      34.031  12.223  13.613  0.00  0.00     0.210 HD
ENDBRANCH   2  22
BRANCH   1  24
HETATM   24  C   UNK N   1      34.802  10.958  11.101  0.00  0.00     0.199 C 
BRANCH  24  25
HETATM   25  O   UNK N   1      33.767  10.739  12.013  0.00  0.00    -0.398 OA
HETATM   26  H   UNK N   1      32.855  10.555  11.739  0.00  0.00     0.209 HD
ENDBRANCH  24  25
ENDBRANCH   1  24
TORSDOF 12
ENDMDL
MODEL 9
REMARK VINA RESULT:      -5.3      4.453      6.198
REMARK  12 active torsions:
REMARK  status: ('A' for Active; 'I' for Inactive)
REMARK    1  A    between atoms: C_2  and  C_1 
REMARK    2  A    between atoms: C_4  and  C_1 
REMARK    3  A    between atoms: C_6  and  C_2 
REMARK    4  A    between atoms: C_5  and  C_3 
REMARK    5  A    between atoms: O_13  and  C_3 
REMARK    6  A    between atoms: C_8  and  C_4 
REMARK    7  A    between atoms: C_4  and  N_12 
REMARK    8  A    between atoms: O_20  and  C_6 
REMARK    9  A    between atoms: C_7  and  O_15 
REMARK   10  A    between atoms: O_17  and  C_8 
REMARK   11  A    between atoms: C_9  and  O_20 
REMARK   12  A    between atoms: C_10  and  O_18 
ROOT
HETATM    1  C   UNK N   1      20.403  16.678   6.587  0.00  0.00     0.183 C 
HETATM    2  C   UNK N   1      20.846  16.806   8.031  0.00  0.00     0.221 C 
HETATM    3  C   UNK N   1      20.732  14.570   7.350  0.00  0.00     0.340 C 
HETATM    4  C   UNK N   1      20.367  15.477   8.544  0.00  0.00     0.282 C 
HETATM    5  F   UNK N   1      20.962  15.128   9.744  0.00  0.00    -0.203 F 
HETATM    6  O   UNK N   1      20.816  15.389   6.190  0.00  0.00    -0.345 OA
ENDROOT
BRANCH   3   7
HETATM    7  O   UNK N   1      21.943  13.927   7.549  0.00  0.00    -0.284 OA
BRANCH   7   8
HETATM    8  C   UNK N   1      22.048  12.586   7.780  0.00  0.00     0.261 C 
HETATM    9  O   UNK N   1      21.123  11.852   7.476  0.00  0.00    -0.265 OA
BRANCH   8  10
HETATM   10  C   UNK N   1      23.287  11.994   8.406  0.00  0.00     0.114 C 
BRANCH  10  11
HETATM   11  C   UNK N   1      23.030  11.471   9.818  0.00  0.00     0.045 C 
BRANCH  11  12
HETATM   12  C   UNK N   1      23.552  12.404  10.912  0.00  0.00     0.173 C 
BRANCH  12  13
HETATM   13  C   UNK N   1      23.031  12.007  12.274  0.00  0.00     0.163 C 
HETATM   14  O   UNK N   1      23.726  12.134  13.268  0.00  0.00    -0.648 OA
BRANCH  13  15
HETATM   15  O   UNK N   1      21.778  11.527  12.400  0.00  0.00    -0.775 OA
HETATM   16  H   UNK N   1      21.189  11.497  11.671  0.00  0.00     0.167 HD
ENDBRANCH  13  15
ENDBRANCH  12  13
BRANCH  12  17
HETATM   17  N   UNK N   1      25.007  12.362  10.895  0.00  0.00    -0.418 N 
HETATM   18  H   UNK N   1      25.571  12.879  11.569  0.00  0.00     0.150 HD
HETATM   19  H   UNK N   1      25.477  11.796  10.188  0.00  0.00     0.150 HD
ENDBRANCH  12  17
ENDBRANCH  11  12
ENDBRANCH  10  11
ENDBRANCH   8  10
ENDBRANCH   7   8
ENDBRANCH   3   7
BRANCH   4  20
HETATM   20  O   UNK N   1      18.977  15.498   8.705  0.00  0.00    -0.356 OA
HETATM   21  H   UNK N   1      18.037  15.717   8.804  0.00  0.00     0.213 HD
ENDBRANCH   4  20
BRANCH   2  22
HETATM   22  O   UNK N   1      20.262  17.889   8.695  0.00  0.00    -0.387 OA
HETATM   23  H   UNK N   1      19.911  18.668   8.235  0.00  0.00     0.210 HD
ENDBRANCH   2  22
BRANCH   1  24
HETATM   24  C   UNK N   1      21.010  17.749   5.689  0.00  0.00     0.199 C 
BRANCH  24  25
HETATM   25  O   UNK N   1      21.779  18.635   6.447  0.00  0.00    -0.398 OA
HETATM   26  H   UNK N   1      21.627  19.593   6.449  0.00  0.00     0.209 HD
ENDBRANCH  24  25
ENDBRANCH   1  24
TORSDOF 12
ENDMDL
