MODEL 1
REMARK VINA RESULT:      -6.4      0.000      0.000
REMARK  8 active torsions:
REMARK  status: ('A' for Active; 'I' for Inactive)
REMARK    1  A    between atoms: C_2  and  N_1 
REMARK    2  A    between atoms: C_11  and  C_14 
REMARK    3  A    between atoms: C_12  and  O_15 
REMARK    4  A    between atoms: C_13  and  N_16 
REMARK    5  A    between atoms: C_14  and  O_17 
REMARK    6  A    between atoms: O_17  and  P_18 
REMARK    7  A    between atoms: P_18  and  O_19 
REMARK    8  A    between atoms: P_18  and  O_20 
ROOT
HETATM    1  C   UNK N   1      36.505  14.121  12.622  0.00  0.00     0.235 C 
HETATM    2  O   UNK N   1      35.610  15.172  12.356  0.00  0.00    -0.356 OA
HETATM    3  C   UNK N   1      36.894  13.523  11.289  0.00  0.00     0.088 C 
HETATM    4  C   UNK N   1      36.087  15.762  11.174  0.00  0.00     0.177 C 
HETATM    5  C   UNK N   1      36.824  14.706  10.369  0.00  0.00     0.153 C 
ENDROOT
BRANCH   1   6
HETATM    6  N   UNK N   1      35.923  13.112  13.526  0.00  0.00    -0.282 N 
HETATM    7  C   UNK N   1      36.288  13.054  14.859  0.00  0.00     0.330 A 
HETATM    8  N   UNK N   1      35.693  12.149  15.698  0.00  0.00    -0.295 N 
HETATM    9  O   UNK N   1      37.131  13.818  15.304  0.00  0.00    -0.246 OA
HETATM   10  C   UNK N   1      34.741  11.296  15.242  0.00  0.00     0.103 A 
ATOM     11  HN  UNK N   1      35.970  12.116  16.680  1.00  0.00     0.172 HD
HETATM   12  C   UNK N   1      34.366  11.326  13.905  0.00  0.00     0.065 A 
HETATM   13  C   UNK N   1      34.972  12.251  13.058  0.00  0.00     0.102 A 
BRANCH  10  14
HETATM   14  N   UNK N   1      34.123  10.391  16.127  0.00  0.00    -0.385 N 
HETATM   15  H   UNK N   1      34.648   9.682  16.564  0.00  0.00     0.157 HD
HETATM   16  H   UNK N   1      33.158  10.469  16.311  0.00  0.00     0.157 HD
ENDBRANCH  10  14
ENDBRANCH   1   6
BRANCH   4  17
HETATM   17  C   UNK N   1      34.913  16.344  10.390  0.00  0.00     0.215 C 
BRANCH  17  18
HETATM   18  O   UNK N   1      35.281  17.498   9.685  0.00  0.00    -0.294 OA
BRANCH  18  19
HETATM   19  P   UNK N   1      34.079  17.732   8.450  0.00  0.00     0.390 P 
HETATM   20  O   UNK N   1      34.792  16.441   7.965  0.00  0.00    -0.632 OA
BRANCH  19  21
HETATM   21  O   UNK N   1      35.195  19.063   8.474  0.00  0.00    -0.307 OA
HETATM   22  H   UNK N   1      34.994  19.982   8.240  0.00  0.00     0.222 HD
ENDBRANCH  19  21
BRANCH  19  23
HETATM   23  O   UNK N   1      34.586  18.147   6.843  0.00  0.00    -0.307 OA
HETATM   24  H   UNK N   1      35.204  18.875   6.671  0.00  0.00     0.222 HD
ENDBRANCH  19  23
ENDBRANCH  18  19
ENDBRANCH  17  18
ENDBRANCH   4  17
BRANCH   5  25
HETATM   25  O   UNK N   1      38.110  15.171  10.086  0.00  0.00    -0.393 OA
HETATM   26  H   UNK N   1      38.330  15.998   9.629  0.00  0.00     0.210 HD
ENDBRANCH   5  25
TORSDOF 8
ENDMDL
MODEL 2
REMARK VINA RESULT:      -6.3      5.399      7.836
REMARK  8 active torsions:
REMARK  status: ('A' for Active; 'I' for Inactive)
REMARK    1  A    between atoms: C_2  and  N_1 
REMARK    2  A    between atoms: C_11  and  C_14 
REMARK    3  A    between atoms: C_12  and  O_15 
REMARK    4  A    between atoms: C_13  and  N_16 
REMARK    5  A    between atoms: C_14  and  O_17 
REMARK    6  A    between atoms: O_17  and  P_18 
REMARK    7  A    between atoms: P_18  and  O_19 
REMARK    8  A    between atoms: P_18  and  O_20 
ROOT
HETATM    1  C   UNK N   1      32.201  16.339   7.092  0.00  0.00     0.235 C 
HETATM    2  O   UNK N   1      32.744  15.535   8.110  0.00  0.00    -0.356 OA
HETATM    3  C   UNK N   1      33.282  17.307   6.668  0.00  0.00     0.088 C 
HETATM    4  C   UNK N   1      34.082  15.332   7.733  0.00  0.00     0.177 C 
HETATM    5  C   UNK N   1      34.536  16.516   6.898  0.00  0.00     0.153 C 
ENDROOT
BRANCH   1   6
HETATM    6  N   UNK N   1      30.980  17.039   7.530  0.00  0.00    -0.282 N 
HETATM    7  C   UNK N   1      29.766  16.813   6.905  0.00  0.00     0.330 A 
HETATM    8  N   UNK N   1      28.630  17.428   7.363  0.00  0.00    -0.295 N 
HETATM    9  O   UNK N   1      29.692  16.055   5.951  0.00  0.00    -0.246 OA
HETATM   10  C   UNK N   1      28.672  18.264   8.431  0.00  0.00     0.103 A 
ATOM     11  HN  UNK N   1      27.741  17.254   6.895  1.00  0.00     0.172 HD
HETATM   12  C   UNK N   1      29.881  18.517   9.068  0.00  0.00     0.065 A 
HETATM   13  C   UNK N   1      31.031  17.887   8.599  0.00  0.00     0.102 A 
BRANCH  10  14
HETATM   14  N   UNK N   1      27.488  18.865   8.903  0.00  0.00    -0.385 N 
HETATM   15  H   UNK N   1      26.989  18.465   9.651  0.00  0.00     0.157 HD
HETATM   16  H   UNK N   1      27.159  19.692   8.481  0.00  0.00     0.157 HD
ENDBRANCH  10  14
ENDBRANCH   1   6
BRANCH   4  17
HETATM   17  C   UNK N   1      34.940  15.170   8.986  0.00  0.00     0.215 C 
BRANCH  17  18
HETATM   18  O   UNK N   1      34.274  15.627  10.132  0.00  0.00    -0.294 OA
BRANCH  18  19
HETATM   19  P   UNK N   1      35.503  16.022  11.299  0.00  0.00     0.390 P 
HETATM   20  O   UNK N   1      35.580  17.231  10.328  0.00  0.00    -0.632 OA
BRANCH  19  21
HETATM   21  O   UNK N   1      35.905  14.553  10.463  0.00  0.00    -0.307 OA
HETATM   22  H   UNK N   1      36.676  14.411   9.894  0.00  0.00     0.222 HD
ENDBRANCH  19  21
BRANCH  19  23
HETATM   23  O   UNK N   1      37.168  16.021  10.808  0.00  0.00    -0.307 OA
HETATM   24  H   UNK N   1      37.435  16.216   9.896  0.00  0.00     0.222 HD
ENDBRANCH  19  23
ENDBRANCH  18  19
ENDBRANCH  17  18
ENDBRANCH   4  17
BRANCH   5  25
HETATM   25  O   UNK N   1      35.036  16.045   5.683  0.00  0.00    -0.393 OA
HETATM   26  H   UNK N   1      35.606  15.269   5.563  0.00  0.00     0.210 HD
ENDBRANCH   5  25
TORSDOF 8
ENDMDL
MODEL 3
REMARK VINA RESULT:      -6.3      4.476      7.430
REMARK  8 active torsions:
REMARK  status: ('A' for Active; 'I' for Inactive)
REMARK    1  A    between atoms: C_2  and  N_1 
REMARK    2  A    between atoms: C_11  and  C_14 
REMARK    3  A    between atoms: C_12  and  O_15 
REMARK    4  A    between atoms: C_13  and  N_16 
REMARK    5  A    between atoms: C_14  and  O_17 
REMARK    6  A    between atoms: O_17  and  P_18 
REMARK    7  A    between atoms: P_18  and  O_19 
REMARK    8  A    between atoms: P_18  and  O_20 
ROOT
HETATM    1  C   UNK N   1      34.662  15.893   8.828  0.00  0.00     0.235 C 
HETATM    2  O   UNK N   1      34.485  14.612   9.380  0.00  0.00    -0.356 OA
HETATM    3  C   UNK N   1      34.981  16.828   9.972  0.00  0.00     0.088 C 
HETATM    4  C   UNK N   1      35.434  14.531  10.413  0.00  0.00     0.177 C 
HETATM    5  C   UNK N   1      35.706  15.932  10.933  0.00  0.00     0.153 C 
ENDROOT
BRANCH   1   6
HETATM    6  N   UNK N   1      33.478  16.338   8.071  0.00  0.00    -0.282 N 
HETATM    7  C   UNK N   1      33.612  17.061   6.899  0.00  0.00     0.330 A 
HETATM    8  N   UNK N   1      32.502  17.416   6.177  0.00  0.00    -0.295 N 
HETATM    9  O   UNK N   1      34.718  17.377   6.489  0.00  0.00    -0.246 OA
HETATM   10  C   UNK N   1      31.258  17.069   6.594  0.00  0.00     0.103 A 
ATOM     11  HN  UNK N   1      32.613  17.949   5.314  1.00  0.00     0.172 HD
HETATM   12  C   UNK N   1      31.097  16.353   7.775  0.00  0.00     0.065 A 
HETATM   13  C   UNK N   1      32.228  15.993   8.502  0.00  0.00     0.102 A 
BRANCH  10  14
HETATM   14  N   UNK N   1      30.133  17.420   5.824  0.00  0.00    -0.385 N 
HETATM   15  H   UNK N   1      29.234  17.422   6.225  0.00  0.00     0.157 HD
HETATM   16  H   UNK N   1      30.246  17.667   4.877  0.00  0.00     0.157 HD
ENDBRANCH  10  14
ENDBRANCH   1   6
BRANCH   4  17
HETATM   17  C   UNK N   1      34.903  13.619  11.516  0.00  0.00     0.215 C 
BRANCH  17  18
HETATM   18  O   UNK N   1      35.058  14.194  12.785  0.00  0.00    -0.294 OA
BRANCH  18  19
HETATM   19  P   UNK N   1      35.947  13.049  13.746  0.00  0.00     0.390 P 
HETATM   20  O   UNK N   1      34.648  13.227  14.577  0.00  0.00    -0.632 OA
BRANCH  19  21
HETATM   21  O   UNK N   1      36.808  14.553  13.641  0.00  0.00    -0.307 OA
HETATM   22  H   UNK N   1      37.728  14.706  13.905  0.00  0.00     0.222 HD
ENDBRANCH  19  21
BRANCH  19  23
HETATM   23  O   UNK N   1      36.545  13.531  15.302  0.00  0.00    -0.307 OA
HETATM   24  H   UNK N   1      36.031  13.400  16.113  0.00  0.00     0.222 HD
ENDBRANCH  19  23
ENDBRANCH  18  19
ENDBRANCH  17  18
ENDBRANCH   4  17
BRANCH   5  25
HETATM   25  O   UNK N   1      37.080  16.175  10.873  0.00  0.00    -0.393 OA
HETATM   26  H   UNK N   1      37.755  15.557  10.554  0.00  0.00     0.210 HD
ENDBRANCH   5  25
TORSDOF 8
ENDMDL
MODEL 4
REMARK VINA RESULT:      -6.1     17.761     20.482
REMARK  8 active torsions:
REMARK  status: ('A' for Active; 'I' for Inactive)
REMARK    1  A    between atoms: C_2  and  N_1 
REMARK    2  A    between atoms: C_11  and  C_14 
REMARK    3  A    between atoms: C_12  and  O_15 
REMARK    4  A    between atoms: C_13  and  N_16 
REMARK    5  A    between atoms: C_14  and  O_17 
REMARK    6  A    between atoms: O_17  and  P_18 
REMARK    7  A    between atoms: P_18  and  O_19 
REMARK    8  A    between atoms: P_18  and  O_20 
ROOT
HETATM    1  C   UNK N   1      28.778  24.148  -3.544  0.00  0.00     0.235 C 
HETATM    2  O   UNK N   1      27.457  23.857  -3.929  0.00  0.00    -0.356 OA
HETATM    3  C   UNK N   1      29.222  25.345  -4.352  0.00  0.00     0.088 C 
HETATM    4  C   UNK N   1      26.859  25.110  -4.143  0.00  0.00     0.177 C 
HETATM    5  C   UNK N   1      27.939  26.098  -4.550  0.00  0.00     0.153 C 
ENDROOT
BRANCH   1   6
HETATM    6  N   UNK N   1      29.677  22.995  -3.733  0.00  0.00    -0.282 N 
HETATM    7  C   UNK N   1      30.454  22.518  -2.692  0.00  0.00     0.330 A 
HETATM    8  N   UNK N   1      31.240  21.410  -2.870  0.00  0.00    -0.295 N 
HETATM    9  O   UNK N   1      30.437  23.071  -1.603  0.00  0.00    -0.246 OA
HETATM   10  C   UNK N   1      31.272  20.762  -4.062  0.00  0.00     0.103 A 
ATOM     11  HN  UNK N   1      31.809  21.068  -2.095  1.00  0.00     0.172 HD
HETATM   12  C   UNK N   1      30.511  21.228  -5.127  0.00  0.00     0.065 A 
HETATM   13  C   UNK N   1      29.712  22.353  -4.939  0.00  0.00     0.102 A 
BRANCH  10  14
HETATM   14  N   UNK N   1      32.067  19.609  -4.216  0.00  0.00    -0.385 N 
HETATM   15  H   UNK N   1      31.693  18.796  -4.628  0.00  0.00     0.157 HD
HETATM   16  H   UNK N   1      33.003  19.616  -3.909  0.00  0.00     0.157 HD
ENDBRANCH  10  14
ENDBRANCH   1   6
BRANCH   4  17
HETATM   17  C   UNK N   1      25.785  24.980  -5.220  0.00  0.00     0.215 C 
BRANCH  17  18
HETATM   18  O   UNK N   1      25.507  23.638  -5.514  0.00  0.00    -0.294 OA
BRANCH  18  19
HETATM   19  P   UNK N   1      25.948  23.390  -7.179  0.00  0.00     0.390 P 
HETATM   20  O   UNK N   1      25.320  24.810  -7.220  0.00  0.00    -0.632 OA
BRANCH  19  21
HETATM   21  O   UNK N   1      24.764  22.222  -6.682  0.00  0.00    -0.307 OA
HETATM   22  H   UNK N   1      23.915  22.413  -6.255  0.00  0.00     0.222 HD
ENDBRANCH  19  21
BRANCH  19  23
HETATM   23  O   UNK N   1      24.699  23.228  -8.372  0.00  0.00    -0.307 OA
HETATM   24  H   UNK N   1      23.928  22.655  -8.233  0.00  0.00     0.222 HD
ENDBRANCH  19  23
ENDBRANCH  18  19
ENDBRANCH  17  18
ENDBRANCH   4  17
BRANCH   5  25
HETATM   25  O   UNK N   1      27.890  27.197  -3.689  0.00  0.00    -0.393 OA
HETATM   26  H   UNK N   1      28.652  27.701  -3.363  0.00  0.00     0.210 HD
ENDBRANCH   5  25
TORSDOF 8
ENDMDL
MODEL 5
REMARK VINA RESULT:      -6.1      3.897      5.507
REMARK  8 active torsions:
REMARK  status: ('A' for Active; 'I' for Inactive)
REMARK    1  A    between atoms: C_2  and  N_1 
REMARK    2  A    between atoms: C_11  and  C_14 
REMARK    3  A    between atoms: C_12  and  O_15 
REMARK    4  A    between atoms: C_13  and  N_16 
REMARK    5  A    between atoms: C_14  and  O_17 
REMARK    6  A    between atoms: O_17  and  P_18 
REMARK    7  A    between atoms: P_18  and  O_19 
REMARK    8  A    between atoms: P_18  and  O_20 
ROOT
HETATM    1  C   UNK N   1      34.270  16.852   8.617  0.00  0.00     0.235 C 
HETATM    2  O   UNK N   1      32.934  17.242   8.817  0.00  0.00    -0.356 OA
HETATM    3  C   UNK N   1      34.335  16.164   7.273  0.00  0.00     0.088 C 
HETATM    4  C   UNK N   1      32.479  17.634   7.547  0.00  0.00     0.177 C 
HETATM    5  C   UNK N   1      33.263  16.869   6.494  0.00  0.00     0.153 C 
ENDROOT
BRANCH   1   6
HETATM    6  N   UNK N   1      34.762  15.983   9.701  0.00  0.00    -0.282 N 
HETATM    7  C   UNK N   1      35.627  16.468  10.667  0.00  0.00     0.330 A 
HETATM    8  N   UNK N   1      36.027  15.663  11.701  0.00  0.00    -0.295 N 
HETATM    9  O   UNK N   1      36.028  17.620  10.616  0.00  0.00    -0.246 OA
HETATM   10  C   UNK N   1      35.589  14.382  11.798  0.00  0.00     0.103 A 
ATOM     11  HN  UNK N   1      36.664  16.032  12.407  1.00  0.00     0.172 HD
HETATM   12  C   UNK N   1      34.730  13.868  10.834  0.00  0.00     0.065 A 
HETATM   13  C   UNK N   1      34.324  14.692   9.787  0.00  0.00     0.102 A 
BRANCH  10  14
HETATM   14  N   UNK N   1      35.992  13.579  12.883  0.00  0.00    -0.385 N 
HETATM   15  H   UNK N   1      36.678  13.898  13.512  0.00  0.00     0.157 HD
HETATM   16  H   UNK N   1      35.583  12.693  13.013  0.00  0.00     0.157 HD
ENDBRANCH  10  14
ENDBRANCH   1   6
BRANCH   4  17
HETATM   17  C   UNK N   1      30.982  17.356   7.440  0.00  0.00     0.215 C 
BRANCH  17  18
HETATM   18  O   UNK N   1      30.364  17.354   8.698  0.00  0.00    -0.294 OA
BRANCH  18  19
HETATM   19  P   UNK N   1      29.116  18.565   8.642  0.00  0.00     0.390 P 
HETATM   20  O   UNK N   1      29.445  18.511  10.159  0.00  0.00    -0.632 OA
BRANCH  19  21
HETATM   21  O   UNK N   1      28.502  17.033   8.104  0.00  0.00    -0.307 OA
HETATM   22  H   UNK N   1      28.848  16.160   8.347  0.00  0.00     0.222 HD
ENDBRANCH  19  21
BRANCH  19  23
HETATM   23  O   UNK N   1      27.574  18.227   9.362  0.00  0.00    -0.307 OA
HETATM   24  H   UNK N   1      26.956  18.933   9.608  0.00  0.00     0.222 HD
ENDBRANCH  19  23
ENDBRANCH  18  19
ENDBRANCH  17  18
ENDBRANCH   4  17
BRANCH   5  25
HETATM   25  O   UNK N   1      33.836  17.783   5.608  0.00  0.00    -0.393 OA
HETATM   26  H   UNK N   1      33.552  18.701   5.472  0.00  0.00     0.210 HD
ENDBRANCH   5  25
TORSDOF 8
ENDMDL
MODEL 6
REMARK VINA RESULT:      -6.1      4.157      5.521
REMARK  8 active torsions:
REMARK  status: ('A' for Active; 'I' for Inactive)
REMARK    1  A    between atoms: C_2  and  N_1 
REMARK    2  A    between atoms: C_11  and  C_14 
REMARK    3  A    between atoms: C_12  and  O_15 
REMARK    4  A    between atoms: C_13  and  N_16 
REMARK    5  A    between atoms: C_14  and  O_17 
REMARK    6  A    between atoms: O_17  and  P_18 
REMARK    7  A    between atoms: P_18  and  O_19 
REMARK    8  A    between atoms: P_18  and  O_20 
ROOT
HETATM    1  C   UNK N   1      35.349  13.577  15.962  0.00  0.00     0.235 C 
HETATM    2  O   UNK N   1      34.624  12.859  14.994  0.00  0.00    -0.356 OA
HETATM    3  C   UNK N   1      36.746  13.770  15.418  0.00  0.00     0.088 C 
HETATM    4  C   UNK N   1      35.085  13.351  13.761  0.00  0.00     0.177 C 
HETATM    5  C   UNK N   1      36.512  13.842  13.938  0.00  0.00     0.153 C 
ENDROOT
BRANCH   1   6
HETATM    6  N   UNK N   1      35.359  12.893  17.268  0.00  0.00    -0.282 N 
HETATM    7  C   UNK N   1      35.293  13.610  18.449  0.00  0.00     0.330 A 
HETATM    8  N   UNK N   1      35.244  12.955  19.652  0.00  0.00    -0.295 N 
HETATM    9  O   UNK N   1      35.263  14.831  18.432  0.00  0.00    -0.246 OA
HETATM   10  C   UNK N   1      35.259  11.599  19.708  0.00  0.00     0.103 A 
ATOM     11  HN  UNK N   1      35.195  13.494  20.516  1.00  0.00     0.172 HD
HETATM   12  C   UNK N   1      35.337  10.856  18.537  0.00  0.00     0.065 A 
HETATM   13  C   UNK N   1      35.383  11.528  17.318  0.00  0.00     0.102 A 
BRANCH  10  14
HETATM   14  N   UNK N   1      35.180  10.945  20.953  0.00  0.00    -0.385 N 
HETATM   15  H   UNK N   1      35.331   9.974  21.018  0.00  0.00     0.157 HD
HETATM   16  H   UNK N   1      34.974  11.463  21.765  0.00  0.00     0.157 HD
ENDBRANCH  10  14
ENDBRANCH   1   6
BRANCH   4  17
HETATM   17  C   UNK N   1      35.000  12.244  12.713  0.00  0.00     0.215 C 
BRANCH  17  18
HETATM   18  O   UNK N   1      35.299  10.988  13.260  0.00  0.00    -0.294 OA
BRANCH  18  19
HETATM   19  P   UNK N   1      34.536   9.805  12.238  0.00  0.00     0.390 P 
HETATM   20  O   UNK N   1      35.105  10.810  11.199  0.00  0.00    -0.632 OA
BRANCH  19  21
HETATM   21  O   UNK N   1      33.360  10.585  13.249  0.00  0.00    -0.307 OA
HETATM   22  H   UNK N   1      33.046  10.268  14.110  0.00  0.00     0.222 HD
ENDBRANCH  19  21
BRANCH  19  23
HETATM   23  O   UNK N   1      33.132  10.255  11.323  0.00  0.00    -0.307 OA
HETATM   24  H   UNK N   1      32.968  11.171  11.052  0.00  0.00     0.222 HD
ENDBRANCH  19  23
ENDBRANCH  18  19
ENDBRANCH  17  18
ENDBRANCH   4  17
BRANCH   5  25
HETATM   25  O   UNK N   1      36.589  15.166  13.503  0.00  0.00    -0.393 OA
HETATM   26  H   UNK N   1      37.391  15.625  13.209  0.00  0.00     0.210 HD
ENDBRANCH   5  25
TORSDOF 8
ENDMDL
MODEL 7
REMARK VINA RESULT:      -5.9      5.769      8.582
REMARK  8 active torsions:
REMARK  status: ('A' for Active; 'I' for Inactive)
REMARK    1  A    between atoms: C_2  and  N_1 
REMARK    2  A    between atoms: C_11  and  C_14 
REMARK    3  A    between atoms: C_12  and  O_15 
REMARK    4  A    between atoms: C_13  and  N_16 
REMARK    5  A    between atoms: C_14  and  O_17 
REMARK    6  A    between atoms: O_17  and  P_18 
REMARK    7  A    between atoms: P_18  and  O_19 
REMARK    8  A    between atoms: P_18  and  O_20 
ROOT
HETATM    1  C   UNK N   1      33.101  17.527   6.564  0.00  0.00     0.235 C 
HETATM    2  O   UNK N   1      33.765  16.322   6.854  0.00  0.00    -0.356 OA
HETATM    3  C   UNK N   1      33.022  18.312   7.853  0.00  0.00     0.088 C 
HETATM    4  C   UNK N   1      34.749  16.671   7.795  0.00  0.00     0.177 C 
HETATM    5  C   UNK N   1      34.269  17.886   8.570  0.00  0.00     0.153 C 
ENDROOT
BRANCH   1   6
HETATM    6  N   UNK N   1      31.766  17.297   5.980  0.00  0.00    -0.282 N 
HETATM    7  C   UNK N   1      31.546  17.447   4.622  0.00  0.00     0.330 A 
HETATM    8  N   UNK N   1      30.314  17.173   4.089  0.00  0.00    -0.295 N 
HETATM    9  O   UNK N   1      32.450  17.812   3.885  0.00  0.00    -0.246 OA
HETATM   10  C   UNK N   1      29.292  16.751   4.875  0.00  0.00     0.103 A 
ATOM     11  HN  UNK N   1      30.164  17.287   3.086  1.00  0.00     0.172 HD
HETATM   12  C   UNK N   1      29.484  16.604   6.244  0.00  0.00     0.065 A 
HETATM   13  C   UNK N   1      30.739  16.882   6.779  0.00  0.00     0.102 A 
BRANCH  10  14
HETATM   14  N   UNK N   1      28.041  16.448   4.303  0.00  0.00    -0.385 N 
HETATM   15  H   UNK N   1      27.219  16.863   4.651  0.00  0.00     0.157 HD
HETATM   16  H   UNK N   1      27.989  15.817   3.549  0.00  0.00     0.157 HD
ENDBRANCH  10  14
ENDBRANCH   1   6
BRANCH   4  17
HETATM   17  C   UNK N   1      35.008  15.484   8.719  0.00  0.00     0.215 C 
BRANCH  17  18
HETATM   18  O   UNK N   1      34.971  15.860  10.069  0.00  0.00    -0.294 OA
BRANCH  18  19
HETATM   19  P   UNK N   1      35.884  14.667  10.944  0.00  0.00     0.390 P 
HETATM   20  O   UNK N   1      34.605  14.795  11.815  0.00  0.00    -0.632 OA
BRANCH  19  21
HETATM   21  O   UNK N   1      36.739  16.178  10.902  0.00  0.00    -0.307 OA
HETATM   22  H   UNK N   1      36.592  16.935  11.490  0.00  0.00     0.222 HD
ENDBRANCH  19  21
BRANCH  19  23
HETATM   23  O   UNK N   1      36.518  15.065  12.510  0.00  0.00    -0.307 OA
HETATM   24  H   UNK N   1      36.688  15.982  12.777  0.00  0.00     0.222 HD
ENDBRANCH  19  23
ENDBRANCH  18  19
ENDBRANCH  17  18
ENDBRANCH   4  17
BRANCH   5  25
HETATM   25  O   UNK N   1      35.239  18.887   8.483  0.00  0.00    -0.393 OA
HETATM   26  H   UNK N   1      35.108  19.827   8.683  0.00  0.00     0.210 HD
ENDBRANCH   5  25
TORSDOF 8
ENDMDL
MODEL 8
REMARK VINA RESULT:      -5.9      2.467      3.489
REMARK  8 active torsions:
REMARK  status: ('A' for Active; 'I' for Inactive)
REMARK    1  A    between atoms: C_2  and  N_1 
REMARK    2  A    between atoms: C_11  and  C_14 
REMARK    3  A    between atoms: C_12  and  O_15 
REMARK    4  A    between atoms: C_13  and  N_16 
REMARK    5  A    between atoms: C_14  and  O_17 
REMARK    6  A    between atoms: O_17  and  P_18 
REMARK    7  A    between atoms: P_18  and  O_19 
REMARK    8  A    between atoms: P_18  and  O_20 
ROOT
HETATM    1  C   UNK N   1      35.598  13.433   9.330  0.00  0.00     0.235 C 
HETATM    2  O   UNK N   1      35.863  14.669   8.715  0.00  0.00    -0.356 OA
HETATM    3  C   UNK N   1      34.129  13.141   9.124  0.00  0.00     0.088 C 
HETATM    4  C   UNK N   1      35.066  14.674   7.558  0.00  0.00     0.177 C 
HETATM    5  C   UNK N   1      33.849  13.799   7.805  0.00  0.00     0.153 C 
ENDROOT
BRANCH   1   6
HETATM    6  N   UNK N   1      35.959  13.436  10.760  0.00  0.00    -0.282 N 
HETATM    7  C   UNK N   1      37.231  13.081  11.174  0.00  0.00     0.330 A 
HETATM    8  N   UNK N   1      37.568  13.147  12.501  0.00  0.00    -0.295 N 
HETATM    9  O   UNK N   1      38.070  12.722  10.362  0.00  0.00    -0.246 OA
HETATM   10  C   UNK N   1      36.667  13.557  13.429  0.00  0.00     0.103 A 
ATOM     11  HN  UNK N   1      38.509  12.883  12.794  1.00  0.00     0.172 HD
HETATM   12  C   UNK N   1      35.379  13.907  13.040  0.00  0.00     0.065 A 
HETATM   13  C   UNK N   1      35.045  13.841  11.690  0.00  0.00     0.102 A 
BRANCH  10  14
HETATM   14  N   UNK N   1      37.041  13.643  14.784  0.00  0.00    -0.385 N 
HETATM   15  H   UNK N   1      37.704  14.308  15.079  0.00  0.00     0.157 HD
HETATM   16  H   UNK N   1      36.635  13.032  15.443  0.00  0.00     0.157 HD
ENDBRANCH  10  14
ENDBRANCH   1   6
BRANCH   4  17
HETATM   17  C   UNK N   1      34.665  16.110   7.229  0.00  0.00     0.215 C 
BRANCH  17  18
HETATM   18  O   UNK N   1      33.547  16.519   7.969  0.00  0.00    -0.294 OA
BRANCH  18  19
HETATM   19  P   UNK N   1      33.655  18.249   8.120  0.00  0.00     0.390 P 
HETATM   20  O   UNK N   1      34.485  17.985   6.835  0.00  0.00    -0.632 OA
BRANCH  19  21
HETATM   21  O   UNK N   1      34.394  17.471   9.486  0.00  0.00    -0.307 OA
HETATM   22  H   UNK N   1      34.980  17.889  10.135  0.00  0.00     0.222 HD
ENDBRANCH  19  21
BRANCH  19  23
HETATM   23  O   UNK N   1      35.187  18.973   8.493  0.00  0.00    -0.307 OA
HETATM   24  H   UNK N   1      35.907  18.469   8.903  0.00  0.00     0.222 HD
ENDBRANCH  19  23
ENDBRANCH  18  19
ENDBRANCH  17  18
ENDBRANCH   4  17
BRANCH   5  25
HETATM   25  O   UNK N   1      33.774  12.838   6.795  0.00  0.00    -0.393 OA
HETATM   26  H   UNK N   1      32.965  12.415   6.469  0.00  0.00     0.210 HD
ENDBRANCH   5  25
TORSDOF 8
ENDMDL
MODEL 9
REMARK VINA RESULT:      -5.8     15.203     17.111
REMARK  8 active torsions:
REMARK  status: ('A' for Active; 'I' for Inactive)
REMARK    1  A    between atoms: C_2  and  N_1 
REMARK    2  A    between atoms: C_11  and  C_14 
REMARK    3  A    between atoms: C_12  and  O_15 
REMARK    4  A    between atoms: C_13  and  N_16 
REMARK    5  A    between atoms: C_14  and  O_17 
REMARK    6  A    between atoms: O_17  and  P_18 
REMARK    7  A    between atoms: P_18  and  O_19 
REMARK    8  A    between atoms: P_18  and  O_20 
ROOT
HETATM    1  C   UNK N   1      21.671  18.519   4.235  0.00  0.00     0.235 C 
HETATM    2  O   UNK N   1      21.641  17.882   5.489  0.00  0.00    -0.356 OA
HETATM    3  C   UNK N   1      21.178  17.517   3.217  0.00  0.00     0.088 C 
HETATM    4  C   UNK N   1      20.491  17.076   5.456  0.00  0.00     0.177 C 
HETATM    5  C   UNK N   1      20.208  16.694   4.013  0.00  0.00     0.153 C 
ENDROOT
BRANCH   1   6
HETATM    6  N   UNK N   1      23.016  19.022   3.901  0.00  0.00    -0.282 N 
HETATM    7  C   UNK N   1      23.180  20.199   3.191  0.00  0.00     0.330 A 
HETATM    8  N   UNK N   1      24.438  20.683   2.940  0.00  0.00    -0.295 N 
HETATM    9  O   UNK N   1      22.209  20.824   2.794  0.00  0.00    -0.246 OA
HETATM   10  C   UNK N   1      25.539  20.023   3.380  0.00  0.00     0.103 A 
ATOM     11  HN  UNK N   1      24.547  21.551   2.416  1.00  0.00     0.172 HD
HETATM   12  C   UNK N   1      25.401  18.834   4.085  0.00  0.00     0.065 A 
HETATM   13  C   UNK N   1      24.120  18.349   4.339  0.00  0.00     0.102 A 
BRANCH  10  14
HETATM   14  N   UNK N   1      26.822  20.552   3.135  0.00  0.00    -0.385 N 
HETATM   15  H   UNK N   1      27.010  21.503   3.302  0.00  0.00     0.157 HD
HETATM   16  H   UNK N   1      27.535  19.964   2.794  0.00  0.00     0.157 HD
ENDBRANCH  10  14
ENDBRANCH   1   6
BRANCH   4  17
HETATM   17  C   UNK N   1      20.715  15.842   6.327  0.00  0.00     0.215 C 
BRANCH  17  18
HETATM   18  O   UNK N   1      19.643  15.624   7.203  0.00  0.00    -0.294 OA
BRANCH  18  19
HETATM   19  P   UNK N   1      20.333  15.184   8.738  0.00  0.00     0.390 P 
HETATM   20  O   UNK N   1      20.269  13.815   8.008  0.00  0.00    -0.632 OA
BRANCH  19  21
HETATM   21  O   UNK N   1      18.735  15.828   8.951  0.00  0.00    -0.307 OA
HETATM   22  H   UNK N   1      17.960  15.342   9.272  0.00  0.00     0.222 HD
ENDBRANCH  19  21
BRANCH  19  23
HETATM   23  O   UNK N   1      19.410  14.204   9.832  0.00  0.00    -0.307 OA
HETATM   24  H   UNK N   1      18.661  13.665   9.533  0.00  0.00     0.222 HD
ENDBRANCH  19  23
ENDBRANCH  18  19
ENDBRANCH  17  18
ENDBRANCH   4  17
BRANCH   5  25
HETATM   25  O   UNK N   1      18.898  17.060   3.700  0.00  0.00    -0.393 OA
HETATM   26  H   UNK N   1      18.612  17.527   2.900  0.00  0.00     0.210 HD
ENDBRANCH   5  25
TORSDOF 8
ENDMDL
