MODEL 1
REMARK VINA RESULT:      -4.1      0.000      0.000
REMARK  3 active torsions:
REMARK  status: ('A' for Active; 'I' for Inactive)
REMARK    1  A    between atoms: C_2  and  C_3 
REMARK    2  A    between atoms: C_3  and  C_5 
REMARK    3  A    between atoms: C_5  and  O_6 
ROOT
HETATM    1  C   UNK N   1      23.059  12.104  11.471  0.00  0.00     0.079 C 
HETATM    2  C   UNK N   1      23.140  11.869  12.966  0.00  0.00     0.021 C 
ENDROOT
BRANCH   1   3
HETATM    3  C   UNK N   1      21.643  12.185  10.883  0.00  0.00     0.010 C 
HETATM    4  C   UNK N   1      21.339  13.437  10.082  0.00  0.00     0.006 C 
ENDBRANCH   1   3
BRANCH   1   5
HETATM    5  C   UNK N   1      24.361  12.233  10.713  0.00  0.00     0.143 C 
HETATM    6  O   UNK N   1      24.457  11.851   9.560  0.00  0.00    -0.650 OA
BRANCH   5   7
HETATM    7  O   UNK N   1      25.433  12.780  11.321  0.00  0.00    -0.776 OA
HETATM    8  H   UNK N   1      25.313  13.400  12.013  0.00  0.00     0.167 HD
ENDBRANCH   5   7
ENDBRANCH   1   5
TORSDOF 3
ENDMDL
MODEL 2
REMARK VINA RESULT:      -4.1      1.379      2.039
REMARK  3 active torsions:
REMARK  status: ('A' for Active; 'I' for Inactive)
REMARK    1  A    between atoms: C_2  and  C_3 
REMARK    2  A    between atoms: C_3  and  C_5 
REMARK    3  A    between atoms: C_5  and  O_6 
ROOT
HETATM    1  C   UNK N   1      22.748  11.956  10.970  0.00  0.00     0.079 C 
HETATM    2  C   UNK N   1      23.168  11.440   9.609  0.00  0.00     0.021 C 
ENDROOT
BRANCH   1   3
HETATM    3  C   UNK N   1      21.258  12.288  11.129  0.00  0.00     0.010 C 
HETATM    4  C   UNK N   1      20.720  13.347  10.185  0.00  0.00     0.006 C 
ENDBRANCH   1   3
BRANCH   1   5
HETATM    5  C   UNK N   1      23.821  12.092  12.028  0.00  0.00     0.143 C 
HETATM    6  O   UNK N   1      23.552  12.002  13.212  0.00  0.00    -0.650 OA
BRANCH   5   7
HETATM    7  O   UNK N   1      25.098  12.315  11.654  0.00  0.00    -0.776 OA
HETATM    8  H   UNK N   1      25.499  11.769  11.008  0.00  0.00     0.167 HD
ENDBRANCH   5   7
ENDBRANCH   1   5
TORSDOF 3
ENDMDL
MODEL 3
REMARK VINA RESULT:      -3.7      1.754      2.439
REMARK  3 active torsions:
REMARK  status: ('A' for Active; 'I' for Inactive)
REMARK    1  A    between atoms: C_2  and  C_3 
REMARK    2  A    between atoms: C_3  and  C_5 
REMARK    3  A    between atoms: C_5  and  O_6 
ROOT
HETATM    1  C   UNK N   1      22.601  12.264  10.898  0.00  0.00     0.079 C 
HETATM    2  C   UNK N   1      21.115  12.260  11.198  0.00  0.00     0.021 C 
ENDROOT
BRANCH   1   3
HETATM    3  C   UNK N   1      22.985  12.463   9.426  0.00  0.00     0.010 C 
HETATM    4  C   UNK N   1      23.494  11.225   8.710  0.00  0.00     0.006 C 
ENDBRANCH   1   3
BRANCH   1   5
HETATM    5  C   UNK N   1      23.549  12.076  12.061  0.00  0.00     0.143 C 
HETATM    6  O   UNK N   1      23.132  11.813  13.176  0.00  0.00    -0.650 OA
BRANCH   5   7
HETATM    7  O   UNK N   1      24.877  12.200  11.864  0.00  0.00    -0.776 OA
HETATM    8  H   UNK N   1      25.232  12.111  11.001  0.00  0.00     0.167 HD
ENDBRANCH   5   7
ENDBRANCH   1   5
TORSDOF 3
ENDMDL
MODEL 4
REMARK VINA RESULT:      -3.7     11.009     12.232
REMARK  3 active torsions:
REMARK  status: ('A' for Active; 'I' for Inactive)
REMARK    1  A    between atoms: C_2  and  C_3 
REMARK    2  A    between atoms: C_3  and  C_5 
REMARK    3  A    between atoms: C_5  and  O_6 
ROOT
HETATM    1  C   UNK N   1      33.510  17.905   7.846  0.00  0.00     0.079 C 
HETATM    2  C   UNK N   1      33.710  17.551   6.386  0.00  0.00     0.021 C 
ENDROOT
BRANCH   1   3
HETATM    3  C   UNK N   1      32.063  17.850   8.355  0.00  0.00     0.010 C 
HETATM    4  C   UNK N   1      31.181  16.800   7.707  0.00  0.00     0.006 C 
ENDBRANCH   1   3
BRANCH   1   5
HETATM    5  C   UNK N   1      34.737  18.273   8.650  0.00  0.00     0.143 C 
HETATM    6  O   UNK N   1      35.344  19.306   8.433  0.00  0.00    -0.650 OA
BRANCH   5   7
HETATM    7  O   UNK N   1      35.167  17.444   9.623  0.00  0.00    -0.776 OA
HETATM    8  H   UNK N   1      34.581  16.816   9.997  0.00  0.00     0.167 HD
ENDBRANCH   5   7
ENDBRANCH   1   5
TORSDOF 3
ENDMDL
MODEL 5
REMARK VINA RESULT:      -3.7     11.218     12.433
REMARK  3 active torsions:
REMARK  status: ('A' for Active; 'I' for Inactive)
REMARK    1  A    between atoms: C_2  and  C_3 
REMARK    2  A    between atoms: C_3  and  C_5 
REMARK    3  A    between atoms: C_5  and  O_6 
ROOT
HETATM    1  C   UNK N   1      33.496  17.711   7.466  0.00  0.00     0.079 C 
HETATM    2  C   UNK N   1      32.031  17.619   7.839  0.00  0.00     0.021 C 
ENDROOT
BRANCH   1   3
HETATM    3  C   UNK N   1      33.839  17.367   6.010  0.00  0.00     0.010 C 
HETATM    4  C   UNK N   1      32.686  17.457   5.028  0.00  0.00     0.006 C 
ENDBRANCH   1   3
BRANCH   1   5
HETATM    5  C   UNK N   1      34.468  18.126   8.548  0.00  0.00     0.143 C 
HETATM    6  O   UNK N   1      35.218  19.072   8.390  0.00  0.00    -0.650 OA
BRANCH   5   7
HETATM    7  O   UNK N   1      34.505  17.439   9.708  0.00  0.00    -0.776 OA
HETATM    8  H   UNK N   1      33.999  17.729  10.441  0.00  0.00     0.167 HD
ENDBRANCH   5   7
ENDBRANCH   1   5
TORSDOF 3
ENDMDL
MODEL 6
REMARK VINA RESULT:      -3.7     21.379     22.412
REMARK  3 active torsions:
REMARK  status: ('A' for Active; 'I' for Inactive)
REMARK    1  A    between atoms: C_2  and  C_3 
REMARK    2  A    between atoms: C_3  and  C_5 
REMARK    3  A    between atoms: C_5  and  O_6 
ROOT
HETATM    1  C   UNK N   1      25.997  27.954  -5.214  0.00  0.00     0.079 C 
HETATM    2  C   UNK N   1      27.201  28.413  -6.011  0.00  0.00     0.021 C 
ENDROOT
BRANCH   1   3
HETATM    3  C   UNK N   1      25.079  26.941  -5.911  0.00  0.00     0.010 C 
HETATM    4  C   UNK N   1      25.435  25.481  -5.698  0.00  0.00     0.006 C 
ENDBRANCH   1   3
BRANCH   1   5
HETATM    5  C   UNK N   1      25.818  28.529  -3.827  0.00  0.00     0.143 C 
HETATM    6  O   UNK N   1      25.510  27.819  -2.886  0.00  0.00    -0.650 OA
BRANCH   5   7
HETATM    7  O   UNK N   1      26.001  29.850  -3.626  0.00  0.00    -0.776 OA
HETATM    8  H   UNK N   1      25.286  30.384  -3.338  0.00  0.00     0.167 HD
ENDBRANCH   5   7
ENDBRANCH   1   5
TORSDOF 3
ENDMDL
MODEL 7
REMARK VINA RESULT:      -3.7     10.832     11.763
REMARK  3 active torsions:
REMARK  status: ('A' for Active; 'I' for Inactive)
REMARK    1  A    between atoms: C_2  and  C_3 
REMARK    2  A    between atoms: C_3  and  C_5 
REMARK    3  A    between atoms: C_5  and  O_6 
ROOT
HETATM    1  C   UNK N   1      33.237  17.439   8.499  0.00  0.00     0.079 C 
HETATM    2  C   UNK N   1      33.673  16.226   9.294  0.00  0.00     0.021 C 
ENDROOT
BRANCH   1   3
HETATM    3  C   UNK N   1      31.738  17.764   8.542  0.00  0.00     0.010 C 
HETATM    4  C   UNK N   1      30.919  17.227   7.383  0.00  0.00     0.006 C 
ENDBRANCH   1   3
BRANCH   1   5
HETATM    5  C   UNK N   1      34.306  18.204   7.750  0.00  0.00     0.143 C 
HETATM    6  O   UNK N   1      34.504  18.009   6.564  0.00  0.00    -0.650 OA
BRANCH   5   7
HETATM    7  O   UNK N   1      35.052  19.117   8.404  0.00  0.00    -0.776 OA
HETATM    8  H   UNK N   1      35.408  18.914   9.246  0.00  0.00     0.167 HD
ENDBRANCH   5   7
ENDBRANCH   1   5
TORSDOF 3
ENDMDL
MODEL 8
REMARK VINA RESULT:      -3.6     13.269     14.099
REMARK  3 active torsions:
REMARK  status: ('A' for Active; 'I' for Inactive)
REMARK    1  A    between atoms: C_2  and  C_3 
REMARK    2  A    between atoms: C_3  and  C_5 
REMARK    3  A    between atoms: C_5  and  O_6 
ROOT
HETATM    1  C   UNK N   1      36.093  13.171  15.870  0.00  0.00     0.079 C 
HETATM    2  C   UNK N   1      36.525  11.755  15.549  0.00  0.00     0.021 C 
ENDROOT
BRANCH   1   3
HETATM    3  C   UNK N   1      34.881  13.306  16.802  0.00  0.00     0.010 C 
HETATM    4  C   UNK N   1      35.200  13.367  18.284  0.00  0.00     0.006 C 
ENDBRANCH   1   3
BRANCH   1   5
HETATM    5  C   UNK N   1      36.887  14.300  15.251  0.00  0.00     0.143 C 
HETATM    6  O   UNK N   1      37.565  15.042  15.938  0.00  0.00    -0.650 OA
BRANCH   5   7
HETATM    7  O   UNK N   1      36.843  14.490  13.917  0.00  0.00    -0.776 OA
HETATM    8  H   UNK N   1      37.475  15.044  13.502  0.00  0.00     0.167 HD
ENDBRANCH   5   7
ENDBRANCH   1   5
TORSDOF 3
ENDMDL
MODEL 9
REMARK VINA RESULT:      -3.6     12.804     13.549
REMARK  3 active torsions:
REMARK  status: ('A' for Active; 'I' for Inactive)
REMARK    1  A    between atoms: C_2  and  C_3 
REMARK    2  A    between atoms: C_3  and  C_5 
REMARK    3  A    between atoms: C_5  and  O_6 
ROOT
HETATM    1  C   UNK N   1      36.310  13.772  15.142  0.00  0.00     0.079 C 
HETATM    2  C   UNK N   1      37.189  14.884  15.677  0.00  0.00     0.021 C 
ENDROOT
BRANCH   1   3
HETATM    3  C   UNK N   1      35.823  12.748  16.176  0.00  0.00     0.010 C 
HETATM    4  C   UNK N   1      35.054  13.320  17.352  0.00  0.00     0.006 C 
ENDBRANCH   1   3
BRANCH   1   5
HETATM    5  C   UNK N   1      36.000  13.779  13.662  0.00  0.00     0.143 C 
HETATM    6  O   UNK N   1      34.859  13.642  13.257  0.00  0.00    -0.650 OA
BRANCH   5   7
HETATM    7  O   UNK N   1      37.003  13.937  12.773  0.00  0.00    -0.776 OA
HETATM    8  H   UNK N   1      37.414  13.187  12.393  0.00  0.00     0.167 HD
ENDBRANCH   5   7
ENDBRANCH   1   5
TORSDOF 3
ENDMDL
