MODEL 1
REMARK VINA RESULT:      -4.5      0.000      0.000
REMARK  1 active torsions:
REMARK  status: ('A' for Active; 'I' for Inactive)
REMARK    1  A    between atoms: N_1  and  C_2 
ROOT
HETATM    1  C   UNK N   1      44.394  22.179   3.602  0.00  0.00     0.110 A 
HETATM    2  C   UNK N   1      43.650  21.007   3.491  0.00  0.00     0.127 A 
HETATM    3  N   UNK N   1      42.409  21.036   2.943  0.00  0.00    -0.316 N 
HETATM    4  C   UNK N   1      41.870  22.213   2.492  0.00  0.00     0.327 A 
HETATM    5  O   UNK N   1      40.755  22.223   2.003  0.00  0.00    -0.247 OA
HETATM    6  N   UNK N   1      42.584  23.378   2.591  0.00  0.00    -0.274 N 
HETATM    7  C   UNK N   1      43.839  23.379   3.140  0.00  0.00     0.277 A 
HETATM    8  O   UNK N   1      44.462  24.423   3.221  0.00  0.00    -0.266 OA
HETATM    9  H   UNK N   1      41.890  20.204   2.868  0.00  0.00     0.170 HD
HETATM   10  H   UNK N   1      42.192  24.220   2.266  0.00  0.00     0.173 HD
ENDROOT
BRANCH   1  11
HETATM   11  N   UNK N   1      45.685  22.142   4.172  0.00  0.00    -0.394 N 
HETATM   12  H   UNK N   1      46.270  21.365   4.016  0.00  0.00     0.156 HD
HETATM   13  H   UNK N   1      45.999  22.893   4.727  0.00  0.00     0.156 HD
ENDBRANCH   1  11
TORSDOF 1
ENDMDL
MODEL 2
REMARK VINA RESULT:      -4.4     22.587     23.098
REMARK  1 active torsions:
REMARK  status: ('A' for Active; 'I' for Inactive)
REMARK    1  A    between atoms: N_1  and  C_2 
ROOT
HETATM    1  C   UNK N   1      20.208  18.234   3.064  0.00  0.00     0.110 A 
HETATM    2  C   UNK N   1      20.046  17.941   1.712  0.00  0.00     0.127 A 
HETATM    3  N   UNK N   1      20.356  18.869   0.771  0.00  0.00    -0.316 N 
HETATM    4  C   UNK N   1      20.833  20.102   1.132  0.00  0.00     0.327 A 
HETATM    5  O   UNK N   1      21.107  20.922   0.276  0.00  0.00    -0.247 OA
HETATM    6  N   UNK N   1      21.000  20.412   2.456  0.00  0.00    -0.274 N 
HETATM    7  C   UNK N   1      20.695  19.496   3.429  0.00  0.00     0.277 A 
HETATM    8  O   UNK N   1      20.850  19.787   4.602  0.00  0.00    -0.266 OA
HETATM    9  H   UNK N   1      20.239  18.653  -0.182  0.00  0.00     0.170 HD
HETATM   10  H   UNK N   1      21.342  21.298   2.711  0.00  0.00     0.173 HD
ENDROOT
BRANCH   1  11
HETATM   11  N   UNK N   1      19.883  17.266   4.037  0.00  0.00    -0.394 N 
HETATM   12  H   UNK N   1      19.002  17.287   4.477  0.00  0.00     0.156 HD
HETATM   13  H   UNK N   1      20.538  16.570   4.277  0.00  0.00     0.156 HD
ENDBRANCH   1  11
TORSDOF 1
ENDMDL
MODEL 3
REMARK VINA RESULT:      -4.3     11.106     11.910
REMARK  1 active torsions:
REMARK  status: ('A' for Active; 'I' for Inactive)
REMARK    1  A    between atoms: N_1  and  C_2 
ROOT
HETATM    1  C   UNK N   1      34.371  17.149   9.254  0.00  0.00     0.110 A 
HETATM    2  C   UNK N   1      33.529  16.073   8.985  0.00  0.00     0.127 A 
HETATM    3  N   UNK N   1      32.859  16.010   7.806  0.00  0.00    -0.316 N 
HETATM    4  C   UNK N   1      32.999  16.997   6.866  0.00  0.00     0.327 A 
HETATM    5  O   UNK N   1      32.391  16.925   5.815  0.00  0.00    -0.247 OA
HETATM    6  N   UNK N   1      33.823  18.065   7.110  0.00  0.00    -0.274 N 
HETATM    7  C   UNK N   1      34.512  18.156   8.290  0.00  0.00     0.277 A 
HETATM    8  O   UNK N   1      35.241  19.111   8.492  0.00  0.00    -0.266 OA
HETATM    9  H   UNK N   1      32.265  15.246   7.624  0.00  0.00     0.170 HD
HETATM   10  H   UNK N   1      33.920  18.771   6.432  0.00  0.00     0.173 HD
ENDROOT
BRANCH   1  11
HETATM   11  N   UNK N   1      35.065  17.209  10.481  0.00  0.00    -0.394 N 
HETATM   12  H   UNK N   1      34.566  17.195  11.330  0.00  0.00     0.156 HD
HETATM   13  H   UNK N   1      36.048  17.266  10.488  0.00  0.00     0.156 HD
ENDBRANCH   1  11
TORSDOF 1
ENDMDL
MODEL 4
REMARK VINA RESULT:      -4.2     22.671     24.131
REMARK  1 active torsions:
REMARK  status: ('A' for Active; 'I' for Inactive)
REMARK    1  A    between atoms: N_1  and  C_2 
ROOT
HETATM    1  C   UNK N   1      21.839  12.222  11.166  0.00  0.00     0.110 A 
HETATM    2  C   UNK N   1      23.091  12.035  11.747  0.00  0.00     0.127 A 
HETATM    3  N   UNK N   1      24.212  12.433  11.094  0.00  0.00    -0.316 N 
HETATM    4  C   UNK N   1      24.132  13.022   9.859  0.00  0.00     0.327 A 
HETATM    5  O   UNK N   1      25.147  13.373   9.286  0.00  0.00    -0.247 OA
HETATM    6  N   UNK N   1      22.911  13.216   9.269  0.00  0.00    -0.274 N 
HETATM    7  C   UNK N   1      21.762  12.825   9.904  0.00  0.00     0.277 A 
HETATM    8  O   UNK N   1      20.683  13.004   9.366  0.00  0.00    -0.266 OA
HETATM    9  H   UNK N   1      25.093  12.297  11.511  0.00  0.00     0.170 HD
HETATM   10  H   UNK N   1      22.859  13.639   8.382  0.00  0.00     0.173 HD
ENDROOT
BRANCH   1  11
HETATM   11  N   UNK N   1      20.677  11.806  11.850  0.00  0.00    -0.394 N 
HETATM   12  H   UNK N   1      20.711  11.023  12.446  0.00  0.00     0.156 HD
HETATM   13  H   UNK N   1      19.833  12.299  11.731  0.00  0.00     0.156 HD
ENDBRANCH   1  11
TORSDOF 1
ENDMDL
MODEL 5
REMARK VINA RESULT:      -4.2     23.530     24.651
REMARK  1 active torsions:
REMARK  status: ('A' for Active; 'I' for Inactive)
REMARK    1  A    between atoms: N_1  and  C_2 
ROOT
HETATM    1  C   UNK N   1      22.419  12.560   9.896  0.00  0.00     0.110 A 
HETATM    2  C   UNK N   1      23.779  12.553  10.193  0.00  0.00     0.127 A 
HETATM    3  N   UNK N   1      24.198  12.310  11.462  0.00  0.00    -0.316 N 
HETATM    4  C   UNK N   1      23.296  12.070  12.464  0.00  0.00     0.327 A 
HETATM    5  O   UNK N   1      23.688  11.854  13.596  0.00  0.00    -0.247 OA
HETATM    6  N   UNK N   1      21.952  12.072  12.194  0.00  0.00    -0.274 N 
HETATM    7  C   UNK N   1      21.499  12.313  10.924  0.00  0.00     0.277 A 
HETATM    8  O   UNK N   1      20.302  12.312  10.699  0.00  0.00    -0.266 OA
HETATM    9  H   UNK N   1      25.162  12.307  11.663  0.00  0.00     0.170 HD
HETATM   10  H   UNK N   1      21.309  11.899  12.917  0.00  0.00     0.173 HD
ENDROOT
BRANCH   1  11
HETATM   11  N   UNK N   1      21.989  12.812   8.576  0.00  0.00    -0.394 N 
HETATM   12  H   UNK N   1      21.626  12.079   8.027  0.00  0.00     0.156 HD
HETATM   13  H   UNK N   1      22.052  13.722   8.203  0.00  0.00     0.156 HD
ENDBRANCH   1  11
TORSDOF 1
ENDMDL
MODEL 6
REMARK VINA RESULT:      -4.1     22.791     24.084
REMARK  1 active torsions:
REMARK  status: ('A' for Active; 'I' for Inactive)
REMARK    1  A    between atoms: N_1  and  C_2 
ROOT
HETATM    1  C   UNK N   1      23.758  12.321  10.849  0.00  0.00     0.110 A 
HETATM    2  C   UNK N   1      22.838  11.809  11.761  0.00  0.00     0.127 A 
HETATM    3  N   UNK N   1      21.512  12.046  11.598  0.00  0.00    -0.316 N 
HETATM    4  C   UNK N   1      21.057  12.788  10.539  0.00  0.00     0.327 A 
HETATM    5  O   UNK N   1      19.865  12.991  10.407  0.00  0.00    -0.247 OA
HETATM    6  N   UNK N   1      21.944  13.301   9.630  0.00  0.00    -0.274 N 
HETATM    7  C   UNK N   1      23.289  13.079   9.768  0.00  0.00     0.277 A 
HETATM    8  O   UNK N   1      24.065  13.542   8.951  0.00  0.00    -0.266 OA
HETATM    9  H   UNK N   1      20.869  11.680  12.247  0.00  0.00     0.170 HD
HETATM   10  H   UNK N   1      21.613  13.833   8.871  0.00  0.00     0.173 HD
ENDROOT
BRANCH   1  11
HETATM   11  N   UNK N   1      25.136  12.072  11.024  0.00  0.00    -0.394 N 
HETATM   12  H   UNK N   1      25.724  11.989  10.239  0.00  0.00     0.156 HD
HETATM   13  H   UNK N   1      25.508  11.981  11.931  0.00  0.00     0.156 HD
ENDBRANCH   1  11
TORSDOF 1
ENDMDL
MODEL 7
REMARK VINA RESULT:      -4.1     11.386     12.493
REMARK  1 active torsions:
REMARK  status: ('A' for Active; 'I' for Inactive)
REMARK    1  A    between atoms: N_1  and  C_2 
ROOT
HETATM    1  C   UNK N   1      33.659  15.804   9.525  0.00  0.00     0.110 A 
HETATM    2  C   UNK N   1      33.000  15.489   8.339  0.00  0.00     0.127 A 
HETATM    3  N   UNK N   1      33.211  16.233   7.224  0.00  0.00    -0.316 N 
HETATM    4  C   UNK N   1      34.071  17.300   7.246  0.00  0.00     0.327 A 
HETATM    5  O   UNK N   1      34.249  17.957   6.237  0.00  0.00    -0.247 OA
HETATM    6  N   UNK N   1      34.730  17.627   8.402  0.00  0.00    -0.274 N 
HETATM    7  C   UNK N   1      34.538  16.895   9.543  0.00  0.00     0.277 A 
HETATM    8  O   UNK N   1      35.131  17.198  10.563  0.00  0.00    -0.266 OA
HETATM    9  H   UNK N   1      32.741  16.005   6.390  0.00  0.00     0.170 HD
HETATM   10  H   UNK N   1      35.347  18.394   8.412  0.00  0.00     0.173 HD
ENDROOT
BRANCH   1  11
HETATM   11  N   UNK N   1      33.436  15.026  10.682  0.00  0.00    -0.394 N 
HETATM   12  H   UNK N   1      33.640  15.397  11.571  0.00  0.00     0.156 HD
HETATM   13  H   UNK N   1      33.076  14.113  10.599  0.00  0.00     0.156 HD
ENDBRANCH   1  11
TORSDOF 1
ENDMDL
MODEL 8
REMARK VINA RESULT:      -4.1     12.889     13.869
REMARK  1 active torsions:
REMARK  status: ('A' for Active; 'I' for Inactive)
REMARK    1  A    between atoms: N_1  and  C_2 
ROOT
HETATM    1  C   UNK N   1      34.788  14.008  11.527  0.00  0.00     0.110 A 
HETATM    2  C   UNK N   1      33.899  14.747  10.751  0.00  0.00     0.127 A 
HETATM    3  N   UNK N   1      34.230  15.997  10.339  0.00  0.00    -0.316 N 
HETATM    4  C   UNK N   1      35.438  16.550  10.678  0.00  0.00     0.327 A 
HETATM    5  O   UNK N   1      35.720  17.672  10.301  0.00  0.00    -0.247 OA
HETATM    6  N   UNK N   1      36.327  15.841  11.442  0.00  0.00    -0.274 N 
HETATM    7  C   UNK N   1      36.021  14.577  11.872  0.00  0.00     0.277 A 
HETATM    8  O   UNK N   1      36.822  13.958  12.550  0.00  0.00    -0.266 OA
HETATM    9  H   UNK N   1      33.597  16.513   9.791  0.00  0.00     0.170 HD
HETATM   10  H   UNK N   1      37.192  16.242  11.683  0.00  0.00     0.173 HD
ENDROOT
BRANCH   1  11
HETATM   11  N   UNK N   1      34.438  12.708  11.952  0.00  0.00    -0.394 N 
HETATM   12  H   UNK N   1      34.411  12.496  12.913  0.00  0.00     0.156 HD
HETATM   13  H   UNK N   1      34.221  12.015  11.287  0.00  0.00     0.156 HD
ENDBRANCH   1  11
TORSDOF 1
ENDMDL
MODEL 9
REMARK VINA RESULT:      -4.1     11.212     12.489
REMARK  1 active torsions:
REMARK  status: ('A' for Active; 'I' for Inactive)
REMARK    1  A    between atoms: N_1  and  C_2 
ROOT
HETATM    1  C   UNK N   1      32.585  16.866   7.239  0.00  0.00     0.110 A 
HETATM    2  C   UNK N   1      32.372  16.426   8.543  0.00  0.00     0.127 A 
HETATM    3  N   UNK N   1      33.316  16.631   9.496  0.00  0.00    -0.316 N 
HETATM    4  C   UNK N   1      34.490  17.272   9.193  0.00  0.00     0.327 A 
HETATM    5  O   UNK N   1      35.326  17.448  10.058  0.00  0.00    -0.247 OA
HETATM    6  N   UNK N   1      34.721  17.713   7.917  0.00  0.00    -0.274 N 
HETATM    7  C   UNK N   1      33.786  17.520   6.934  0.00  0.00     0.277 A 
HETATM    8  O   UNK N   1      34.006  17.919   5.804  0.00  0.00    -0.266 OA
HETATM    9  H   UNK N   1      33.157  16.317  10.415  0.00  0.00     0.170 HD
HETATM   10  H   UNK N   1      35.565  18.173   7.704  0.00  0.00     0.173 HD
ENDROOT
BRANCH   1  11
HETATM   11  N   UNK N   1      31.600  16.650   6.253  0.00  0.00    -0.394 N 
HETATM   12  H   UNK N   1      31.808  16.102   5.461  0.00  0.00     0.156 HD
HETATM   13  H   UNK N   1      30.704  17.046   6.357  0.00  0.00     0.156 HD
ENDBRANCH   1  11
TORSDOF 1
ENDMDL
