REMARK  4 active torsions:
REMARK  status: ('A' for Active; 'I' for Inactive)
REMARK    1  A    between atoms: C_5  and  C_4 
REMARK    2  A    between atoms: C_4  and  O_10 
REMARK    3  A    between atoms: C_6  and  C_5 
REMARK    4  A    between atoms: C_5  and  N_7 
ROOT
HETATM    1  C   UNK N   1       0.273   2.223  -0.309  0.00  0.00     0.160 C 
ENDROOT
BRANCH   1   2
HETATM    2  C   UNK N   1       1.571   3.055  -0.338  0.00  0.00     0.142 C 
HETATM    3  C   UNK N   1       2.162   3.260   1.049  0.00  0.00     0.042 C 
BRANCH   2   4
HETATM    4  O   UNK N   1       2.522   2.452  -1.164  0.00  0.00    -0.394 OA
HETATM    5  H   UNK N   1       2.489   1.671  -1.738  0.00  0.00     0.210 HD
ENDBRANCH   2   4
ENDBRANCH   1   2
BRANCH   1   6
HETATM    6  C   UNK N   1       0.429   0.787   0.129  0.00  0.00     0.075 A 
HETATM    7  N   UNK N   1      -0.605  -0.090   0.169  0.00  0.00    -0.361 N 
HETATM    8  C   UNK N   1      -0.218  -1.351   0.570  0.00  0.00     0.096 A 
ATOM      9  HN  UNK N   1      -1.565   0.158  -0.071  1.00  0.00     0.165 HD
HETATM   10  C   UNK N   1       1.152  -1.499   0.855  0.00  0.00     0.068 A 
HETATM   11  S   UNK N   1       1.809  -0.002   0.584  0.00  0.00    -0.085 SA
ENDBRANCH   1   6
BRANCH   1  12
HETATM   12  N   UNK N   1      -0.707   2.879   0.545  0.00  0.00    -0.419 N 
HETATM   13  H   UNK N   1      -0.652   3.704   1.143  0.00  0.00     0.150 HD
HETATM   14  H   UNK N   1      -1.622   2.429   0.545  0.00  0.00     0.150 HD
ENDBRANCH   1  12
TORSDOF 4
