MODEL 1
REMARK VINA RESULT:      -4.9      0.000      0.000
REMARK  0 active torsions:
REMARK  status: ('A' for Active; 'I' for Inactive)
ROOT
HETATM    1  O   UNK N   1      25.050  11.645  11.593  0.00  0.00    -0.247 OA
HETATM    2  C   UNK N   1      23.987  12.118  11.225  0.00  0.00     0.319 A 
HETATM    3  N   UNK N   1      22.784  11.694  11.710  0.00  0.00    -0.318 N 
HETATM    4  C   UNK N   1      21.812  12.490  11.033  0.00  0.00     0.232 A 
HETATM    5  N   UNK N   1      20.418  12.751  10.888  0.00  0.00    -0.318 N 
HETATM    6  C   UNK N   1      20.338  13.746   9.959  0.00  0.00     0.319 A 
HETATM    7  O   UNK N   1      19.277  14.221   9.590  0.00  0.00    -0.247 OA
HETATM    8  N   UNK N   1      21.542  14.169   9.475  0.00  0.00    -0.318 N 
HETATM    9  C   UNK N   1      22.512  13.373  10.153  0.00  0.00     0.232 A 
HETATM   10  N   UNK N   1      23.907  13.114  10.296  0.00  0.00    -0.318 N 
HETATM   11  H   UNK N   1      22.623  10.993  12.380  0.00  0.00     0.166 HD
HETATM   12  H   UNK N   1      19.674  12.308  11.357  0.00  0.00     0.166 HD
HETATM   13  H   UNK N   1      21.705  14.871   8.804  0.00  0.00     0.166 HD
HETATM   14  H   UNK N   1      24.650  13.557   9.826  0.00  0.00     0.166 HD
ENDROOT
TORSDOF 0
ENDMDL
MODEL 2
REMARK VINA RESULT:      -4.9      0.092      3.907
REMARK  0 active torsions:
REMARK  status: ('A' for Active; 'I' for Inactive)
ROOT
HETATM    1  O   UNK N   1      19.337  14.321   9.498  0.00  0.00    -0.247 OA
HETATM    2  C   UNK N   1      20.383  13.821   9.878  0.00  0.00     0.319 A 
HETATM    3  N   UNK N   1      20.429  12.812  10.795  0.00  0.00    -0.318 N 
HETATM    4  C   UNK N   1      21.817  12.522  10.957  0.00  0.00     0.232 A 
HETATM    5  N   UNK N   1      22.763  11.701  11.637  0.00  0.00    -0.318 N 
HETATM    6  C   UNK N   1      23.981  12.107  11.177  0.00  0.00     0.319 A 
HETATM    7  O   UNK N   1      25.028  11.610  11.555  0.00  0.00    -0.247 OA
HETATM    8  N   UNK N   1      23.933  13.117  10.260  0.00  0.00    -0.318 N 
HETATM    9  C   UNK N   1      22.546  13.404  10.100  0.00  0.00     0.232 A 
HETATM   10  N   UNK N   1      21.602  14.228   9.418  0.00  0.00    -0.318 N 
HETATM   11  H   UNK N   1      19.670  12.378  11.245  0.00  0.00     0.166 HD
HETATM   12  H   UNK N   1      22.577  10.993  12.296  0.00  0.00     0.166 HD
HETATM   13  H   UNK N   1      24.692  13.552   9.809  0.00  0.00     0.166 HD
HETATM   14  H   UNK N   1      21.789  14.935   8.760  0.00  0.00     0.166 HD
ENDROOT
TORSDOF 0
ENDMDL
MODEL 3
REMARK VINA RESULT:      -4.6     13.056     13.791
REMARK  0 active torsions:
REMARK  status: ('A' for Active; 'I' for Inactive)
ROOT
HETATM    1  O   UNK N   1      35.979  11.713  13.369  0.00  0.00    -0.247 OA
HETATM    2  C   UNK N   1      35.861  12.771  12.773  0.00  0.00     0.319 A 
HETATM    3  N   UNK N   1      34.657  13.241  12.335  0.00  0.00    -0.318 N 
HETATM    4  C   UNK N   1      34.955  14.484  11.700  0.00  0.00     0.232 A 
HETATM    5  N   UNK N   1      34.400  15.600  11.007  0.00  0.00    -0.318 N 
HETATM    6  C   UNK N   1      35.463  16.408  10.726  0.00  0.00     0.319 A 
HETATM    7  O   UNK N   1      35.348  17.465  10.131  0.00  0.00    -0.247 OA
HETATM    8  N   UNK N   1      36.666  15.936  11.165  0.00  0.00    -0.318 N 
HETATM    9  C   UNK N   1      36.366  14.694  11.799  0.00  0.00     0.232 A 
HETATM   10  N   UNK N   1      36.924  13.580  12.492  0.00  0.00    -0.318 N 
HETATM   11  H   UNK N   1      33.776  12.815  12.435  0.00  0.00     0.166 HD
HETATM   12  H   UNK N   1      33.454  15.754  10.780  0.00  0.00     0.166 HD
HETATM   13  H   UNK N   1      37.548  16.361  11.066  0.00  0.00     0.166 HD
HETATM   14  H   UNK N   1      37.869  13.426  12.718  0.00  0.00     0.166 HD
ENDROOT
TORSDOF 0
ENDMDL
MODEL 4
REMARK VINA RESULT:      -4.6     13.050     14.160
REMARK  0 active torsions:
REMARK  status: ('A' for Active; 'I' for Inactive)
ROOT
HETATM    1  O   UNK N   1      35.263  17.438  10.120  0.00  0.00    -0.247 OA
HETATM    2  C   UNK N   1      35.415  16.378  10.705  0.00  0.00     0.319 A 
HETATM    3  N   UNK N   1      36.640  15.918  11.091  0.00  0.00    -0.318 N 
HETATM    4  C   UNK N   1      36.381  14.668  11.730  0.00  0.00     0.232 A 
HETATM    5  N   UNK N   1      36.974  13.555  12.393  0.00  0.00    -0.318 N 
HETATM    6  C   UNK N   1      35.931  12.735  12.713  0.00  0.00     0.319 A 
HETATM    7  O   UNK N   1      36.080  11.675  13.297  0.00  0.00    -0.247 OA
HETATM    8  N   UNK N   1      34.707  13.198  12.325  0.00  0.00    -0.318 N 
HETATM    9  C   UNK N   1      34.969  14.446  11.688  0.00  0.00     0.232 A 
HETATM   10  N   UNK N   1      34.372  15.558  11.024  0.00  0.00    -0.318 N 
HETATM   11  H   UNK N   1      37.512  16.353  10.957  0.00  0.00     0.166 HD
HETATM   12  H   UNK N   1      37.930  13.409  12.580  0.00  0.00     0.166 HD
HETATM   13  H   UNK N   1      33.834  12.763  12.458  0.00  0.00     0.166 HD
HETATM   14  H   UNK N   1      33.417  15.703  10.838  0.00  0.00     0.166 HD
ENDROOT
TORSDOF 0
ENDMDL
MODEL 5
REMARK VINA RESULT:      -4.6      2.081      2.292
REMARK  0 active torsions:
REMARK  status: ('A' for Active; 'I' for Inactive)
ROOT
HETATM    1  O   UNK N   1      23.510  11.846  13.804  0.00  0.00    -0.247 OA
HETATM    2  C   UNK N   1      23.300  12.014  12.614  0.00  0.00     0.319 A 
HETATM    3  N   UNK N   1      22.054  11.925  12.065  0.00  0.00    -0.318 N 
HETATM    4  C   UNK N   1      22.243  12.184  10.674  0.00  0.00     0.232 A 
HETATM    5  N   UNK N   1      21.589  12.300   9.412  0.00  0.00    -0.318 N 
HETATM    6  C   UNK N   1      22.583  12.593   8.524  0.00  0.00     0.319 A 
HETATM    7  O   UNK N   1      22.375  12.761   7.335  0.00  0.00    -0.247 OA
HETATM    8  N   UNK N   1      23.828  12.682   9.075  0.00  0.00    -0.318 N 
HETATM    9  C   UNK N   1      23.637  12.422  10.464  0.00  0.00     0.232 A 
HETATM   10  N   UNK N   1      24.293  12.307  11.725  0.00  0.00    -0.318 N 
HETATM   11  H   UNK N   1      21.209  11.724  12.528  0.00  0.00     0.166 HD
HETATM   12  H   UNK N   1      20.629  12.192   9.223  0.00  0.00     0.166 HD
HETATM   13  H   UNK N   1      24.674  12.882   8.613  0.00  0.00     0.166 HD
HETATM   14  H   UNK N   1      25.253  12.415  11.913  0.00  0.00     0.166 HD
ENDROOT
TORSDOF 0
ENDMDL
MODEL 6
REMARK VINA RESULT:      -4.6      2.025      3.581
REMARK  0 active torsions:
REMARK  status: ('A' for Active; 'I' for Inactive)
ROOT
HETATM    1  O   UNK N   1      22.278  13.007   7.299  0.00  0.00    -0.247 OA
HETATM    2  C   UNK N   1      22.499  12.781   8.477  0.00  0.00     0.319 A 
HETATM    3  N   UNK N   1      21.524  12.397   9.351  0.00  0.00    -0.318 N 
HETATM    4  C   UNK N   1      22.190  12.239  10.603  0.00  0.00     0.232 A 
HETATM    5  N   UNK N   1      22.022  11.895  11.977  0.00  0.00    -0.318 N 
HETATM    6  C   UNK N   1      23.265  12.007  12.525  0.00  0.00     0.319 A 
HETATM    7  O   UNK N   1      23.490  11.782  13.702  0.00  0.00    -0.247 OA
HETATM    8  N   UNK N   1      24.239  12.391  11.650  0.00  0.00    -0.318 N 
HETATM    9  C   UNK N   1      23.572  12.548  10.400  0.00  0.00     0.232 A 
HETATM   10  N   UNK N   1      23.743  12.893   9.027  0.00  0.00    -0.318 N 
HETATM   11  H   UNK N   1      20.569  12.260   9.159  0.00  0.00     0.166 HD
HETATM   12  H   UNK N   1      21.188  11.633  12.430  0.00  0.00     0.166 HD
HETATM   13  H   UNK N   1      25.195  12.529  11.841  0.00  0.00     0.166 HD
HETATM   14  H   UNK N   1      24.577  13.154   8.574  0.00  0.00     0.166 HD
ENDROOT
TORSDOF 0
ENDMDL
MODEL 7
REMARK VINA RESULT:      -4.6     13.051     13.846
REMARK  0 active torsions:
REMARK  status: ('A' for Active; 'I' for Inactive)
ROOT
HETATM    1  O   UNK N   1      36.159  11.744  13.444  0.00  0.00    -0.247 OA
HETATM    2  C   UNK N   1      35.983  12.783  12.831  0.00  0.00     0.319 A 
HETATM    3  N   UNK N   1      37.001  13.637  12.519  0.00  0.00    -0.318 N 
HETATM    4  C   UNK N   1      36.380  14.710  11.813  0.00  0.00     0.232 A 
HETATM    5  N   UNK N   1      36.604  15.953  11.151  0.00  0.00    -0.318 N 
HETATM    6  C   UNK N   1      35.373  16.354  10.722  0.00  0.00     0.319 A 
HETATM    7  O   UNK N   1      35.194  17.393  10.109  0.00  0.00    -0.247 OA
HETATM    8  N   UNK N   1      34.357  15.499  11.035  0.00  0.00    -0.318 N 
HETATM    9  C   UNK N   1      34.980  14.428  11.740  0.00  0.00     0.232 A 
HETATM   10  N   UNK N   1      34.752  13.185  12.401  0.00  0.00    -0.318 N 
HETATM   11  H   UNK N   1      37.955  13.534  12.734  0.00  0.00     0.166 HD
HETATM   12  H   UNK N   1      37.462  16.421  11.030  0.00  0.00     0.166 HD
HETATM   13  H   UNK N   1      33.402  15.601  10.820  0.00  0.00     0.166 HD
HETATM   14  H   UNK N   1      33.894  12.719  12.522  0.00  0.00     0.166 HD
ENDROOT
TORSDOF 0
ENDMDL
MODEL 8
REMARK VINA RESULT:      -4.4     11.149     12.629
REMARK  0 active torsions:
REMARK  status: ('A' for Active; 'I' for Inactive)
ROOT
HETATM    1  O   UNK N   1      32.268  13.324   8.821  0.00  0.00    -0.247 OA
HETATM    2  C   UNK N   1      32.819  14.410   8.746  0.00  0.00     0.319 A 
HETATM    3  N   UNK N   1      33.064  15.033   7.557  0.00  0.00    -0.318 N 
HETATM    4  C   UNK N   1      33.711  16.256   7.906  0.00  0.00     0.232 A 
HETATM    5  N   UNK N   1      34.292  17.453   7.394  0.00  0.00    -0.318 N 
HETATM    6  C   UNK N   1      34.712  18.142   8.495  0.00  0.00     0.319 A 
HETATM    7  O   UNK N   1      35.263  19.227   8.423  0.00  0.00    -0.247 OA
HETATM    8  N   UNK N   1      34.466  17.517   9.683  0.00  0.00    -0.318 N 
HETATM    9  C   UNK N   1      33.820  16.296   9.332  0.00  0.00     0.232 A 
HETATM   10  N   UNK N   1      33.239  15.100   9.846  0.00  0.00    -0.318 N 
HETATM   11  H   UNK N   1      32.842  14.709   6.655  0.00  0.00     0.166 HD
HETATM   12  H   UNK N   1      34.372  17.724   6.452  0.00  0.00     0.166 HD
HETATM   13  H   UNK N   1      34.688  17.841  10.586  0.00  0.00     0.166 HD
HETATM   14  H   UNK N   1      33.160  14.830  10.789  0.00  0.00     0.166 HD
ENDROOT
TORSDOF 0
ENDMDL
MODEL 9
REMARK VINA RESULT:      -4.4     12.514     13.556
REMARK  0 active torsions:
REMARK  status: ('A' for Active; 'I' for Inactive)
ROOT
HETATM    1  O   UNK N   1      34.024  17.715   8.685  0.00  0.00    -0.247 OA
HETATM    2  C   UNK N   1      34.357  16.922   9.550  0.00  0.00     0.319 A 
HETATM    3  N   UNK N   1      33.738  15.719   9.728  0.00  0.00    -0.318 N 
HETATM    4  C   UNK N   1      34.421  15.110  10.823  0.00  0.00     0.232 A 
HETATM    5  N   UNK N   1      34.485  13.956  11.657  0.00  0.00    -0.318 N 
HETATM    6  C   UNK N   1      35.509  14.203  12.525  0.00  0.00     0.319 A 
HETATM    7  O   UNK N   1      35.844  13.413  13.391  0.00  0.00    -0.247 OA
HETATM    8  N   UNK N   1      36.127  15.406  12.346  0.00  0.00    -0.318 N 
HETATM    9  C   UNK N   1      35.443  16.013  11.252  0.00  0.00     0.232 A 
HETATM   10  N   UNK N   1      35.381  17.168  10.418  0.00  0.00    -0.318 N 
HETATM   11  H   UNK N   1      32.985  15.353   9.212  0.00  0.00     0.166 HD
HETATM   12  H   UNK N   1      33.915  13.155  11.617  0.00  0.00     0.166 HD
HETATM   13  H   UNK N   1      36.881  15.774  12.861  0.00  0.00     0.166 HD
HETATM   14  H   UNK N   1      35.952  17.969  10.460  0.00  0.00     0.166 HD
ENDROOT
TORSDOF 0
ENDMDL
