MODEL 1
REMARK VINA RESULT:      -6.4      0.000      0.000
REMARK  6 active torsions:
REMARK  status: ('A' for Active; 'I' for Inactive)
REMARK    1  A    between atoms: C_2  and  N_3 
REMARK       I    between atoms: N_3  and  C_4 
REMARK    2  A    between atoms: C_6  and  C_4 
REMARK    3  A    between atoms: C_8  and  N_13 
REMARK    4  A    between atoms: C_9  and  O_10 
REMARK    5  A    between atoms: C_11  and  O_12 
REMARK    6  A    between atoms: C_24  and  N_25 
ROOT
HETATM    1  C   UNK N   1      34.267  16.484   8.800  0.00  0.00     0.247 C 
HETATM    2  O   UNK N   1      33.644  17.672   8.395  0.00  0.00    -0.346 OA
HETATM    3  C   UNK N   1      33.142  17.375   7.109  0.00  0.00     0.263 C 
HETATM    4  C   UNK N   1      33.894  16.156   6.587  0.00  0.00     0.199 C 
HETATM    5  C   UNK N   1      35.003  15.998   7.579  0.00  0.00     0.189 C 
ENDROOT
BRANCH   3   6
HETATM    6  N   UNK N   1      31.701  17.100   7.170  0.00  0.00    -0.297 N 
HETATM    7  C   UNK N   1      31.005  16.270   6.349  0.00  0.00     0.188 A 
HETATM    8  N   UNK N   1      29.681  16.241   6.678  0.00  0.00    -0.346 N 
HETATM    9  C   UNK N   1      29.578  17.081   7.724  0.00  0.00     0.122 A 
ATOM     10  HN  UNK N   1      28.938  15.705   6.231  1.00  0.00     0.167 HD
HETATM   11  C   UNK N   1      30.787  17.595   8.019  0.00  0.00     0.142 A 
HETATM   12  C   UNK N   1      28.467  17.447   8.468  0.00  0.00     0.131 A 
HETATM   13  N   UNK N   1      30.975  18.477   9.031  0.00  0.00    -0.336 N 
HETATM   14  C   UNK N   1      29.887  18.849   9.774  0.00  0.00     0.183 A 
ATOM     15  HN  UNK N   1      31.901  18.853   9.234  1.00  0.00     0.168 HD
HETATM   16  N   UNK N   1      28.644  18.336   9.491  0.00  0.00    -0.337 N 
ATOM     17  HN  UNK N   1      27.843  18.622  10.054  1.00  0.00     0.168 HD
BRANCH  12  18
HETATM   18  N   UNK N   1      27.189  16.927   8.183  0.00  0.00    -0.383 N 
HETATM   19  H   UNK N   1      26.605  17.300   7.484  0.00  0.00     0.157 HD
HETATM   20  H   UNK N   1      26.867  16.156   8.704  0.00  0.00     0.157 HD
ENDBRANCH  12  18
ENDBRANCH   3   6
BRANCH   4  21
HETATM   21  O   UNK N   1      34.396  16.380   5.305  0.00  0.00    -0.388 OA
HETATM   22  H   UNK N   1      35.311  16.662   5.148  0.00  0.00     0.210 HD
ENDBRANCH   4  21
BRANCH   1  23
HETATM   23  C   UNK N   1      34.947  16.664  10.146  0.00  0.00     0.249 C 
HETATM   24  N   UNK N   1      34.933  15.746  11.148  0.00  0.00    -0.359 N 
HETATM   25  H   UNK N   1      35.414  15.973  11.978  0.00  0.00     0.162 HD
HETATM   26  O   UNK N   1      35.542  17.713  10.333  0.00  0.00    -0.271 OA
BRANCH  24  27
HETATM   27  C   UNK N   1      34.272  14.470  11.095  0.00  0.00     0.118 C 
HETATM   28  C   UNK N   1      34.944  13.512  12.053  0.00  0.00     0.026 C 
ENDBRANCH  24  27
ENDBRANCH   1  23
BRANCH   5  29
HETATM   29  O   UNK N   1      35.357  14.653   7.688  0.00  0.00    -0.390 OA
HETATM   30  H   UNK N   1      35.877  13.835   7.632  0.00  0.00     0.210 HD
ENDBRANCH   5  29
TORSDOF 6
ENDMDL
MODEL 2
REMARK VINA RESULT:      -6.3      9.085     11.833
REMARK  6 active torsions:
REMARK  status: ('A' for Active; 'I' for Inactive)
REMARK    1  A    between atoms: C_2  and  N_3 
REMARK       I    between atoms: N_3  and  C_4 
REMARK    2  A    between atoms: C_6  and  C_4 
REMARK    3  A    between atoms: C_8  and  N_13 
REMARK    4  A    between atoms: C_9  and  O_10 
REMARK    5  A    between atoms: C_11  and  O_12 
REMARK    6  A    between atoms: C_24  and  N_25 
ROOT
HETATM    1  C   UNK N   1      24.008  19.100   3.546  0.00  0.00     0.247 C 
HETATM    2  O   UNK N   1      22.892  18.844   4.354  0.00  0.00    -0.346 OA
HETATM    3  C   UNK N   1      21.819  19.439   3.656  0.00  0.00     0.263 C 
HETATM    4  C   UNK N   1      22.406  20.448   2.675  0.00  0.00     0.199 C 
HETATM    5  C   UNK N   1      23.840  20.528   3.095  0.00  0.00     0.189 C 
ENDROOT
BRANCH   3   6
HETATM    6  N   UNK N   1      21.044  18.420   2.938  0.00  0.00    -0.297 N 
HETATM    7  C   UNK N   1      20.246  18.628   1.858  0.00  0.00     0.188 A 
HETATM    8  N   UNK N   1      19.669  17.467   1.434  0.00  0.00    -0.346 N 
HETATM    9  C   UNK N   1      20.131  16.534   2.286  0.00  0.00     0.122 A 
ATOM     10  HN  UNK N   1      19.032  17.336   0.648  1.00  0.00     0.167 HD
HETATM   11  C   UNK N   1      20.953  17.104   3.186  0.00  0.00     0.142 A 
HETATM   12  C   UNK N   1      19.877  15.172   2.340  0.00  0.00     0.131 A 
HETATM   13  N   UNK N   1      21.559  16.393   4.170  0.00  0.00    -0.336 N 
HETATM   14  C   UNK N   1      21.318  15.048   4.237  0.00  0.00     0.183 A 
ATOM     15  HN  UNK N   1      22.178  16.849   4.841  1.00  0.00     0.168 HD
HETATM   16  N   UNK N   1      20.483  14.446   3.327  0.00  0.00    -0.337 N 
ATOM     17  HN  UNK N   1      20.313  13.441   3.390  1.00  0.00     0.168 HD
BRANCH  12  18
HETATM   18  N   UNK N   1      19.021  14.547   1.413  0.00  0.00    -0.383 N 
HETATM   19  H   UNK N   1      18.362  13.864   1.672  0.00  0.00     0.157 HD
HETATM   20  H   UNK N   1      19.083  14.807   0.465  0.00  0.00     0.157 HD
ENDBRANCH  12  18
ENDBRANCH   3   6
BRANCH   4  21
HETATM   21  O   UNK N   1      21.780  21.690   2.791  0.00  0.00    -0.388 OA
HETATM   22  H   UNK N   1      20.859  21.782   3.081  0.00  0.00     0.210 HD
ENDBRANCH   4  21
BRANCH   1  23
HETATM   23  C   UNK N   1      25.279  18.597   4.207  0.00  0.00     0.249 C 
HETATM   24  N   UNK N   1      25.764  17.332   4.090  0.00  0.00    -0.359 N 
HETATM   25  H   UNK N   1      26.602  17.122   4.562  0.00  0.00     0.162 HD
HETATM   26  O   UNK N   1      25.902  19.391   4.894  0.00  0.00    -0.271 OA
BRANCH  24  27
HETATM   27  C   UNK N   1      25.149  16.276   3.332  0.00  0.00     0.118 C 
HETATM   28  C   UNK N   1      26.107  15.797   2.264  0.00  0.00     0.026 C 
ENDBRANCH  24  27
ENDBRANCH   1  23
BRANCH   5  29
HETATM   29  O   UNK N   1      24.643  20.823   1.994  0.00  0.00    -0.390 OA
HETATM   30  H   UNK N   1      25.037  21.307   1.252  0.00  0.00     0.210 HD
ENDBRANCH   5  29
TORSDOF 6
ENDMDL
MODEL 3
REMARK VINA RESULT:      -6.3      7.527     10.108
REMARK  6 active torsions:
REMARK  status: ('A' for Active; 'I' for Inactive)
REMARK    1  A    between atoms: C_2  and  N_3 
REMARK       I    between atoms: N_3  and  C_4 
REMARK    2  A    between atoms: C_6  and  C_4 
REMARK    3  A    between atoms: C_8  and  N_13 
REMARK    4  A    between atoms: C_9  and  O_10 
REMARK    5  A    between atoms: C_11  and  O_12 
REMARK    6  A    between atoms: C_24  and  N_25 
ROOT
HETATM    1  C   UNK N   1      35.791  12.863  13.778  0.00  0.00     0.247 C 
HETATM    2  O   UNK N   1      34.639  12.948  14.571  0.00  0.00    -0.346 OA
HETATM    3  C   UNK N   1      34.278  11.602  14.797  0.00  0.00     0.263 C 
HETATM    4  C   UNK N   1      34.962  10.752  13.732  0.00  0.00     0.199 C 
HETATM    5  C   UNK N   1      35.493  11.776  12.778  0.00  0.00     0.189 C 
ENDROOT
BRANCH   3   6
HETATM    6  N   UNK N   1      34.695  11.175  16.138  0.00  0.00    -0.297 N 
HETATM    7  C   UNK N   1      34.931   9.898  16.539  0.00  0.00     0.188 A 
HETATM    8  N   UNK N   1      35.303   9.849  17.850  0.00  0.00    -0.346 N 
HETATM    9  C   UNK N   1      35.288  11.134  18.250  0.00  0.00     0.122 A 
ATOM     10  HN  UNK N   1      35.540   9.025  18.403  1.00  0.00     0.167 HD
HETATM   11  C   UNK N   1      34.925  11.927  17.226  0.00  0.00     0.142 A 
HETATM   12  C   UNK N   1      35.578  11.686  19.489  0.00  0.00     0.131 A 
HETATM   13  N   UNK N   1      34.822  13.274  17.349  0.00  0.00    -0.336 N 
HETATM   14  C   UNK N   1      35.103  13.833  18.566  0.00  0.00     0.183 A 
ATOM     15  HN  UNK N   1      34.544  13.853  16.558  1.00  0.00     0.168 HD
HETATM   16  N   UNK N   1      35.477  13.042  19.625  0.00  0.00    -0.337 N 
ATOM     17  HN  UNK N   1      35.684  13.474  20.526  1.00  0.00     0.168 HD
BRANCH  12  18
HETATM   18  N   UNK N   1      35.960  10.881  20.580  0.00  0.00    -0.383 N 
HETATM   19  H   UNK N   1      35.669   9.946  20.681  0.00  0.00     0.157 HD
HETATM   20  H   UNK N   1      36.544  11.270  21.271  0.00  0.00     0.157 HD
ENDBRANCH  12  18
ENDBRANCH   3   6
BRANCH   4  21
HETATM   21  O   UNK N   1      34.054   9.903  13.100  0.00  0.00    -0.388 OA
HETATM   22  H   UNK N   1      34.040   9.781  12.138  0.00  0.00     0.210 HD
ENDBRANCH   4  21
BRANCH   1  23
HETATM   23  C   UNK N   1      36.265  14.245  13.365  0.00  0.00     0.249 C 
HETATM   24  N   UNK N   1      36.901  15.123  14.185  0.00  0.00    -0.359 N 
HETATM   25  H   UNK N   1      37.165  15.991  13.803  0.00  0.00     0.162 HD
HETATM   26  O   UNK N   1      36.051  14.586  12.212  0.00  0.00    -0.271 OA
BRANCH  24  27
HETATM   27  C   UNK N   1      37.219  14.884  15.567  0.00  0.00     0.118 C 
HETATM   28  C   UNK N   1      37.466  16.203  16.264  0.00  0.00     0.026 C 
ENDBRANCH  24  27
ENDBRANCH   1  23
BRANCH   5  29
HETATM   29  O   UNK N   1      36.653  11.301  12.166  0.00  0.00    -0.390 OA
HETATM   30  H   UNK N   1      37.314  10.688  11.809  0.00  0.00     0.210 HD
ENDBRANCH   5  29
TORSDOF 6
ENDMDL
MODEL 4
REMARK VINA RESULT:      -6.2      2.863      5.824
REMARK  6 active torsions:
REMARK  status: ('A' for Active; 'I' for Inactive)
REMARK    1  A    between atoms: C_2  and  N_3 
REMARK       I    between atoms: N_3  and  C_4 
REMARK    2  A    between atoms: C_6  and  C_4 
REMARK    3  A    between atoms: C_8  and  N_13 
REMARK    4  A    between atoms: C_9  and  O_10 
REMARK    5  A    between atoms: C_11  and  O_12 
REMARK    6  A    between atoms: C_24  and  N_25 
ROOT
HETATM    1  C   UNK N   1      29.393  17.013   6.070  0.00  0.00     0.247 C 
HETATM    2  O   UNK N   1      30.252  15.910   6.168  0.00  0.00    -0.346 OA
HETATM    3  C   UNK N   1      31.418  16.323   5.490  0.00  0.00     0.263 C 
HETATM    4  C   UNK N   1      31.044  17.497   4.593  0.00  0.00     0.199 C 
HETATM    5  C   UNK N   1      29.548  17.500   4.653  0.00  0.00     0.189 C 
ENDROOT
BRANCH   3   6
HETATM    6  N   UNK N   1      32.457  16.722   6.448  0.00  0.00    -0.297 N 
HETATM    7  C   UNK N   1      33.413  17.667   6.251  0.00  0.00     0.188 A 
HETATM    8  N   UNK N   1      34.222  17.792   7.342  0.00  0.00    -0.346 N 
HETATM    9  C   UNK N   1      33.739  16.894   8.220  0.00  0.00     0.122 A 
ATOM     10  HN  UNK N   1      35.013  18.424   7.466  1.00  0.00     0.167 HD
HETATM   11  C   UNK N   1      32.683  16.253   7.685  0.00  0.00     0.142 A 
HETATM   12  C   UNK N   1      34.168  16.578   9.500  0.00  0.00     0.131 A 
HETATM   13  N   UNK N   1      32.003  15.288   8.353  0.00  0.00    -0.336 N 
HETATM   14  C   UNK N   1      32.416  14.965   9.617  0.00  0.00     0.183 A 
ATOM     15  HN  UNK N   1      31.207  14.817   7.924  1.00  0.00     0.168 HD
HETATM   16  N   UNK N   1      33.491  15.607  10.182  0.00  0.00    -0.337 N 
ATOM     17  HN  UNK N   1      33.786  15.355  11.126  1.00  0.00     0.168 HD
BRANCH  12  18
HETATM   18  N   UNK N   1      35.271  17.230  10.086  0.00  0.00    -0.383 N 
HETATM   19  H   UNK N   1      35.851  16.801  10.756  0.00  0.00     0.157 HD
HETATM   20  H   UNK N   1      35.470  18.155   9.814  0.00  0.00     0.157 HD
ENDBRANCH  12  18
ENDBRANCH   3   6
BRANCH   4  21
HETATM   21  O   UNK N   1      31.493  17.301   3.286  0.00  0.00    -0.388 OA
HETATM   22  H   UNK N   1      30.885  17.136   2.549  0.00  0.00     0.210 HD
ENDBRANCH   4  21
BRANCH   1  23
HETATM   23  C   UNK N   1      28.038  16.698   6.680  0.00  0.00     0.249 C 
HETATM   24  N   UNK N   1      27.548  17.269   7.813  0.00  0.00    -0.359 N 
HETATM   25  H   UNK N   1      26.653  16.987   8.112  0.00  0.00     0.162 HD
HETATM   26  O   UNK N   1      27.349  15.869   6.109  0.00  0.00    -0.271 OA
BRANCH  24  27
HETATM   27  C   UNK N   1      28.233  18.250   8.609  0.00  0.00     0.118 C 
HETATM   28  C   UNK N   1      29.018  17.558   9.701  0.00  0.00     0.026 C 
ENDBRANCH  24  27
ENDBRANCH   1  23
BRANCH   5  29
HETATM   29  O   UNK N   1      29.067  18.799   4.494  0.00  0.00    -0.390 OA
HETATM   30  H   UNK N   1      28.680  19.588   4.083  0.00  0.00     0.210 HD
ENDBRANCH   5  29
TORSDOF 6
ENDMDL
MODEL 5
REMARK VINA RESULT:      -6.1      2.553      4.456
REMARK  6 active torsions:
REMARK  status: ('A' for Active; 'I' for Inactive)
REMARK    1  A    between atoms: C_2  and  N_3 
REMARK       I    between atoms: N_3  and  C_4 
REMARK    2  A    between atoms: C_6  and  C_4 
REMARK    3  A    between atoms: C_8  and  N_13 
REMARK    4  A    between atoms: C_9  and  O_10 
REMARK    5  A    between atoms: C_11  and  O_12 
REMARK    6  A    between atoms: C_24  and  N_25 
ROOT
HETATM    1  C   UNK N   1      32.598  17.260   7.467  0.00  0.00     0.247 C 
HETATM    2  O   UNK N   1      31.479  16.618   6.921  0.00  0.00    -0.346 OA
HETATM    3  C   UNK N   1      30.636  16.395   8.031  0.00  0.00     0.263 C 
HETATM    4  C   UNK N   1      31.490  16.492   9.290  0.00  0.00     0.199 C 
HETATM    5  C   UNK N   1      32.884  16.519   8.746  0.00  0.00     0.189 C 
ENDROOT
BRANCH   3   6
HETATM    6  N   UNK N   1      29.558  17.391   8.066  0.00  0.00    -0.297 N 
HETATM    7  C   UNK N   1      28.914  17.841   9.176  0.00  0.00     0.188 A 
HETATM    8  N   UNK N   1      27.963  18.766   8.858  0.00  0.00    -0.346 N 
HETATM    9  C   UNK N   1      28.036  18.874   7.519  0.00  0.00     0.122 A 
ATOM     10  HN  UNK N   1      27.338  19.263   9.492  1.00  0.00     0.167 HD
HETATM   11  C   UNK N   1      28.990  18.052   7.045  0.00  0.00     0.142 A 
HETATM   12  C   UNK N   1      27.304  19.665   6.646  0.00  0.00     0.131 A 
HETATM   13  N   UNK N   1      29.276  17.955   5.723  0.00  0.00    -0.336 N 
HETATM   14  C   UNK N   1      28.561  18.728   4.850  0.00  0.00     0.183 A 
ATOM     15  HN  UNK N   1      30.004  17.323   5.389  1.00  0.00     0.168 HD
HETATM   16  N   UNK N   1      27.583  19.575   5.312  0.00  0.00    -0.337 N 
ATOM     17  HN  UNK N   1      27.059  20.146   4.648  1.00  0.00     0.168 HD
BRANCH  12  18
HETATM   18  N   UNK N   1      26.298  20.534   7.112  0.00  0.00    -0.383 N 
HETATM   19  H   UNK N   1      25.555  20.233   7.683  0.00  0.00     0.157 HD
HETATM   20  H   UNK N   1      26.341  21.485   6.857  0.00  0.00     0.157 HD
ENDBRANCH  12  18
ENDBRANCH   3   6
BRANCH   4  21
HETATM   21  O   UNK N   1      31.297  15.387  10.120  0.00  0.00    -0.388 OA
HETATM   22  H   UNK N   1      30.571  15.340  10.761  0.00  0.00     0.210 HD
ENDBRANCH   4  21
BRANCH   1  23
HETATM   23  C   UNK N   1      33.657  17.494   6.404  0.00  0.00     0.249 C 
HETATM   24  N   UNK N   1      33.543  17.120   5.102  0.00  0.00    -0.359 N 
HETATM   25  H   UNK N   1      34.296  17.329   4.502  0.00  0.00     0.162 HD
HETATM   26  O   UNK N   1      34.684  18.054   6.754  0.00  0.00    -0.271 OA
BRANCH  24  27
HETATM   27  C   UNK N   1      32.410  16.444   4.530  0.00  0.00     0.118 C 
HETATM   28  C   UNK N   1      32.063  17.075   3.200  0.00  0.00     0.026 C 
ENDBRANCH  24  27
ENDBRANCH   1  23
BRANCH   5  29
HETATM   29  O   UNK N   1      33.713  17.251   9.597  0.00  0.00    -0.390 OA
HETATM   30  H   UNK N   1      34.422  17.465  10.224  0.00  0.00     0.210 HD
ENDBRANCH   5  29
TORSDOF 6
ENDMDL
MODEL 6
REMARK VINA RESULT:      -6.1     10.074     12.518
REMARK  6 active torsions:
REMARK  status: ('A' for Active; 'I' for Inactive)
REMARK    1  A    between atoms: C_2  and  N_3 
REMARK       I    between atoms: N_3  and  C_4 
REMARK    2  A    between atoms: C_6  and  C_4 
REMARK    3  A    between atoms: C_8  and  N_13 
REMARK    4  A    between atoms: C_9  and  O_10 
REMARK    5  A    between atoms: C_11  and  O_12 
REMARK    6  A    between atoms: C_24  and  N_25 
ROOT
HETATM    1  C   UNK N   1      21.735  19.363   2.827  0.00  0.00     0.247 C 
HETATM    2  O   UNK N   1      21.313  18.881   4.073  0.00  0.00    -0.346 OA
HETATM    3  C   UNK N   1      20.223  18.039   3.764  0.00  0.00     0.263 C 
HETATM    4  C   UNK N   1      19.726  18.414   2.373  0.00  0.00     0.199 C 
HETATM    5  C   UNK N   1      20.464  19.684   2.085  0.00  0.00     0.189 C 
ENDROOT
BRANCH   3   6
HETATM    6  N   UNK N   1      20.636  16.630   3.798  0.00  0.00    -0.297 N 
HETATM    7  C   UNK N   1      20.197  15.643   2.973  0.00  0.00     0.188 A 
HETATM    8  N   UNK N   1      20.780  14.447   3.274  0.00  0.00    -0.346 N 
HETATM    9  C   UNK N   1      21.591  14.723   4.312  0.00  0.00     0.122 A 
ATOM     10  HN  UNK N   1      20.635  13.548   2.816  1.00  0.00     0.167 HD
HETATM   11  C   UNK N   1      21.505  16.029   4.625  0.00  0.00     0.142 A 
HETATM   12  C   UNK N   1      22.431  13.889   5.033  0.00  0.00     0.131 A 
HETATM   13  N   UNK N   1      22.215  16.582   5.639  0.00  0.00    -0.336 N 
HETATM   14  C   UNK N   1      23.047  15.771   6.362  0.00  0.00     0.183 A 
ATOM     15  HN  UNK N   1      22.131  17.575   5.858  1.00  0.00     0.168 HD
HETATM   16  N   UNK N   1      23.151  14.435   6.058  0.00  0.00    -0.337 N 
ATOM     17  HN  UNK N   1      23.777  13.843   6.606  1.00  0.00     0.168 HD
BRANCH  12  18
HETATM   18  N   UNK N   1      22.542  12.518   4.730  0.00  0.00    -0.383 N 
HETATM   19  H   UNK N   1      23.093  12.178   3.988  0.00  0.00     0.157 HD
HETATM   20  H   UNK N   1      22.047  11.871   5.283  0.00  0.00     0.157 HD
ENDBRANCH  12  18
ENDBRANCH   3   6
BRANCH   4  21
HETATM   21  O   UNK N   1      18.347  18.623   2.365  0.00  0.00    -0.388 OA
HETATM   22  H   UNK N   1      17.944  19.412   1.971  0.00  0.00     0.210 HD
ENDBRANCH   4  21
BRANCH   1  23
HETATM   23  C   UNK N   1      22.861  20.369   2.991  0.00  0.00     0.249 C 
HETATM   24  N   UNK N   1      24.116  20.063   3.417  0.00  0.00    -0.359 N 
HETATM   25  H   UNK N   1      24.765  20.802   3.480  0.00  0.00     0.162 HD
HETATM   26  O   UNK N   1      22.611  21.533   2.724  0.00  0.00    -0.271 OA
BRANCH  24  27
HETATM   27  C   UNK N   1      24.570  18.750   3.781  0.00  0.00     0.118 C 
HETATM   28  C   UNK N   1      26.081  18.708   3.741  0.00  0.00     0.026 C 
ENDBRANCH  24  27
ENDBRANCH   1  23
BRANCH   5  29
HETATM   29  O   UNK N   1      20.681  19.810   0.713  0.00  0.00    -0.390 OA
HETATM   30  H   UNK N   1      20.517  19.978  -0.228  0.00  0.00     0.210 HD
ENDBRANCH   5  29
TORSDOF 6
ENDMDL
MODEL 7
REMARK VINA RESULT:      -6.0      2.913      4.576
REMARK  6 active torsions:
REMARK  status: ('A' for Active; 'I' for Inactive)
REMARK    1  A    between atoms: C_2  and  N_3 
REMARK       I    between atoms: N_3  and  C_4 
REMARK    2  A    between atoms: C_6  and  C_4 
REMARK    3  A    between atoms: C_8  and  N_13 
REMARK    4  A    between atoms: C_9  and  O_10 
REMARK    5  A    between atoms: C_11  and  O_12 
REMARK    6  A    between atoms: C_24  and  N_25 
ROOT
HETATM    1  C   UNK N   1      35.244  13.468  12.270  0.00  0.00     0.247 C 
HETATM    2  O   UNK N   1      34.247  14.446  12.151  0.00  0.00    -0.346 OA
HETATM    3  C   UNK N   1      34.649  15.211  11.036  0.00  0.00     0.263 C 
HETATM    4  C   UNK N   1      36.133  14.952  10.804  0.00  0.00     0.199 C 
HETATM    5  C   UNK N   1      36.538  14.203  12.035  0.00  0.00     0.189 C 
ENDROOT
BRANCH   3   6
HETATM    6  N   UNK N   1      33.873  14.835   9.848  0.00  0.00    -0.297 N 
HETATM    7  C   UNK N   1      33.768  13.588   9.316  0.00  0.00     0.188 A 
HETATM    8  N   UNK N   1      32.968  13.585   8.210  0.00  0.00    -0.346 N 
HETATM    9  C   UNK N   1      32.583  14.867   8.072  0.00  0.00     0.122 A 
ATOM     10  HN  UNK N   1      32.718  12.791   7.622  1.00  0.00     0.167 HD
HETATM   11  C   UNK N   1      33.124  15.615   9.051  0.00  0.00     0.142 A 
HETATM   12  C   UNK N   1      31.767  15.455   7.118  0.00  0.00     0.131 A 
HETATM   13  N   UNK N   1      32.906  16.950   9.152  0.00  0.00    -0.336 N 
HETATM   14  C   UNK N   1      32.103  17.545   8.218  0.00  0.00     0.183 A 
ATOM     15  HN  UNK N   1      33.329  17.495   9.904  1.00  0.00     0.168 HD
HETATM   16  N   UNK N   1      31.540  16.800   7.210  0.00  0.00    -0.337 N 
ATOM     17  HN  UNK N   1      30.943  17.258   6.521  1.00  0.00     0.168 HD
BRANCH  12  18
HETATM   18  N   UNK N   1      31.187  14.699   6.081  0.00  0.00    -0.383 N 
HETATM   19  H   UNK N   1      30.763  15.110   5.294  0.00  0.00     0.157 HD
HETATM   20  H   UNK N   1      31.208  13.717   6.145  0.00  0.00     0.157 HD
ENDBRANCH  12  18
ENDBRANCH   3   6
BRANCH   4  21
HETATM   21  O   UNK N   1      36.845  16.146  10.688  0.00  0.00    -0.388 OA
HETATM   22  H   UNK N   1      36.814  16.837  11.369  0.00  0.00     0.210 HD
ENDBRANCH   4  21
BRANCH   1  23
HETATM   23  C   UNK N   1      35.008  12.602  13.495  0.00  0.00     0.249 C 
HETATM   24  N   UNK N   1      34.950  11.244  13.484  0.00  0.00    -0.359 N 
HETATM   25  H   UNK N   1      34.795  10.790  14.344  0.00  0.00     0.162 HD
HETATM   26  O   UNK N   1      34.856  13.177  14.562  0.00  0.00    -0.271 OA
BRANCH  24  27
HETATM   27  C   UNK N   1      35.096  10.418  12.317  0.00  0.00     0.118 C 
HETATM   28  C   UNK N   1      33.733   9.971  11.839  0.00  0.00     0.026 C 
ENDBRANCH  24  27
ENDBRANCH   1  23
BRANCH   5  29
HETATM   29  O   UNK N   1      37.585  13.330  11.739  0.00  0.00    -0.390 OA
HETATM   30  H   UNK N   1      38.194  12.768  11.235  0.00  0.00     0.210 HD
ENDBRANCH   5  29
TORSDOF 6
ENDMDL
MODEL 8
REMARK VINA RESULT:      -6.0      2.406      6.691
REMARK  6 active torsions:
REMARK  status: ('A' for Active; 'I' for Inactive)
REMARK    1  A    between atoms: C_2  and  N_3 
REMARK       I    between atoms: N_3  and  C_4 
REMARK    2  A    between atoms: C_6  and  C_4 
REMARK    3  A    between atoms: C_8  and  N_13 
REMARK    4  A    between atoms: C_9  and  O_10 
REMARK    5  A    between atoms: C_11  and  O_12 
REMARK    6  A    between atoms: C_24  and  N_25 
ROOT
HETATM    1  C   UNK N   1      34.571  16.609   8.766  0.00  0.00     0.247 C 
HETATM    2  O   UNK N   1      33.735  16.176   9.804  0.00  0.00    -0.346 OA
HETATM    3  C   UNK N   1      34.107  14.829  10.004  0.00  0.00     0.263 C 
HETATM    4  C   UNK N   1      34.836  14.357   8.752  0.00  0.00     0.199 C 
HETATM    5  C   UNK N   1      34.588  15.469   7.781  0.00  0.00     0.189 C 
ENDROOT
BRANCH   3   6
HETATM    6  N   UNK N   1      34.977  14.705  11.180  0.00  0.00    -0.297 N 
HETATM    7  C   UNK N   1      35.829  15.652  11.655  0.00  0.00     0.188 A 
HETATM    8  N   UNK N   1      36.490  15.214  12.765  0.00  0.00    -0.346 N 
HETATM    9  C   UNK N   1      36.025  13.967  12.961  0.00  0.00     0.122 A 
ATOM     10  HN  UNK N   1      37.181  15.719  13.320  1.00  0.00     0.167 HD
HETATM   11  C   UNK N   1      35.119  13.663  12.013  0.00  0.00     0.142 A 
HETATM   12  C   UNK N   1      36.344  13.040  13.942  0.00  0.00     0.131 A 
HETATM   13  N   UNK N   1      34.490  12.462  11.967  0.00  0.00    -0.336 N 
HETATM   14  C   UNK N   1      34.796  11.536  12.928  0.00  0.00     0.183 A 
ATOM     15  HN  UNK N   1      33.809  12.255  11.238  1.00  0.00     0.168 HD
HETATM   16  N   UNK N   1      35.716  11.827  13.905  0.00  0.00    -0.337 N 
ATOM     17  HN  UNK N   1      35.933  11.126  14.615  1.00  0.00     0.168 HD
BRANCH  12  18
HETATM   18  N   UNK N   1      37.288  13.330  14.946  0.00  0.00    -0.383 N 
HETATM   19  H   UNK N   1      38.219  13.013  14.911  0.00  0.00     0.157 HD
HETATM   20  H   UNK N   1      37.005  13.874  15.717  0.00  0.00     0.157 HD
ENDBRANCH  12  18
ENDBRANCH   3   6
BRANCH   4  21
HETATM   21  O   UNK N   1      34.309  13.154   8.280  0.00  0.00    -0.388 OA
HETATM   22  H   UNK N   1      34.672  12.292   8.537  0.00  0.00     0.210 HD
ENDBRANCH   4  21
BRANCH   1  23
HETATM   23  C   UNK N   1      34.234  18.033   8.360  0.00  0.00     0.249 C 
HETATM   24  N   UNK N   1      32.998  18.459   7.988  0.00  0.00    -0.359 N 
HETATM   25  H   UNK N   1      32.899  19.410   7.749  0.00  0.00     0.162 HD
HETATM   26  O   UNK N   1      35.145  18.845   8.369  0.00  0.00    -0.271 OA
BRANCH  24  27
HETATM   27  C   UNK N   1      31.824  17.633   7.913  0.00  0.00     0.118 C 
HETATM   28  C   UNK N   1      30.750  18.198   8.816  0.00  0.00     0.026 C 
ENDBRANCH  24  27
ENDBRANCH   1  23
BRANCH   5  29
HETATM   29  O   UNK N   1      35.655  15.569   6.888  0.00  0.00    -0.390 OA
HETATM   30  H   UNK N   1      36.506  15.833   6.504  0.00  0.00     0.210 HD
ENDBRANCH   5  29
TORSDOF 6
ENDMDL
MODEL 9
REMARK VINA RESULT:      -5.9      2.044      6.174
REMARK  6 active torsions:
REMARK  status: ('A' for Active; 'I' for Inactive)
REMARK    1  A    between atoms: C_2  and  N_3 
REMARK       I    between atoms: N_3  and  C_4 
REMARK    2  A    between atoms: C_6  and  C_4 
REMARK    3  A    between atoms: C_8  and  N_13 
REMARK    4  A    between atoms: C_9  and  O_10 
REMARK    5  A    between atoms: C_11  and  O_12 
REMARK    6  A    between atoms: C_24  and  N_25 
ROOT
HETATM    1  C   UNK N   1      32.577  16.436   6.999  0.00  0.00     0.247 C 
HETATM    2  O   UNK N   1      32.594  15.074   7.329  0.00  0.00    -0.346 OA
HETATM    3  C   UNK N   1      33.958  14.794   7.561  0.00  0.00     0.263 C 
HETATM    4  C   UNK N   1      34.778  15.896   6.899  0.00  0.00     0.199 C 
HETATM    5  C   UNK N   1      33.757  16.627   6.083  0.00  0.00     0.189 C 
ENDROOT
BRANCH   3   6
HETATM    6  N   UNK N   1      34.236  14.745   9.001  0.00  0.00    -0.297 N 
HETATM    7  C   UNK N   1      33.347  14.982  10.001  0.00  0.00     0.188 A 
HETATM    8  N   UNK N   1      33.931  14.854  11.227  0.00  0.00    -0.346 N 
HETATM    9  C   UNK N   1      35.210  14.534  10.957  0.00  0.00     0.122 A 
ATOM     10  HN  UNK N   1      33.498  14.974  12.143  1.00  0.00     0.167 HD
HETATM   11  C   UNK N   1      35.392  14.469   9.625  0.00  0.00     0.142 A 
HETATM   12  C   UNK N   1      36.269  14.286  11.816  0.00  0.00     0.131 A 
HETATM   13  N   UNK N   1      36.592  14.168   9.069  0.00  0.00    -0.336 N 
HETATM   14  C   UNK N   1      37.647  13.923   9.905  0.00  0.00     0.183 A 
ATOM     15  HN  UNK N   1      36.705  14.126   8.056  1.00  0.00     0.168 HD
HETATM   16  N   UNK N   1      37.483  13.983  11.267  0.00  0.00    -0.337 N 
ATOM     17  HN  UNK N   1      38.279  13.796  11.878  1.00  0.00     0.168 HD
BRANCH  12  18
HETATM   18  N   UNK N   1      36.109  14.348  13.214  0.00  0.00    -0.383 N 
HETATM   19  H   UNK N   1      36.414  13.634  13.819  0.00  0.00     0.157 HD
HETATM   20  H   UNK N   1      35.674  15.141  13.605  0.00  0.00     0.157 HD
ENDBRANCH  12  18
ENDBRANCH   3   6
BRANCH   4  21
HETATM   21  O   UNK N   1      35.781  15.366   6.088  0.00  0.00    -0.388 OA
HETATM   22  H   UNK N   1      35.992  15.734   5.215  0.00  0.00     0.210 HD
ENDBRANCH   4  21
BRANCH   1  23
HETATM   23  C   UNK N   1      31.174  16.883   6.628  0.00  0.00     0.249 C 
HETATM   24  N   UNK N   1      30.335  17.564   7.453  0.00  0.00    -0.359 N 
HETATM   25  H   UNK N   1      29.448  17.804   7.099  0.00  0.00     0.162 HD
HETATM   26  O   UNK N   1      30.779  16.603   5.507  0.00  0.00    -0.271 OA
BRANCH  24  27
HETATM   27  C   UNK N   1      30.639  17.960   8.801  0.00  0.00     0.118 C 
HETATM   28  C   UNK N   1      29.383  18.462   9.476  0.00  0.00     0.026 C 
ENDBRANCH  24  27
ENDBRANCH   1  23
BRANCH   5  29
HETATM   29  O   UNK N   1      34.113  17.971   5.967  0.00  0.00    -0.390 OA
HETATM   30  H   UNK N   1      34.130  18.890   5.658  0.00  0.00     0.210 HD
ENDBRANCH   5  29
TORSDOF 6
ENDMDL
