REMARK  9 active torsions:
REMARK  status: ('A' for Active; 'I' for Inactive)
REMARK    1  A    between atoms: C_2  and  N_1 
REMARK    2  A    between atoms: C_2  and  C_3 
REMARK    3  A    between atoms: C_2  and  C_11 
REMARK    4  A    between atoms: C_3  and  C_4 
REMARK    5  A    between atoms: C_4  and  O_6 
REMARK    6  A    between atoms: O_6  and  C_7 
REMARK    7  A    between atoms: C_7  and  C_8 
REMARK    8  A    between atoms: C_8  and  O_9 
REMARK    9  A    between atoms: C_11  and  O_12 
ROOT
HETATM    1  C   UNK N   1       6.923   2.245   0.241  0.00  0.00     0.146 C 
ENDROOT
BRANCH   1   2
HETATM    2  C   UNK N   1       8.184   2.890  -0.345  0.00  0.00     0.182 C 
BRANCH   2   3
HETATM    3  N   UNK N   1       8.390   4.212   0.227  0.00  0.00    -0.417 N 
HETATM    4  H   UNK N   1       9.264   4.550   0.629  0.00  0.00     0.150 HD
HETATM    5  H   UNK N   1       7.595   4.852   0.227  0.00  0.00     0.150 HD
ENDBRANCH   2   3
BRANCH   2   6
HETATM    6  C   UNK N   1       9.396   2.034  -0.076  0.00  0.00     0.163 C 
HETATM    7  O   UNK N   1       9.290   0.821   0.026  0.00  0.00    -0.648 OA
BRANCH   6   8
HETATM    8  O   UNK N   1      10.615   2.600   0.018  0.00  0.00    -0.775 OA
HETATM    9  H   UNK N   1      11.380   2.063   0.084  0.00  0.00     0.167 HD
ENDBRANCH   6   8
ENDBRANCH   2   6
ENDBRANCH   1   2
BRANCH   1  10
HETATM   10  C   UNK N   1       5.640   3.000   0.020  0.00  0.00     0.261 C 
HETATM   11  O   UNK N   1       5.644   4.219  -0.103  0.00  0.00    -0.265 OA
BRANCH  10  12
HETATM   12  O   UNK N   1       4.474   2.313   0.036  0.00  0.00    -0.311 OA
BRANCH  12  13
HETATM   13  C   UNK N   1       3.241   2.924  -0.035  0.00  0.00     0.288 C 
BRANCH  13  14
HETATM   14  C   UNK N   1       2.144   1.903  -0.009  0.00  0.00     0.165 C 
HETATM   15  O   UNK N   1       2.405   0.710   0.016  0.00  0.00    -0.648 OA
BRANCH  14  16
HETATM   16  O   UNK N   1       0.860   2.304  -0.014  0.00  0.00    -0.775 OA
HETATM   17  H   UNK N   1       0.654   3.218  -0.018  0.00  0.00     0.167 HD
ENDBRANCH  14  16
ENDBRANCH  13  14
ENDBRANCH  12  13
ENDBRANCH  10  12
ENDBRANCH   1  10
TORSDOF 9
