REMARK  6 active torsions:
REMARK  status: ('A' for Active; 'I' for Inactive)
REMARK    1  A    between atoms: O_1  and  C_2 
REMARK    2  A    between atoms: C_3  and  C_2 
REMARK    3  A    between atoms: C_5  and  N_15 
REMARK    4  A    between atoms: V_8  and  O_9 
REMARK    5  A    between atoms: V_8  and  O_10 
REMARK    6  A    between atoms: V_8  and  O_11 
ROOT
HETATM    1  C   UNK N   1       0.792  -1.771  -0.594  0.00  0.00     0.182 C 
HETATM    2  O   UNK N   1       0.001  -0.649  -0.240  0.00  0.00    -0.353 OA
HETATM    3  C   UNK N   1       0.864   0.238   0.457  0.00  0.00     0.267 C 
HETATM    4  C   UNK N   1       2.258  -0.135   0.005  0.00  0.00     0.244 C 
HETATM    5  O   UNK N   1       3.322   0.280   0.809  0.00  0.00    -0.228 OA
HETATM    6  V   UNK N   1       4.613  -1.096   0.229  0.00  0.00     0.000 V 
HETATM    7  O   UNK N   1       3.180  -2.270  -0.455  0.00  0.00    -0.229 OA
HETATM    8  C   UNK N   1       2.100  -1.605   0.123  0.00  0.00     0.227 C 
ENDROOT
BRANCH   3   9
HETATM    9  N   UNK N   1       0.432   1.641   0.266  0.00  0.00    -0.280 N 
HETATM   10  C   UNK N   1      -0.871   1.907   0.569  0.00  0.00     0.104 A 
HETATM   11  C   UNK N   1      -1.404   3.184   0.421  0.00  0.00     0.092 A 
HETATM   12  C   UNK N   1      -0.580   4.203  -0.032  0.00  0.00     0.250 A 
HETATM   13  O   UNK N   1      -1.022   5.329  -0.172  0.00  0.00    -0.268 OA
HETATM   14  N   UNK N   1       0.728   3.941  -0.321  0.00  0.00    -0.275 N 
HETATM   15  C   UNK N   1       1.246   2.679  -0.181  0.00  0.00     0.331 A 
HETATM   16  H   UNK N   1       1.310   4.670  -0.635  0.00  0.00     0.173 HD
HETATM   17  O   UNK N   1       2.418   2.495  -0.446  0.00  0.00    -0.246 OA
ENDBRANCH   3   9
BRANCH   1  18
HETATM   18  C   UNK N   1       0.111  -3.054  -0.144  0.00  0.00     0.199 C 
BRANCH  18  19
HETATM   19  O   UNK N   1       0.889  -4.164  -0.476  0.00  0.00    -0.398 OA
HETATM   20  H   UNK N   1       0.491  -5.018  -0.708  0.00  0.00     0.209 HD
ENDBRANCH  18  19
ENDBRANCH   1  18
BRANCH   6  21
HETATM   21  O   UNK N   1       4.881  -0.060  -1.436  0.00  0.00    -0.253 OA
HETATM   22  H   UNK N   1       5.387   0.079  -2.252  0.00  0.00     0.253 HD
ENDBRANCH   6  21
BRANCH   6  23
HETATM   23  O   UNK N   1       6.345  -0.301   0.811  0.00  0.00    -0.253 OA
HETATM   24  H   UNK N   1       7.101  -0.838   1.094  0.00  0.00     0.253 HD
ENDBRANCH   6  23
BRANCH   6  25
HETATM   25  O   UNK N   1       5.507  -2.626   0.389  0.00  0.00    -0.253 OA
ATOM     26  HO  UNK N   1       6.128  -3.289   0.110  1.00  0.00     0.253 HD
ENDBRANCH   6  25
TORSDOF 6
