REMARK  17 active torsions:
REMARK  status: ('A' for Active; 'I' for Inactive)
REMARK    1  A    between atoms: C_7  and  C_6 
REMARK    2  A    between atoms: C_12  and  C_6 
REMARK    3  A    between atoms: C_14  and  C_7 
REMARK    4  A    between atoms: C_15  and  C_8 
REMARK    5  A    between atoms: N_19  and  C_8 
REMARK    6  A    between atoms: C_11  and  C_9 
REMARK    7  A    between atoms: S_29  and  C_9 
REMARK    8  A    between atoms: C_13  and  C_10 
REMARK    9  A    between atoms: S_29  and  C_10 
REMARK   10  A    between atoms: C_17  and  C_12 
REMARK   11  A    between atoms: C_12  and  N_18 
REMARK   12  A    between atoms: C_16  and  C_13 
REMARK   13  A    between atoms: C_13  and  N_21 
REMARK   14  A    between atoms: C_14  and  O_23 
REMARK   15  A    between atoms: O_25  and  C_15 
REMARK   16  A    between atoms: O_26  and  C_16 
REMARK   17  A    between atoms: O_28  and  C_17 
ROOT
HETATM    1  C   UNK N   1       3.742   0.680  -0.054  0.00  0.00     0.167 C 
ENDROOT
BRANCH   1   2
HETATM    2  C   UNK N   1       2.500   1.320   0.551  0.00  0.00     0.107 C 
BRANCH   2   3
HETATM    3  S   UNK N   1       1.728   2.553  -0.541  0.00  0.00    -0.162 SA
BRANCH   3   4
HETATM    4  C   UNK N   1       0.216   2.568   0.479  0.00  0.00     0.112 C 
BRANCH   4   5
HETATM    5  C   UNK N   1      -0.692   1.415   0.185  0.00  0.00    -0.049 A 
HETATM    6  C   UNK N   1      -0.255   0.096   0.371  0.00  0.00     0.008 A 
HETATM    7  C   UNK N   1      -1.119  -0.975   0.133  0.00  0.00     0.001 A 
HETATM    8  C   UNK N   1      -2.431  -0.732  -0.279  0.00  0.00     0.000 A 
HETATM    9  C   UNK N   1      -2.876   0.582  -0.457  0.00  0.00     0.001 A 
HETATM   10  C   UNK N   1      -2.008   1.654  -0.224  0.00  0.00     0.008 A 
ENDBRANCH   4   5
ENDBRANCH   3   4
ENDBRANCH   2   3
ENDBRANCH   1   2
BRANCH   1  11
HETATM   11  C   UNK N   1       3.825  -0.769   0.401  0.00  0.00     0.136 C 
HETATM   12  N   UNK N   1       4.816  -1.500   0.020  0.00  0.00    -0.363 N 
ATOM     13  HN  UNK N   1       5.532  -1.083  -0.574  1.00  0.00     0.161 HD
BRANCH  12  14
HETATM   14  C   UNK N   1       4.951  -2.885   0.401  0.00  0.00     0.231 C 
BRANCH  14  15
HETATM   15  C   UNK N   1       6.340  -3.381   0.123  0.00  0.00     0.158 C 
HETATM   16  O   UNK N   1       7.206  -2.623  -0.284  0.00  0.00    -0.649 OA
BRANCH  15  17
HETATM   17  O   UNK N   1       6.636  -4.675   0.339  0.00  0.00    -0.775 OA
HETATM   18  H   UNK N   1       5.958  -5.305   0.490  0.00  0.00     0.167 HD
ENDBRANCH  15  17
ENDBRANCH  14  15
ENDBRANCH  12  14
BRANCH  11  19
HETATM   19  O   UNK N   1       2.861  -1.295   1.188  0.00  0.00    -0.348 OA
HETATM   20  H   UNK N   1       2.211  -0.898   1.734  0.00  0.00     0.219 HD
ENDBRANCH  11  19
ENDBRANCH   1  11
BRANCH   1  21
HETATM   21  N   UNK N   1       4.896   1.444   0.390  0.00  0.00    -0.362 N 
HETATM   22  C   UNK N   1       6.092   1.276  -0.069  0.00  0.00     0.111 C 
ATOM     23  HN  UNK N   1       4.753   2.156   1.107  1.00  0.00     0.162 HD
BRANCH  22  24
HETATM   24  C   UNK N   1       7.220   2.074   0.501  0.00  0.00     0.086 C 
BRANCH  24  25
HETATM   25  C   UNK N   1       8.163   2.488  -0.623  0.00  0.00     0.043 C 
BRANCH  25  26
HETATM   26  C   UNK N   1       9.639   2.238  -0.298  0.00  0.00     0.173 C 
BRANCH  26  27
HETATM   27  C   UNK N   1       9.970   0.800   0.032  0.00  0.00     0.163 C 
HETATM   28  O   UNK N   1      11.128   0.485   0.256  0.00  0.00    -0.648 OA
BRANCH  27  29
HETATM   29  O   UNK N   1       9.010  -0.145   0.080  0.00  0.00    -0.775 OA
HETATM   30  H   UNK N   1       8.108   0.105   0.113  0.00  0.00     0.167 HD
ENDBRANCH  27  29
ENDBRANCH  26  27
BRANCH  26  31
HETATM   31  N   UNK N   1      10.051   3.100   0.798  0.00  0.00    -0.418 N 
HETATM   32  H   UNK N   1      10.719   3.152   1.567  0.00  0.00     0.150 HD
HETATM   33  H   UNK N   1       9.473   3.941   0.798  0.00  0.00     0.150 HD
ENDBRANCH  26  31
ENDBRANCH  25  26
ENDBRANCH  24  25
ENDBRANCH  22  24
BRANCH  22  34
HETATM   34  O   UNK N   1       6.338   0.386  -1.053  0.00  0.00    -0.350 OA
HETATM   35  H   UNK N   1       5.888  -0.072  -1.736  0.00  0.00     0.219 HD
ENDBRANCH  22  34
ENDBRANCH   1  21
TORSDOF 17
