MODEL 1
REMARK VINA RESULT:      -6.6      0.000      0.000
REMARK  8 active torsions:
REMARK  status: ('A' for Active; 'I' for Inactive)
REMARK    1  A    between atoms: C_6  and  C_3 
REMARK    2  A    between atoms: O_20  and  C_3 
REMARK    3  A    between atoms: C_5  and  O_14 
REMARK    4  A    between atoms: C_7  and  N_13 
REMARK    5  A    between atoms: O_15  and  C_8 
REMARK    6  A    between atoms: P_22  and  O_17 
REMARK    7  A    between atoms: P_22  and  O_18 
REMARK    8  A    between atoms: P_22  and  O_20 
ROOT
HETATM    1  C   UNK N   1      20.611  16.626   8.544  0.00  0.00     0.088 C 
HETATM    2  C   UNK N   1      20.483  17.359   7.256  0.00  0.00     0.153 C 
HETATM    3  C   UNK N   1      21.549  16.663   6.444  0.00  0.00     0.177 C 
HETATM    4  C   UNK N   1      20.758  15.222   7.989  0.00  0.00     0.235 C 
HETATM    5  O   UNK N   1      21.549  15.305   6.820  0.00  0.00    -0.356 OA
ENDROOT
BRANCH   4   6
HETATM    6  N   UNK N   1      21.283  14.208   8.928  0.00  0.00    -0.279 N 
HETATM    7  C   UNK N   1      22.569  13.785   8.754  0.00  0.00     0.145 A 
HETATM    8  C   UNK N   1      23.105  12.771   9.543  0.00  0.00     0.182 A 
HETATM    9  C   UNK N   1      22.306  12.185  10.517  0.00  0.00     0.185 A 
HETATM   10  F   UNK N   1      24.382  12.359   9.348  0.00  0.00    -0.200 F 
HETATM   11  N   UNK N   1      21.027  12.603  10.681  0.00  0.00    -0.286 N 
HETATM   12  C   UNK N   1      20.498  13.597   9.896  0.00  0.00     0.330 A 
ATOM     13  HN  UNK N   1      20.447  12.172  11.401  1.00  0.00     0.172 HD
HETATM   14  O   UNK N   1      19.335  13.921  10.057  0.00  0.00    -0.246 OA
BRANCH   9  15
HETATM   15  O   UNK N   1      22.793  11.200  11.291  0.00  0.00    -0.344 OA
HETATM   16  H   UNK N   1      23.478  11.371  11.907  0.00  0.00     0.219 HD
ENDBRANCH   9  15
ENDBRANCH   4   6
BRANCH   2  17
HETATM   17  O   UNK N   1      20.756  18.718   7.414  0.00  0.00    -0.393 OA
HETATM   18  H   UNK N   1      20.593  19.338   8.141  0.00  0.00     0.210 HD
ENDBRANCH   2  17
BRANCH   3  19
HETATM   19  C   UNK N   1      21.262  16.769   4.958  0.00  0.00     0.215 C 
BRANCH  19  20
HETATM   20  O   UNK N   1      20.616  17.971   4.659  0.00  0.00    -0.294 OA
BRANCH  20  21
HETATM   21  P   UNK N   1      20.289  17.873   2.954  0.00  0.00     0.390 P 
HETATM   22  O   UNK N   1      20.234  19.407   3.188  0.00  0.00    -0.632 OA
BRANCH  21  23
HETATM   23  O   UNK N   1      18.731  18.296   2.318  0.00  0.00    -0.307 OA
HETATM   24  H   UNK N   1      17.894  17.946   2.661  0.00  0.00     0.222 HD
ENDBRANCH  21  23
BRANCH  21  25
HETATM   25  O   UNK N   1      19.021  17.106   3.858  0.00  0.00    -0.307 OA
HETATM   26  H   UNK N   1      18.071  17.203   3.686  0.00  0.00     0.222 HD
ENDBRANCH  21  25
ENDBRANCH  20  21
ENDBRANCH  19  20
ENDBRANCH   3  19
TORSDOF 8
ENDMDL
MODEL 2
REMARK VINA RESULT:      -6.5      6.457      7.096
REMARK  8 active torsions:
REMARK  status: ('A' for Active; 'I' for Inactive)
REMARK    1  A    between atoms: C_6  and  C_3 
REMARK    2  A    between atoms: O_20  and  C_3 
REMARK    3  A    between atoms: C_5  and  O_14 
REMARK    4  A    between atoms: C_7  and  N_13 
REMARK    5  A    between atoms: O_15  and  C_8 
REMARK    6  A    between atoms: P_22  and  O_17 
REMARK    7  A    between atoms: P_22  and  O_18 
REMARK    8  A    between atoms: P_22  and  O_20 
ROOT
HETATM    1  C   UNK N   1      26.240  20.347   3.635  0.00  0.00     0.088 C 
HETATM    2  C   UNK N   1      24.888  20.523   3.041  0.00  0.00     0.153 C 
HETATM    3  C   UNK N   1      24.232  19.235   3.482  0.00  0.00     0.177 C 
HETATM    4  C   UNK N   1      25.822  19.789   4.982  0.00  0.00     0.235 C 
HETATM    5  O   UNK N   1      24.722  18.929   4.766  0.00  0.00    -0.356 OA
ENDROOT
BRANCH   4   6
HETATM    6  N   UNK N   1      26.886  19.123   5.765  0.00  0.00    -0.279 N 
HETATM    7  C   UNK N   1      27.160  17.817   5.483  0.00  0.00     0.145 A 
HETATM    8  C   UNK N   1      28.086  17.098   6.233  0.00  0.00     0.182 A 
HETATM    9  C   UNK N   1      28.733  17.732   7.288  0.00  0.00     0.185 A 
HETATM   10  F   UNK N   1      28.337  15.798   5.943  0.00  0.00    -0.200 F 
HETATM   11  N   UNK N   1      28.452  19.028   7.568  0.00  0.00    -0.286 N 
HETATM   12  C   UNK N   1      27.531  19.732   6.832  0.00  0.00     0.330 A 
ATOM     13  HN  UNK N   1      28.933  19.490   8.341  1.00  0.00     0.172 HD
HETATM   14  O   UNK N   1      27.287  20.885   7.138  0.00  0.00    -0.246 OA
BRANCH   9  15
HETATM   15  O   UNK N   1      29.628  17.064   8.034  0.00  0.00    -0.344 OA
HETATM   16  H   UNK N   1      30.524  17.005   7.767  0.00  0.00     0.219 HD
ENDBRANCH   9  15
ENDBRANCH   4   6
BRANCH   2  17
HETATM   17  O   UNK N   1      24.952  20.623   1.652  0.00  0.00    -0.393 OA
HETATM   18  H   UNK N   1      24.997  21.383   1.052  0.00  0.00     0.210 HD
ENDBRANCH   2  17
BRANCH   3  19
HETATM   19  C   UNK N   1      22.724  19.384   3.545  0.00  0.00     0.215 C 
BRANCH  19  20
HETATM   20  O   UNK N   1      22.317  20.596   2.983  0.00  0.00    -0.294 OA
BRANCH  20  21
HETATM   21  P   UNK N   1      20.988  20.168   1.946  0.00  0.00     0.390 P 
HETATM   22  O   UNK N   1      22.061  20.597   0.908  0.00  0.00    -0.632 OA
BRANCH  21  23
HETATM   23  O   UNK N   1      20.154  21.374   1.019  0.00  0.00    -0.307 OA
HETATM   24  H   UNK N   1      20.118  22.312   1.262  0.00  0.00     0.222 HD
ENDBRANCH  21  23
BRANCH  21  25
HETATM   25  O   UNK N   1      20.568  21.529   2.937  0.00  0.00    -0.307 OA
HETATM   26  H   UNK N   1      20.769  22.457   2.732  0.00  0.00     0.222 HD
ENDBRANCH  21  25
ENDBRANCH  20  21
ENDBRANCH  19  20
ENDBRANCH   3  19
TORSDOF 8
ENDMDL
MODEL 3
REMARK VINA RESULT:      -6.5     15.197     16.499
REMARK  8 active torsions:
REMARK  status: ('A' for Active; 'I' for Inactive)
REMARK    1  A    between atoms: C_6  and  C_3 
REMARK    2  A    between atoms: O_20  and  C_3 
REMARK    3  A    between atoms: C_5  and  O_14 
REMARK    4  A    between atoms: C_7  and  N_13 
REMARK    5  A    between atoms: O_15  and  C_8 
REMARK    6  A    between atoms: P_22  and  O_17 
REMARK    7  A    between atoms: P_22  and  O_18 
REMARK    8  A    between atoms: P_22  and  O_20 
ROOT
HETATM    1  C   UNK N   1      34.709  11.636  13.932  0.00  0.00     0.088 C 
HETATM    2  C   UNK N   1      35.192  12.033  12.582  0.00  0.00     0.153 C 
HETATM    3  C   UNK N   1      35.650  13.444  12.866  0.00  0.00     0.177 C 
HETATM    4  C   UNK N   1      35.836  12.227  14.756  0.00  0.00     0.235 C 
HETATM    5  O   UNK N   1      36.200  13.458  14.163  0.00  0.00    -0.356 OA
ENDROOT
BRANCH   4   6
HETATM    6  N   UNK N   1      35.568  12.381  16.202  0.00  0.00    -0.279 N 
HETATM    7  C   UNK N   1      35.372  13.642  16.683  0.00  0.00     0.145 A 
HETATM    8  C   UNK N   1      35.200  13.875  18.044  0.00  0.00     0.182 A 
HETATM    9  C   UNK N   1      35.235  12.796  18.919  0.00  0.00     0.185 A 
HETATM   10  F   UNK N   1      35.016  15.137  18.502  0.00  0.00    -0.200 F 
HETATM   11  N   UNK N   1      35.437  11.545  18.438  0.00  0.00    -0.286 N 
HETATM   12  C   UNK N   1      35.616  11.319  17.096  0.00  0.00     0.330 A 
ATOM     13  HN  UNK N   1      35.458  10.756  19.085  1.00  0.00     0.172 HD
HETATM   14  O   UNK N   1      35.824  10.184  16.710  0.00  0.00    -0.246 OA
BRANCH   9  15
HETATM   15  O   UNK N   1      35.078  12.989  20.240  0.00  0.00    -0.344 OA
HETATM   16  H   UNK N   1      35.728  13.446  20.736  0.00  0.00     0.219 HD
ENDBRANCH   9  15
ENDBRANCH   4   6
BRANCH   2  17
HETATM   17  O   UNK N   1      34.161  12.002  11.643  0.00  0.00    -0.393 OA
HETATM   18  H   UNK N   1      33.443  11.372  11.481  0.00  0.00     0.210 HD
ENDBRANCH   2  17
BRANCH   3  19
HETATM   19  C   UNK N   1      36.707  13.886  11.872  0.00  0.00     0.215 C 
BRANCH  19  20
HETATM   20  O   UNK N   1      36.120  14.346  10.690  0.00  0.00    -0.294 OA
BRANCH  20  21
HETATM   21  P   UNK N   1      35.345  15.835  11.144  0.00  0.00     0.390 P 
HETATM   22  O   UNK N   1      34.671  15.544   9.775  0.00  0.00    -0.632 OA
BRANCH  21  23
HETATM   23  O   UNK N   1      35.638  17.299  10.260  0.00  0.00    -0.307 OA
HETATM   24  H   UNK N   1      36.179  18.032  10.593  0.00  0.00     0.222 HD
ENDBRANCH  21  23
BRANCH  21  25
HETATM   25  O   UNK N   1      37.045  16.086  10.907  0.00  0.00    -0.307 OA
HETATM   26  H   UNK N   1      37.649  16.489  11.552  0.00  0.00     0.222 HD
ENDBRANCH  21  25
ENDBRANCH  20  21
ENDBRANCH  19  20
ENDBRANCH   3  19
TORSDOF 8
ENDMDL
MODEL 4
REMARK VINA RESULT:      -6.5     13.899     15.221
REMARK  8 active torsions:
REMARK  status: ('A' for Active; 'I' for Inactive)
REMARK    1  A    between atoms: C_6  and  C_3 
REMARK    2  A    between atoms: O_20  and  C_3 
REMARK    3  A    between atoms: C_5  and  O_14 
REMARK    4  A    between atoms: C_7  and  N_13 
REMARK    5  A    between atoms: O_15  and  C_8 
REMARK    6  A    between atoms: P_22  and  O_17 
REMARK    7  A    between atoms: P_22  and  O_18 
REMARK    8  A    between atoms: P_22  and  O_20 
ROOT
HETATM    1  C   UNK N   1      36.782  13.733  11.621  0.00  0.00     0.088 C 
HETATM    2  C   UNK N   1      36.338  14.535  10.450  0.00  0.00     0.153 C 
HETATM    3  C   UNK N   1      34.842  14.343  10.545  0.00  0.00     0.177 C 
HETATM    4  C   UNK N   1      35.728  14.184  12.614  0.00  0.00     0.235 C 
HETATM    5  O   UNK N   1      34.507  14.311  11.913  0.00  0.00    -0.356 OA
ENDROOT
BRANCH   4   6
HETATM    6  N   UNK N   1      35.576  13.344  13.821  0.00  0.00    -0.279 N 
HETATM    7  C   UNK N   1      34.687  12.310  13.769  0.00  0.00     0.145 A 
HETATM    8  C   UNK N   1      34.425  11.530  14.891  0.00  0.00     0.182 A 
HETATM    9  C   UNK N   1      35.084  11.821  16.080  0.00  0.00     0.185 A 
HETATM   10  F   UNK N   1      33.531  10.513  14.822  0.00  0.00    -0.200 F 
HETATM   11  N   UNK N   1      35.961  12.853  16.129  0.00  0.00    -0.286 N 
HETATM   12  C   UNK N   1      36.210  13.627  15.023  0.00  0.00     0.330 A 
ATOM     13  HN  UNK N   1      36.445  13.059  17.003  1.00  0.00     0.172 HD
HETATM   14  O   UNK N   1      36.983  14.563  15.119  0.00  0.00    -0.246 OA
BRANCH   9  15
HETATM   15  O   UNK N   1      34.848  11.089  17.183  0.00  0.00    -0.344 OA
HETATM   16  H   UNK N   1      35.375  10.340  17.380  0.00  0.00     0.219 HD
ENDBRANCH   9  15
ENDBRANCH   4   6
BRANCH   2  17
HETATM   17  O   UNK N   1      36.851  14.023   9.258  0.00  0.00    -0.393 OA
HETATM   18  H   UNK N   1      37.505  14.361   8.629  0.00  0.00     0.210 HD
ENDBRANCH   2  17
BRANCH   3  19
HETATM   19  C   UNK N   1      34.101  15.486   9.877  0.00  0.00     0.215 C 
BRANCH  19  20
HETATM   20  O   UNK N   1      34.897  16.096   8.904  0.00  0.00    -0.294 OA
BRANCH  20  21
HETATM   21  P   UNK N   1      34.111  17.617   8.596  0.00  0.00     0.390 P 
HETATM   22  O   UNK N   1      34.759  17.322   7.215  0.00  0.00    -0.632 OA
BRANCH  21  23
HETATM   23  O   UNK N   1      35.035  19.055   8.298  0.00  0.00    -0.307 OA
HETATM   24  H   UNK N   1      35.251  19.384   7.411  0.00  0.00     0.222 HD
ENDBRANCH  21  23
BRANCH  21  25
HETATM   25  O   UNK N   1      35.357  17.810   9.787  0.00  0.00    -0.307 OA
HETATM   26  H   UNK N   1      36.085  18.452   9.741  0.00  0.00     0.222 HD
ENDBRANCH  21  25
ENDBRANCH  20  21
ENDBRANCH  19  20
ENDBRANCH   3  19
TORSDOF 8
ENDMDL
MODEL 5
REMARK VINA RESULT:      -6.4      4.663      8.032
REMARK  8 active torsions:
REMARK  status: ('A' for Active; 'I' for Inactive)
REMARK    1  A    between atoms: C_6  and  C_3 
REMARK    2  A    between atoms: O_20  and  C_3 
REMARK    3  A    between atoms: C_5  and  O_14 
REMARK    4  A    between atoms: C_7  and  N_13 
REMARK    5  A    between atoms: O_15  and  C_8 
REMARK    6  A    between atoms: P_22  and  O_17 
REMARK    7  A    between atoms: P_22  and  O_18 
REMARK    8  A    between atoms: P_22  and  O_20 
ROOT
HETATM    1  C   UNK N   1      22.282  16.261   4.248  0.00  0.00     0.088 C 
HETATM    2  C   UNK N   1      22.058  15.743   5.624  0.00  0.00     0.153 C 
HETATM    3  C   UNK N   1      21.494  16.977   6.287  0.00  0.00     0.177 C 
HETATM    4  C   UNK N   1      20.991  17.039   4.089  0.00  0.00     0.235 C 
HETATM    5  O   UNK N   1      20.699  17.643   5.333  0.00  0.00    -0.356 OA
ENDROOT
BRANCH   4   6
HETATM    6  N   UNK N   1      20.962  18.025   2.988  0.00  0.00    -0.279 N 
HETATM    7  C   UNK N   1      21.463  19.270   3.234  0.00  0.00     0.145 A 
HETATM    8  C   UNK N   1      21.392  20.277   2.277  0.00  0.00     0.182 A 
HETATM    9  C   UNK N   1      20.795  19.999   1.053  0.00  0.00     0.185 A 
HETATM   10  F   UNK N   1      21.888  21.510   2.545  0.00  0.00    -0.200 F 
HETATM   11  N   UNK N   1      20.292  18.763   0.814  0.00  0.00    -0.286 N 
HETATM   12  C   UNK N   1      20.355  17.774   1.765  0.00  0.00     0.330 A 
ATOM     13  HN  UNK N   1      19.858  18.563  -0.087  1.00  0.00     0.172 HD
HETATM   14  O   UNK N   1      19.864  16.687   1.520  0.00  0.00    -0.246 OA
BRANCH   9  15
HETATM   15  O   UNK N   1      20.706  20.952   0.110  0.00  0.00    -0.344 OA
HETATM   16  H   UNK N   1      20.951  21.836   0.300  0.00  0.00     0.219 HD
ENDBRANCH   9  15
ENDBRANCH   4   6
BRANCH   2  17
HETATM   17  O   UNK N   1      23.254  15.338   6.217  0.00  0.00    -0.393 OA
HETATM   18  H   UNK N   1      23.461  14.660   6.878  0.00  0.00     0.210 HD
ENDBRANCH   2  17
BRANCH   3  19
HETATM   19  C   UNK N   1      20.636  16.612   7.483  0.00  0.00     0.215 C 
BRANCH  19  20
HETATM   20  O   UNK N   1      20.313  15.252   7.470  0.00  0.00    -0.294 OA
BRANCH  20  21
HETATM   21  P   UNK N   1      20.659  14.710   9.086  0.00  0.00     0.390 P 
HETATM   22  O   UNK N   1      20.592  13.362   8.319  0.00  0.00    -0.632 OA
BRANCH  21  23
HETATM   23  O   UNK N   1      19.485  13.815   9.998  0.00  0.00    -0.307 OA
HETATM   24  H   UNK N   1      19.441  12.847  10.017  0.00  0.00     0.222 HD
ENDBRANCH  21  23
BRANCH  21  25
HETATM   25  O   UNK N   1      19.107  15.484   9.027  0.00  0.00    -0.307 OA
HETATM   26  H   UNK N   1      18.749  16.078   9.706  0.00  0.00     0.222 HD
ENDBRANCH  21  25
ENDBRANCH  20  21
ENDBRANCH  19  20
ENDBRANCH   3  19
TORSDOF 8
ENDMDL
MODEL 6
REMARK VINA RESULT:      -6.4     10.705     12.579
REMARK  8 active torsions:
REMARK  status: ('A' for Active; 'I' for Inactive)
REMARK    1  A    between atoms: C_6  and  C_3 
REMARK    2  A    between atoms: O_20  and  C_3 
REMARK    3  A    between atoms: C_5  and  O_14 
REMARK    4  A    between atoms: C_7  and  N_13 
REMARK    5  A    between atoms: O_15  and  C_8 
REMARK    6  A    between atoms: P_22  and  O_17 
REMARK    7  A    between atoms: P_22  and  O_18 
REMARK    8  A    between atoms: P_22  and  O_20 
ROOT
HETATM    1  C   UNK N   1      31.221  16.028   6.996  0.00  0.00     0.088 C 
HETATM    2  C   UNK N   1      32.587  15.796   7.537  0.00  0.00     0.153 C 
HETATM    3  C   UNK N   1      32.976  17.211   7.898  0.00  0.00     0.177 C 
HETATM    4  C   UNK N   1      30.733  17.017   8.036  0.00  0.00     0.235 C 
HETATM    5  O   UNK N   1      31.818  17.861   8.366  0.00  0.00    -0.356 OA
ENDROOT
BRANCH   4   6
HETATM    6  N   UNK N   1      29.530  17.797   7.672  0.00  0.00    -0.279 N 
HETATM    7  C   UNK N   1      29.250  17.953   6.347  0.00  0.00     0.145 A 
HETATM    8  C   UNK N   1      28.186  18.744   5.924  0.00  0.00     0.182 A 
HETATM    9  C   UNK N   1      27.406  19.386   6.880  0.00  0.00     0.185 A 
HETATM   10  F   UNK N   1      27.929  18.894   4.602  0.00  0.00    -0.200 F 
HETATM   11  N   UNK N   1      27.692  19.234   8.195  0.00  0.00    -0.286 N 
HETATM   12  C   UNK N   1      28.748  18.460   8.609  0.00  0.00     0.330 A 
ATOM     13  HN  UNK N   1      27.114  19.704   8.892  1.00  0.00     0.172 HD
HETATM   14  O   UNK N   1      28.989  18.376   9.799  0.00  0.00    -0.246 OA
BRANCH   9  15
HETATM   15  O   UNK N   1      26.375  20.162   6.503  0.00  0.00    -0.344 OA
HETATM   16  H   UNK N   1      26.493  20.834   5.861  0.00  0.00     0.219 HD
ENDBRANCH   9  15
ENDBRANCH   4   6
BRANCH   2  17
HETATM   17  O   UNK N   1      33.433  15.257   6.568  0.00  0.00    -0.393 OA
HETATM   18  H   UNK N   1      34.191  15.620   6.086  0.00  0.00     0.210 HD
ENDBRANCH   2  17
BRANCH   3  19
HETATM   19  C   UNK N   1      34.032  17.226   8.987  0.00  0.00     0.215 C 
BRANCH  19  20
HETATM   20  O   UNK N   1      34.582  15.955   9.167  0.00  0.00    -0.294 OA
BRANCH  20  21
HETATM   21  P   UNK N   1      35.312  16.020  10.745  0.00  0.00     0.390 P 
HETATM   22  O   UNK N   1      35.593  17.454  10.218  0.00  0.00    -0.632 OA
BRANCH  21  23
HETATM   23  O   UNK N   1      37.031  16.159  10.928  0.00  0.00    -0.307 OA
HETATM   24  H   UNK N   1      37.461  16.776  11.540  0.00  0.00     0.222 HD
ENDBRANCH  21  23
BRANCH  21  25
HETATM   25  O   UNK N   1      36.136  14.867   9.744  0.00  0.00    -0.307 OA
HETATM   26  H   UNK N   1      36.848  15.074   9.117  0.00  0.00     0.222 HD
ENDBRANCH  21  25
ENDBRANCH  20  21
ENDBRANCH  19  20
ENDBRANCH   3  19
TORSDOF 8
ENDMDL
MODEL 7
REMARK VINA RESULT:      -6.2      2.067      3.048
REMARK  8 active torsions:
REMARK  status: ('A' for Active; 'I' for Inactive)
REMARK    1  A    between atoms: C_6  and  C_3 
REMARK    2  A    between atoms: O_20  and  C_3 
REMARK    3  A    between atoms: C_5  and  O_14 
REMARK    4  A    between atoms: C_7  and  N_13 
REMARK    5  A    between atoms: O_15  and  C_8 
REMARK    6  A    between atoms: P_22  and  O_17 
REMARK    7  A    between atoms: P_22  and  O_18 
REMARK    8  A    between atoms: P_22  and  O_20 
ROOT
HETATM    1  C   UNK N   1      21.021  13.260   7.342  0.00  0.00     0.088 C 
HETATM    2  C   UNK N   1      20.636  14.442   6.527  0.00  0.00     0.153 C 
HETATM    3  C   UNK N   1      20.307  15.428   7.623  0.00  0.00     0.177 C 
HETATM    4  C   UNK N   1      21.847  13.972   8.395  0.00  0.00     0.235 C 
HETATM    5  O   UNK N   1      21.208  15.200   8.681  0.00  0.00    -0.356 OA
ENDROOT
BRANCH   4   6
HETATM    6  N   UNK N   1      22.125  13.204   9.627  0.00  0.00    -0.279 N 
HETATM    7  C   UNK N   1      21.060  12.787  10.370  0.00  0.00     0.145 A 
HETATM    8  C   UNK N   1      21.243  12.135  11.586  0.00  0.00     0.182 A 
HETATM    9  C   UNK N   1      22.537  11.915  12.043  0.00  0.00     0.185 A 
HETATM   10  F   UNK N   1      20.171  11.736  12.314  0.00  0.00    -0.200 F 
HETATM   11  N   UNK N   1      23.592  12.338  11.305  0.00  0.00    -0.286 N 
HETATM   12  C   UNK N   1      23.409  12.989  10.110  0.00  0.00     0.330 A 
ATOM     13  HN  UNK N   1      24.540  12.170  11.642  1.00  0.00     0.172 HD
HETATM   14  O   UNK N   1      24.384  13.379   9.494  0.00  0.00    -0.246 OA
BRANCH   9  15
HETATM   15  O   UNK N   1      22.746  11.294  13.216  0.00  0.00    -0.344 OA
HETATM   16  H   UNK N   1      22.522  10.390  13.324  0.00  0.00     0.219 HD
ENDBRANCH   9  15
ENDBRANCH   4   6
BRANCH   2  17
HETATM   17  O   UNK N   1      19.528  14.170   5.725  0.00  0.00    -0.393 OA
HETATM   18  H   UNK N   1      19.441  13.895   4.800  0.00  0.00     0.210 HD
ENDBRANCH   2  17
BRANCH   3  19
HETATM   19  C   UNK N   1      20.458  16.857   7.138  0.00  0.00     0.215 C 
BRANCH  19  20
HETATM   20  O   UNK N   1      20.464  16.913   5.742  0.00  0.00    -0.294 OA
BRANCH  20  21
HETATM   21  P   UNK N   1      21.628  18.148   5.364  0.00  0.00     0.390 P 
HETATM   22  O   UNK N   1      20.997  18.711   6.666  0.00  0.00    -0.632 OA
BRANCH  21  23
HETATM   23  O   UNK N   1      21.121  19.735   4.881  0.00  0.00    -0.307 OA
HETATM   24  H   UNK N   1      21.733  20.449   4.645  0.00  0.00     0.222 HD
ENDBRANCH  21  23
BRANCH  21  25
HETATM   25  O   UNK N   1      20.415  18.061   4.126  0.00  0.00    -0.307 OA
HETATM   26  H   UNK N   1      20.310  18.693   3.397  0.00  0.00     0.222 HD
ENDBRANCH  21  25
ENDBRANCH  20  21
ENDBRANCH  19  20
ENDBRANCH   3  19
TORSDOF 8
ENDMDL
MODEL 8
REMARK VINA RESULT:      -6.2     11.646     13.730
REMARK  8 active torsions:
REMARK  status: ('A' for Active; 'I' for Inactive)
REMARK    1  A    between atoms: C_6  and  C_3 
REMARK    2  A    between atoms: O_20  and  C_3 
REMARK    3  A    between atoms: C_5  and  O_14 
REMARK    4  A    between atoms: C_7  and  N_13 
REMARK    5  A    between atoms: O_15  and  C_8 
REMARK    6  A    between atoms: P_22  and  O_17 
REMARK    7  A    between atoms: P_22  and  O_18 
REMARK    8  A    between atoms: P_22  and  O_20 
ROOT
HETATM    1  C   UNK N   1      33.512  18.014   8.336  0.00  0.00     0.088 C 
HETATM    2  C   UNK N   1      34.601  17.140   8.846  0.00  0.00     0.153 C 
HETATM    3  C   UNK N   1      33.785  16.023   9.454  0.00  0.00     0.177 C 
HETATM    4  C   UNK N   1      32.612  16.938   7.759  0.00  0.00     0.235 C 
HETATM    5  O   UNK N   1      32.656  15.829   8.635  0.00  0.00    -0.356 OA
ENDROOT
BRANCH   4   6
HETATM    6  N   UNK N   1      31.220  17.346   7.470  0.00  0.00    -0.279 N 
HETATM    7  C   UNK N   1      30.461  17.799   8.508  0.00  0.00     0.145 A 
HETATM    8  C   UNK N   1      29.118  18.119   8.332  0.00  0.00     0.182 A 
HETATM    9  C   UNK N   1      28.551  17.966   7.072  0.00  0.00     0.185 A 
HETATM   10  F   UNK N   1      28.378  18.560   9.379  0.00  0.00    -0.200 F 
HETATM   11  N   UNK N   1      29.308  17.508   6.045  0.00  0.00    -0.286 N 
HETATM   12  C   UNK N   1      30.629  17.184   6.224  0.00  0.00     0.330 A 
ATOM     13  HN  UNK N   1      28.887  17.401   5.121  1.00  0.00     0.172 HD
HETATM   14  O   UNK N   1      31.264  16.748   5.281  0.00  0.00    -0.246 OA
BRANCH   9  15
HETATM   15  O   UNK N   1      27.256  18.261   6.871  0.00  0.00    -0.344 OA
HETATM   16  H   UNK N   1      26.584  17.657   7.121  0.00  0.00     0.219 HD
ENDBRANCH   9  15
ENDBRANCH   4   6
BRANCH   2  17
HETATM   17  O   UNK N   1      35.375  17.796   9.803  0.00  0.00    -0.393 OA
HETATM   18  H   UNK N   1      36.162  18.357   9.735  0.00  0.00     0.210 HD
ENDBRANCH   2  17
BRANCH   3  19
HETATM   19  C   UNK N   1      34.583  14.734   9.516  0.00  0.00     0.215 C 
BRANCH  19  20
HETATM   20  O   UNK N   1      35.533  14.784  10.539  0.00  0.00    -0.294 OA
BRANCH  20  21
HETATM   21  P   UNK N   1      36.983  14.155   9.812  0.00  0.00     0.390 P 
HETATM   22  O   UNK N   1      36.645  13.038  10.836  0.00  0.00    -0.632 OA
BRANCH  21  23
HETATM   23  O   UNK N   1      38.453  14.021  10.724  0.00  0.00    -0.307 OA
HETATM   24  H   UNK N   1      38.546  14.311  11.645  0.00  0.00     0.222 HD
ENDBRANCH  21  23
BRANCH  21  25
HETATM   25  O   UNK N   1      37.322  15.630  10.661  0.00  0.00    -0.307 OA
HETATM   26  H   UNK N   1      37.769  16.406  10.284  0.00  0.00     0.222 HD
ENDBRANCH  21  25
ENDBRANCH  20  21
ENDBRANCH  19  20
ENDBRANCH   3  19
TORSDOF 8
ENDMDL
MODEL 9
REMARK VINA RESULT:      -6.2     11.203     13.099
REMARK  8 active torsions:
REMARK  status: ('A' for Active; 'I' for Inactive)
REMARK    1  A    between atoms: C_6  and  C_3 
REMARK    2  A    between atoms: O_20  and  C_3 
REMARK    3  A    between atoms: C_5  and  O_14 
REMARK    4  A    between atoms: C_7  and  N_13 
REMARK    5  A    between atoms: O_15  and  C_8 
REMARK    6  A    between atoms: P_22  and  O_17 
REMARK    7  A    between atoms: P_22  and  O_18 
REMARK    8  A    between atoms: P_22  and  O_20 
ROOT
HETATM    1  C   UNK N   1      32.998  17.702   5.743  0.00  0.00     0.088 C 
HETATM    2  C   UNK N   1      33.867  17.269   6.869  0.00  0.00     0.153 C 
HETATM    3  C   UNK N   1      32.825  17.031   7.936  0.00  0.00     0.177 C 
HETATM    4  C   UNK N   1      31.885  16.686   5.915  0.00  0.00     0.235 C 
HETATM    5  O   UNK N   1      31.682  16.505   7.302  0.00  0.00    -0.356 OA
ENDROOT
BRANCH   4   6
HETATM    6  N   UNK N   1      30.617  16.991   5.217  0.00  0.00    -0.279 N 
HETATM    7  C   UNK N   1      29.578  17.466   5.963  0.00  0.00     0.145 A 
HETATM    8  C   UNK N   1      28.329  17.694   5.394  0.00  0.00     0.182 A 
HETATM    9  C   UNK N   1      28.148  17.425   4.042  0.00  0.00     0.185 A 
HETATM   10  F   UNK N   1      27.307  18.156   6.155  0.00  0.00    -0.200 F 
HETATM   11  N   UNK N   1      29.181  16.948   3.307  0.00  0.00    -0.286 N 
HETATM   12  C   UNK N   1      30.410  16.715   3.873  0.00  0.00     0.330 A 
ATOM     13  HN  UNK N   1      29.044  16.757   2.314  1.00  0.00     0.172 HD
HETATM   14  O   UNK N   1      31.302  16.257   3.182  0.00  0.00    -0.246 OA
BRANCH   9  15
HETATM   15  O   UNK N   1      26.952  17.630   3.465  0.00  0.00    -0.344 OA
HETATM   16  H   UNK N   1      26.183  17.210   3.798  0.00  0.00     0.219 HD
ENDBRANCH   9  15
ENDBRANCH   4   6
BRANCH   2  17
HETATM   17  O   UNK N   1      34.764  18.272   7.235  0.00  0.00    -0.393 OA
HETATM   18  H   UNK N   1      35.425  18.774   6.734  0.00  0.00     0.210 HD
ENDBRANCH   2  17
BRANCH   3  19
HETATM   19  C   UNK N   1      33.320  16.041   8.974  0.00  0.00     0.215 C 
BRANCH  19  20
HETATM   20  O   UNK N   1      34.707  15.889   8.897  0.00  0.00    -0.294 OA
BRANCH  20  21
HETATM   21  P   UNK N   1      35.242  15.963  10.550  0.00  0.00     0.390 P 
HETATM   22  O   UNK N   1      35.524  17.414  10.071  0.00  0.00    -0.632 OA
BRANCH  21  23
HETATM   23  O   UNK N   1      36.921  16.168  10.936  0.00  0.00    -0.307 OA
HETATM   24  H   UNK N   1      37.364  15.720  11.673  0.00  0.00     0.222 HD
ENDBRANCH  21  23
BRANCH  21  25
HETATM   25  O   UNK N   1      36.226  14.857   9.645  0.00  0.00    -0.307 OA
HETATM   26  H   UNK N   1      36.641  15.045   8.788  0.00  0.00     0.222 HD
ENDBRANCH  21  25
ENDBRANCH  20  21
ENDBRANCH  19  20
ENDBRANCH   3  19
TORSDOF 8
ENDMDL
