REMARK  11 active torsions:
REMARK  status: ('A' for Active; 'I' for Inactive)
REMARK    1  A    between atoms: C_1  and  N_2 
REMARK    2  A    between atoms: C_1  and  C_3 
REMARK    3  A    between atoms: C_1  and  C_4 
REMARK       I    between atoms: N_2  and  C_5 
REMARK    4  A    between atoms: C_3  and  C_6 
REMARK    5  A    between atoms: C_4  and  O_7 
REMARK    6  A    between atoms: C_5  and  C_9 
REMARK    7  A    between atoms: C_6  and  C_11 
REMARK    8  A    between atoms: C_9  and  C_12 
REMARK    9  A    between atoms: C_11  and  N_13 
REMARK   10  A    between atoms: C_12  and  C_14 
REMARK   11  A    between atoms: C_14  and  O_15 
ROOT
HETATM    1  C   UNK N   1       1.047  -1.161  -0.007  0.00  0.00     0.182 C 
ENDROOT
BRANCH   1   2
HETATM    2  N   UNK N   1       1.791   0.020   0.375  0.00  0.00    -0.347 N 
HETATM    3  C   UNK N   1       1.396   1.288   0.091  0.00  0.00     0.218 C 
HETATM    4  O   UNK N   1       2.112   2.221   0.413  0.00  0.00    -0.274 OA
HETATM    5  H   UNK N   1       2.633  -0.102   0.871  0.00  0.00     0.163 HD
BRANCH   3   6
HETATM    6  C   UNK N   1       0.108   1.579  -0.620  0.00  0.00     0.113 C 
BRANCH   6   7
HETATM    7  C   UNK N   1      -1.059   1.353   0.326  0.00  0.00     0.119 C 
BRANCH   7   8
HETATM    8  C   UNK N   1      -2.272   2.085  -0.137  0.00  0.00     0.139 C 
HETATM    9  O   UNK N   1      -3.309   1.479  -0.342  0.00  0.00    -0.650 OA
BRANCH   8  10
HETATM   10  O   UNK N   1      -2.234   3.423  -0.288  0.00  0.00    -0.776 OA
HETATM   11  H   UNK N   1      -1.415   3.865  -0.393  0.00  0.00     0.167 HD
ENDBRANCH   8  10
ENDBRANCH   7   8
ENDBRANCH   6   7
ENDBRANCH   3   6
ENDBRANCH   1   2
BRANCH   1  12
HETATM   12  C   UNK N   1      -0.017  -1.468   1.050  0.00  0.00     0.037 C 
BRANCH  12  13
HETATM   13  C   UNK N   1      -0.974  -2.569   0.607  0.00  0.00     0.022 C 
BRANCH  13  14
HETATM   14  C   UNK N   1      -1.991  -2.053  -0.396  0.00  0.00     0.111 C 
BRANCH  14  15
HETATM   15  N   UNK N   1      -3.128  -1.489   0.307  0.00  0.00    -0.430 N 
HETATM   16  H   UNK N   1      -3.185  -0.599   0.802  0.00  0.00     0.149 HD
HETATM   17  H   UNK N   1      -3.977  -2.054   0.307  0.00  0.00     0.149 HD
ENDBRANCH  14  15
ENDBRANCH  13  14
ENDBRANCH  12  13
ENDBRANCH   1  12
BRANCH   1  18
HETATM   18  C   UNK N   1       1.987  -2.332  -0.172  0.00  0.00     0.163 C 
HETATM   19  O   UNK N   1       3.180  -2.211   0.067  0.00  0.00    -0.648 OA
BRANCH  18  20
HETATM   20  O   UNK N   1       1.517  -3.519  -0.598  0.00  0.00    -0.775 OA
HETATM   21  H   UNK N   1       0.637  -3.648  -0.894  0.00  0.00     0.167 HD
ENDBRANCH  18  20
ENDBRANCH   1  18
TORSDOF 11
