REMARK  6 active torsions:
REMARK  status: ('A' for Active; 'I' for Inactive)
REMARK    1  A    between atoms: C_2  and  N_1 
REMARK    2  A    between atoms: C_2  and  C_3 
REMARK    3  A    between atoms: C_2  and  C_11 
REMARK    4  A    between atoms: C_3  and  C_4 
REMARK    5  A    between atoms: C_8  and  O_9 
REMARK    6  A    between atoms: C_11  and  O_12 
ROOT
HETATM    1  C   UNK N   1       2.383  -0.967  -0.051  0.00  0.00     0.074 C 
ENDROOT
BRANCH   1   2
HETATM    2  C   UNK N   1       3.663  -0.164   0.235  0.00  0.00     0.177 C 
BRANCH   2   3
HETATM    3  N   UNK N   1       3.793   0.952  -0.686  0.00  0.00    -0.417 N 
HETATM    4  H   UNK N   1       4.517   1.264  -1.333  0.00  0.00     0.150 HD
HETATM    5  H   UNK N   1       2.975   1.561  -0.686  0.00  0.00     0.150 HD
ENDBRANCH   2   3
BRANCH   2   6
HETATM    6  C   UNK N   1       4.889  -1.034   0.122  0.00  0.00     0.163 C 
HETATM    7  O   UNK N   1       4.800  -2.211  -0.187  0.00  0.00    -0.648 OA
BRANCH   6   8
HETATM    8  O   UNK N   1       6.104  -0.499   0.351  0.00  0.00    -0.775 OA
HETATM    9  H   UNK N   1       6.849  -1.045   0.510  0.00  0.00     0.167 HD
ENDBRANCH   6   8
ENDBRANCH   2   6
ENDBRANCH   1   2
BRANCH   1  10
HETATM   10  C   UNK N   1       1.076  -0.223  -0.003  0.00  0.00    -0.053 A 
HETATM   11  C   UNK N   1      -0.111  -0.964  -0.053  0.00  0.00     0.007 A 
HETATM   12  C   UNK N   1      -1.350  -0.319  -0.027  0.00  0.00     0.003 A 
HETATM   13  C   UNK N   1      -1.410   1.076   0.035  0.00  0.00     0.036 A 
HETATM   14  C   UNK N   1      -0.231   1.824   0.077  0.00  0.00     0.066 A 
HETATM   15  C   UNK N   1       1.008   1.177   0.063  0.00  0.00     0.043 A 
BRANCH  14  16
HETATM   16  O   UNK N   1      -0.289   3.165   0.124  0.00  0.00    -0.361 OA
HETATM   17  H   UNK N   1       0.502   3.667   0.157  0.00  0.00     0.217 HD
ENDBRANCH  14  16
ENDBRANCH   1  10
TORSDOF 6
